REMARK  5 active torsions:
REMARK  status: ('A' for Active; 'I' for Inactive)
REMARK       I    between atoms: C1_2  and  N1_3 
REMARK       I    between atoms: C1_2  and  N2_15 
REMARK    1  A    between atoms: N1_3  and  C2_5 
REMARK    2  A    between atoms: C5_8  and  C6_9 
REMARK    3  A    between atoms: N3_23  and  C15_24 
REMARK    4  A    between atoms: C15_24  and  O3_25 
REMARK    5  A    between atoms: C15_24  and  C16_27 
ROOT
HETATM    1  O1  UNL     1       2.997  -0.545   2.079  1.00  0.00    -0.247 OA
HETATM    2  C1  UNL     1       2.569  -0.780   0.921  1.00  0.00     0.322 C 
HETATM    3  N1  UNL     1       3.357  -0.543  -0.231  1.00  0.00    -0.309 N 
ATOM      4  H1  UNL     1       2.938  -0.753  -1.137  1.00  0.00     0.170 HD
HETATM    5  N2  UNL     1       1.252  -1.301   0.819  1.00  0.00    -0.334 N 
HETATM    6  C9  UNL     1       0.463  -1.566   2.029  1.00  0.00     0.128 C 
HETATM    7  C10 UNL     1      -0.908  -0.982   1.880  1.00  0.00     0.031 C 
HETATM    8  C11 UNL     1      -1.604  -1.424   0.631  1.00  0.00    -0.020 C 
HETATM    9  C12 UNL     1      -2.802  -2.310   1.014  1.00  0.00     0.020 C 
HETATM   10  C13 UNL     1      -3.274  -2.982  -0.245  1.00  0.00     0.104 C 
HETATM   11  C14 UNL     1      -3.621  -1.902  -1.231  1.00  0.00     0.225 C 
HETATM   12  O2  UNL     1      -4.034  -2.110  -2.388  1.00  0.00    -0.273 OA
HETATM   13  N3  UNL     1      -3.451  -0.525  -0.773  1.00  0.00    -0.297 N 
HETATM   14  C22 UNL     1      -2.272  -0.207  -0.021  1.00  0.00     0.144 C 
HETATM   15  C23 UNL     1      -0.706  -2.202  -0.243  1.00  0.00     0.031 C 
HETATM   16  C24 UNL     1       0.645  -1.567  -0.438  1.00  0.00     0.128 C 
ENDROOT
BRANCH  13  17
HETATM   17  C15 UNL     1      -4.496   0.362  -1.006  1.00  0.00     0.155 C 
BRANCH  17  18
HETATM   18  O3  UNL     1      -5.323   0.010  -1.977  1.00  0.00    -0.345 OA
ATOM     19  H3  UNL     1      -6.037   0.616  -2.136  1.00  0.00     0.219 HD
ENDBRANCH  17  18
BRANCH  17  20
HETATM   20  C16 UNL     1      -4.845   1.618  -0.365  1.00  0.00     0.015 A 
HETATM   21  C17 UNL     1      -5.551   2.544  -1.117  1.00  0.00     0.019 A 
HETATM   22  C18 UNL     1      -6.044   3.700  -0.562  1.00  0.00     0.043 A 
HETATM   23  C19 UNL     1      -5.875   4.019   0.763  1.00  0.00     0.116 A 
HETATM   24  F4  UNL     1      -6.360   5.136   1.350  1.00  0.00    -0.206 F 
HETATM   25  C20 UNL     1      -5.179   3.115   1.510  1.00  0.00     0.043 A 
HETATM   26  C21 UNL     1      -4.668   1.925   0.960  1.00  0.00     0.019 A 
ENDBRANCH  17  20
ENDBRANCH  13  17
BRANCH   3  27
HETATM   27  C2  UNL     1       4.682  -0.037  -0.229  1.00  0.00     0.036 A 
HETATM   28  C3  UNL     1       5.155   0.632  -1.362  1.00  0.00     0.030 A 
HETATM   29  C4  UNL     1       6.433   1.160  -1.430  1.00  0.00     0.018 A 
HETATM   30  C5  UNL     1       7.313   1.041  -0.359  1.00  0.00     0.048 A 
HETATM   31  C7  UNL     1       6.862   0.388   0.760  1.00  0.00     0.018 A 
HETATM   32  C8  UNL     1       5.572  -0.137   0.811  1.00  0.00     0.030 A 
BRANCH  30  33
HETATM   33  C6  UNL     1       8.672   1.645  -0.434  1.00  0.00     0.417 C 
HETATM   34  F1  UNL     1       8.731   2.533  -1.505  1.00  0.00    -0.166 F 
HETATM   35  F2  UNL     1       9.622   0.658  -0.530  1.00  0.00    -0.166 F 
HETATM   36  F3  UNL     1       8.962   2.401   0.677  1.00  0.00    -0.166 F 
ENDBRANCH  30  33
ENDBRANCH   3  27
TORSDOF 5
