REMARK  3 active torsions:
REMARK  status: ('A' for Active; 'I' for Inactive)
REMARK       I    between atoms: N1_10  and  C9_11 
REMARK    1  A    between atoms: C9_11  and  C10_13 
REMARK    2  A    between atoms: C18_22  and  O3_23 
REMARK    3  A    between atoms: C18_22  and  C19_25 
ROOT
HETATM    1  C1  UNL     1      -3.215   2.975   1.324  1.00  0.00     0.015 C 
HETATM    2  C2  UNL     1      -3.115   1.446   1.030  1.00  0.00    -0.039 A 
HETATM    3  C3  UNL     1      -4.406   0.871   0.655  1.00  0.00     0.010 C 
HETATM    4  C4  UNL     1      -4.480   0.417  -0.782  1.00  0.00     0.001 C 
HETATM    5  C5  UNL     1      -3.265   0.921  -1.436  1.00  0.00     0.001 C 
HETATM    6  C6  UNL     1      -2.029   0.080  -1.434  1.00  0.00     0.023 C 
HETATM    7  C7  UNL     1      -1.370  -0.144  -0.093  1.00  0.00     0.086 C 
HETATM    8  C8  UNL     1       0.051   0.256  -0.426  1.00  0.00     0.239 C 
HETATM    9  O1  UNL     1       0.066   1.358  -1.054  1.00  0.00    -0.272 OA
HETATM   10  N1  UNL     1       1.342  -0.208  -0.257  1.00  0.00    -0.287 N 
HETATM   11  C9  UNL     1       2.378   0.270  -1.125  1.00  0.00     0.230 C 
HETATM   12  O2  UNL     1       1.981   1.097  -2.017  1.00  0.00    -0.273 OA
HETATM   13  C15 UNL     1       1.761  -1.164   0.741  1.00  0.00     0.136 C 
HETATM   14  C16 UNL     1       0.726  -1.140   1.808  1.00  0.00     0.039 C 
HETATM   15  C17 UNL     1      -0.434  -1.962   1.432  1.00  0.00     0.104 C 
HETATM   16 BR1  UNL     1       0.513  -3.680   1.160  1.00  0.00    -0.088 Br
HETATM   17  C18 UNL     1      -1.387  -1.582   0.392  1.00  0.00     0.185 C 
HETATM   18  C20 UNL     1      -1.842   0.847   0.941  1.00  0.00     0.015 A 
HETATM   19  C21 UNL     1      -2.462   0.699   2.220  1.00  0.00     0.016 A 
ENDROOT
BRANCH  17  20
HETATM   20  O3  UNL     1      -2.682  -1.685   1.007  1.00  0.00    -0.379 OA
ATOM     21  H3  UNL     1      -2.693  -2.585   1.311  1.00  0.00     0.211 HD
ENDBRANCH  17  20
BRANCH  17  22
HETATM   22  C19 UNL     1      -1.569  -2.704  -0.544  1.00  0.00     0.420 C 
HETATM   23  F1  UNL     1      -2.731  -2.800  -1.288  1.00  0.00    -0.168 F 
HETATM   24  F2  UNL     1      -1.916  -3.821   0.273  1.00  0.00    -0.168 F 
HETATM   25  F3  UNL     1      -0.458  -3.063  -1.259  1.00  0.00    -0.168 F 
ENDBRANCH  17  22
BRANCH  11  26
HETATM   26  C10 UNL     1       3.780  -0.083  -1.083  1.00  0.00     0.078 C 
HETATM   27  C11 UNL     1       4.646   0.634  -0.109  1.00  0.00     0.014 C 
HETATM   28  C12 UNL     1       6.042   0.545  -0.745  1.00  0.00     0.001 C 
HETATM   29  C13 UNL     1       5.853   0.082  -2.151  1.00  0.00     0.001 C 
HETATM   30  C14 UNL     1       4.406   0.340  -2.424  1.00  0.00     0.014 C 
ENDBRANCH  11  26
TORSDOF 3
