REMARK  5 active torsions:
REMARK  status: ('A' for Active; 'I' for Inactive)
REMARK    1  A    between atoms: C6_7  and  N1_8 
REMARK       I    between atoms: N1_8  and  C7_10 
REMARK       I    between atoms: C7_10  and  N2_12 
REMARK    2  A    between atoms: N3_15  and  C10_16 
REMARK    3  A    between atoms: C10_16  and  O2_17 
REMARK    4  A    between atoms: C10_16  and  N4_19 
REMARK    5  A    between atoms: C13_22  and  C14_23 
ROOT
HETATM    1  N1  UNL     1      -2.982  -0.166  -0.774  1.00  0.00    -0.338 N 
ATOM      2  H1  UNL     1      -2.831   0.634  -0.160  1.00  0.00     0.164 HD
HETATM    3  C7  UNL     1      -1.859  -0.843  -1.318  1.00  0.00     0.319 C 
HETATM    4  O1  UNL     1      -2.079  -1.830  -2.074  1.00  0.00    -0.247 OA
HETATM    5  N2  UNL     1      -0.558  -0.420  -1.018  1.00  0.00    -0.326 N 
HETATM    6  C8  UNL     1       0.562  -1.140  -1.592  1.00  0.00     0.148 C 
HETATM    7  C9  UNL     1       1.787  -0.998  -0.693  1.00  0.00     0.147 C 
HETATM    8  N3  UNL     1       2.091   0.395  -0.383  1.00  0.00    -0.339 N 
HETATM    9  C17 UNL     1       1.014   1.356  -0.549  1.00  0.00     0.110 C 
HETATM   10  C18 UNL     1       1.065   2.635   0.171  1.00  0.00     0.027 C 
HETATM   11  C19 UNL     1       0.829   2.555   1.652  1.00  0.00     0.002 C 
HETATM   12  C20 UNL     1      -0.432   1.773   1.985  1.00  0.00     0.002 C 
HETATM   13  C21 UNL     1      -0.244   0.404   1.302  1.00  0.00     0.027 C 
HETATM   14  C22 UNL     1      -0.301   0.687  -0.173  1.00  0.00     0.112 C 
ENDROOT
BRANCH   8  15
HETATM   15  C10 UNL     1       3.358   0.743   0.041  1.00  0.00     0.217 C 
BRANCH  15  16
HETATM   16  O2  UNL     1       3.544   2.024   0.219  1.00  0.00    -0.332 OA
ATOM     17  H2  UNL     1       4.416   2.263   0.511  1.00  0.00     0.220 HD
ENDBRANCH  15  16
BRANCH  15  18
HETATM   18  N4  UNL     1       4.486  -0.000   0.319  1.00  0.00    -0.344 N 
HETATM   19  C11 UNL     1       5.745   0.756   0.749  1.00  0.00     0.154 C 
HETATM   20  C12 UNL     1       6.917   0.142   0.071  1.00  0.00     0.005 C 
HETATM   21  C13 UNL     1       7.031  -1.201   0.170  1.00  0.00     0.025 C 
HETATM   22  C15 UNL     1       5.947  -1.854   0.955  1.00  0.00     0.063 C 
HETATM   23  C16 UNL     1       4.619  -1.421   0.265  1.00  0.00     0.131 C 
BRANCH  21  24
HETATM   24  C14 UNL     1       8.141  -1.957  -0.450  1.00  0.00     0.413 C 
HETATM   25  F2  UNL     1       8.886  -2.650   0.484  1.00  0.00    -0.166 F 
HETATM   26  F3  UNL     1       9.013  -1.124  -1.118  1.00  0.00    -0.166 F 
HETATM   27  F4  UNL     1       7.595  -2.812  -1.402  1.00  0.00    -0.166 F 
ENDBRANCH  21  24
ENDBRANCH  15  18
ENDBRANCH   8  15
BRANCH   1  28
HETATM   28  C6  UNL     1      -4.352  -0.588  -1.073  1.00  0.00     0.089 C 
HETATM   29  C5  UNL     1      -5.067   0.616  -1.649  1.00  0.00     0.025 C 
HETATM   30  C4  UNL     1      -5.643   1.446  -0.505  1.00  0.00     0.005 C 
HETATM   31  C3  UNL     1      -6.729   0.689   0.211  1.00  0.00     0.043 C 
HETATM   32  C2  UNL     1      -6.448  -0.789   0.281  1.00  0.00     0.102 C 
HETATM   33  C1  UNL     1      -7.128  -1.568  -0.818  1.00  0.00     0.051 C 
HETATM   34  F1  UNL     1      -6.918  -1.270   1.487  1.00  0.00    -0.243 F 
HETATM   35  C23 UNL     1      -4.954  -0.991   0.274  1.00  0.00     0.068 C 
ENDBRANCH   1  28
TORSDOF 5
