REMARK  5 active torsions:
REMARK  status: ('A' for Active; 'I' for Inactive)
REMARK    1  A    between atoms: C7_8  and  C8_9 
REMARK    2  A    between atoms: C8_9  and  O1_10 
REMARK    3  A    between atoms: C8_9  and  N1_12 
REMARK       I    between atoms: N2_17  and  C13_18 
REMARK       I    between atoms: C13_18  and  N3_20 
REMARK    4  A    between atoms: N3_20  and  C14_22 
REMARK    5  A    between atoms: C19_27  and  C20_28 
ROOT
HETATM    1  N1  UNL     1      -2.378   0.592  -0.085  1.00  0.00    -0.352 N 
HETATM    2  C9  UNL     1      -1.131   1.351   0.200  1.00  0.00     0.136 C 
HETATM    3  C10 UNL     1      -0.083   0.960  -0.806  1.00  0.00    -0.009 C 
HETATM    4  C11 UNL     1       0.177  -0.539  -0.572  1.00  0.00     0.032 C 
HETATM    5  C12 UNL     1       1.547  -0.934  -1.113  1.00  0.00     0.128 C 
HETATM    6  N2  UNL     1       2.522  -0.292  -0.254  1.00  0.00    -0.334 N 
HETATM    7  C13 UNL     1       3.802  -0.871  -0.103  1.00  0.00     0.318 C 
HETATM    8  O2  UNL     1       4.046  -1.942  -0.736  1.00  0.00    -0.247 OA
HETATM    9  N3  UNL     1       4.810  -0.286   0.734  1.00  0.00    -0.335 N 
ATOM     10  H3  UNL     1       4.596   0.575   1.237  1.00  0.00     0.165 HD
HETATM   11  C18 UNL     1       2.079   0.926   0.392  1.00  0.00     0.142 C 
HETATM   12  C19 UNL     1       1.202   1.658  -0.635  1.00  0.00     0.121 C 
HETATM   13  C21 UNL     1      -0.565   1.057  -2.234  1.00  0.00     0.014 C 
HETATM   14  C22 UNL     1      -1.884   0.393  -2.466  1.00  0.00     0.031 C 
HETATM   15  C23 UNL     1      -2.901   0.792  -1.381  1.00  0.00     0.027 C 
HETATM   16  C24 UNL     1      -4.190   0.190  -1.784  1.00  0.00     0.038 C 
HETATM   17  C25 UNL     1      -3.100   2.321  -1.527  1.00  0.00     0.038 C 
ENDROOT
BRANCH  12  18
HETATM   18  C20 UNL     1       1.189   3.084  -0.241  1.00  0.00     0.393 C 
HETATM   19  F2  UNL     1       0.544   3.927  -1.113  1.00  0.00    -0.171 F 
HETATM   20  F3  UNL     1       0.805   3.272   1.081  1.00  0.00    -0.171 F 
HETATM   21  F4  UNL     1       2.532   3.508  -0.265  1.00  0.00    -0.171 F 
ENDBRANCH  12  18
BRANCH   1  22
HETATM   22  C8  UNL     1      -2.860  -0.196   0.933  1.00  0.00     0.152 C 
BRANCH  22  23
HETATM   23  C7  UNL     1      -4.025  -1.072   1.025  1.00  0.00     0.059 A 
HETATM   24  C2  UNL     1      -5.233  -0.595   1.461  1.00  0.00    -0.044 A 
HETATM   25  C1  UNL     1      -5.427   0.844   1.834  1.00  0.00     0.049 C 
HETATM   26  C3  UNL     1      -6.307  -1.435   1.575  1.00  0.00     0.008 A 
HETATM   27  C4  UNL     1      -6.244  -2.774   1.267  1.00  0.00     0.004 A 
HETATM   28  C5  UNL     1      -5.007  -3.221   0.829  1.00  0.00     0.043 A 
HETATM   29  C6  UNL     1      -3.920  -2.406   0.706  1.00  0.00     0.131 A 
HETATM   30  F1  UNL     1      -2.716  -2.869   0.274  1.00  0.00    -0.205 F 
ENDBRANCH  22  23
BRANCH  22  31
HETATM   31  O1  UNL     1      -2.196  -0.215   2.074  1.00  0.00    -0.345 OA
ATOM     32  H1  UNL     1      -1.438   0.355   2.014  1.00  0.00     0.219 HD
ENDBRANCH  22  31
ENDBRANCH   1  22
BRANCH   9  33
HETATM   33  C14 UNL     1       6.111  -0.875   0.886  1.00  0.00     0.023 C 
HETATM   34  C15 UNL     1       6.942  -0.035   1.821  1.00  0.00     0.037 C 
HETATM   35  C16 UNL     1       6.069  -2.278   1.441  1.00  0.00     0.037 C 
HETATM   36  C17 UNL     1       6.851  -0.948  -0.445  1.00  0.00     0.037 C 
ENDBRANCH   9  33
TORSDOF 5
