REMARK  2 active torsions:
REMARK  status: ('A' for Active; 'I' for Inactive)
REMARK    1  A    between atoms: C2_2  and  C3_3 
REMARK    2  A    between atoms: C19_23  and  C20_24 
ROOT
HETATM    1  C1  UNL     1       4.008  -1.487  -0.290  1.00  0.00     0.025 C 
HETATM    2  C2  UNL     1       3.260  -0.134  -0.202  1.00  0.00     0.039 C 
HETATM    3  C4  UNL     1       3.197   0.169   1.275  1.00  0.00     0.020 C 
HETATM    4  C5  UNL     1       2.098  -0.769   1.722  1.00  0.00     0.011 C 
HETATM    5  C6  UNL     1       1.073  -0.815   0.605  1.00  0.00    -0.035 C 
HETATM    6  C7  UNL     1       0.749  -2.261   0.377  1.00  0.00     0.016 C 
HETATM    7  C8  UNL     1       1.836  -0.294  -0.572  1.00  0.00     0.011 C 
HETATM    8  C9  UNL     1       1.262   0.959  -1.139  1.00  0.00     0.007 C 
HETATM    9  C10 UNL     1      -0.201   0.606  -1.397  1.00  0.00     0.012 C 
HETATM   10  C11 UNL     1      -0.967   0.575  -0.067  1.00  0.00    -0.017 C 
HETATM   11  C12 UNL     1      -1.142   2.088   0.211  1.00  0.00     0.018 C 
HETATM   12  C13 UNL     1      -0.126   0.021   0.988  1.00  0.00     0.004 C 
HETATM   13  C14 UNL     1      -0.853  -0.686   2.109  1.00  0.00     0.007 C 
HETATM   14  C15 UNL     1      -2.000  -1.508   1.700  1.00  0.00     0.015 C 
HETATM   15  C16 UNL     1      -2.849  -1.012   0.602  1.00  0.00     0.089 C 
HETATM   16  C17 UNL     1      -4.087  -0.423   1.203  1.00  0.00     0.201 C 
HETATM   17  O2  UNL     1      -4.848  -1.092   1.953  1.00  0.00    -0.289 OA
HETATM   18  C18 UNL     1      -4.169   0.927   0.758  1.00  0.00     0.205 C 
HETATM   19  O3  UNL     1      -4.771   1.855   1.369  1.00  0.00    -0.289 OA
HETATM   20  C19 UNL     1      -3.414   0.971  -0.526  1.00  0.00     0.142 C 
HETATM   21  C21 UNL     1      -2.297  -0.023  -0.357  1.00  0.00     0.070 C 
HETATM   22 CL4  UNL     1      -2.276  -0.898  -1.949  1.00  0.00    -0.117 Cl
ENDROOT
BRANCH   2  23
HETATM   23  C3  UNL     1       4.050   0.820  -0.975  1.00  0.00     0.239 C 
HETATM   24  N1  UNL     1       3.782   2.202  -1.020  1.00  0.00    -0.061 NA
HETATM   25  O1  UNL     1       5.032   0.422  -1.649  1.00  0.00    -0.276 OA
ENDBRANCH   2  23
BRANCH  20  26
HETATM   26  C20 UNL     1      -4.380   0.678  -1.647  1.00  0.00     0.201 C 
HETATM   27 CL1  UNL     1      -5.632   1.981  -1.506  1.00  0.00    -0.083 Cl
HETATM   28 CL2  UNL     1      -5.218  -0.835  -1.571  1.00  0.00    -0.083 Cl
HETATM   29 CL3  UNL     1      -3.643   1.022  -3.255  1.00  0.00    -0.083 Cl
ENDBRANCH  20  26
TORSDOF 2
