REMARK  6 active torsions:
REMARK  status: ('A' for Active; 'I' for Inactive)
REMARK    1  A    between atoms: N1_2  and  C2_3 
REMARK    2  A    between atoms: N1_2  and  C20_31 
REMARK    3  A    between atoms: C2_3  and  O1_4 
REMARK    4  A    between atoms: C2_3  and  N2_6 
REMARK       I    between atoms: N3_12  and  C8_13 
REMARK       I    between atoms: C8_13  and  N4_15 
REMARK    5  A    between atoms: N4_15  and  C9_17 
REMARK    6  A    between atoms: C13_21  and  C14_22 
ROOT
HETATM    1  N2  UNL     1      -3.575  -1.397  -0.023  1.00  0.00    -0.347 N 
HETATM    2  C3  UNL     1      -2.957  -1.087   1.204  1.00  0.00     0.127 C 
HETATM    3  C4  UNL     1      -1.674  -0.320   0.802  1.00  0.00     0.029 C 
HETATM    4  C5  UNL     1      -0.826  -1.228   0.003  1.00  0.00    -0.035 C 
HETATM    5  C6  UNL     1       0.433  -1.505   0.817  1.00  0.00     0.029 C 
HETATM    6  C7  UNL     1       1.702  -1.269   0.075  1.00  0.00     0.128 C 
HETATM    7  N3  UNL     1       1.820   0.046  -0.504  1.00  0.00    -0.334 N 
HETATM    8  C8  UNL     1       3.052   0.729  -0.734  1.00  0.00     0.322 C 
HETATM    9  O2  UNL     1       2.974   1.872  -1.245  1.00  0.00    -0.247 OA
HETATM   10  N4  UNL     1       4.277   0.141  -0.401  1.00  0.00    -0.309 N 
ATOM     11  H4  UNL     1       4.243  -0.788   0.018  1.00  0.00     0.170 HD
HETATM   12  C16 UNL     1       0.542   0.683  -0.867  1.00  0.00     0.128 C 
HETATM   13  C17 UNL     1      -0.387  -0.424  -1.237  1.00  0.00     0.029 C 
HETATM   14  C18 UNL     1      -1.426  -2.477  -0.518  1.00  0.00     0.029 C 
HETATM   15  C19 UNL     1      -2.886  -2.540  -0.711  1.00  0.00     0.127 C 
ENDROOT
BRANCH   1  16
HETATM   16  C2  UNL     1      -4.671  -0.801  -0.647  1.00  0.00     0.218 C 
BRANCH  16  17
HETATM   17  N1  UNL     1      -5.562   0.216  -0.400  1.00  0.00    -0.330 N 
HETATM   18  C1  UNL     1      -6.537   0.484  -1.533  1.00  0.00     0.155 C 
BRANCH  17  19
HETATM   19  C20 UNL     1      -5.803   1.064   0.738  1.00  0.00     0.105 C 
HETATM   20  C21 UNL     1      -6.292   0.315   1.956  1.00  0.00     0.056 C 
HETATM   21  C22 UNL     1      -4.685   2.018   1.053  1.00  0.00     0.056 C 
HETATM   22 CL1  UNL     1      -7.206   2.185   0.350  1.00  0.00    -0.096 Cl
ENDBRANCH  17  19
ENDBRANCH  16  17
BRANCH  16  23
HETATM   23  O1  UNL     1      -4.946  -1.378  -1.851  1.00  0.00    -0.332 OA
ATOM     24  H1  UNL     1      -4.330  -2.081  -2.022  1.00  0.00     0.220 HD
ENDBRANCH  16  23
ENDBRANCH   1  16
BRANCH  10  25
HETATM   25  C9  UNL     1       5.571   0.715  -0.591  1.00  0.00     0.037 A 
HETATM   26  C10 UNL     1       5.866   1.657  -1.538  1.00  0.00     0.029 A 
HETATM   27  C11 UNL     1       7.112   2.201  -1.655  1.00  0.00     0.003 A 
HETATM   28  C12 UNL     1       8.129   1.816  -0.814  1.00  0.00     0.016 A 
HETATM   29  C13 UNL     1       7.865   0.865   0.154  1.00  0.00     0.050 A 
HETATM   30  C15 UNL     1       6.614   0.324   0.265  1.00  0.00     0.045 A 
BRANCH  29  31
HETATM   31  C14 UNL     1       8.985   0.476   1.057  1.00  0.00     0.417 C 
HETATM   32  F1  UNL     1       8.829   1.227   2.232  1.00  0.00    -0.166 F 
HETATM   33  F2  UNL     1      10.197   0.732   0.460  1.00  0.00    -0.166 F 
HETATM   34  F3  UNL     1       8.867  -0.852   1.408  1.00  0.00    -0.166 F 
ENDBRANCH  29  31
ENDBRANCH  10  25
TORSDOF 6
