REMARK  0 active torsions:
REMARK  status: ('A' for Active; 'I' for Inactive)
ROOT
HETATM    1  O1  UNL     1       3.211   1.466  -2.497  1.00  0.00    -0.295 OA
HETATM    2  C1  UNL     1       2.589   1.074  -1.544  1.00  0.00     0.159 C 
HETATM    3  C2  UNL     1       2.616   1.715  -0.215  1.00  0.00     0.081 C 
HETATM    4  C3  UNL     1       2.369   0.530   0.695  1.00  0.00     0.016 C 
HETATM    5  C4  UNL     1       1.468  -0.409  -0.002  1.00  0.00     0.038 C 
HETATM    6  C5  UNL     1       1.682  -0.087  -1.452  1.00  0.00     0.234 C 
HETATM    7  O2  UNL     1       0.495   0.135  -2.152  1.00  0.00    -0.227 OA
HETATM    8  O3  UNL     1      -0.238  -0.945  -1.860  1.00  0.00    -0.224 OA
HETATM    9  C6  UNL     1      -0.946  -0.549  -0.691  1.00  0.00     0.150 C 
HETATM   10  C7  UNL     1      -1.822  -1.775  -0.440  1.00  0.00     0.210 C 
HETATM   11  F1  UNL     1      -2.238  -2.327  -1.646  1.00  0.00    -0.246 F 
HETATM   12  C8  UNL     1      -0.804  -2.696   0.199  1.00  0.00     0.041 C 
HETATM   13  C9  UNL     1      -0.224  -1.714   1.226  1.00  0.00     0.017 C 
HETATM   14  C10 UNL     1       0.022  -0.416   0.427  1.00  0.00     0.018 C 
HETATM   15  C11 UNL     1      -0.312   0.665   1.429  1.00  0.00     0.071 C 
HETATM   16 BR1  UNL     1      -0.055   0.042   3.267  1.00  0.00    -0.090 Br
HETATM   17  C12 UNL     1      -1.753   1.176   1.275  1.00  0.00     0.034 C 
HETATM   18  C13 UNL     1      -1.798   1.751  -0.105  1.00  0.00     0.076 C 
HETATM   19 BR2  UNL     1      -3.323   2.879  -0.411  1.00  0.00    -0.090 Br
HETATM   20  C14 UNL     1      -1.733   0.635  -1.076  1.00  0.00     0.114 C 
HETATM   21 BR3  UNL     1      -3.573   0.039  -1.386  1.00  0.00    -0.087 Br
ENDROOT
TORSDOF 0
