REMARK  0 active torsions:
REMARK  status: ('A' for Active; 'I' for Inactive)
ROOT
HETATM    1  N1  UNL     1       3.640   2.945  -0.980  1.00  0.00    -0.194 NA
HETATM    2  C1  UNL     1       2.912   2.078  -0.756  1.00  0.00     0.093 C 
HETATM    3  C2  UNL     1       1.970   0.969  -0.460  1.00  0.00     0.254 C 
HETATM    4  O1  UNL     1       1.122   1.292   0.603  1.00  0.00    -0.300 OA
HETATM    5  C3  UNL     1       0.069   2.158   0.571  1.00  0.00     0.260 C 
HETATM    6  O2  UNL     1      -0.127   2.957   1.542  1.00  0.00    -0.265 OA
HETATM    7  C4  UNL     1      -0.914   2.262  -0.542  1.00  0.00     0.111 C 
HETATM    8  C5  UNL     1      -2.275   1.746  -0.126  1.00  0.00     0.010 C 
HETATM    9  C6  UNL     1      -2.516   0.327  -0.601  1.00  0.00     0.003 C 
HETATM   10  C7  UNL     1      -2.107  -0.650   0.500  1.00  0.00     0.039 C 
HETATM   11  C8  UNL     1      -1.595  -1.946  -0.067  1.00  0.00     0.188 C 
HETATM   12  F1  UNL     1      -1.334  -1.786  -1.432  1.00  0.00    -0.248 F 
HETATM   13  C9  UNL     1      -0.247  -2.330   0.559  1.00  0.00     0.118 C 
HETATM   14 CL1  UNL     1      -0.180  -4.122   0.477  1.00  0.00    -0.122 Cl
HETATM   15  C10 UNL     1       0.874  -1.736  -0.234  1.00  0.00     0.057 C 
HETATM   16  C11 UNL     1       2.051  -1.318   0.577  1.00  0.00     0.093 C 
HETATM   17 BR1  UNL     1       3.253  -2.858   0.685  1.00  0.00    -0.071 Br
HETATM   18 BR2  UNL     1       1.571  -0.882   2.411  1.00  0.00    -0.071 Br
HETATM   19  C12 UNL     1       2.841  -0.189  -0.000  1.00  0.00     0.131 C 
HETATM   20 BR3  UNL     1       3.991   0.492   1.426  1.00  0.00    -0.085 Br
ENDROOT
TORSDOF 0
