REMARK  7 active torsions:
REMARK  status: ('A' for Active; 'I' for Inactive)
REMARK    1  A    between atoms: N1_1  and  C1_4 
REMARK    2  A    between atoms: C1_4  and  C2_5 
REMARK    3  A    between atoms: C1_4  and  N9_25 
REMARK    4  A    between atoms: C2_5  and  N2_6 
REMARK    5  A    between atoms: C4_12  and  N5_13 
REMARK    6  A    between atoms: C5_18  and  N7_19 
REMARK    7  A    between atoms: N9_25  and  N10_27 
ROOT
HETATM    1  N2  UNL     1       2.164  -1.351  -0.054  1.00  0.00    -0.252 N 
HETATM    2  N3  UNL     1       2.006  -1.659   1.218  1.00  0.00    -0.238 N 
ATOM      3  H3  UNL     1       1.249  -2.240   1.578  1.00  0.00     0.208 HD
HETATM    4  N4  UNL     1       2.949  -1.122   1.966  1.00  0.00    -0.279 N 
ATOM      5  H4  UNL     1       3.033  -1.222   2.978  1.00  0.00     0.189 HD
HETATM    6  C3  UNL     1       3.782  -0.421   1.176  1.00  0.00     0.140 A 
HETATM    7  C4  UNL     1       4.914   0.326   1.416  1.00  0.00     0.147 A 
HETATM    8  N6  UNL     1       5.503   0.900   0.351  1.00  0.00    -0.175 N 
ATOM      9  H6  UNL     1       6.344   1.462   0.481  1.00  0.00     0.186 HD
HETATM   10  C5  UNL     1       4.989   0.738  -0.895  1.00  0.00     0.679 A 
HETATM   11  N8  UNL     1       3.885   0.010  -1.135  1.00  0.00    -0.173 N 
ATOM     12  H8  UNL     1       3.527  -0.090  -2.085  1.00  0.00     0.186 HD
HETATM   13  C6  UNL     1       3.265  -0.579  -0.114  1.00  0.00     0.171 A 
ENDROOT
BRANCH   1  14
HETATM   14  C2  UNL     1       1.331  -1.751  -1.197  1.00  0.00     0.229 C 
BRANCH  14  15
HETATM   15  C1  UNL     1       0.270  -0.740  -1.391  1.00  0.00     0.109 C 
BRANCH  15  16
HETATM   16  N1  UNL     1       0.207  -0.108  -2.509  1.00  0.00    -0.386 N 
ATOM     17  H12 UNL     1       0.888  -0.314  -3.240  1.00  0.00     0.157 HD
ATOM     18  H11 UNL     1      -0.525   0.590  -2.643  1.00  0.00     0.157 HD
ENDBRANCH  15  16
BRANCH  15  19
HETATM   19  N9  UNL     1      -0.667  -0.457  -0.386  1.00  0.00    -0.288 N 
ATOM     20  H9  UNL     1      -0.673  -1.064   0.434  1.00  0.00     0.188 HD
BRANCH  19  21
HETATM   21  N10 UNL     1      -1.581   0.577  -0.418  1.00  0.00    -0.307 N 
HETATM   22  C7  UNL     1      -2.716   0.563   0.193  1.00  0.00     0.004 C 
HETATM   23  C8  UNL     1      -3.091  -0.621   0.989  1.00  0.00     0.054 C 
HETATM   24  C12 UNL     1      -3.584   1.755   0.056  1.00  0.00     0.054 C 
HETATM   25  C9  UNL     1      -4.569  -0.703   1.273  1.00  0.00     0.006 C 
HETATM   26  C10 UNL     1      -5.294  -0.047   0.112  1.00  0.00     0.001 C 
HETATM   27  C11 UNL     1      -5.036   1.444   0.230  1.00  0.00     0.006 C 
ATOM     28  H10 UNL     1      -1.343   1.407  -0.961  1.00  0.00     0.186 HD
ENDBRANCH  19  21
ENDBRANCH  15  19
ENDBRANCH  14  15
ENDBRANCH   1  14
BRANCH   7  29
HETATM   29  N5  UNL     1       5.393   0.473   2.605  1.00  0.00    -0.383 N 
ATOM     30  H52 UNL     1       4.947   0.038   3.412  1.00  0.00     0.157 HD
ATOM     31  H51 UNL     1       6.231   1.026   2.783  1.00  0.00     0.157 HD
ENDBRANCH   7  29
BRANCH  10  32
HETATM   32  N7  UNL     1       5.599   1.313  -1.874  1.00  0.00    -0.234 N 
ATOM     33  H72 UNL     1       6.437   1.865  -1.692  1.00  0.00     0.174 HD
ATOM     34  H71 UNL     1       5.213   1.191  -2.810  1.00  0.00     0.174 HD
ENDBRANCH  10  32
TORSDOF 7
