REMARK  9 active torsions:
REMARK  status: ('A' for Active; 'I' for Inactive)
REMARK       I    between atoms: C1_2  and  N1_3 
REMARK    1  A    between atoms: C1_2  and  C5_11 
REMARK    2  A    between atoms: N1_3  and  C2_5 
REMARK    3  A    between atoms: C5_11  and  N4_16 
REMARK    4  A    between atoms: N3_12  and  O2_14 
REMARK    5  A    between atoms: N4_16  and  C6_18 
REMARK    6  A    between atoms: C6_18  and  C7_19 
REMARK    7  A    between atoms: C6_18  and  C8_22 
REMARK    8  A    between atoms: C8_22  and  O5_23 
REMARK    9  A    between atoms: N5_25  and  O6_27 
ROOT
HETATM    1  C5  UNL     1       0.054   1.062  -0.332  1.00  0.00     0.191 C 
HETATM    2  N3  UNL     1       0.603   1.912  -1.134  1.00  0.00    -0.248 N 
ATOM      3  H3  UNL     1       1.366   1.604  -1.737  1.00  0.00     0.196 HD
ENDROOT
BRANCH   1   4
HETATM    4  C1  UNL     1      -1.032   1.496   0.528  1.00  0.00     0.293 C 
HETATM    5  O1  UNL     1      -1.417   2.685   0.475  1.00  0.00    -0.264 OA
HETATM    6  N1  UNL     1      -1.647   0.596   1.409  1.00  0.00    -0.300 N 
ATOM      7  H1  UNL     1      -1.194   0.393   2.300  1.00  0.00     0.171 HD
BRANCH   6   8
HETATM    8  C2  UNL     1      -2.786   0.005   1.127  1.00  0.00     0.151 A 
HETATM    9  N2  UNL     1      -3.509   0.154   0.015  1.00  0.00    -0.346 N 
HETATM   10  C3  UNL     1      -4.619  -0.511  -0.102  1.00  0.00     0.097 A 
ATOM     11  H2  UNL     1      -3.196   0.778  -0.729  1.00  0.00     0.167 HD
HETATM   12  C4  UNL     1      -4.984  -1.335   0.936  1.00  0.00     0.070 A 
HETATM   13  S1  UNL     1      -3.699  -1.107   2.035  1.00  0.00    -0.064 SA
ENDBRANCH   6   8
ENDBRANCH   1   4
BRANCH   1  14
HETATM   14  N4  UNL     1       0.524  -0.285  -0.303  1.00  0.00    -0.349 N 
ATOM     15  H4  UNL     1      -0.109  -1.020   0.011  1.00  0.00     0.162 HD
BRANCH  14  16
HETATM   16  C6  UNL     1       1.867  -0.644  -0.704  1.00  0.00     0.262 C 
BRANCH  16  17
HETATM   17  C7  UNL     1       2.089  -2.106  -0.576  1.00  0.00     0.205 C 
HETATM   18  O3  UNL     1       1.172  -2.882  -0.162  1.00  0.00    -0.646 OA
HETATM   19  O4  UNL     1       3.349  -2.591  -0.932  1.00  0.00    -0.646 OA
ENDBRANCH  16  17
BRANCH  16  20
HETATM   20  C8  UNL     1       2.875   0.022   0.166  1.00  0.00     0.169 C 
HETATM   21  N5  UNL     1       2.494   0.791   1.116  1.00  0.00    -0.249 N 
ATOM     22  H5  UNL     1       1.498   0.946   1.274  1.00  0.00     0.196 HD
BRANCH  20  23
HETATM   23  O5  UNL     1       4.218  -0.232  -0.103  1.00  0.00    -0.346 OA
ATOM     24  H5  UNL     1       4.861   0.193   0.452  1.00  0.00     0.219 HD
ENDBRANCH  20  23
BRANCH  21  25
HETATM   25  O6  UNL     1       3.419   1.410   1.925  1.00  0.00    -0.288 OA
ATOM     26  H6  UNL     1       3.136   1.981   2.630  1.00  0.00     0.244 HD
ENDBRANCH  21  25
ENDBRANCH  16  20
ENDBRANCH  14  16
ENDBRANCH   1  14
BRANCH   2  27
HETATM   27  O2  UNL     1       0.189   3.213  -1.197  1.00  0.00    -0.288 OA
ATOM     28  H2  UNL     1       0.593   3.838  -1.787  1.00  0.00     0.244 HD
ENDBRANCH   2  27
TORSDOF 9
