REMARK  14 active torsions:
REMARK  status: ('A' for Active; 'I' for Inactive)
REMARK    1  A    between atoms: C2_2  and  C3_3 
REMARK    2  A    between atoms: C3_3  and  C4_4 
REMARK    3  A    between atoms: C5_5  and  C6_6 
REMARK    4  A    between atoms: C6_6  and  C7_7 
REMARK    5  A    between atoms: C6_6  and  N1_10 
REMARK    6  A    between atoms: C7_7  and  O1_8 
REMARK    7  A    between atoms: N3_23  and  C16_24 
REMARK    8  A    between atoms: C16_24  and  C17_25 
REMARK    9  A    between atoms: C17_25  and  C18_26 
REMARK   10  A    between atoms: C26_37  and  C27_38 
REMARK   11  A    between atoms: C27_38  and  C28_39 
REMARK       I    between atoms: C28_39  and  N4_41 
REMARK   12  A    between atoms: N4_41  and  C29_43 
REMARK   13  A    between atoms: C29_43  and  C30_44 
REMARK   14  A    between atoms: C30_44  and  N5_45 
ROOT
HETATM    1  N1  UNL     1      -3.297   1.144  -0.564  1.00  0.00    -0.362 N 
ATOM      2  H1  UNL     1      -2.475   1.746  -0.610  1.00  0.00     0.162 HD
HETATM    3  C8  UNL     1      -3.043  -0.051  -0.729  1.00  0.00     0.172 C 
HETATM    4  N2  UNL     1      -1.704  -0.321  -0.938  1.00  0.00    -0.337 N 
ATOM      5  H2  UNL     1      -1.161   0.464  -1.297  1.00  0.00     0.167 HD
HETATM    6  C9  UNL     1      -1.003  -1.444  -0.746  1.00  0.00     0.050 A 
HETATM    7  C10 UNL     1       0.359  -1.293  -1.014  1.00  0.00     0.041 A 
HETATM    8  C11 UNL     1       1.240  -2.345  -0.878  1.00  0.00    -0.019 A 
HETATM    9  C12 UNL     1       0.778  -3.573  -0.470  1.00  0.00    -0.039 A 
HETATM   10  C13 UNL     1      -0.599  -3.701  -0.205  1.00  0.00     0.028 A 
HETATM   11  C14 UNL     1      -1.471  -2.664  -0.339  1.00  0.00     0.059 A 
HETATM   12  C15 UNL     1      -2.785  -3.005  -0.024  1.00  0.00     0.263 C 
HETATM   13  O2  UNL     1      -2.894  -4.156   0.467  1.00  0.00    -0.267 OA
HETATM   14  N3  UNL     1      -3.920  -2.293  -0.168  1.00  0.00    -0.277 N 
HETATM   15  C22 UNL     1      -3.996  -1.061  -0.713  1.00  0.00     0.294 C 
HETATM   16  O4  UNL     1      -5.076  -0.815  -1.277  1.00  0.00    -0.264 OA
HETATM   17  C23 UNL     1       1.558  -4.797  -0.281  1.00  0.00     0.113 C 
HETATM   18  S1  UNL     1       3.345  -4.508  -0.175  1.00  0.00    -0.157 SA
HETATM   19  C24 UNL     1       3.554  -2.739  -0.071  1.00  0.00     0.083 C 
HETATM   20  C25 UNL     1       4.882  -2.241  -0.649  1.00  0.00     0.050 C 
HETATM   21  C26 UNL     1       4.455  -0.844  -1.041  1.00  0.00     0.132 C 
HETATM   22  O6  UNL     1       3.059  -0.820  -1.076  1.00  0.00    -0.374 OA
HETATM   23  C35 UNL     1       2.648  -2.144  -1.162  1.00  0.00     0.169 C 
ENDROOT
BRANCH  21  24
HETATM   24  C27 UNL     1       4.894   0.182  -0.024  1.00  0.00     0.134 C 
BRANCH  24  25
HETATM   25  C28 UNL     1       6.363   0.249   0.146  1.00  0.00     0.220 C 
HETATM   26  O5  UNL     1       7.084  -0.459  -0.599  1.00  0.00    -0.274 OA
HETATM   27  N4  UNL     1       6.972   1.082   1.116  1.00  0.00    -0.359 N 
ATOM     28  H4  UNL     1       6.357   1.643   1.706  1.00  0.00     0.162 HD
BRANCH  27  29
HETATM   29  C29 UNL     1       8.391   1.200   1.335  1.00  0.00     0.152 C 
BRANCH  29  30
HETATM   30  C30 UNL     1       9.155   1.690   0.152  1.00  0.00     0.292 C 
BRANCH  30  31
HETATM   31  N5  UNL     1       8.659   2.989  -0.241  1.00  0.00     0.090 N 
HETATM   32  C31 UNL     1       9.415   3.342  -1.446  1.00  0.00     0.272 C 
HETATM   33  C32 UNL     1      10.713   3.927  -0.938  1.00  0.00     0.032 C 
HETATM   34  C33 UNL     1      10.550   4.131   0.555  1.00  0.00     0.032 C 
HETATM   35  C34 UNL     1       9.064   3.976   0.739  1.00  0.00     0.272 C 
ENDBRANCH  30  31
ENDBRANCH  29  30
ENDBRANCH  27  29
ENDBRANCH  24  25
ENDBRANCH  21  24
BRANCH   1  36
HETATM   36  C6  UNL     1      -4.545   1.875  -0.315  1.00  0.00     0.129 C 
BRANCH  36  37
HETATM   37  C5  UNL     1      -4.267   3.289  -0.677  1.00  0.00    -0.004 C 
HETATM   38  C4  UNL     1      -5.224   4.358  -0.759  1.00  0.00    -0.029 C 
BRANCH  38  39
HETATM   39  C3  UNL     1      -5.995   4.902   0.356  1.00  0.00     0.026 C 
BRANCH  39  40
HETATM   40  C2  UNL     1      -5.109   5.430   1.497  1.00  0.00    -0.001 C 
HETATM   41  C1  UNL     1      -4.224   6.539   0.935  1.00  0.00     0.005 C 
ENDBRANCH  39  40
ENDBRANCH  38  39
ENDBRANCH  36  37
BRANCH  36  42
HETATM   42  C7  UNL     1      -5.080   1.547   1.013  1.00  0.00     0.193 C 
BRANCH  42  43
HETATM   43  O1  UNL     1      -6.290   2.035   1.400  1.00  0.00    -0.399 OA
ATOM     44  H1  UNL     1      -6.636   1.823   2.259  1.00  0.00     0.209 HD
ENDBRANCH  42  43
ENDBRANCH  36  42
ENDBRANCH   1  36
BRANCH  14  45
HETATM   45  C16 UNL     1      -5.148  -2.900   0.299  1.00  0.00     0.138 C 
BRANCH  45  46
HETATM   46  C17 UNL     1      -5.835  -3.711  -0.768  1.00  0.00     0.052 C 
BRANCH  46  47
HETATM   47  C18 UNL     1      -7.096  -4.293  -0.158  1.00  0.00     0.123 C 
HETATM   48  C19 UNL     1      -6.825  -5.180   1.018  1.00  0.00     0.034 C 
HETATM   49  C20 UNL     1      -8.041  -6.086   1.059  1.00  0.00     0.029 C 
HETATM   50  C21 UNL     1      -8.650  -5.840  -0.298  1.00  0.00     0.168 C 
HETATM   51  O3  UNL     1      -7.729  -5.142  -1.055  1.00  0.00    -0.386 OA
ENDBRANCH  46  47
ENDBRANCH  45  46
ENDBRANCH  14  45
TORSDOF 14
