REMARK  17 active torsions:
REMARK  status: ('A' for Active; 'I' for Inactive)
REMARK    1  A    between atoms: C2_2  and  C3_3 
REMARK    2  A    between atoms: C3_3  and  C4_4 
REMARK    3  A    between atoms: C4_4  and  C5_5 
REMARK    4  A    between atoms: C5_5  and  C6_6 
REMARK    5  A    between atoms: C6_6  and  C8_8 
REMARK    6  A    between atoms: C10_12  and  C11_13 
REMARK    7  A    between atoms: C11_13  and  C12_14 
REMARK    8  A    between atoms: C12_14  and  C13_15 
REMARK    9  A    between atoms: C25_30  and  O4_31 
REMARK   10  A    between atoms: O4_31  and  C26_32 
REMARK   11  A    between atoms: C27_36  and  O5_37 
REMARK   12  A    between atoms: C28_39  and  O6_40 
REMARK   13  A    between atoms: C29_42  and  O7_43 
REMARK   14  A    between atoms: O7_43  and  C30_44 
REMARK   15  A    between atoms: C30_44  and  C31_46 
REMARK   16  A    between atoms: C31_46  and  C32_47 
REMARK   17  A    between atoms: C32_47  and  C33_48 
ROOT
HETATM    1  C8  UNL     1       1.203   0.651  -0.842  1.00  0.00     0.159 C 
HETATM    2  C9  UNL     1       2.436   0.391  -1.597  1.00  0.00     0.271 C 
HETATM    3  O1  UNL     1       2.382   0.592  -2.855  1.00  0.00    -0.264 OA
HETATM    4  O2  UNL     1       3.585  -0.034  -1.082  1.00  0.00    -0.315 OA
HETATM    5  C10 UNL     1       4.102  -0.272   0.164  1.00  0.00     0.132 C 
HETATM    6  C15 UNL     1       4.601  -1.699   0.213  1.00  0.00     0.033 C 
HETATM    7  C16 UNL     1       4.586  -2.278  -1.167  1.00  0.00     0.006 C 
HETATM    8  C17 UNL     1       4.439  -3.747  -1.263  1.00  0.00     0.027 C 
HETATM    9  C18 UNL     1       3.634  -4.420  -0.222  1.00  0.00    -0.030 C 
HETATM   10  C19 UNL     1       2.387  -4.281   0.091  1.00  0.00    -0.026 C 
HETATM   11  C20 UNL     1       1.345  -3.385  -0.505  1.00  0.00     0.004 C 
HETATM   12  C21 UNL     1       0.431  -4.269  -1.299  1.00  0.00     0.014 C 
HETATM   13  C22 UNL     1       0.760  -2.624   0.600  1.00  0.00     0.023 C 
HETATM   14  C23 UNL     1      -0.540  -1.980   0.536  1.00  0.00     0.090 C 
HETATM   15  C24 UNL     1      -1.635  -3.019   0.662  1.00  0.00     0.224 C 
HETATM   16  O3  UNL     1      -1.327  -4.094   1.239  1.00  0.00    -0.273 OA
HETATM   17  N1  UNL     1      -2.961  -2.845   0.174  1.00  0.00    -0.332 N 
ATOM     18  H1  UNL     1      -3.460  -3.707  -0.044  1.00  0.00     0.165 HD
HETATM   19  C25 UNL     1      -3.715  -1.613  -0.061  1.00  0.00     0.255 C 
HETATM   20  C29 UNL     1      -3.056  -0.514   0.719  1.00  0.00     0.181 C 
HETATM   21  C35 UNL     1      -1.822   0.064   0.138  1.00  0.00     0.050 C 
HETATM   22  C36 UNL     1      -0.866  -0.974  -0.477  1.00  0.00     0.072 C 
HETATM   23  C37 UNL     1       0.153  -0.345  -1.280  1.00  0.00     0.146 C 
HETATM   24  O9  UNL     1       0.259  -0.590  -2.498  1.00  0.00    -0.297 OA
ENDROOT
BRANCH  19  25
HETATM   25  O4  UNL     1      -3.988  -1.350  -1.365  1.00  0.00    -0.329 OA
BRANCH  25  26
HETATM   26  C26 UNL     1      -5.300  -1.354  -1.750  1.00  0.00     0.359 C 
HETATM   27  N2  UNL     1      -5.599  -0.091  -2.446  1.00  0.00    -0.017 N 
HETATM   28  C27 UNL     1      -5.053  -0.700  -3.644  1.00  0.00     0.355 C 
ATOM     29  H22 UNL     1      -6.538   0.307  -2.437  1.00  0.00     0.283 HD
ATOM     30  H21 UNL     1      -5.244   0.800  -2.098  1.00  0.00     0.283 HD
HETATM   31  C28 UNL     1      -5.470  -2.052  -3.077  1.00  0.00     0.230 C 
BRANCH  28  32
HETATM   32  O5  UNL     1      -5.716  -0.333  -4.812  1.00  0.00    -0.368 OA
ATOM     33  H5  UNL     1      -5.358  -0.732  -5.597  1.00  0.00     0.212 HD
ENDBRANCH  28  32
BRANCH  31  34
HETATM   34  O6  UNL     1      -4.532  -3.049  -3.343  1.00  0.00    -0.387 OA
ATOM     35  H6  UNL     1      -4.639  -3.488  -4.178  1.00  0.00     0.210 HD
ENDBRANCH  31  34
ENDBRANCH  25  26
ENDBRANCH  19  25
BRANCH  20  36
HETATM   36  O7  UNL     1      -3.959   0.513   1.004  1.00  0.00    -0.311 OA
BRANCH  36  37
HETATM   37  C30 UNL     1      -4.381   0.811   2.276  1.00  0.00     0.259 C 
HETATM   38  O8  UNL     1      -3.897   0.087   3.211  1.00  0.00    -0.265 OA
BRANCH  37  39
HETATM   39  C31 UNL     1      -5.337   1.900   2.553  1.00  0.00     0.111 C 
BRANCH  39  40
HETATM   40  C32 UNL     1      -6.743   1.357   2.781  1.00  0.00     0.009 C 
BRANCH  40  41
HETATM   41  C33 UNL     1      -7.682   2.486   3.059  1.00  0.00    -0.004 C 
HETATM   42  C34 UNL     1      -7.223   3.239   4.309  1.00  0.00     0.005 C 
ENDBRANCH  40  41
ENDBRANCH  39  40
ENDBRANCH  37  39
ENDBRANCH  36  37
ENDBRANCH  20  36
BRANCH   1  43
HETATM   43  C6  UNL     1       0.765   2.042  -0.961  1.00  0.00     0.002 C 
HETATM   44  C7  UNL     1       0.093   2.461  -2.241  1.00  0.00     0.011 C 
BRANCH  43  45
HETATM   45  C5  UNL     1       1.703   3.061  -0.453  1.00  0.00     0.006 C 
BRANCH  45  46
HETATM   46  C4  UNL     1       2.832   3.513  -1.285  1.00  0.00     0.004 C 
BRANCH  46  47
HETATM   47  C3  UNL     1       3.638   4.612  -0.540  1.00  0.00     0.026 C 
BRANCH  47  48
HETATM   48  C2  UNL     1       4.765   5.044  -1.402  1.00  0.00    -0.037 C 
HETATM   49  C1  UNL     1       5.021   4.549  -2.603  1.00  0.00     0.007 C 
ENDBRANCH  47  48
ENDBRANCH  46  47
ENDBRANCH  45  46
ENDBRANCH  43  45
ENDBRANCH   1  43
BRANCH   5  50
HETATM   50  C11 UNL     1       5.251   0.698   0.382  1.00  0.00     0.032 C 
BRANCH  50  51
HETATM   51  C12 UNL     1       5.916   0.556   1.703  1.00  0.00     0.002 C 
BRANCH  51  52
HETATM   52  C13 UNL     1       4.979   0.785   2.869  1.00  0.00    -0.004 C 
HETATM   53  C14 UNL     1       5.712   0.628   4.189  1.00  0.00     0.005 C 
ENDBRANCH  51  52
ENDBRANCH  50  51
ENDBRANCH   5  50
TORSDOF 17
