REMARK  16 active torsions:
REMARK  status: ('A' for Active; 'I' for Inactive)
REMARK    1  A    between atoms: C2_2  and  C3_3 
REMARK    2  A    between atoms: C3_3  and  C4_4 
REMARK    3  A    between atoms: C4_4  and  C5_5 
REMARK    4  A    between atoms: C5_5  and  O2_7 
REMARK    5  A    between atoms: O2_7  and  C6_8 
REMARK    6  A    between atoms: C10_13  and  C11_14 
REMARK    7  A    between atoms: C14_19  and  C15_20 
REMARK    8  A    between atoms: C15_20  and  C16_21 
REMARK    9  A    between atoms: C16_21  and  C18_23 
REMARK   10  A    between atoms: C26_35  and  C27_36 
REMARK   11  A    between atoms: C27_36  and  C28_37 
REMARK   12  A    between atoms: C28_37  and  C29_38 
REMARK   13  A    between atoms: C29_38  and  C30_39 
REMARK   14  A    between atoms: C30_39  and  N2_40 
REMARK   15  A    between atoms: C32_46  and  C33_47 
REMARK   16  A    between atoms: C35_49  and  O9_51 
ROOT
HETATM    1  C6  UNL     1      -2.394  -0.620  -0.233  1.00  0.00     0.177 C 
HETATM    2  C7  UNL     1      -0.986  -0.975   0.026  1.00  0.00     0.085 C 
HETATM    3  C8  UNL     1      -0.651  -1.816   1.185  1.00  0.00     0.020 C 
HETATM    4  C9  UNL     1      -0.390  -1.593  -1.179  1.00  0.00     0.146 C 
HETATM    5  O3  UNL     1      -0.691  -1.247  -2.333  1.00  0.00    -0.297 OA
HETATM    6  C10 UNL     1       0.624  -2.681  -1.128  1.00  0.00     0.155 C 
HETATM    7  C13 UNL     1       1.788  -2.453  -2.013  1.00  0.00     0.270 C 
HETATM    8  O4  UNL     1       1.641  -2.633  -3.245  1.00  0.00    -0.264 OA
HETATM    9  O5  UNL     1       2.984  -2.058  -1.479  1.00  0.00    -0.315 OA
HETATM   10  C14 UNL     1       3.200  -1.145  -0.435  1.00  0.00     0.143 C 
HETATM   11  C20 UNL     1       3.864   0.138  -0.832  1.00  0.00     0.082 C 
HETATM   12  C21 UNL     1       4.789  -0.116  -2.038  1.00  0.00     0.020 C 
HETATM   13  C22 UNL     1       2.820   1.064  -1.372  1.00  0.00     0.145 C 
HETATM   14  O6  UNL     1       2.239   0.627  -2.368  1.00  0.00    -0.297 OA
HETATM   15  C23 UNL     1       2.442   2.372  -0.861  1.00  0.00     0.144 C 
HETATM   16  C24 UNL     1       3.777   3.091  -0.537  1.00  0.00     0.028 C 
HETATM   17  C25 UNL     1       1.598   2.403   0.344  1.00  0.00     0.229 C 
HETATM   18  O7  UNL     1       1.999   1.598   1.263  1.00  0.00    -0.273 OA
HETATM   19  N1  UNL     1       0.463   3.147   0.645  1.00  0.00    -0.349 N 
ATOM     20  H1  UNL     1       0.525   3.597   1.559  1.00  0.00     0.163 HD
HETATM   21  C26 UNL     1      -0.749   3.428  -0.008  1.00  0.00     0.154 C 
HETATM   22  C31 UNL     1      -1.354   2.448  -0.912  1.00  0.00     0.156 C 
HETATM   23  O8  UNL     1      -0.679   2.105  -1.848  1.00  0.00    -0.295 OA
HETATM   24  C32 UNL     1      -2.681   1.859  -0.787  1.00  0.00     0.094 C 
HETATM   25  C35 UNL     1      -2.896   0.719   0.135  1.00  0.00     0.092 C 
HETATM   26  C36 UNL     1      -2.631   1.167   1.551  1.00  0.00     0.049 C 
ENDROOT
BRANCH  21  27
HETATM   27  C27 UNL     1      -0.646   4.743  -0.816  1.00  0.00     0.033 C 
BRANCH  27  28
HETATM   28  C28 UNL     1      -0.319   5.898   0.081  1.00  0.00     0.004 C 
BRANCH  28  29
HETATM   29  C29 UNL     1      -1.321   6.156   1.162  1.00  0.00     0.027 C 
BRANCH  29  30
HETATM   30  C30 UNL     1      -0.828   7.362   1.973  1.00  0.00     0.229 C 
BRANCH  30  31
HETATM   31  N2  UNL     1      -0.730   8.492   1.066  1.00  0.00    -0.079 N 
ATOM     32  H23 UNL     1      -0.148   8.297   0.251  1.00  0.00     0.274 HD
ATOM     33  H22 UNL     1      -1.601   8.678   0.568  1.00  0.00     0.274 HD
ATOM     34  H21 UNL     1      -0.402   9.294   1.605  1.00  0.00     0.274 HD
ENDBRANCH  30  31
ENDBRANCH  29  30
ENDBRANCH  28  29
ENDBRANCH  27  28
ENDBRANCH  21  27
BRANCH  24  35
HETATM   35  C33 UNL     1      -3.312   1.591  -2.171  1.00  0.00     0.011 C 
HETATM   36  C34 UNL     1      -3.429   2.916  -2.937  1.00  0.00     0.006 C 
ENDBRANCH  24  35
BRANCH  25  37
HETATM   37  O9  UNL     1      -4.296   0.614   0.145  1.00  0.00    -0.387 OA
ATOM     38  H9  UNL     1      -4.619   1.475   0.382  1.00  0.00     0.210 HD
ENDBRANCH  25  37
BRANCH   1  39
HETATM   39  O2  UNL     1      -3.312  -1.653   0.061  1.00  0.00    -0.312 OA
BRANCH  39  40
HETATM   40  C5  UNL     1      -4.021  -2.439  -0.769  1.00  0.00     0.259 C 
HETATM   41  O1  UNL     1      -3.889  -2.277  -1.977  1.00  0.00    -0.265 OA
BRANCH  40  42
HETATM   42  C4  UNL     1      -4.932  -3.467  -0.206  1.00  0.00     0.111 C 
BRANCH  42  43
HETATM   43  C3  UNL     1      -4.914  -3.451   1.309  1.00  0.00     0.009 C 
BRANCH  43  44
HETATM   44  C2  UNL     1      -5.839  -4.493   1.883  1.00  0.00    -0.004 C 
HETATM   45  C1  UNL     1      -5.445  -5.868   1.444  1.00  0.00     0.005 C 
ENDBRANCH  43  44
ENDBRANCH  42  43
ENDBRANCH  40  42
ENDBRANCH  39  40
ENDBRANCH   1  39
BRANCH  10  46
HETATM   46  C15 UNL     1       3.607  -1.732   0.862  1.00  0.00     0.037 C 
BRANCH  46  47
HETATM   47  C16 UNL     1       4.816  -2.555   0.968  1.00  0.00    -0.017 C 
HETATM   48  C17 UNL     1       6.102  -1.879   0.627  1.00  0.00     0.010 C 
BRANCH  47  49
HETATM   49  C18 UNL     1       4.932  -3.029   2.441  1.00  0.00    -0.000 C 
HETATM   50  C19 UNL     1       6.159  -3.881   2.611  1.00  0.00     0.005 C 
ENDBRANCH  47  49
ENDBRANCH  46  47
ENDBRANCH  10  46
BRANCH   6  51
HETATM   51  C11 UNL     1      -0.015  -3.968  -1.624  1.00  0.00     0.018 C 
HETATM   52  C12 UNL     1       0.935  -5.120  -1.609  1.00  0.00     0.006 C 
ENDBRANCH   6  51
TORSDOF 16
