REMARK  7 active torsions:
REMARK  status: ('A' for Active; 'I' for Inactive)
REMARK    1  A    between atoms: N1_2  and  C2_5 
REMARK    2  A    between atoms: C2_5  and  C3_6 
REMARK    3  A    between atoms: C6_9  and  C7_10 
REMARK    4  A    between atoms: C7_10  and  N2_11 
REMARK    5  A    between atoms: N2_11  and  C8_13 
REMARK    6  A    between atoms: N3_16  and  C11_17 
REMARK    7  A    between atoms: N4_20  and  C14_22 
ROOT
HETATM    1  C8  UNL     1      -0.438  -1.771  -0.277  1.00  0.00     0.096 C 
HETATM    2  C9  UNL     1      -0.524  -0.300  -0.140  1.00  0.00     0.046 C 
HETATM    3  C10 UNL     1       0.904   0.153   0.048  1.00  0.00     0.126 C 
HETATM    4  N3  UNL     1       1.627  -0.999   0.478  1.00  0.00    -0.365 N 
HETATM    5  C19 UNL     1       0.718  -2.082   0.696  1.00  0.00     0.149 C 
ENDROOT
BRANCH   4   6
HETATM    6  C11 UNL     1       3.037  -1.050   0.633  1.00  0.00     0.107 A 
HETATM    7  C12 UNL     1       3.844  -0.052   0.090  1.00  0.00     0.097 A 
HETATM    8  C13 UNL     1       5.225  -0.028   0.203  1.00  0.00     0.111 A 
HETATM    9  N4  UNL     1       5.893   0.921  -0.334  1.00  0.00    -0.327 N 
HETATM   10  N7  UNL     1       5.781  -1.043   0.882  1.00  0.00    -0.338 N 
ATOM     11  H4  UNL     1       5.332   1.618  -0.824  1.00  0.00     0.169 HD
HETATM   12  C18 UNL     1       5.029  -2.021   1.417  1.00  0.00     0.183 A 
ATOM     13  H7  UNL     1       6.794  -1.073   0.995  1.00  0.00     0.168 HD
HETATM   14  N8  UNL     1       3.668  -2.037   1.301  1.00  0.00    -0.339 N 
ATOM     15  H8  UNL     1       3.129  -2.795   1.720  1.00  0.00     0.168 HD
BRANCH   9  16
HETATM   16  C14 UNL     1       7.263   1.153  -0.355  1.00  0.00     0.123 A 
HETATM   17  C15 UNL     1       7.847   2.429  -0.254  1.00  0.00     0.075 A 
HETATM   18  C16 UNL     1       9.206   2.225  -0.329  1.00  0.00     0.025 A 
HETATM   19  C17 UNL     1      10.228   3.300  -0.266  1.00  0.00     0.070 C 
HETATM   20  N5  UNL     1       9.410   0.914  -0.466  1.00  0.00    -0.304 N 
HETATM   21  N6  UNL     1       8.265   0.294  -0.480  1.00  0.00    -0.285 N 
ATOM     22  H5  UNL     1      10.323   0.466  -0.547  1.00  0.00     0.186 HD
ATOM     23  H6  UNL     1       8.154  -0.716  -0.574  1.00  0.00     0.188 HD
ENDBRANCH   9  16
ENDBRANCH   4   6
BRANCH   1  24
HETATM   24  N2  UNL     1      -1.510  -2.594   0.038  1.00  0.00    -0.415 N 
ATOM     25  H2  UNL     1      -1.408  -3.279   0.786  1.00  0.00     0.153 HD
BRANCH  24  26
HETATM   26  C7  UNL     1      -2.741  -2.506  -0.653  1.00  0.00     0.118 C 
BRANCH  26  27
HETATM   27  C6  UNL     1      -3.542  -1.303  -0.320  1.00  0.00     0.003 C 
HETATM   28  C5  UNL     1      -4.867  -1.264  -1.119  1.00  0.00     0.007 C 
HETATM   29  C4  UNL     1      -5.348   0.156  -0.955  1.00  0.00     0.007 C 
HETATM   30  C3  UNL     1      -5.548   0.563   0.450  1.00  0.00     0.011 C 
HETATM   31  C21 UNL     1      -4.643  -0.056   1.466  1.00  0.00     0.007 C 
HETATM   32  C20 UNL     1      -4.052  -1.367   1.136  1.00  0.00     0.007 C 
BRANCH  30  33
HETATM   33  C2  UNL     1      -7.006   0.519   0.864  1.00  0.00     0.236 C 
BRANCH  33  34
HETATM   34  N1  UNL     1      -7.849   1.385   0.098  1.00  0.00    -0.079 N 
HETATM   35  C1  UNL     1      -7.576   2.776   0.341  1.00  0.00     0.267 C 
ATOM     36  H12 UNL     1      -8.834   1.171   0.255  1.00  0.00     0.276 HD
ATOM     37  H11 UNL     1      -7.791   1.168  -0.897  1.00  0.00     0.276 HD
ENDBRANCH  33  34
ENDBRANCH  30  33
ENDBRANCH  26  27
ENDBRANCH  24  26
ENDBRANCH   1  24
TORSDOF 7
