REMARK  9 active torsions:
REMARK  status: ('A' for Active; 'I' for Inactive)
REMARK    1  A    between atoms: C2_2  and  C3_3 
REMARK    2  A    between atoms: N2_9  and  C6_10 
REMARK    3  A    between atoms: C8_12  and  O2_13 
REMARK    4  A    between atoms: C9_15  and  C10_16 
REMARK    5  A    between atoms: C10_16  and  O3_17 
REMARK    6  A    between atoms: C12_21  and  N3_22 
REMARK       I    between atoms: N3_22  and  C13_24 
REMARK    7  A    between atoms: C13_24  and  C14_26 
REMARK    8  A    between atoms: C14_26  and  C15_27 
REMARK    9  A    between atoms: C15_27  and  C16_28 
ROOT
HETATM    1  C3  UNL     1      -0.805  -3.357   0.408  1.00  0.00     0.005 C 
HETATM    2  C4  UNL     1      -1.738  -2.444   0.258  1.00  0.00     0.060 A 
HETATM    3  N1  UNL     1      -3.041  -2.684   0.715  1.00  0.00    -0.307 N 
ATOM      4  H1  UNL     1      -3.266  -3.559   1.189  1.00  0.00     0.170 HD
HETATM    5  C5  UNL     1      -4.054  -1.692   0.512  1.00  0.00     0.329 A 
HETATM    6  O1  UNL     1      -5.216  -1.949   0.941  1.00  0.00    -0.246 OA
HETATM    7  N2  UNL     1      -3.747  -0.475  -0.145  1.00  0.00    -0.280 N 
HETATM    8  C11 UNL     1      -2.409  -0.303  -0.578  1.00  0.00     0.130 A 
HETATM    9  C12 UNL     1      -1.441  -1.176  -0.419  1.00  0.00     0.077 A 
ENDROOT
BRANCH   9  10
HETATM   10  N3  UNL     1      -0.146  -0.880  -0.908  1.00  0.00    -0.324 N 
HETATM   11  C13 UNL     1       0.954  -0.646  -0.054  1.00  0.00     0.222 C 
HETATM   12  O5  UNL     1       0.792  -0.689   1.186  1.00  0.00    -0.273 OA
ATOM     13  H3  UNL     1      -0.002  -0.834  -1.917  1.00  0.00     0.169 HD
BRANCH  11  14
HETATM   14  C14 UNL     1       2.308  -0.348  -0.578  1.00  0.00     0.103 C 
BRANCH  14  15
HETATM   15  C15 UNL     1       3.281  -0.145   0.545  1.00  0.00     0.014 C 
BRANCH  15  16
HETATM   16  C16 UNL     1       4.668   0.159   0.083  1.00  0.00    -0.014 C 
HETATM   17  C17 UNL     1       4.764   1.406  -0.750  1.00  0.00     0.004 C 
HETATM   18  C18 UNL     1       6.205   1.484  -1.259  1.00  0.00     0.000 C 
HETATM   19  C19 UNL     1       7.185   1.581  -0.137  1.00  0.00     0.000 C 
HETATM   20  C20 UNL     1       6.980   0.589   0.959  1.00  0.00     0.000 C 
HETATM   21  C21 UNL     1       5.525   0.391   1.325  1.00  0.00     0.004 C 
ENDBRANCH  15  16
ENDBRANCH  14  15
ENDBRANCH  11  14
ENDBRANCH   9  10
BRANCH   1  22
HETATM   22  C2  UNL     1      -1.011  -4.659   1.040  1.00  0.00     0.025 C 
HETATM   23  C1  UNL     1      -0.123  -4.832   2.272  1.00  0.00     0.009 C 
ENDBRANCH   1  22
BRANCH   7  24
HETATM   24  C6  UNL     1      -4.771   0.500  -0.338  1.00  0.00     0.235 C 
HETATM   25  C7  UNL     1      -5.029   0.777  -1.826  1.00  0.00     0.088 C 
HETATM   26  C8  UNL     1      -5.811   2.089  -1.720  1.00  0.00     0.153 C 
HETATM   27  C9  UNL     1      -5.483   2.541  -0.349  1.00  0.00     0.176 C 
HETATM   28  O4  UNL     1      -4.409   1.770   0.104  1.00  0.00    -0.356 OA
BRANCH  26  29
HETATM   29  O2  UNL     1      -5.444   2.969  -2.727  1.00  0.00    -0.393 OA
ATOM     30  H2  UNL     1      -5.929   3.783  -2.661  1.00  0.00     0.210 HD
ENDBRANCH  26  29
BRANCH  27  31
HETATM   31  C10 UNL     1      -5.159   3.985  -0.204  1.00  0.00     0.198 C 
BRANCH  31  32
HETATM   32  O3  UNL     1      -4.055   4.404  -0.903  1.00  0.00    -0.398 OA
ATOM     33  H3  UNL     1      -3.848   5.327  -0.810  1.00  0.00     0.209 HD
ENDBRANCH  31  32
ENDBRANCH  27  31
ENDBRANCH   7  24
TORSDOF 9
