REMARK  8 active torsions:
REMARK  status: ('A' for Active; 'I' for Inactive)
REMARK    1  A    between atoms: C2_2  and  C3_3 
REMARK    2  A    between atoms: C4_4  and  C5_5 
REMARK    3  A    between atoms: C5_5  and  N1_7 
REMARK    4  A    between atoms: N1_7  and  C6_9 
REMARK    5  A    between atoms: C6_9  and  C7_10 
REMARK       I    between atoms: C7_10  and  N2_12 
REMARK    6  A    between atoms: N2_12  and  C8_14 
REMARK    7  A    between atoms: C8_14  and  C9_15 
REMARK    8  A    between atoms: C9_15  and  S2_16 
ROOT
HETATM    1  C3  UNL     1      -3.055   0.488   0.584  1.00  0.00    -0.010 A 
HETATM    2  C4  UNL     1      -2.214  -0.461   1.111  1.00  0.00     0.052 A 
HETATM    3  S3  UNL     1      -2.912  -1.925   0.550  1.00  0.00    -0.079 SA
HETATM    4  C11 UNL     1      -4.232  -1.293  -0.323  1.00  0.00     0.101 A 
HETATM    5  C12 UNL     1      -5.285  -1.839  -1.077  1.00  0.00     0.267 A 
HETATM    6  O2  UNL     1      -5.305  -3.090  -1.159  1.00  0.00    -0.267 OA
HETATM    7  N3  UNL     1      -6.205  -1.063  -1.666  1.00  0.00    -0.299 N 
ATOM      8  H3  UNL     1      -6.973  -1.450  -2.215  1.00  0.00     0.171 HD
HETATM    9  C13 UNL     1      -6.047   0.261  -1.484  1.00  0.00     0.179 A 
HETATM   10  S4  UNL     1      -7.184   1.225  -2.208  1.00  0.00    -0.040 SA
HETATM   11  N4  UNL     1      -5.069   0.802  -0.783  1.00  0.00    -0.331 N 
ATOM     12  H4  UNL     1      -5.032   1.818  -0.702  1.00  0.00     0.168 HD
HETATM   13  C14 UNL     1      -4.097   0.056  -0.156  1.00  0.00     0.065 A 
ENDROOT
BRANCH   2  14
HETATM   14  C5  UNL     1      -1.028  -0.260   1.936  1.00  0.00     0.114 C 
HETATM   15  S1  UNL     1      -1.181   0.317   3.431  1.00  0.00    -0.059 SA
BRANCH  14  16
HETATM   16  N1  UNL     1       0.247  -0.572   1.429  1.00  0.00    -0.371 N 
ATOM     17  H1  UNL     1       0.317  -0.940   0.480  1.00  0.00     0.161 HD
BRANCH  16  18
HETATM   18  C6  UNL     1       1.458  -0.396   2.188  1.00  0.00     0.223 C 
BRANCH  18  19
HETATM   19  C7  UNL     1       2.697  -0.796   1.503  1.00  0.00     0.235 C 
HETATM   20  O1  UNL     1       3.773  -0.639   2.179  1.00  0.00    -0.272 OA
HETATM   21  N2  UNL     1       2.815  -1.321   0.205  1.00  0.00    -0.359 N 
ATOM     22  H2  UNL     1       1.965  -1.456  -0.343  1.00  0.00     0.162 HD
BRANCH  21  23
HETATM   23  C8  UNL     1       4.073  -1.676  -0.387  1.00  0.00     0.132 C 
BRANCH  23  24
HETATM   24  C9  UNL     1       4.958  -0.482  -0.517  1.00  0.00     0.093 C 
BRANCH  24  25
HETATM   25  S2  UNL     1       6.566  -0.941  -1.282  1.00  0.00    -0.172 SA
HETATM   26  C10 UNL     1       7.524   0.614  -1.368  1.00  0.00     0.089 C 
ENDBRANCH  24  25
ENDBRANCH  23  24
ENDBRANCH  21  23
ENDBRANCH  18  19
ENDBRANCH  16  18
ENDBRANCH  14  16
ENDBRANCH   2  14
BRANCH   1  27
HETATM   27  C2  UNL     1      -2.764   1.962   0.862  1.00  0.00     0.038 C 
HETATM   28  C1  UNL     1      -1.630   2.444   0.019  1.00  0.00     0.010 C 
ENDBRANCH   1  27
TORSDOF 8
