REMARK  8 active torsions:
REMARK  status: ('A' for Active; 'I' for Inactive)
REMARK    1  A    between atoms: C2_5  and  S1_6 
REMARK    2  A    between atoms: S1_6  and  C3_7 
REMARK    3  A    between atoms: C3_7  and  C4_8 
REMARK    4  A    between atoms: C8_17  and  O2_18 
REMARK    5  A    between atoms: C9_20  and  C10_21 
REMARK    6  A    between atoms: C10_21  and  C11_22 
REMARK    7  A    between atoms: C13_24  and  C14_25 
REMARK    8  A    between atoms: N4_26  and  C15_28 
ROOT
HETATM    1  O1  UNL     1       1.510   1.837   0.045  1.00  0.00    -0.267 OA
HETATM    2  C1  UNL     1       1.704   0.860  -0.733  1.00  0.00     0.258 A 
HETATM    3  N1  UNL     1       2.693  -0.044  -0.474  1.00  0.00    -0.303 N 
ATOM      4  H1  UNL     1       3.266   0.091   0.359  1.00  0.00     0.171 HD
HETATM    5  C2  UNL     1       2.949  -1.099  -1.258  1.00  0.00     0.148 A 
HETATM    6  N3  UNL     1       2.186  -1.265  -2.353  1.00  0.00    -0.317 N 
ATOM      7  H3  UNL     1       2.360  -2.061  -2.967  1.00  0.00     0.170 HD
HETATM    8  C8  UNL     1       1.199  -0.404  -2.655  1.00  0.00     0.154 A 
HETATM    9  C9  UNL     1       0.918   0.703  -1.847  1.00  0.00     0.066 A 
ENDROOT
BRANCH   9  10
HETATM   10  C10 UNL     1      -0.184   1.626  -2.210  1.00  0.00     0.106 C 
BRANCH  10  11
HETATM   11  C11 UNL     1      -1.351   1.305  -1.310  1.00  0.00     0.014 A 
HETATM   12  C12 UNL     1      -2.246   0.300  -1.568  1.00  0.00     0.039 A 
HETATM   13  C13 UNL     1      -3.177   0.324  -0.517  1.00  0.00    -0.004 A 
HETATM   14  C20 UNL     1      -2.815   1.335   0.333  1.00  0.00     0.101 A 
HETATM   15  N5  UNL     1      -1.707   1.904  -0.182  1.00  0.00    -0.368 N 
ATOM     16  H5  UNL     1      -1.210   2.689   0.239  1.00  0.00     0.165 HD
BRANCH  13  17
HETATM   17  C14 UNL     1      -4.292  -0.588  -0.416  1.00  0.00     0.096 C 
HETATM   18  N4  UNL     1      -5.130  -0.612   0.478  1.00  0.00    -0.393 N 
ATOM     19  H4  UNL     1      -5.791  -1.363   0.280  1.00  0.00     0.159 HD
BRANCH  18  20
HETATM   20  C15 UNL     1      -5.510   0.003   1.655  1.00  0.00     0.081 C 
HETATM   21  C16 UNL     1      -6.391   1.228   1.355  1.00  0.00     0.025 C 
HETATM   22  C17 UNL     1      -7.526   0.550   0.587  1.00  0.00     0.002 C 
HETATM   23  C18 UNL     1      -7.654  -0.842   1.195  1.00  0.00     0.002 C 
HETATM   24  C19 UNL     1      -6.606  -0.882   2.309  1.00  0.00     0.025 C 
ENDBRANCH  18  20
ENDBRANCH  13  17
ENDBRANCH  10  11
ENDBRANCH   9  10
BRANCH   8  25
HETATM   25  O2  UNL     1       0.398  -0.556  -3.783  1.00  0.00    -0.345 OA
ATOM     26  H2  UNL     1      -0.300   0.053  -3.996  1.00  0.00     0.219 HD
ENDBRANCH   8  25
BRANCH   5  27
HETATM   27  S1  UNL     1       4.256  -2.269  -0.889  1.00  0.00    -0.093 SA
BRANCH  27  28
HETATM   28  C3  UNL     1       5.128  -1.846   0.616  1.00  0.00     0.088 C 
BRANCH  28  29
HETATM   29  C4  UNL     1       5.899  -0.550   0.493  1.00  0.00     0.022 C 
HETATM   30  C5  UNL     1       6.936  -0.634  -0.620  1.00  0.00     0.034 C 
HETATM   31  C6  UNL     1       7.865   0.492  -0.214  1.00  0.00     0.232 C 
HETATM   32  N2  UNL     1       7.774   0.597   1.220  1.00  0.00    -0.075 N 
HETATM   33  C7  UNL     1       6.805  -0.342   1.692  1.00  0.00     0.237 C 
ATOM     34  H22 UNL     1       8.679   0.485   1.677  1.00  0.00     0.277 HD
ATOM     35  H21 UNL     1       7.576   1.549   1.529  1.00  0.00     0.277 HD
ENDBRANCH  28  29
ENDBRANCH  27  28
ENDBRANCH   5  27
TORSDOF 8
