REMARK  8 active torsions:
REMARK  status: ('A' for Active; 'I' for Inactive)
REMARK    1  A    between atoms: C2_2  and  C3_3 
REMARK    2  A    between atoms: C3_3  and  C4_4 
REMARK    3  A    between atoms: C4_4  and  C5_5 
REMARK    4  A    between atoms: C5_5  and  N1_6 
REMARK    5  A    between atoms: N1_6  and  C6_8 
REMARK    6  A    between atoms: N5_19  and  C10_20 
REMARK    7  A    between atoms: N6_23  and  C13_24 
REMARK    8  A    between atoms: C13_24  and  C14_25 
ROOT
HETATM    1  C6  UNL     1      -2.848  -1.841  -0.596  1.00  0.00     0.681 A 
HETATM    2  N2  UNL     1      -3.419  -2.301   0.499  1.00  0.00    -0.175 N 
ATOM      3  H2  UNL     1      -4.326  -2.755   0.391  1.00  0.00     0.186 HD
HETATM    4  C7  UNL     1      -2.920  -2.228   1.740  1.00  0.00     0.145 A 
HETATM    5  N3  UNL     1      -3.438  -2.700   2.740  1.00  0.00    -0.383 N 
ATOM      6  H31 UNL     1      -3.058  -2.644   3.685  1.00  0.00     0.157 HD
ATOM      7  H32 UNL     1      -4.346  -3.158   2.668  1.00  0.00     0.157 HD
HETATM    8  C8  UNL     1      -1.687  -1.606   1.838  1.00  0.00     0.123 A 
HETATM    9  N4  UNL     1      -0.923  -1.285   2.902  1.00  0.00    -0.346 N 
ATOM     10  H4  UNL     1      -1.132  -1.506   3.876  1.00  0.00     0.167 HD
HETATM   11  C9  UNL     1       0.166  -0.621   2.458  1.00  0.00     0.185 A 
HETATM   12  N5  UNL     1       0.087  -0.529   1.106  1.00  0.00    -0.322 N 
HETATM   13  C20 UNL     1      -1.066  -1.129   0.707  1.00  0.00     0.155 A 
HETATM   14  N9  UNL     1      -1.599  -1.229  -0.503  1.00  0.00    -0.174 N 
ATOM     15  H9  UNL     1      -1.117  -0.874  -1.329  1.00  0.00     0.186 HD
ENDROOT
BRANCH  12  16
HETATM   16  C10 UNL     1       1.184  -0.000   0.395  1.00  0.00     0.094 C 
HETATM   17  C11 UNL     1       1.325  -0.222  -1.051  1.00  0.00     0.041 C 
HETATM   18  C12 UNL     1       2.769  -0.030  -1.472  1.00  0.00     0.097 C 
HETATM   19  N6  UNL     1       3.521   0.676  -0.444  1.00  0.00    -0.290 NA
HETATM   20  C18 UNL     1       3.616  -0.064   0.768  1.00  0.00     0.097 C 
HETATM   21  C19 UNL     1       2.381  -0.851   0.985  1.00  0.00     0.041 C 
BRANCH  19  22
HETATM   22  C13 UNL     1       4.682   1.266  -0.925  1.00  0.00     0.091 C 
BRANCH  22  23
HETATM   23  C14 UNL     1       5.645   1.843  -0.004  1.00  0.00     0.066 A 
HETATM   24  N7  UNL     1       5.659   2.873   0.816  1.00  0.00    -0.350 N 
HETATM   25  C15 UNL     1       6.918   3.154   1.260  1.00  0.00     0.181 A 
ATOM     26  H7  UNL     1       4.828   3.398   1.087  1.00  0.00     0.166 HD
HETATM   27  N8  UNL     1       7.755   2.239   0.685  1.00  0.00    -0.354 N 
HETATM   28  C16 UNL     1       7.019   1.452  -0.069  1.00  0.00     0.034 A 
ATOM     29  H8  UNL     1       8.765   2.178   0.817  1.00  0.00     0.166 HD
HETATM   30  C17 UNL     1       7.322   0.178  -0.800  1.00  0.00     0.070 C 
ENDBRANCH  22  23
ENDBRANCH  19  22
ENDBRANCH  12  16
BRANCH   1  31
HETATM   31  N1  UNL     1      -3.521  -1.430  -1.688  1.00  0.00    -0.226 N 
ATOM     32  H1  UNL     1      -3.064  -1.114  -2.544  1.00  0.00     0.177 HD
BRANCH  31  33
HETATM   33  C5  UNL     1      -5.043  -1.486  -1.514  1.00  0.00     0.138 C 
BRANCH  33  34
HETATM   34  C4  UNL     1      -5.248  -0.512  -0.361  1.00  0.00     0.020 C 
BRANCH  34  35
HETATM   35  C3  UNL     1      -6.587  -0.224   0.093  1.00  0.00     0.001 C 
BRANCH  35  36
HETATM   36  C2  UNL     1      -7.350   0.888  -0.594  1.00  0.00    -0.004 C 
HETATM   37  C1  UNL     1      -6.597   2.209  -0.382  1.00  0.00     0.005 C 
ENDBRANCH  35  36
ENDBRANCH  34  35
ENDBRANCH  33  34
ENDBRANCH  31  33
ENDBRANCH   1  31
TORSDOF 8
