REMARK  13 active torsions:
REMARK  status: ('A' for Active; 'I' for Inactive)
REMARK    1  A    between atoms: C1_2  and  C2_3 
REMARK       I    between atoms: C1_2  and  N4_23 
REMARK    2  A    between atoms: C2_3  and  C3_4 
REMARK    3  A    between atoms: C3_4  and  C4_5 
REMARK    4  A    between atoms: C4_5  and  C5_6 
REMARK    5  A    between atoms: C5_6  and  C6_7 
REMARK    6  A    between atoms: C6_7  and  C7_8 
REMARK    7  A    between atoms: C7_8  and  C8_9 
REMARK    8  A    between atoms: C8_9  and  N1_10 
REMARK    9  A    between atoms: C10_12  and  C11_13 
REMARK   10  A    between atoms: N4_23  and  C17_25 
REMARK   11  A    between atoms: C22_30  and  C23_31 
REMARK   12  A    between atoms: C26_34  and  C27_35 
REMARK   13  A    between atoms: C27_35  and  N5_36 
ROOT
HETATM    1  O1  UNL     1      -1.895   3.044  -3.737  1.00  0.00    -0.273 OA
HETATM    2  C1  UNL     1      -1.723   2.059  -3.013  1.00  0.00     0.222 C 
HETATM    3  N4  UNL     1      -2.609   0.981  -2.906  1.00  0.00    -0.326 N 
ATOM      4  H4  UNL     1      -2.359   0.232  -2.260  1.00  0.00     0.169 HD
ENDROOT
BRANCH   2   5
HETATM    5  C2  UNL     1      -0.436   2.081  -2.202  1.00  0.00     0.103 C 
BRANCH   5   6
HETATM    6  C3  UNL     1       0.011   3.487  -2.062  1.00  0.00     0.009 C 
BRANCH   6   7
HETATM    7  C4  UNL     1       1.302   3.807  -1.452  1.00  0.00     0.000 C 
BRANCH   7   8
HETATM    8  C5  UNL     1       1.674   3.379  -0.101  1.00  0.00     0.000 C 
BRANCH   8   9
HETATM    9  C6  UNL     1       1.828   1.917   0.138  1.00  0.00     0.002 C 
BRANCH   9  10
HETATM   10  C7  UNL     1       2.876   1.332  -0.805  1.00  0.00     0.022 C 
BRANCH  10  11
HETATM   11  C8  UNL     1       3.007  -0.131  -0.561  1.00  0.00     0.150 C 
BRANCH  11  12
HETATM   12  N1  UNL     1       3.493  -0.348   0.803  1.00  0.00    -0.287 N 
HETATM   13  C9  UNL     1       4.817  -0.456   1.146  1.00  0.00     0.143 A 
HETATM   14  C10 UNL     1       4.926  -0.641   2.499  1.00  0.00     0.076 A 
HETATM   15  N2  UNL     1       3.664  -0.640   2.950  1.00  0.00    -0.284 N 
HETATM   16  N3  UNL     1       2.836  -0.467   1.935  1.00  0.00    -0.240 N 
ATOM     17  H2  UNL     1       3.386  -0.755   3.925  1.00  0.00     0.188 HD
ATOM     18  H3  UNL     1       1.820  -0.431   2.019  1.00  0.00     0.208 HD
BRANCH  14  19
HETATM   19  C11 UNL     1       6.114  -0.803   3.322  1.00  0.00    -0.007 A 
HETATM   20  C12 UNL     1       7.402  -0.947   2.767  1.00  0.00     0.014 A 
HETATM   21  C13 UNL     1       8.502  -1.104   3.572  1.00  0.00     0.001 A 
HETATM   22  C14 UNL     1       8.409  -1.126   4.949  1.00  0.00     0.000 A 
HETATM   23  C15 UNL     1       7.142  -0.983   5.512  1.00  0.00     0.001 A 
HETATM   24  C16 UNL     1       6.045  -0.829   4.688  1.00  0.00     0.014 A 
ENDBRANCH  14  19
ENDBRANCH  11  12
ENDBRANCH  10  11
ENDBRANCH   9  10
ENDBRANCH   8   9
ENDBRANCH   7   8
ENDBRANCH   6   7
ENDBRANCH   5   6
ENDBRANCH   2   5
BRANCH   3  25
HETATM   25  C17 UNL     1      -3.818   0.845  -3.618  1.00  0.00     0.045 A 
HETATM   26  C18 UNL     1      -4.027   1.469  -4.837  1.00  0.00     0.030 A 
HETATM   27  C19 UNL     1      -5.186   1.232  -5.543  1.00  0.00     0.002 A 
HETATM   28  C20 UNL     1      -6.154   0.361  -5.023  1.00  0.00     0.001 A 
HETATM   29  C21 UNL     1      -5.916  -0.233  -3.814  1.00  0.00     0.014 A 
HETATM   30  C22 UNL     1      -4.776  -0.017  -3.095  1.00  0.00     0.001 A 
BRANCH  30  31
HETATM   31  C23 UNL     1      -4.654  -0.623  -1.788  1.00  0.00    -0.024 A 
HETATM   32  C24 UNL     1      -4.905  -1.953  -1.543  1.00  0.00     0.013 A 
HETATM   33  C25 UNL     1      -4.836  -2.463  -0.271  1.00  0.00     0.010 A 
HETATM   34  C26 UNL     1      -4.517  -1.710   0.842  1.00  0.00    -0.038 A 
HETATM   35  C30 UNL     1      -4.260  -0.358   0.586  1.00  0.00     0.010 A 
HETATM   36  C31 UNL     1      -4.327   0.156  -0.672  1.00  0.00     0.013 A 
BRANCH  34  37
HETATM   37  C27 UNL     1      -4.514  -2.226   2.202  1.00  0.00     0.188 C 
BRANCH  37  38
HETATM   38  N5  UNL     1      -3.492  -3.174   2.540  1.00  0.00    -0.283 N 
HETATM   39  C28 UNL     1      -2.254  -3.009   3.011  1.00  0.00     0.201 A 
HETATM   40  N6  UNL     1      -1.663  -4.220   3.228  1.00  0.00    -0.346 N 
HETATM   41  C29 UNL     1      -2.598  -5.141   2.868  1.00  0.00     0.198 A 
ATOM     42  H6  UNL     1      -0.723  -4.397   3.583  1.00  0.00     0.167 HD
HETATM   43  N7  UNL     1      -3.686  -4.489   2.456  1.00  0.00    -0.293 N 
ATOM     44  H7  UNL     1      -4.542  -4.933   2.125  1.00  0.00     0.188 HD
ENDBRANCH  37  38
ENDBRANCH  34  37
ENDBRANCH  30  31
ENDBRANCH   3  25
TORSDOF 13
