REMARK  7 active torsions:
REMARK  status: ('A' for Active; 'I' for Inactive)
REMARK    1  A    between atoms: C2_2  and  N1_4 
REMARK    2  A    between atoms: N1_4  and  C4_6 
REMARK    3  A    between atoms: C4_6  and  N2_8 
REMARK    4  A    between atoms: N2_8  and  N3_10 
REMARK       I    between atoms: N3_10  and  C5_11 
REMARK    5  A    between atoms: C5_11  and  C6_13 
REMARK       I    between atoms: C6_13  and  N4_15 
REMARK    6  A    between atoms: N4_15  and  C7_17 
REMARK    7  A    between atoms: C7_17  and  C8_18 
ROOT
HETATM    1  N3  UNL     1      -0.089  -0.657   0.457  1.00  0.00    -0.274 NA
HETATM    2  C5  UNL     1      -1.342  -0.917   0.739  1.00  0.00     0.403 C 
HETATM    3  O1  UNL     1      -1.832  -1.122   1.910  1.00  0.00    -0.244 OA
ENDROOT
BRANCH   1   4
HETATM    4  N2  UNL     1       1.216  -0.391   0.201  1.00  0.00    -0.205 N 
ATOM      5  H2  UNL     1       1.764   0.042   0.944  1.00  0.00     0.204 HD
BRANCH   4   6
HETATM    6  C4  UNL     1       1.893  -0.678  -1.058  1.00  0.00     0.197 C 
HETATM    7  S1  UNL     1       1.188  -1.389  -2.319  1.00  0.00    -0.039 SA
BRANCH   6   8
HETATM    8  N1  UNL     1       3.302  -0.292  -1.186  1.00  0.00    -0.361 N 
ATOM      9  H1  UNL     1       3.798  -0.518  -2.048  1.00  0.00     0.162 HD
BRANCH   8  10
HETATM   10  C2  UNL     1       3.997   0.384  -0.153  1.00  0.00     0.076 C 
HETATM   11  C1  UNL     1       4.360   1.768  -0.479  1.00  0.00     0.032 C 
HETATM   12  C3  UNL     1       5.281  -0.394   0.172  1.00  0.00     0.032 C 
ENDBRANCH   8  10
ENDBRANCH   6   8
ENDBRANCH   4   6
ENDBRANCH   1   4
BRANCH   2  13
HETATM   13  C6  UNL     1      -2.481  -1.033  -0.264  1.00  0.00     0.330 C 
HETATM   14  O2  UNL     1      -2.351  -1.534  -1.364  1.00  0.00    -0.261 OA
HETATM   15  N4  UNL     1      -3.680  -0.496   0.210  1.00  0.00    -0.323 N 
ATOM     16  H4  UNL     1      -3.702  -0.083   1.142  1.00  0.00     0.168 HD
BRANCH  15  17
HETATM   17  C7  UNL     1      -4.903  -0.508  -0.588  1.00  0.00     0.162 C 
BRANCH  17  18
HETATM   18  C8  UNL     1      -5.939   0.341  -0.119  1.00  0.00     0.270 C 
HETATM   19  N5  UNL     1      -5.763   1.340   0.889  1.00  0.00    -0.057 NA
HETATM   20  O3  UNL     1      -7.132   0.249  -0.587  1.00  0.00    -0.270 OA
ENDBRANCH  17  18
ENDBRANCH  15  17
ENDBRANCH   2  13
TORSDOF 7
