REMARK  15 active torsions:
REMARK  status: ('A' for Active; 'I' for Inactive)
REMARK    1  A    between atoms: C2_2  and  O2_4 
REMARK    2  A    between atoms: O2_4  and  C3_5 
REMARK    3  A    between atoms: C3_5  and  N1_6 
REMARK    4  A    between atoms: C3_5  and  C8_16 
REMARK    5  A    between atoms: C3_5  and  C14_22 
REMARK       I    between atoms: N1_6  and  C4_8 
REMARK    6  A    between atoms: C4_8  and  O4_10 
REMARK    7  A    between atoms: O4_10  and  C5_11 
REMARK    8  A    between atoms: C5_11  and  O5_14 
REMARK    9  A    between atoms: C14_22  and  O6_23 
REMARK   10  A    between atoms: C14_22  and  C15_25 
REMARK   11  A    between atoms: C15_25  and  O7_26 
REMARK   12  A    between atoms: C15_25  and  C16_28 
REMARK   13  A    between atoms: C16_28  and  O8_29 
REMARK   14  A    between atoms: C16_28  and  C17_31 
REMARK   15  A    between atoms: C17_31  and  O9_32 
ROOT
HETATM    1  C3  UNL     1       0.437  -0.672  -0.438  1.00  0.00     0.204 C 
ENDROOT
BRANCH   1   2
HETATM    2  O2  UNL     1      -0.090  -1.345  -1.529  1.00  0.00    -0.282 OA
BRANCH   2   3
HETATM    3  C2  UNL     1       0.365  -2.421  -2.172  1.00  0.00     0.257 C 
HETATM    4  C1  UNL     1      -0.362  -3.030  -3.373  1.00  0.00     0.126 C 
HETATM    5  O1  UNL     1       1.427  -2.971  -1.792  1.00  0.00    -0.266 OA
ENDBRANCH   2   3
ENDBRANCH   1   2
BRANCH   1   6
HETATM    6  N1  UNL     1      -0.535   0.401  -0.174  1.00  0.00    -0.298 N 
HETATM    7  C4  UNL     1      -1.935   0.293  -0.394  1.00  0.00     0.365 C 
HETATM    8  O3  UNL     1      -2.463  -0.726  -0.873  1.00  0.00    -0.238 OA
ATOM      9  H1  UNL     1      -0.179   1.284   0.192  1.00  0.00     0.168 HD
BRANCH   7  10
HETATM   10  O4  UNL     1      -2.736   1.357  -0.067  1.00  0.00    -0.267 OA
BRANCH  10  11
HETATM   11  C5  UNL     1      -4.123   1.447  -0.238  1.00  0.00     0.165 C 
HETATM   12  C6  UNL     1      -4.912   0.371   0.474  1.00  0.00     0.079 C 
HETATM   13  C7  UNL     1      -4.535   2.771   0.442  1.00  0.00     0.079 C 
BRANCH  11  14
HETATM   14  O5  UNL     1      -4.489   1.467  -1.573  1.00  0.00    -0.365 OA
ATOM     15  H5  UNL     1      -5.430   1.528  -1.689  1.00  0.00     0.213 HD
ENDBRANCH  11  14
ENDBRANCH  10  11
ENDBRANCH   7  10
ENDBRANCH   1   6
BRANCH   1  16
HETATM   16  C8  UNL     1       0.610  -1.520   0.767  1.00  0.00     0.000 A 
HETATM   17  C9  UNL     1      -0.419  -1.801   1.616  1.00  0.00     0.012 A 
HETATM   18  C10 UNL     1      -0.290  -2.623   2.752  1.00  0.00     0.001 A 
HETATM   19  C11 UNL     1       0.922  -3.180   3.041  1.00  0.00     0.000 A 
HETATM   20  C12 UNL     1       1.988  -2.915   2.205  1.00  0.00     0.001 A 
HETATM   21  C13 UNL     1       1.843  -2.109   1.099  1.00  0.00     0.012 A 
ENDBRANCH   1  16
BRANCH   1  22
HETATM   22  C14 UNL     1       1.702   0.002  -0.809  1.00  0.00     0.210 C 
BRANCH  22  23
HETATM   23  O6  UNL     1       1.465   0.770  -1.983  1.00  0.00    -0.388 OA
ATOM     24  H6  UNL     1       2.277   1.202  -2.221  1.00  0.00     0.210 HD
ENDBRANCH  22  23
BRANCH  22  25
HETATM   25  C15 UNL     1       2.558   0.729   0.129  1.00  0.00     0.182 C 
BRANCH  25  26
HETATM   26  O7  UNL     1       3.825   0.827  -0.594  1.00  0.00    -0.390 OA
ATOM     27  H7  UNL     1       4.381   1.299   0.015  1.00  0.00     0.210 HD
ENDBRANCH  25  26
BRANCH  25  28
HETATM   28  C16 UNL     1       2.245   2.231   0.286  1.00  0.00     0.173 C 
BRANCH  28  29
HETATM   29  O8  UNL     1       2.027   2.850  -0.925  1.00  0.00    -0.391 OA
ATOM     30  H8  UNL     1       1.834   3.775  -0.828  1.00  0.00     0.210 HD
ENDBRANCH  28  29
BRANCH  28  31
HETATM   31  C17 UNL     1       3.607   2.836   0.746  1.00  0.00     0.198 C 
BRANCH  31  32
HETATM   32  O9  UNL     1       3.396   4.210   0.846  1.00  0.00    -0.398 OA
ATOM     33  H9  UNL     1       4.226   4.578   1.126  1.00  0.00     0.209 HD
ENDBRANCH  31  32
ENDBRANCH  28  31
ENDBRANCH  25  28
ENDBRANCH  22  25
ENDBRANCH   1  22
TORSDOF 15
