REMARK  11 active torsions:
REMARK  status: ('A' for Active; 'I' for Inactive)
REMARK    1  A    between atoms: C2_2  and  C3_3 
REMARK    2  A    between atoms: C3_3  and  C5_5 
REMARK    3  A    between atoms: C5_5  and  C6_7 
REMARK    4  A    between atoms: C6_7  and  O1_8 
REMARK    5  A    between atoms: C6_7  and  C7_10 
REMARK    6  A    between atoms: C8_11  and  O2_12 
REMARK    7  A    between atoms: O2_12  and  N2_13 
REMARK    8  A    between atoms: C9_18  and  S1_19 
REMARK    9  A    between atoms: S1_19  and  N4_20 
REMARK   10  A    between atoms: N5_25  and  N6_26 
REMARK   11  A    between atoms: N6_26  and  S2_28 
ROOT
HETATM    1  C7  UNL     1      -0.814  -0.821   0.367  1.00  0.00     0.148 A 
HETATM    2  C8  UNL     1      -1.383  -2.077   0.710  1.00  0.00     0.203 A 
HETATM    3  N3  UNL     1      -2.533  -2.224   0.121  1.00  0.00    -0.307 N 
ATOM      4  H3  UNL     1      -3.145  -3.036   0.198  1.00  0.00     0.170 HD
HETATM    5  C9  UNL     1      -2.776  -1.113  -0.611  1.00  0.00     0.248 A 
HETATM    6  N5  UNL     1      -1.735  -0.279  -0.444  1.00  0.00    -0.212 N 
ENDROOT
BRANCH   1   7
HETATM    7  C6  UNL     1       0.413  -0.288   0.921  1.00  0.00     0.123 C 
BRANCH   7   8
HETATM    8  C5  UNL     1       1.671  -0.372   0.119  1.00  0.00     0.084 C 
HETATM    9  N1  UNL     1       1.514  -0.297  -1.260  1.00  0.00    -0.099 NA
BRANCH   8  10
HETATM   10  C3  UNL     1       2.827   0.351   0.677  1.00  0.00    -0.057 C 
HETATM   11  C4  UNL     1       4.100  -0.433   0.574  1.00  0.00     0.045 C 
BRANCH  10  12
HETATM   12  C2  UNL     1       3.027   1.792   0.412  1.00  0.00     0.031 C 
HETATM   13  C1  UNL     1       3.623   2.063  -0.969  1.00  0.00     0.010 C 
ENDBRANCH  10  12
ENDBRANCH   8  10
ENDBRANCH   7   8
BRANCH   7  14
HETATM   14  O1  UNL     1       0.567  -0.398   2.296  1.00  0.00    -0.357 OA
ATOM     15  H1  UNL     1      -0.233  -0.345   2.806  1.00  0.00     0.218 HD
ENDBRANCH   7  14
ENDBRANCH   1   7
BRANCH   2  16
HETATM   16  O2  UNL     1      -0.748  -2.946   1.538  1.00  0.00    -0.224 OA
BRANCH  16  17
HETATM   17  N2  UNL     1      -1.176  -4.158   1.941  1.00  0.00    -0.303 N 
ATOM     18  H22 UNL     1      -2.084  -4.440   1.572  1.00  0.00     0.184 HD
ATOM     19  H21 UNL     1      -0.699  -4.811   2.563  1.00  0.00     0.184 HD
ENDBRANCH  16  17
ENDBRANCH   2  16
BRANCH   6  20
HETATM   20  N6  UNL     1      -1.789   1.067  -0.926  1.00  0.00    -0.218 N 
ATOM     21  H6  UNL     1      -1.360   1.315  -1.817  1.00  0.00     0.200 HD
BRANCH  20  22
HETATM   22  S2  UNL     1      -2.592   2.265   0.024  1.00  0.00     0.240 S 
HETATM   23  C10 UNL     1      -1.445   3.218   0.978  1.00  0.00     0.187 C 
HETATM   24  O5  UNL     1      -3.394   3.246  -0.772  1.00  0.00    -0.205 OA
HETATM   25  O6  UNL     1      -3.486   1.512   1.037  1.00  0.00    -0.205 OA
ENDBRANCH  20  22
ENDBRANCH   6  20
BRANCH   5  26
HETATM   26  S1  UNL     1      -4.241  -0.953  -1.596  1.00  0.00     0.290 S 
HETATM   27  O3  UNL     1      -5.431  -1.523  -0.903  1.00  0.00    -0.198 OA
HETATM   28  O4  UNL     1      -4.527   0.446  -1.985  1.00  0.00    -0.198 OA
BRANCH  26  29
HETATM   29  N4  UNL     1      -3.993  -1.822  -3.079  1.00  0.00    -0.322 N 
ATOM     30  H42 UNL     1      -3.145  -2.332  -3.326  1.00  0.00     0.169 HD
ATOM     31  H41 UNL     1      -4.836  -1.730  -3.646  1.00  0.00     0.169 HD
ENDBRANCH  26  29
ENDBRANCH   5  26
TORSDOF 11
