REMARK  11 active torsions:
REMARK  status: ('A' for Active; 'I' for Inactive)
REMARK    1  A    between atoms: C2_2  and  O1_3 
REMARK    2  A    between atoms: C2_2  and  C3_5 
REMARK    3  A    between atoms: C3_5  and  O2_7 
REMARK    4  A    between atoms: C3_5  and  C5_9 
REMARK    5  A    between atoms: C5_9  and  C6_10 
REMARK    6  A    between atoms: C7_13  and  S1_14 
REMARK    7  A    between atoms: S1_14  and  N2_17 
REMARK    8  A    between atoms: N2_17  and  C9_19 
REMARK    9  A    between atoms: C9_19  and  N3_20 
REMARK   10  A    between atoms: N3_20  and  N4_22 
REMARK   11  A    between atoms: N4_22  and  C10_24 
ROOT
HETATM    1  C6  UNL     1       2.788   0.218   1.321  1.00  0.00     0.100 A 
HETATM    2  N1  UNL     1       1.633   0.919   1.211  1.00  0.00    -0.319 N 
ATOM      3  H1  UNL     1       1.489   1.756   0.646  1.00  0.00     0.169 HD
HETATM    4  C7  UNL     1       0.713   0.315   1.979  1.00  0.00     0.240 A 
HETATM    5  N7  UNL     1       1.330  -0.739   2.539  1.00  0.00    -0.273 N 
ATOM      6  H7  UNL     1       0.889  -1.399   3.180  1.00  0.00     0.189 HD
HETATM    7  N8  UNL     1       2.574  -0.800   2.147  1.00  0.00    -0.287 N 
ATOM      8  H8  UNL     1       3.259  -1.503   2.425  1.00  0.00     0.188 HD
ENDROOT
BRANCH   4   9
HETATM    9  S1  UNL     1      -0.964   0.758   2.243  1.00  0.00     0.298 S 
HETATM   10  O3  UNL     1      -1.430   0.290   3.591  1.00  0.00    -0.197 OA
HETATM   11  O4  UNL     1      -1.121   2.252   2.127  1.00  0.00    -0.197 OA
BRANCH   9  12
HETATM   12  N2  UNL     1      -1.885  -0.057   1.041  1.00  0.00    -0.269 N 
HETATM   13  C8  UNL     1      -1.613   0.253  -0.350  1.00  0.00     0.170 C 
BRANCH  12  14
HETATM   14  C9  UNL     1      -2.865  -0.993   1.442  1.00  0.00     0.210 C 
BRANCH  14  15
HETATM   15  N3  UNL     1      -4.098  -0.768   1.168  1.00  0.00    -0.293 N 
ATOM     16  H3  UNL     1      -4.814  -1.436   1.453  1.00  0.00     0.187 HD
BRANCH  15  17
HETATM   17  N4  UNL     1      -4.455   0.377   0.488  1.00  0.00    -0.271 N 
ATOM     18  H4  UNL     1      -3.965   1.253   0.667  1.00  0.00     0.190 HD
BRANCH  17  19
HETATM   19  C10 UNL     1      -5.507   0.331  -0.462  1.00  0.00     0.190 C 
HETATM   20  N5  UNL     1      -5.396   0.603  -1.718  1.00  0.00    -0.360 N 
HETATM   21  C11 UNL     1      -6.662   0.452  -2.380  1.00  0.00     0.142 C 
ATOM     22  H5  UNL     1      -4.530   0.886  -2.177  1.00  0.00     0.162 HD
HETATM   23  C12 UNL     1      -7.658   0.472  -1.247  1.00  0.00     0.142 C 
HETATM   24  N6  UNL     1      -6.851  -0.020  -0.159  1.00  0.00    -0.360 N 
ATOM     25  H6  UNL     1      -7.180  -0.521   0.666  1.00  0.00     0.162 HD
ENDBRANCH  17  19
ENDBRANCH  15  17
ENDBRANCH  14  15
ENDBRANCH  12  14
ENDBRANCH   9  12
ENDBRANCH   4   9
BRANCH   1  26
HETATM   26  C5  UNL     1       4.086   0.508   0.651  1.00  0.00     0.118 C 
BRANCH  26  27
HETATM   27  C3  UNL     1       4.150  -0.211  -0.700  1.00  0.00     0.086 C 
HETATM   28  C4  UNL     1       3.893  -1.674  -0.498  1.00  0.00     0.049 C 
BRANCH  27  29
HETATM   29  C2  UNL     1       5.449   0.071  -1.385  1.00  0.00     0.148 C 
HETATM   30  C1  UNL     1       6.640  -0.405  -0.600  1.00  0.00     0.042 C 
BRANCH  29  31
HETATM   31  O1  UNL     1       5.574   1.460  -1.518  1.00  0.00    -0.393 OA
ATOM     32  H1  UNL     1       4.822   1.761  -2.014  1.00  0.00     0.210 HD
ENDBRANCH  29  31
ENDBRANCH  27  29
BRANCH  27  33
HETATM   33  O2  UNL     1       3.109   0.301  -1.472  1.00  0.00    -0.387 OA
ATOM     34  H2  UNL     1       2.284   0.122  -1.037  1.00  0.00     0.210 HD
ENDBRANCH  27  33
ENDBRANCH  26  27
ENDBRANCH   1  26
TORSDOF 11
