REMARK  11 active torsions:
REMARK  status: ('A' for Active; 'I' for Inactive)
REMARK    1  A    between atoms: N1_1  and  C1_5 
REMARK    2  A    between atoms: C1_5  and  C2_6 
REMARK    3  A    between atoms: C2_6  and  N2_7 
REMARK    4  A    between atoms: N2_7  and  C3_9 
REMARK    5  A    between atoms: N3_13  and  C6_14 
REMARK    6  A    between atoms: C6_14  and  O2_15 
REMARK    7  A    between atoms: O2_15  and  C7_16 
REMARK    8  A    between atoms: C7_16  and  N4_17 
REMARK    9  A    between atoms: C8_20  and  N5_21 
REMARK   10  A    between atoms: N5_21  and  C9_23 
REMARK   11  A    between atoms: N8_31  and  O5_32 
ROOT
HETATM    1  C3  UNL     1      -1.951  -0.402   0.209  1.00  0.00     0.122 A 
HETATM    2  C4  UNL     1      -2.696   0.735  -0.019  1.00  0.00     0.123 A 
HETATM    3  C5  UNL     1      -2.091   1.847  -0.567  1.00  0.00     0.267 A 
HETATM    4  O1  UNL     1      -2.749   2.916  -0.791  1.00  0.00    -0.267 OA
HETATM    5  N3  UNL     1      -0.786   1.856  -0.891  1.00  0.00    -0.125 N 
HETATM    6  C8  UNL     1      -0.074   0.733  -0.661  1.00  0.00     0.691 A 
HETATM    7  N9  UNL     1      -0.641  -0.362  -0.127  1.00  0.00    -0.176 N 
ATOM      8  H9  UNL     1      -0.065  -1.189   0.030  1.00  0.00     0.186 HD
ENDROOT
BRANCH   6   9
HETATM    9  N5  UNL     1       1.171   0.750  -0.972  1.00  0.00    -0.191 N 
ATOM     10  H5  UNL     1       1.557   1.605  -1.374  1.00  0.00     0.184 HD
BRANCH   9  11
HETATM   11  C9  UNL     1       2.040  -0.357  -0.787  1.00  0.00     0.051 A 
HETATM   12  C10 UNL     1       1.980  -1.448  -1.619  1.00  0.00     0.032 A 
HETATM   13  C11 UNL     1       2.803  -2.547  -1.480  1.00  0.00     0.036 A 
HETATM   14  C12 UNL     1       3.728  -2.544  -0.453  1.00  0.00     0.080 A 
HETATM   15  N6  UNL     1       4.672  -3.417  -0.021  1.00  0.00    -0.282 N 
HETATM   16  C13 UNL     1       3.828  -1.472   0.411  1.00  0.00     0.113 A 
HETATM   17  N7  UNL     1       5.302  -2.906   1.035  1.00  0.00    -0.215 N 
ATOM     18  H6  UNL     1       4.869  -4.326  -0.441  1.00  0.00     0.188 HD
HETATM   19  N8  UNL     1       4.808  -1.734   1.311  1.00  0.00    -0.147 N 
ATOM     20  H7  UNL     1       6.056  -3.363   1.549  1.00  0.00     0.211 HD
HETATM   21  C14 UNL     1       2.979  -0.382   0.236  1.00  0.00     0.066 A 
BRANCH  19  22
HETATM   22  O5  UNL     1       5.149  -0.841   2.316  1.00  0.00    -0.266 OA
ATOM     23  H5  UNL     1       4.788   0.015   2.517  1.00  0.00     0.247 HD
ENDBRANCH  19  22
ENDBRANCH   9  11
ENDBRANCH   6   9
BRANCH   5  24
HETATM   24  C6  UNL     1      -0.184   3.033  -1.463  1.00  0.00     0.323 C 
BRANCH  24  25
HETATM   25  O2  UNL     1       0.304   3.843  -0.444  1.00  0.00    -0.346 OA
BRANCH  25  26
HETATM   26  C7  UNL     1       0.898   4.995  -0.918  1.00  0.00     0.371 C 
BRANCH  26  27
HETATM   27  N4  UNL     1       1.369   5.764   0.218  1.00  0.00    -0.131 N 
HETATM   28  O3  UNL     1       1.218   5.369   1.390  1.00  0.00    -0.535 OA
HETATM   29  O4  UNL     1       2.013   6.978   0.048  1.00  0.00    -0.535 OA
ENDBRANCH  26  27
ENDBRANCH  25  26
ENDBRANCH  24  25
ENDBRANCH   5  24
BRANCH   1  30
HETATM   30  N2  UNL     1      -2.518  -1.584   0.773  1.00  0.00    -0.374 N 
ATOM     31  H2  UNL     1      -1.953  -2.418   0.934  1.00  0.00     0.161 HD
BRANCH  30  32
HETATM   32  C2  UNL     1      -3.934  -1.554   1.110  1.00  0.00     0.148 C 
BRANCH  32  33
HETATM   33  C1  UNL     1      -4.340  -2.879   1.687  1.00  0.00     0.249 C 
BRANCH  33  34
HETATM   34  N1  UNL     1      -4.094  -3.922   0.708  1.00  0.00    -0.078 N 
ATOM     35  H13 UNL     1      -4.551  -3.732  -0.184  1.00  0.00     0.274 HD
ATOM     36  H12 UNL     1      -3.129  -3.923   0.378  1.00  0.00     0.274 HD
ATOM     37  H11 UNL     1      -4.370  -4.822   1.100  1.00  0.00     0.274 HD
ENDBRANCH  33  34
ENDBRANCH  32  33
ENDBRANCH  30  32
ENDBRANCH   1  30
TORSDOF 11
