REMARK  10 active torsions:
REMARK  status: ('A' for Active; 'I' for Inactive)
REMARK    1  A    between atoms: C2_2  and  N1_3 
REMARK    2  A    between atoms: C4_8  and  N3_9 
REMARK    3  A    between atoms: N3_9  and  C5_10 
REMARK    4  A    between atoms: N3_9  and  C7_14 
REMARK    5  A    between atoms: C5_10  and  C6_11 
REMARK    6  A    between atoms: C6_11  and  O1_12 
REMARK    7  A    between atoms: C7_14  and  C8_15 
REMARK    8  A    between atoms: C8_15  and  O2_16 
REMARK    9  A    between atoms: C10_21  and  N5_22 
REMARK   10  A    between atoms: C15_31  and  N8_32 
ROOT
HETATM    1  N1  UNL     1      -2.534   2.178  -1.382  1.00  0.00    -0.374 N 
ATOM      2  H1  UNL     1      -3.506   1.876  -1.319  1.00  0.00     0.161 HD
HETATM    3  C3  UNL     1      -1.676   1.418  -0.837  1.00  0.00     0.146 A 
HETATM    4  N2  UNL     1      -2.114   0.270  -0.214  1.00  0.00    -0.174 N 
ATOM      5  H2  UNL     1      -3.111   0.056  -0.210  1.00  0.00     0.186 HD
HETATM    6  C4  UNL     1      -1.273  -0.562   0.380  1.00  0.00     0.686 A 
HETATM    7  N4  UNL     1       0.040  -0.350   0.416  1.00  0.00    -0.185 N 
ATOM      8  H4  UNL     1       0.667  -1.007   0.880  1.00  0.00     0.184 HD
HETATM    9  C9  UNL     1       0.515   0.764  -0.182  1.00  0.00     0.124 A 
HETATM   10  C10 UNL     1       1.865   1.006  -0.167  1.00  0.00     0.150 A 
HETATM   11  N7  UNL     1       2.339   2.131  -0.783  1.00  0.00    -0.175 N 
ATOM     12  H7  UNL     1       3.339   2.332  -0.786  1.00  0.00     0.186 HD
HETATM   13  C15 UNL     1       1.492   2.957  -1.375  1.00  0.00     0.678 A 
HETATM   14  N9  UNL     1       0.180   2.763  -1.412  1.00  0.00    -0.186 N 
ATOM     15  H9  UNL     1      -0.429   3.433  -1.882  1.00  0.00     0.184 HD
HETATM   16  C16 UNL     1      -0.333   1.675  -0.824  1.00  0.00     0.124 A 
ENDROOT
BRANCH   6  17
HETATM   17  N3  UNL     1      -1.872  -1.772   1.024  1.00  0.00    -0.193 N 
BRANCH  17  18
HETATM   18  C5  UNL     1      -2.147  -2.785   0.099  1.00  0.00     0.108 C 
BRANCH  18  19
HETATM   19  C6  UNL     1      -3.513  -3.132  -0.337  1.00  0.00     0.209 C 
BRANCH  19  20
HETATM   20  O1  UNL     1      -3.429  -4.199  -1.310  1.00  0.00    -0.396 OA
ATOM     21  H1  UNL     1      -4.309  -4.422  -1.591  1.00  0.00     0.209 HD
ENDBRANCH  19  20
ENDBRANCH  18  19
ENDBRANCH  17  18
BRANCH  17  22
HETATM   22  C7  UNL     1      -2.025  -1.582   2.414  1.00  0.00     0.172 C 
BRANCH  22  23
HETATM   23  C8  UNL     1      -3.400  -1.398   2.921  1.00  0.00     0.185 C 
BRANCH  23  24
HETATM   24  O2  UNL     1      -4.277  -2.418   2.735  1.00  0.00    -0.399 OA
ATOM     25  H2  UNL     1      -5.161  -2.300   3.061  1.00  0.00     0.209 HD
ENDBRANCH  23  24
ENDBRANCH  22  23
ENDBRANCH  17  22
ENDBRANCH   6  17
BRANCH   1  26
HETATM   26  C2  UNL     1      -2.305   3.382  -2.060  1.00  0.00     0.116 C 
HETATM   27  C1  UNL     1      -3.699   3.946  -2.461  1.00  0.00     0.026 C 
ENDBRANCH   1  26
BRANCH  10  28
HETATM   28  N5  UNL     1       2.808   0.164   0.493  1.00  0.00    -0.349 N 
HETATM   29  C11 UNL     1       3.456   0.699   1.688  1.00  0.00     0.154 C 
HETATM   30  C12 UNL     1       4.680  -0.165   1.963  1.00  0.00     0.213 C 
HETATM   31  O3  UNL     1       5.271  -0.519   0.773  1.00  0.00    -0.301 OA
HETATM   32  N6  UNL     1       4.583  -1.381   0.032  1.00  0.00    -0.183 NA
HETATM   33  C13 UNL     1       5.086  -1.557  -1.293  1.00  0.00     0.145 C 
HETATM   34  C14 UNL     1       3.152  -1.158   0.072  1.00  0.00     0.245 C 
ENDBRANCH  10  28
BRANCH  13  35
HETATM   35  N8  UNL     1       1.934   4.023  -1.945  1.00  0.00    -0.234 N 
ATOM     36  H82 UNL     1       2.943   4.172  -1.917  1.00  0.00     0.174 HD
ATOM     37  H81 UNL     1       1.281   4.660  -2.401  1.00  0.00     0.174 HD
ENDBRANCH  13  35
TORSDOF 10
