REMARK  12 active torsions:
REMARK  status: ('A' for Active; 'I' for Inactive)
REMARK    1  A    between atoms: O1_2  and  C2_3 
REMARK    2  A    between atoms: C2_3  and  C3_5 
REMARK    3  A    between atoms: C3_5  and  C4_6 
REMARK    4  A    between atoms: C3_5  and  S1_23 
REMARK    5  A    between atoms: C4_6  and  O3_7 
REMARK    6  A    between atoms: C4_6  and  C5_9 
REMARK    7  A    between atoms: C5_9  and  O4_10 
REMARK    8  A    between atoms: C5_9  and  C6_12 
REMARK    9  A    between atoms: C6_12  and  O5_13 
REMARK   10  A    between atoms: C8_16  and  O6_17 
REMARK   11  A    between atoms: S1_23  and  O9_26 
REMARK   12  A    between atoms: O9_26  and  C10_27 
ROOT
HETATM    1  C4  UNL     1      -0.440   0.336   0.600  1.00  0.00     0.182 C 
ENDROOT
BRANCH   1   2
HETATM    2  C3  UNL     1       0.622  -0.552   1.125  1.00  0.00     0.267 C 
BRANCH   2   3
HETATM    3  C2  UNL     1       0.166  -1.783   1.799  1.00  0.00     0.282 C 
HETATM    4  O2  UNL     1       0.363  -1.927   3.038  1.00  0.00    -0.264 OA
BRANCH   3   5
HETATM    5  O1  UNL     1      -0.478  -2.817   1.145  1.00  0.00    -0.325 OA
HETATM    6  C1  UNL     1      -0.917  -4.001   1.788  1.00  0.00     0.213 C 
ENDBRANCH   3   5
ENDBRANCH   2   3
BRANCH   2   7
HETATM    7  S1  UNL     1       1.854  -1.025  -0.065  1.00  0.00     0.286 S 
HETATM    8  O7  UNL     1       1.399  -2.122  -0.974  1.00  0.00    -0.197 OA
HETATM    9  O8  UNL     1       2.973  -1.657   0.768  1.00  0.00    -0.197 OA
BRANCH   7  10
HETATM   10  O9  UNL     1       2.553   0.285  -0.849  1.00  0.00    -0.232 OA
BRANCH  10  11
HETATM   11  C10 UNL     1       3.872   0.678  -0.712  1.00  0.00     0.089 A 
HETATM   12  C11 UNL     1       4.882   0.194  -1.531  1.00  0.00     0.038 A 
HETATM   13  C12 UNL     1       6.201   0.590  -1.388  1.00  0.00     0.003 A 
HETATM   14  C13 UNL     1       6.550   1.496  -0.407  1.00  0.00     0.000 A 
HETATM   15  C14 UNL     1       5.550   1.982   0.413  1.00  0.00     0.003 A 
HETATM   16  C15 UNL     1       4.233   1.589   0.274  1.00  0.00     0.038 A 
ENDBRANCH  10  11
ENDBRANCH   7  10
ENDBRANCH   2   7
ENDBRANCH   1   2
BRANCH   1  17
HETATM   17  O3  UNL     1       0.049   1.477  -0.028  1.00  0.00    -0.391 OA
ATOM     18  H3  UNL     1      -0.632   2.047  -0.365  1.00  0.00     0.210 HD
ENDBRANCH   1  17
BRANCH   1  19
HETATM   19  C5  UNL     1      -1.495  -0.321  -0.242  1.00  0.00     0.212 C 
BRANCH  19  20
HETATM   20  O4  UNL     1      -1.013  -0.710  -1.488  1.00  0.00    -0.388 OA
ATOM     21  H4  UNL     1      -1.681  -1.126  -2.021  1.00  0.00     0.210 HD
ENDBRANCH  19  20
BRANCH  19  22
HETATM   22  C6  UNL     1      -2.643   0.664  -0.512  1.00  0.00     0.255 C 
HETATM   23  C7  UNL     1      -3.267   1.123   0.781  1.00  0.00     0.105 C 
HETATM   24  C8  UNL     1      -4.727   1.252   0.400  1.00  0.00     0.148 C 
HETATM   25  C9  UNL     1      -4.885   0.041  -0.528  1.00  0.00     0.267 C 
HETATM   26  N1  UNL     1      -3.649  -0.007  -1.275  1.00  0.00    -0.038 N 
ATOM     27  H12 UNL     1      -3.744   0.369  -2.219  1.00  0.00     0.281 HD
ATOM     28  H11 UNL     1      -3.381  -0.957  -1.532  1.00  0.00     0.281 HD
BRANCH  22  29
HETATM   29  O5  UNL     1      -2.194   1.784  -1.191  1.00  0.00    -0.363 OA
ATOM     30  H5  UNL     1      -2.904   2.393  -1.358  1.00  0.00     0.212 HD
ENDBRANCH  22  29
BRANCH  24  31
HETATM   31  O6  UNL     1      -5.013   2.426  -0.262  1.00  0.00    -0.394 OA
ATOM     32  H6  UNL     1      -5.929   2.507  -0.501  1.00  0.00     0.210 HD
ENDBRANCH  24  31
ENDBRANCH  19  22
ENDBRANCH   1  19
TORSDOF 12
