REMARK  6 active torsions:
REMARK  status: ('A' for Active; 'I' for Inactive)
REMARK    1  A    between atoms: C3_4  and  C4_5 
REMARK    2  A    between atoms: C8_10  and  O3_11 
REMARK    3  A    between atoms: C9_13  and  O4_14 
REMARK    4  A    between atoms: C10_16  and  O5_17 
REMARK    5  A    between atoms: C11_19  and  O6_20 
REMARK    6  A    between atoms: C12_22  and  O7_23 
ROOT
HETATM    1  C4  UNL     1      -0.124  -0.275   0.140  1.00  0.00     0.185 C 
HETATM    2  O2  UNL     1      -0.977   0.780  -0.045  1.00  0.00    -0.368 OA
HETATM    3  C5  UNL     1      -2.271   0.438  -0.359  1.00  0.00     0.083 C 
HETATM    4  C6  UNL     1      -3.111   1.708  -0.263  1.00  0.00     0.048 C 
HETATM    5  C7  UNL     1      -2.387  -0.054  -1.808  1.00  0.00     0.048 C 
HETATM    6  C8  UNL     1      -2.867  -0.575   0.591  1.00  0.00     0.183 C 
HETATM    7  C9  UNL     1      -1.939  -0.969   1.696  1.00  0.00     0.181 C 
HETATM    8  C10 UNL     1      -0.531  -1.204   1.257  1.00  0.00     0.181 C 
ENDROOT
BRANCH   1   9
HETATM    9  C3  UNL     1       1.247   0.285   0.470  1.00  0.00     0.185 C 
HETATM   10  O1  UNL     1       2.179  -0.697   0.674  1.00  0.00    -0.373 OA
HETATM   11  C2  UNL     1       3.385  -0.302   0.176  1.00  0.00     0.149 C 
HETATM   12  C1  UNL     1       3.918  -1.334  -0.809  1.00  0.00     0.042 C 
HETATM   13  C12 UNL     1       3.235   1.023  -0.497  1.00  0.00     0.178 C 
HETATM   14  C11 UNL     1       1.756   1.117  -0.713  1.00  0.00     0.180 C 
BRANCH  13  15
HETATM   15  O7  UNL     1       3.656   2.080   0.327  1.00  0.00    -0.390 OA
ATOM     16  H7  UNL     1       3.561   2.923  -0.101  1.00  0.00     0.210 HD
ENDBRANCH  13  15
BRANCH  14  17
HETATM   17  O6  UNL     1       1.258   2.395  -0.706  1.00  0.00    -0.390 OA
ATOM     18  H6  UNL     1       1.573   2.911  -1.439  1.00  0.00     0.210 HD
ENDBRANCH  14  17
ENDBRANCH   1   9
BRANCH   8  19
HETATM   19  O5  UNL     1      -0.410  -2.557   0.876  1.00  0.00    -0.390 OA
ATOM     20  H5  UNL     1      -0.666  -3.142   1.579  1.00  0.00     0.210 HD
ENDBRANCH   8  19
BRANCH   7  21
HETATM   21  O4  UNL     1      -1.922  -0.040   2.746  1.00  0.00    -0.390 OA
ATOM     22  H4  UNL     1      -1.333  -0.290   3.448  1.00  0.00     0.210 HD
ENDBRANCH   7  21
BRANCH   6  23
HETATM   23  O3  UNL     1      -3.310  -1.724  -0.103  1.00  0.00    -0.390 OA
ATOM     24  H3  UNL     1      -3.685  -2.361   0.494  1.00  0.00     0.210 HD
ENDBRANCH   6  23
TORSDOF 6
