REMARK  9 active torsions:
REMARK  status: ('A' for Active; 'I' for Inactive)
REMARK    1  A    between atoms: C2_2  and  O1_5 
REMARK    2  A    between atoms: O1_5  and  C5_6 
REMARK    3  A    between atoms: C5_6  and  O2_7 
REMARK    4  A    between atoms: C6_10  and  C7_11 
REMARK    5  A    between atoms: C7_11  and  C8_13 
REMARK    6  A    between atoms: C9_14  and  N1_15 
REMARK    7  A    between atoms: C10_18  and  O5_19 
REMARK    8  A    between atoms: C11_21  and  O6_22 
REMARK    9  A    between atoms: C12_24  and  O7_25 
ROOT
HETATM    1  C5  UNL     1      -0.912  -0.484   0.126  1.00  0.00     0.311 C 
HETATM    2  O3  UNL     1       0.052   0.465   0.324  1.00  0.00    -0.314 OA
HETATM    3  C6  UNL     1       1.296   0.173  -0.127  1.00  0.00     0.241 C 
HETATM    4  C10 UNL     1       1.812  -1.185   0.287  1.00  0.00     0.187 C 
HETATM    5  C11 UNL     1       0.762  -2.238   0.146  1.00  0.00     0.186 C 
HETATM    6  C12 UNL     1      -0.480  -1.758   0.869  1.00  0.00     0.242 C 
ENDROOT
BRANCH   1   7
HETATM    7  O1  UNL     1      -2.074  -0.064   0.709  1.00  0.00    -0.321 OA
BRANCH   7   8
HETATM    8  C2  UNL     1      -2.708   0.990   0.142  1.00  0.00     0.056 C 
HETATM    9  C1  UNL     1      -1.928   2.268   0.079  1.00  0.00     0.045 C 
HETATM   10  C3  UNL     1      -3.941   1.290   1.012  1.00  0.00     0.045 C 
HETATM   11  C4  UNL     1      -3.249   0.640  -1.227  1.00  0.00     0.045 C 
ENDBRANCH   7   8
ENDBRANCH   1   7
BRANCH   1  12
HETATM   12  O2  UNL     1      -1.050  -0.892  -1.196  1.00  0.00    -0.341 OA
ATOM     13  H2  UNL     1      -0.242  -1.184  -1.601  1.00  0.00     0.215 HD
ENDBRANCH   1  12
BRANCH   6  14
HETATM   14  O7  UNL     1      -1.487  -2.696   0.630  1.00  0.00    -0.385 OA
ATOM     15  H7  UNL     1      -1.220  -3.484   1.089  1.00  0.00     0.210 HD
ENDBRANCH   6  14
BRANCH   3  16
HETATM   16  C7  UNL     1       2.264   1.175   0.381  1.00  0.00     0.235 C 
HETATM   17  O4  UNL     1       1.844   2.102   1.114  1.00  0.00    -0.280 OA
BRANCH  16  18
HETATM   18  C8  UNL     1       3.662   1.115   0.061  1.00  0.00    -0.003 C 
HETATM   19  C9  UNL     1       4.841   1.079  -0.221  1.00  0.00     0.011 C 
BRANCH  19  20
HETATM   20  N1  UNL     1       6.196   1.036  -0.552  1.00  0.00    -0.359 N 
ATOM     21  H12 UNL     1       5.176   1.009  -0.553  1.00  0.00     0.166 HD
ATOM     22  H11 UNL     1       7.188   1.006  -0.789  1.00  0.00     0.166 HD
ENDBRANCH  19  20
ENDBRANCH  16  18
ENDBRANCH   3  16
BRANCH   5  23
HETATM   23  O6  UNL     1       1.214  -3.449   0.614  1.00  0.00    -0.390 OA
ATOM     24  H6  UNL     1       0.546  -4.119   0.524  1.00  0.00     0.210 HD
ENDBRANCH   5  23
BRANCH   4  25
HETATM   25  O5  UNL     1       2.885  -1.485  -0.567  1.00  0.00    -0.390 OA
ATOM     26  H5  UNL     1       3.210  -2.339  -0.307  1.00  0.00     0.210 HD
ENDBRANCH   4  25
TORSDOF 9
