REMARK  6 active torsions:
REMARK  status: ('A' for Active; 'I' for Inactive)
REMARK    1  A    between atoms: C2_2  and  O1_4 
REMARK    2  A    between atoms: O1_4  and  C4_5 
REMARK    3  A    between atoms: C5_6  and  O2_7 
REMARK    4  A    between atoms: C10_15  and  O5_16 
REMARK    5  A    between atoms: C11_18  and  O6_19 
REMARK    6  A    between atoms: C12_21  and  O7_22 
ROOT
HETATM    1  C4  UNL     1      -0.825   0.335   0.072  1.00  0.00     0.218 C 
HETATM    2  C5  UNL     1      -1.083   1.408  -1.006  1.00  0.00     0.181 C 
HETATM    3  C6  UNL     1       0.101   2.308  -0.613  1.00  0.00     0.152 C 
HETATM    4  C7  UNL     1       0.260   3.469  -1.513  1.00  0.00     0.042 C 
HETATM    5  O3  UNL     1       1.133   1.383  -0.687  1.00  0.00    -0.343 OA
HETATM    6  C8  UNL     1       0.653   0.267   0.038  1.00  0.00     0.223 C 
HETATM    7  O4  UNL     1       1.208   0.393   1.312  1.00  0.00    -0.348 OA
HETATM    8  C9  UNL     1       2.542   0.724   1.187  1.00  0.00     0.206 C 
HETATM    9  C10 UNL     1       3.287  -0.473   0.662  1.00  0.00     0.173 C 
HETATM   10  C11 UNL     1       2.729  -0.815  -0.704  1.00  0.00     0.183 C 
HETATM   11  C12 UNL     1       1.218  -0.959  -0.663  1.00  0.00     0.214 C 
ENDROOT
BRANCH   1  12
HETATM   12  O1  UNL     1      -1.520  -0.812  -0.150  1.00  0.00    -0.373 OA
BRANCH  12  13
HETATM   13  C2  UNL     1      -2.512  -1.058   0.792  1.00  0.00     0.114 C 
HETATM   14  C1  UNL     1      -3.848  -0.999   0.083  1.00  0.00     0.039 C 
HETATM   15  C3  UNL     1      -2.414  -2.374   1.484  1.00  0.00     0.039 C 
ENDBRANCH  12  13
ENDBRANCH   1  12
BRANCH  11  16
HETATM   16  O7  UNL     1       0.859  -2.136  -0.047  1.00  0.00    -0.387 OA
ATOM     17  H7  UNL     1       1.212  -2.902  -0.485  1.00  0.00     0.210 HD
ENDBRANCH  11  16
BRANCH   2  18
HETATM   18  O2  UNL     1      -2.285   2.052  -0.808  1.00  0.00    -0.390 OA
ATOM     19  H2  UNL     1      -2.444   2.713  -1.472  1.00  0.00     0.210 HD
ENDBRANCH   2  18
BRANCH  10  20
HETATM   20  O6  UNL     1       3.268  -2.027  -1.130  1.00  0.00    -0.390 OA
ATOM     21  H6  UNL     1       2.918  -2.241  -1.987  1.00  0.00     0.210 HD
ENDBRANCH  10  20
BRANCH   9  22
HETATM   22  O5  UNL     1       3.062  -1.551   1.510  1.00  0.00    -0.391 OA
ATOM     23  H5  UNL     1       3.532  -2.307   1.178  1.00  0.00     0.210 HD
ENDBRANCH   9  22
TORSDOF 6
