REMARK  7 active torsions:
REMARK  status: ('A' for Active; 'I' for Inactive)
REMARK    1  A    between atoms: N1_4  and  C4_6 
REMARK    2  A    between atoms: C5_7  and  O1_8 
REMARK    3  A    between atoms: C6_10  and  O2_11 
REMARK    4  A    between atoms: C7_13  and  O3_14 
REMARK    5  A    between atoms: C8_16  and  O4_17 
REMARK    6  A    between atoms: C9_19  and  O5_20 
REMARK    7  A    between atoms: C9_19  and  C10_22 
ROOT
HETATM    1  C4  UNL     1       0.543  -0.515   0.043  1.00  0.00     0.158 C 
HETATM    2  C5  UNL     1       0.184  -1.942   0.586  1.00  0.00     0.175 C 
HETATM    3  C6  UNL     1      -0.811  -2.533  -0.347  1.00  0.00     0.180 C 
HETATM    4  C7  UNL     1      -2.116  -1.771  -0.328  1.00  0.00     0.181 C 
HETATM    5  C8  UNL     1      -1.929  -0.549   0.525  1.00  0.00     0.194 C 
HETATM    6  C9  UNL     1      -0.715   0.213  -0.051  1.00  0.00     0.173 C 
ENDROOT
BRANCH   6   7
HETATM    7  O5  UNL     1      -1.053   0.295  -1.449  1.00  0.00    -0.377 OA
ATOM      8  H5  UNL     1      -1.874   0.770  -1.510  1.00  0.00     0.211 HD
ENDBRANCH   6   7
BRANCH   6   9
HETATM    9  C10 UNL     1      -0.809   1.569   0.479  1.00  0.00     0.162 A 
HETATM   10  N2  UNL     1      -0.089   2.295   1.325  1.00  0.00    -0.346 N 
HETATM   11  C11 UNL     1      -0.659   3.510   1.449  1.00  0.00     0.114 A 
ATOM     12  H2  UNL     1       0.757   1.984   1.803  1.00  0.00     0.167 HD
HETATM   13  C12 UNL     1      -1.751   3.498   0.642  1.00  0.00     0.161 A 
HETATM   14  O6  UNL     1      -1.809   2.350   0.092  1.00  0.00    -0.305 OA
ENDBRANCH   6   9
BRANCH   1  15
HETATM   15  N1  UNL     1       1.624  -0.074   0.763  1.00  0.00    -0.386 N 
HETATM   16  C2  UNL     1       2.683   0.527   0.415  1.00  0.00    -0.025 C 
HETATM   17  C1  UNL     1       2.864   0.870  -1.025  1.00  0.00     0.062 C 
HETATM   18  C3  UNL     1       3.763   0.875   1.413  1.00  0.00     0.062 C 
ATOM     19  H1  UNL     1       1.564  -0.265   1.763  1.00  0.00     0.159 HD
ENDBRANCH   1  15
BRANCH   5  20
HETATM   20  O4  UNL     1      -3.018   0.318   0.223  1.00  0.00    -0.389 OA
ATOM     21  H4  UNL     1      -2.900   1.091   0.763  1.00  0.00     0.210 HD
ENDBRANCH   5  20
BRANCH   2  22
HETATM   22  O1  UNL     1       1.379  -2.631   0.530  1.00  0.00    -0.391 OA
ATOM     23  H1  UNL     1       1.162  -3.495   0.859  1.00  0.00     0.210 HD
ENDBRANCH   2  22
BRANCH   4  24
HETATM   24  O3  UNL     1      -3.155  -2.542   0.199  1.00  0.00    -0.390 OA
ATOM     25  H3  UNL     1      -3.975  -2.063   0.211  1.00  0.00     0.210 HD
ENDBRANCH   4  24
BRANCH   3  26
HETATM   26  O2  UNL     1      -0.281  -2.457  -1.633  1.00  0.00    -0.390 OA
ATOM     27  H2  UNL     1      -0.917  -2.835  -2.229  1.00  0.00     0.210 HD
ENDBRANCH   3  26
TORSDOF 7
