REMARK  4 active torsions:
REMARK  status: ('A' for Active; 'I' for Inactive)
REMARK    1  A    between atoms: O1_2  and  N1_3 
REMARK    2  A    between atoms: C7_16  and  N4_17 
REMARK    3  A    between atoms: N4_17  and  N5_19 
REMARK       I    between atoms: C8_21  and  N7_23 
REMARK    4  A    between atoms: N7_23  and  N8_25 
ROOT
HETATM    1  N1  UNL     1       4.518  -0.243  -0.337  1.00  0.00    -0.247 N 
ATOM      2  H1  UNL     1       5.105  -1.057  -0.153  1.00  0.00     0.196 HD
HETATM    3  C2  UNL     1       3.238  -0.330  -0.304  1.00  0.00     0.173 C 
HETATM    4  O2  UNL     1       2.427  -1.451  -0.035  1.00  0.00    -0.290 OA
HETATM    5  C3  UNL     1       1.113  -1.168  -0.549  1.00  0.00     0.289 C 
HETATM    6  C4  UNL     1       0.620  -2.359  -1.328  1.00  0.00     0.088 C 
HETATM    7  N2  UNL     1       1.295  -0.002  -1.387  1.00  0.00    -0.022 N 
ATOM      8  H21 UNL     1       0.443   0.483  -1.667  1.00  0.00     0.282 HD
ATOM      9  H22 UNL     1       1.602  -0.183  -2.343  1.00  0.00     0.282 HD
HETATM   10  C5  UNL     1       2.225   0.765  -0.548  1.00  0.00     0.283 C 
HETATM   11  C6  UNL     1       1.656   1.120   0.787  1.00  0.00     0.163 C 
HETATM   12  N3  UNL     1       0.499   0.317   1.165  1.00  0.00    -0.372 N 
ATOM     13  H3  UNL     1      -0.093   0.632   1.934  1.00  0.00     0.161 HD
HETATM   14  C7  UNL     1       0.202  -0.780   0.556  1.00  0.00     0.156 C 
ENDROOT
BRANCH  14  15
HETATM   15  N4  UNL     1      -0.925  -1.543   0.956  1.00  0.00    -0.283 N 
ATOM     16  H4  UNL     1      -0.727  -2.475   1.320  1.00  0.00     0.188 HD
BRANCH  15  17
HETATM   17  N5  UNL     1      -2.243  -1.185   0.915  1.00  0.00    -0.271 N 
HETATM   18  C8  UNL     1      -2.822  -0.158   0.465  1.00  0.00     0.223 C 
HETATM   19  N6  UNL     1      -2.239   0.968  -0.156  1.00  0.00    -0.060 NA
HETATM   20  N7  UNL     1      -4.253  -0.114   0.587  1.00  0.00    -0.275 N 
HETATM   21  C9  UNL     1      -5.035  -0.079  -0.632  1.00  0.00     0.180 C 
ATOM     22  H5  UNL     1      -2.875  -1.874   1.323  1.00  0.00     0.189 HD
BRANCH  20  23
HETATM   23  N8  UNL     1      -4.859  -0.104   1.823  1.00  0.00    -0.341 N 
ATOM     24  H82 UNL     1      -4.308  -0.129   2.681  1.00  0.00     0.177 HD
ATOM     25  H81 UNL     1      -5.875  -0.073   1.910  1.00  0.00     0.177 HD
ENDBRANCH  20  23
ENDBRANCH  15  17
ENDBRANCH  14  15
BRANCH   1  26
HETATM   26  O1  UNL     1       5.068   0.967  -0.625  1.00  0.00    -0.283 OA
HETATM   27  C1  UNL     1       5.484   1.927   0.301  1.00  0.00     0.237 C 
ENDBRANCH   1  26
TORSDOF 4
