REMARK  6 active torsions:
REMARK  status: ('A' for Active; 'I' for Inactive)
REMARK    1  A    between atoms: O1_2  and  C2_3 
REMARK    2  A    between atoms: C2_3  and  C3_5 
REMARK    3  A    between atoms: C4_6  and  O3_7 
REMARK    4  A    between atoms: N1_11  and  O4_12 
REMARK    5  A    between atoms: C7_14  and  N2_15 
REMARK    6  A    between atoms: C11_21  and  O5_22 
ROOT
HETATM    1  C3  UNL     1      -1.532  -0.033   0.567  1.00  0.00     0.148 C 
HETATM    2  C4  UNL     1      -1.462  -1.165  -0.428  1.00  0.00     0.154 C 
HETATM    3  C5  UNL     1      -0.099  -1.226  -1.072  1.00  0.00     0.114 C 
HETATM    4  C6  UNL     1      -0.074  -2.496  -1.926  1.00  0.00     0.031 C 
HETATM    5  N1  UNL     1       0.962  -1.363  -0.113  1.00  0.00    -0.165 NA
HETATM    6  C7  UNL     1       0.924  -0.397   0.946  1.00  0.00     0.236 C 
HETATM    7  C11 UNL     1      -0.198   0.566   0.881  1.00  0.00     0.175 C 
ENDROOT
BRANCH   6   8
HETATM    8  N2  UNL     1       2.173   0.345   0.907  1.00  0.00    -0.281 N 
HETATM    9  C8  UNL     1       3.314   0.143   1.583  1.00  0.00     0.113 A 
HETATM   10  C9  UNL     1       4.198   1.146   1.169  1.00  0.00     0.037 A 
HETATM   11  C10 UNL     1       3.538   1.924   0.244  1.00  0.00     0.108 A 
HETATM   12  N3  UNL     1       2.320   1.415   0.108  1.00  0.00    -0.308 N 
ATOM     13  H3  UNL     1       1.600   1.783  -0.513  1.00  0.00     0.186 HD
ENDBRANCH   6   8
BRANCH   5  14
HETATM   14  O4  UNL     1       0.991  -2.627   0.357  1.00  0.00    -0.310 OA
ATOM     15  H4  UNL     1       1.693  -2.718   0.991  1.00  0.00     0.237 HD
ENDBRANCH   5  14
BRANCH   7  16
HETATM   16  O5  UNL     1      -0.289   1.203   2.139  1.00  0.00    -0.391 OA
ATOM     17  H5  UNL     1       0.558   1.583   2.338  1.00  0.00     0.210 HD
ENDBRANCH   7  16
BRANCH   1  18
HETATM   18  C2  UNL     1      -2.435   1.053   0.115  1.00  0.00     0.267 C 
HETATM   19  O2  UNL     1      -3.437   1.382   0.794  1.00  0.00    -0.265 OA
BRANCH  18  20
HETATM   20  O1  UNL     1      -2.233   1.758  -1.062  1.00  0.00    -0.326 OA
HETATM   21  C1  UNL     1      -3.120   2.805  -1.480  1.00  0.00     0.213 C 
ENDBRANCH  18  20
ENDBRANCH   1  18
BRANCH   2  22
HETATM   22  O3  UNL     1      -1.685  -2.395   0.186  1.00  0.00    -0.393 OA
ATOM     23  H3  UNL     1      -1.641  -3.108  -0.441  1.00  0.00     0.210 HD
ENDBRANCH   2  22
TORSDOF 6
