REMARK  6 active torsions:
REMARK  status: ('A' for Active; 'I' for Inactive)
REMARK    1  A    between atoms: S1_2  and  O4_5 
REMARK    2  A    between atoms: O4_5  and  C1_6 
REMARK    3  A    between atoms: C1_6  and  C2_7 
REMARK    4  A    between atoms: C3_10  and  O5_11 
REMARK    5  A    between atoms: C4_13  and  O6_14 
REMARK    6  A    between atoms: C5_16  and  O7_17 
ROOT
HETATM    1  C2  UNL     1       0.148  -0.052   0.118  1.00  0.00     0.115 C 
HETATM    2  S2  UNL     1       0.269  -1.646  -0.732  1.00  0.00    -0.085 SA
HETATM    3  S3  UNL     1      -1.370  -2.733   0.196  1.00  0.00    -0.062 SA
HETATM    4  C3  UNL     1      -2.680  -1.431   0.053  1.00  0.00     0.221 C 
HETATM    5  C4  UNL     1      -2.179  -0.372  -0.854  1.00  0.00     0.187 C 
HETATM    6  C5  UNL     1      -1.174   0.605  -0.350  1.00  0.00     0.166 C 
ENDROOT
BRANCH   1   7
HETATM    7  C1  UNL     1       1.355   0.820  -0.457  1.00  0.00     0.211 C 
BRANCH   7   8
HETATM    8  O4  UNL     1       2.339  -0.205  -0.447  1.00  0.00    -0.256 OA
BRANCH   8   9
HETATM    9  S1  UNL     1       3.648   0.090   0.414  1.00  0.00     0.251 S 
HETATM   10  O1  UNL     1       3.752  -1.276   1.262  1.00  0.00    -0.572 OA
HETATM   11  O2  UNL     1       3.398   1.120   1.484  1.00  0.00    -0.572 OA
HETATM   12  O3  UNL     1       5.037   0.254  -0.347  1.00  0.00    -0.572 OA
ENDBRANCH   8   9
ENDBRANCH   7   8
ENDBRANCH   1   7
BRANCH   6  13
HETATM   13  O7  UNL     1      -1.607   1.500   0.613  1.00  0.00    -0.392 OA
ATOM     14  H7  UNL     1      -2.418   1.903   0.326  1.00  0.00     0.210 HD
ENDBRANCH   6  13
BRANCH   5  15
HETATM   15  O6  UNL     1      -3.282   0.391  -1.242  1.00  0.00    -0.390 OA
ATOM     16  H6  UNL     1      -2.961   1.070  -1.824  1.00  0.00     0.210 HD
ENDBRANCH   5  15
BRANCH   4  17
HETATM   17  O5  UNL     1      -3.136  -1.039   1.266  1.00  0.00    -0.382 OA
ATOM     18  H5  UNL     1      -3.808  -0.371   1.193  1.00  0.00     0.211 HD
ENDBRANCH   4  17
TORSDOF 6
