REMARK  6 active torsions:
REMARK  status: ('A' for Active; 'I' for Inactive)
REMARK    1  A    between atoms: O1_2  and  N1_3 
REMARK    2  A    between atoms: N1_3  and  C2_5 
REMARK    3  A    between atoms: C3_8  and  N3_9 
REMARK    4  A    between atoms: C4_14  and  S1_15 
REMARK    5  A    between atoms: S1_15  and  N5_16 
REMARK    6  A    between atoms: S1_15  and  N6_20 
ROOT
HETATM    1  N6  UNL     1       3.762  -0.086   0.971  1.00  0.00    -0.233 N 
ATOM      2  H6  UNL     1       4.294  -0.885   0.626  1.00  0.00     0.190 HD
HETATM    3  C5  UNL     1       3.922   0.415   2.283  1.00  0.00     0.191 C 
HETATM    4  N7  UNL     1       4.052   0.812   3.364  1.00  0.00    -0.171 NA
ENDROOT
BRANCH   1   5
HETATM    5  S1  UNL     1       2.714   0.665   0.082  1.00  0.00     0.163 S 
HETATM    6  O2  UNL     1       2.804   2.116   0.441  1.00  0.00    -0.221 OA
BRANCH   5   7
HETATM    7  C4  UNL     1       1.134   0.018   0.451  1.00  0.00     0.168 A 
HETATM    8  N4  UNL     1       0.983  -0.963   1.354  1.00  0.00    -0.179 N 
HETATM    9  C3  UNL     1      -0.215  -1.490   1.668  1.00  0.00     0.678 A 
ATOM     10  H4  UNL     1       1.813  -1.325   1.823  1.00  0.00     0.185 HD
HETATM   11  N2  UNL     1      -1.316  -1.017   1.053  1.00  0.00    -0.174 N 
HETATM   12  C2  UNL     1      -1.216  -0.031   0.138  1.00  0.00     0.164 A 
ATOM     13  H2  UNL     1      -2.231  -1.407   1.281  1.00  0.00     0.186 HD
HETATM   14  C6  UNL     1       0.011   0.513  -0.188  1.00  0.00     0.129 A 
HETATM   15  C7  UNL     1       0.151   1.564  -1.158  1.00  0.00     0.106 C 
HETATM   16  N8  UNL     1       0.254   2.421  -1.929  1.00  0.00    -0.191 NA
BRANCH   9  17
HETATM   17  N3  UNL     1      -0.278  -2.442   2.557  1.00  0.00    -0.234 N 
ATOM     18  H32 UNL     1      -1.186  -2.841   2.795  1.00  0.00     0.174 HD
ATOM     19  H31 UNL     1       0.556  -2.800   3.023  1.00  0.00     0.174 HD
ENDBRANCH   9  17
BRANCH  12  20
HETATM   20  N1  UNL     1      -2.248   0.450  -0.475  1.00  0.00    -0.249 N 
ATOM     21  H1  UNL     1      -2.116   1.195  -1.159  1.00  0.00     0.196 HD
BRANCH  20  22
HETATM   22  O1  UNL     1      -3.521  -0.016  -0.229  1.00  0.00    -0.284 OA
HETATM   23  C1  UNL     1      -4.564   0.516  -1.017  1.00  0.00     0.237 C 
ENDBRANCH  20  22
ENDBRANCH  12  20
ENDBRANCH   5   7
BRANCH   5  24
HETATM   24  N5  UNL     1       3.000   0.403  -1.596  1.00  0.00    -0.339 N 
ATOM     25  H52 UNL     1       2.354  -0.049  -2.243  1.00  0.00     0.167 HD
ATOM     26  H51 UNL     1       3.923   0.781  -1.811  1.00  0.00     0.167 HD
ENDBRANCH   5  24
ENDBRANCH   1   5
TORSDOF 6
