REMARK  5 active torsions:
REMARK  status: ('A' for Active; 'I' for Inactive)
REMARK    1  A    between atoms: C5_6  and  O2_7 
REMARK    2  A    between atoms: O2_7  and  C6_8 
REMARK    3  A    between atoms: C8_12  and  O4_13 
REMARK    4  A    between atoms: C9_15  and  O5_16 
REMARK    5  A    between atoms: C10_18  and  O6_19 
ROOT
HETATM    1  C6  UNL     1      -1.514  -0.893  -0.297  1.00  0.00     0.293 C 
HETATM    2  O3  UNL     1      -2.299  -0.733  -1.409  1.00  0.00    -0.340 OA
HETATM    3  C7  UNL     1      -2.942   0.472  -1.275  1.00  0.00     0.228 C 
HETATM    4  S1  UNL     1      -1.746   1.798  -1.551  1.00  0.00    -0.060 SA
HETATM    5  C8  UNL     1      -3.412   0.426   0.163  1.00  0.00     0.191 C 
HETATM    6  C9  UNL     1      -2.401  -0.481   0.836  1.00  0.00     0.205 C 
ENDROOT
BRANCH   1   7
HETATM    7  O2  UNL     1      -0.292  -0.296  -0.336  1.00  0.00    -0.348 OA
BRANCH   7   8
HETATM    8  C5  UNL     1       0.805  -1.095  -0.231  1.00  0.00     0.180 C 
HETATM    9  C4  UNL     1       1.606  -0.927  -1.506  1.00  0.00     0.203 C 
HETATM   10  O1  UNL     1       2.667  -0.114  -1.248  1.00  0.00    -0.376 OA
HETATM   11  C2  UNL     1       2.672   0.277   0.056  1.00  0.00     0.082 C 
HETATM   12  C1  UNL     1       4.041   0.249   0.706  1.00  0.00     0.048 C 
HETATM   13  C3  UNL     1       2.160   1.705   0.190  1.00  0.00     0.048 C 
HETATM   14  C10 UNL     1       1.798  -0.698   0.803  1.00  0.00     0.183 C 
BRANCH  14  15
HETATM   15  O6  UNL     1       1.268  -0.188   1.963  1.00  0.00    -0.390 OA
ATOM     16  H6  UNL     1       0.717  -0.802   2.434  1.00  0.00     0.210 HD
ENDBRANCH  14  15
ENDBRANCH   7   8
ENDBRANCH   1   7
BRANCH   6  17
HETATM   17  O5  UNL     1      -3.112  -1.575   1.329  1.00  0.00    -0.388 OA
ATOM     18  H5  UNL     1      -3.675  -1.313   2.048  1.00  0.00     0.210 HD
ENDBRANCH   6  17
BRANCH   5  19
HETATM   19  O4  UNL     1      -4.701  -0.045   0.251  1.00  0.00    -0.389 OA
ATOM     20  H4  UNL     1      -4.996  -0.074   1.154  1.00  0.00     0.210 HD
ENDBRANCH   5  19
TORSDOF 5
