REMARK  3 active torsions:
REMARK  status: ('A' for Active; 'I' for Inactive)
REMARK    1  A    between atoms: N1_4  and  C4_5 
REMARK    2  A    between atoms: C7_11  and  N3_12 
REMARK    3  A    between atoms: C8_19  and  N7_21 
ROOT
HETATM    1  C4  UNL     1       1.399   0.372  -0.140  1.00  0.00     0.142 A 
HETATM    2  C5  UNL     1       2.334   1.009  -0.932  1.00  0.00     0.125 A 
HETATM    3  C6  UNL     1       3.657   1.106  -0.553  1.00  0.00     0.263 A 
HETATM    4  O1  UNL     1       4.514   1.685  -1.269  1.00  0.00    -0.268 OA
HETATM    5  N2  UNL     1       4.052   0.572   0.605  1.00  0.00    -0.156 N 
ATOM      6  H2  UNL     1       5.029   0.640   0.890  1.00  0.00     0.187 HD
HETATM    7  C7  UNL     1       3.169  -0.051   1.391  1.00  0.00     0.680 A 
HETATM    8  N4  UNL     1       1.888  -0.134   1.005  1.00  0.00    -0.175 N 
ATOM      9  H4  UNL     1       1.237  -0.616   1.625  1.00  0.00     0.186 HD
ENDROOT
BRANCH   1  10
HETATM   10  N1  UNL     1       0.027   0.279  -0.534  1.00  0.00    -0.250 N 
HETATM   11  C2  UNL     1      -1.067  -0.348   0.159  1.00  0.00     0.093 C 
HETATM   12  C1  UNL     1      -1.332   0.421   1.423  1.00  0.00     0.044 C 
HETATM   13  C3  UNL     1      -0.821  -1.814   0.422  1.00  0.00     0.044 C 
HETATM   14  C8  UNL     1      -2.201  -0.194  -0.828  1.00  0.00     0.205 C 
HETATM   15  N6  UNL     1      -1.489  -0.032  -2.113  1.00  0.00    -0.085 NA
HETATM   16  C9  UNL     1      -2.953   1.122  -0.599  1.00  0.00     0.069 C 
HETATM   17  N5  UNL     1      -0.469   0.826  -1.701  1.00  0.00    -0.024 NA
BRANCH  14  18
HETATM   18  N7  UNL     1      -3.139  -1.259  -0.859  1.00  0.00    -0.124 N 
HETATM   19  O2  UNL     1      -3.318  -1.909  -1.917  1.00  0.00    -0.535 OA
HETATM   20  O3  UNL     1      -3.887  -1.637   0.228  1.00  0.00    -0.535 OA
ENDBRANCH  14  18
ENDBRANCH   1  10
BRANCH   7  21
HETATM   21  N3  UNL     1       3.562  -0.576   2.532  1.00  0.00    -0.234 N 
ATOM     22  H32 UNL     1       4.537  -0.513   2.826  1.00  0.00     0.174 HD
ATOM     23  H31 UNL     1       2.888  -1.052   3.132  1.00  0.00     0.174 HD
ENDBRANCH   7  21
TORSDOF 3
