REMARK  1 active torsions:
REMARK  status: ('A' for Active; 'I' for Inactive)
REMARK    1  A    between atoms: N1_1  and  C1_4 
ROOT
HETATM    1  C1  UNL     1      -1.565  -0.463  -0.262  1.00  0.00     0.680 A 
HETATM    2  N2  UNL     1      -1.440   0.720   0.366  1.00  0.00    -0.154 N 
ATOM      3  H2  UNL     1      -2.284   1.229   0.627  1.00  0.00     0.187 HD
HETATM    4  C2  UNL     1      -0.240   1.257   0.663  1.00  0.00     0.291 A 
HETATM    5  O1  UNL     1      -0.155   2.353   1.245  1.00  0.00    -0.265 OA
HETATM    6  C3  UNL     1       0.924   0.594   0.324  1.00  0.00     0.164 A 
HETATM    7  N3  UNL     1       2.244   0.838   0.467  1.00  0.00    -0.278 N 
ATOM      8  H3  UNL     1       2.647   1.664   0.909  1.00  0.00     0.189 HD
HETATM    9  N4  UNL     1       2.934  -0.163  -0.056  1.00  0.00    -0.240 N 
ATOM     10  H4  UNL     1       3.950  -0.244  -0.088  1.00  0.00     0.208 HD
HETATM   11  N5  UNL     1       2.068  -1.035  -0.527  1.00  0.00    -0.268 N 
ATOM     12  H5  UNL     1       2.321  -1.909  -0.987  1.00  0.00     0.190 HD
HETATM   13  C4  UNL     1       0.799  -0.619  -0.320  1.00  0.00     0.170 A 
HETATM   14  N6  UNL     1      -0.423  -1.096  -0.585  1.00  0.00    -0.173 N 
ATOM     15  H6  UNL     1      -0.493  -1.995  -1.061  1.00  0.00     0.186 HD
ENDROOT
BRANCH   1  16
HETATM   16  N1  UNL     1      -2.734  -0.961  -0.537  1.00  0.00    -0.234 N 
ATOM     17  H12 UNL     1      -3.600  -0.481  -0.292  1.00  0.00     0.174 HD
ATOM     18  H11 UNL     1      -2.829  -1.858  -1.013  1.00  0.00     0.174 HD
ENDBRANCH   1  16
TORSDOF 1
