REMARK  1 active torsions:
REMARK  status: ('A' for Active; 'I' for Inactive)
REMARK    1  A    between atoms: N1_1  and  C1_4 
REMARK       I    between atoms: N4_13  and  C4_14 
ROOT
HETATM    1  C1  UNL     1      -0.060  -0.712  -0.379  1.00  0.00     0.704 A 
HETATM    2  N2  UNL     1      -1.382  -0.998  -0.546  1.00  0.00    -0.150 N 
ATOM      3  H2  UNL     1      -1.652  -1.865  -1.011  1.00  0.00     0.188 HD
HETATM    4  C2  UNL     1      -2.337  -0.157  -0.109  1.00  0.00     0.329 A 
HETATM    5  O1  UNL     1      -3.573  -0.396  -0.250  1.00  0.00    -0.261 OA
HETATM    6  C3  UNL     1      -1.905   0.999   0.511  1.00  0.00     0.329 A 
HETATM    7  O2  UNL     1      -2.751   1.837   0.947  1.00  0.00    -0.261 OA
HETATM    8  N3  UNL     1      -0.591   1.268   0.668  1.00  0.00    -0.237 N 
ATOM      9  H3  UNL     1      -0.306   2.131   1.130  1.00  0.00     0.191 HD
HETATM   10  N4  UNL     1       0.330   0.428   0.231  1.00  0.00    -0.031 N 
HETATM   11  C4  UNL     1       1.718   0.688   0.385  1.00  0.00     0.368 C 
HETATM   12  N5  UNL     1       2.742  -0.149  -0.048  1.00  0.00    -0.037 NA
HETATM   13  O3  UNL     1       2.048   1.771   0.965  1.00  0.00    -0.248 OA
ENDROOT
BRANCH   1  14
HETATM   14  N1  UNL     1       0.860  -1.509  -0.793  1.00  0.00    -0.233 N 
ATOM     15  H12 UNL     1       0.565  -2.370  -1.254  1.00  0.00     0.174 HD
ATOM     16  H11 UNL     1       1.849  -1.295  -0.668  1.00  0.00     0.174 HD
ENDBRANCH   1  14
TORSDOF 1
