REMARK  16 active torsions:
REMARK  status: ('A' for Active; 'I' for Inactive)
REMARK    1  A    between atoms: N1_2  and  C3_5 
REMARK    2  A    between atoms: C3_5  and  C4_6 
REMARK    3  A    between atoms: C4_6  and  N2_7 
REMARK    4  A    between atoms: N2_7  and  C5_9 
REMARK    5  A    between atoms: C5_9  and  C6_10 
REMARK    6  A    between atoms: C6_10  and  C7_11 
REMARK    7  A    between atoms: C7_11  and  C8_12 
REMARK    8  A    between atoms: C8_12  and  C9_13 
REMARK    9  A    between atoms: C9_13  and  N3_14 
REMARK   10  A    between atoms: C9_13  and  C10_18 
REMARK   11  A    between atoms: C10_18  and  O2_19 
REMARK   12  A    between atoms: O2_19  and  C11_20 
REMARK   13  A    between atoms: C14_23  and  C15_24 
REMARK   14  A    between atoms: C15_24  and  C16_25 
REMARK   15  A    between atoms: C16_25  and  C17_26 
REMARK   16  A    between atoms: C16_25  and  N4_28 
ROOT
HETATM    1  C9  UNL     1      -1.251   2.726   0.810  1.00  0.00     0.207 C 
ENDROOT
BRANCH   1   2
HETATM    2  C8  UNL     1      -2.578   3.188   1.291  1.00  0.00     0.035 C 
BRANCH   2   3
HETATM    3  C7  UNL     1      -3.187   2.559   2.466  1.00  0.00     0.004 C 
BRANCH   3   4
HETATM    4  C6  UNL     1      -3.557   1.134   2.441  1.00  0.00     0.019 C 
BRANCH   4   5
HETATM    5  C5  UNL     1      -4.600   0.810   1.380  1.00  0.00     0.113 C 
BRANCH   5   6
HETATM    6  N2  UNL     1      -4.918  -0.575   1.469  1.00  0.00    -0.419 N 
ATOM      7  H2  UNL     1      -5.825  -0.888   1.816  1.00  0.00     0.153 HD
BRANCH   6   8
HETATM    8  C4  UNL     1      -3.926  -1.504   1.057  1.00  0.00     0.150 C 
BRANCH   8   9
HETATM    9  C3  UNL     1      -3.769  -1.464  -0.448  1.00  0.00     0.330 C 
BRANCH   9  10
HETATM   10  N1  UNL     1      -5.022  -1.832  -1.065  1.00  0.00     0.007 N 
HETATM   11  C1  UNL     1      -4.780  -2.887  -2.037  1.00  0.00     0.355 C 
HETATM   12  C2  UNL     1      -5.690  -0.729  -1.722  1.00  0.00     0.355 C 
HETATM   13  O1  UNL     1      -5.849  -2.284  -0.097  1.00  0.00    -0.065 OA
ENDBRANCH   9  10
ENDBRANCH   8   9
ENDBRANCH   6   8
ENDBRANCH   5   6
ENDBRANCH   4   5
ENDBRANCH   3   4
ENDBRANCH   2   3
ENDBRANCH   1   2
BRANCH   1  14
HETATM   14  N3  UNL     1      -0.286   2.859   1.832  1.00  0.00    -0.073 N 
ATOM     15  H33 UNL     1      -0.248   3.810   2.198  1.00  0.00     0.274 HD
ATOM     16  H32 UNL     1      -0.569   2.380   2.687  1.00  0.00     0.274 HD
ATOM     17  H31 UNL     1       0.625   2.542   1.502  1.00  0.00     0.274 HD
ENDBRANCH   1  14
BRANCH   1  18
HETATM   18  C10 UNL     1      -1.201   1.514  -0.043  1.00  0.00     0.208 C 
BRANCH  18  19
HETATM   19  O2  UNL     1      -0.129   1.247  -0.804  1.00  0.00    -0.349 OA
BRANCH  19  20
HETATM   20  C11 UNL     1       1.155   0.944  -0.819  1.00  0.00     0.068 A 
HETATM   21  C12 UNL     1       1.813   0.808  -2.066  1.00  0.00     0.037 A 
HETATM   22  C13 UNL     1       3.117   0.498  -2.210  1.00  0.00     0.010 A 
HETATM   23  C14 UNL     1       3.883   0.296  -1.094  1.00  0.00    -0.056 A 
HETATM   24  C19 UNL     1       3.329   0.406   0.152  1.00  0.00     0.010 A 
HETATM   25  C20 UNL     1       1.970   0.729   0.269  1.00  0.00     0.037 A 
BRANCH  23  26
HETATM   26  C15 UNL     1       5.336  -0.039  -1.250  1.00  0.00     0.070 C 
BRANCH  26  27
HETATM   27  C16 UNL     1       5.574  -1.516  -1.379  1.00  0.00     0.149 C 
BRANCH  27  28
HETATM   28  C17 UNL     1       5.119  -2.303  -0.205  1.00  0.00     0.256 C 
HETATM   29  O3  UNL     1       5.787  -3.144   0.331  1.00  0.00    -0.305 OA
ENDBRANCH  27  28
BRANCH  27  30
HETATM   30  N4  UNL     1       6.907  -1.855  -1.728  1.00  0.00    -0.356 N 
HETATM   31  C18 UNL     1       7.939  -1.557  -1.061  1.00  0.00     0.197 C 
HETATM   32  N5  UNL     1       9.223  -1.988  -1.571  1.00  0.00    -0.067 NA
HETATM   33  N6  UNL     1       7.938  -0.828   0.151  1.00  0.00    -0.067 NA
ATOM     34  H4  UNL     1       7.044  -2.384  -2.589  1.00  0.00     0.162 HD
ENDBRANCH  27  30
ENDBRANCH  26  27
ENDBRANCH  23  26
ENDBRANCH  19  20
ENDBRANCH  18  19
ENDBRANCH   1  18
TORSDOF 16
