REMARK  18 active torsions:
REMARK  status: ('A' for Active; 'I' for Inactive)
REMARK    1  A    between atoms: N3_4  and  C2_6 
REMARK    2  A    between atoms: C2_6  and  C3_7 
REMARK    3  A    between atoms: C3_7  and  N4_8 
REMARK    4  A    between atoms: N4_8  and  C4_10 
REMARK    5  A    between atoms: C7_15  and  N6_16 
REMARK    6  A    between atoms: N6_16  and  C8_18 
REMARK    7  A    between atoms: C8_18  and  C9_19 
REMARK    8  A    between atoms: C9_19  and  C10_20 
REMARK    9  A    between atoms: C10_20  and  C11_21 
REMARK   10  A    between atoms: C11_21  and  C12_22 
REMARK   11  A    between atoms: C12_22  and  C13_23 
REMARK   12  A    between atoms: C13_23  and  C14_24 
REMARK   13  A    between atoms: C14_24  and  C15_25 
REMARK   14  A    between atoms: C15_25  and  O1_26 
REMARK   15  A    between atoms: O1_26  and  C16_27 
REMARK   16  A    between atoms: C16_27  and  C17_28 
REMARK   17  A    between atoms: C17_28  and  N7_29 
REMARK   18  A    between atoms: N7_29  and  C18_31 
ROOT
HETATM    1  C4  UNL     1       4.234  -0.105   0.800  1.00  0.00     0.679 A 
HETATM    2  N5  UNL     1       4.343   1.183   1.139  1.00  0.00    -0.202 N 
ATOM      3  H5  UNL     1       4.920   1.452   1.936  1.00  0.00     0.183 HD
HETATM    4  C5  UNL     1       3.687   2.135   0.424  1.00  0.00     0.110 A 
HETATM    5  C6  UNL     1       2.914   1.740  -0.649  1.00  0.00     0.066 A 
HETATM    6  C7  UNL     1       2.784   0.420  -1.019  1.00  0.00     0.118 A 
HETATM    7  N8  UNL     1       3.458  -0.471  -0.272  1.00  0.00    -0.177 N 
ATOM      8  H8  UNL     1       3.390  -1.460  -0.511  1.00  0.00     0.185 HD
ENDROOT
BRANCH   6   9
HETATM    9  N6  UNL     1       2.085  -0.018  -2.003  1.00  0.00    -0.376 N 
ATOM     10  H6  UNL     1       2.082  -1.026  -2.159  1.00  0.00     0.161 HD
BRANCH   9  11
HETATM   11  C8  UNL     1       1.314   0.778  -2.895  1.00  0.00     0.121 C 
BRANCH  11  12
HETATM   12  C9  UNL     1      -0.169   0.747  -2.596  1.00  0.00     0.020 C 
BRANCH  12  13
HETATM   13  C10 UNL     1      -0.498   1.243  -1.228  1.00  0.00     0.002 C 
BRANCH  13  14
HETATM   14  C11 UNL     1      -1.980   1.211  -0.940  1.00  0.00     0.000 C 
BRANCH  14  15
HETATM   15  C12 UNL     1      -2.507  -0.203  -1.043  1.00  0.00     0.000 C 
BRANCH  15  16
HETATM   16  C13 UNL     1      -4.020  -0.101  -0.727  1.00  0.00     0.002 C 
BRANCH  16  17
HETATM   17  C14 UNL     1      -4.658  -1.427  -0.794  1.00  0.00     0.026 C 
BRANCH  17  18
HETATM   18  C15 UNL     1      -6.116  -1.445  -0.559  1.00  0.00     0.167 C 
BRANCH  18  19
HETATM   19  O1  UNL     1      -6.709  -1.106   0.566  1.00  0.00    -0.390 OA
BRANCH  19  20
HETATM   20  C16 UNL     1      -6.701   0.058   1.198  1.00  0.00     0.187 C 
BRANCH  20  21
HETATM   21  C17 UNL     1      -7.587   0.107   2.418  1.00  0.00     0.148 C 
BRANCH  21  22
HETATM   22  N7  UNL     1      -8.953  -0.128   2.120  1.00  0.00    -0.366 N 
ATOM     23  H7  UNL     1      -9.583   0.660   2.272  1.00  0.00     0.161 HD
BRANCH  22  24
HETATM   24  C18 UNL     1      -9.547  -1.298   1.646  1.00  0.00     0.348 C 
HETATM   25  O2  UNL     1      -8.949  -2.363   1.417  1.00  0.00    -0.284 OA
ENDBRANCH  22  24
ENDBRANCH  21  22
ENDBRANCH  20  21
ENDBRANCH  19  20
ENDBRANCH  18  19
ENDBRANCH  17  18
ENDBRANCH  16  17
ENDBRANCH  15  16
ENDBRANCH  14  15
ENDBRANCH  13  14
ENDBRANCH  12  13
ENDBRANCH  11  12
ENDBRANCH   9  11
ENDBRANCH   6   9
BRANCH   1  26
HETATM   26  N4  UNL     1       4.831  -1.042   1.440  1.00  0.00    -0.224 N 
ATOM     27  H4  UNL     1       4.694  -1.999   1.115  1.00  0.00     0.177 HD
BRANCH  26  28
HETATM   28  C3  UNL     1       5.669  -0.841   2.569  1.00  0.00     0.157 C 
BRANCH  28  29
HETATM   29  C2  UNL     1       7.122  -0.967   2.078  1.00  0.00     0.142 C 
BRANCH  29  30
HETATM   30  N3  UNL     1       7.433   0.008   1.060  1.00  0.00    -0.365 N 
HETATM   31  C1  UNL     1       8.419  -0.209   0.273  1.00  0.00     0.197 C 
HETATM   32  N1  UNL     1       9.190  -1.388   0.404  1.00  0.00    -0.067 NA
HETATM   33  N2  UNL     1       8.736   0.756  -0.742  1.00  0.00    -0.067 NA
ATOM     34  H3  UNL     1       6.875   0.857   0.969  1.00  0.00     0.161 HD
ENDBRANCH  29  30
ENDBRANCH  28  29
ENDBRANCH  26  28
ENDBRANCH   1  26
TORSDOF 18
