REMARK  16 active torsions:
REMARK  status: ('A' for Active; 'I' for Inactive)
REMARK    1  A    between atoms: N1_1  and  C1_5 
REMARK    2  A    between atoms: C1_5  and  C2_6 
REMARK    3  A    between atoms: C2_6  and  N2_7 
REMARK    4  A    between atoms: N2_7  and  C3_8 
REMARK       I    between atoms: N2_7  and  C13_22 
REMARK    5  A    between atoms: C3_8  and  C4_9 
REMARK    6  A    between atoms: C4_9  and  O1_10 
REMARK    7  A    between atoms: O1_10  and  C5_11 
REMARK    8  A    between atoms: C5_11  and  C6_12 
REMARK    9  A    between atoms: C6_12  and  O2_13 
REMARK   10  A    between atoms: O2_13  and  C7_14 
REMARK   11  A    between atoms: C7_14  and  C8_15 
REMARK   12  A    between atoms: C8_15  and  C9_16 
REMARK   13  A    between atoms: N5_24  and  C14_26 
REMARK   14  A    between atoms: C14_26  and  C15_27 
REMARK   15  A    between atoms: C15_27  and  C16_28 
REMARK   16  A    between atoms: C16_28  and  N6_29 
REMARK       I    between atoms: N6_29  and  C17_31 
ROOT
HETATM    1  N2  UNL     1       1.580  -1.778   1.704  1.00  0.00    -0.352 N 
HETATM    2  C13 UNL     1       2.885  -1.570   1.144  1.00  0.00     0.186 C 
HETATM    3  N4  UNL     1       4.053  -1.595   1.963  1.00  0.00    -0.064 NA
HETATM    4  N5  UNL     1       2.901  -1.364  -0.126  1.00  0.00    -0.364 N 
ATOM      5  H5  UNL     1       1.996  -1.371  -0.597  1.00  0.00     0.162 HD
ENDROOT
BRANCH   1   6
HETATM    6  C2  UNL     1       1.181  -3.130   1.971  1.00  0.00     0.152 C 
BRANCH   6   7
HETATM    7  C1  UNL     1       2.237  -4.142   1.619  1.00  0.00     0.249 C 
BRANCH   7   8
HETATM    8  N1  UNL     1       1.763  -5.482   1.911  1.00  0.00    -0.078 N 
ATOM      9  H13 UNL     1       1.454  -5.575   2.879  1.00  0.00     0.274 HD
ATOM     10  H12 UNL     1       0.875  -5.681   1.450  1.00  0.00     0.274 HD
ATOM     11  H11 UNL     1       2.479  -6.168   1.672  1.00  0.00     0.274 HD
ENDBRANCH   7   8
ENDBRANCH   6   7
ENDBRANCH   1   6
BRANCH   1  12
HETATM   12  C3  UNL     1       0.776  -0.623   1.949  1.00  0.00     0.151 C 
BRANCH  12  13
HETATM   13  C4  UNL     1      -0.437  -0.569   1.012  1.00  0.00     0.187 C 
BRANCH  13  14
HETATM   14  O1  UNL     1      -1.129   0.559   1.325  1.00  0.00    -0.387 OA
BRANCH  14  15
HETATM   15  C5  UNL     1      -2.313   0.681   0.563  1.00  0.00     0.193 C 
BRANCH  15  16
HETATM   16  C6  UNL     1      -2.079   0.752  -0.904  1.00  0.00     0.193 C 
BRANCH  16  17
HETATM   17  O2  UNL     1      -3.092   0.895  -1.744  1.00  0.00    -0.389 OA
BRANCH  17  18
HETATM   18  C7  UNL     1      -4.112   0.068  -1.868  1.00  0.00     0.172 C 
BRANCH  18  19
HETATM   19  C8  UNL     1      -5.184  -0.004  -0.853  1.00  0.00     0.066 C 
BRANCH  19  20
HETATM   20  C9  UNL     1      -5.943   1.281  -0.714  1.00  0.00    -0.040 A 
HETATM   21  C10 UNL     1      -7.064   1.633  -1.480  1.00  0.00     0.025 A 
HETATM   22  C11 UNL     1      -7.531   2.872  -1.098  1.00  0.00     0.088 A 
HETATM   23  N3  UNL     1      -6.719   3.289  -0.111  1.00  0.00    -0.375 N 
HETATM   24  C12 UNL     1      -5.769   2.345   0.124  1.00  0.00     0.094 A 
ATOM     25  H3  UNL     1      -6.803   4.176   0.385  1.00  0.00     0.164 HD
ENDBRANCH  19  20
ENDBRANCH  18  19
ENDBRANCH  17  18
ENDBRANCH  16  17
ENDBRANCH  15  16
ENDBRANCH  14  15
ENDBRANCH  13  14
ENDBRANCH  12  13
ENDBRANCH   1  12
BRANCH   4  26
HETATM   26  C14 UNL     1       4.039  -1.128  -0.948  1.00  0.00     0.123 C 
BRANCH  26  27
HETATM   27  C15 UNL     1       4.537   0.297  -0.653  1.00  0.00     0.039 C 
BRANCH  27  28
HETATM   28  C16 UNL     1       3.398   1.212  -0.988  1.00  0.00     0.125 C 
BRANCH  28  29
HETATM   29  N6  UNL     1       3.787   2.576  -0.729  1.00  0.00    -0.345 N 
HETATM   30  C17 UNL     1       4.869   3.146  -1.446  1.00  0.00     0.328 C 
HETATM   31  N7  UNL     1       5.210   4.489  -1.142  1.00  0.00    -0.040 NA
HETATM   32  O3  UNL     1       5.539   2.545  -2.322  1.00  0.00    -0.251 OA
ATOM     33  H6  UNL     1       3.286   3.128  -0.033  1.00  0.00     0.163 HD
ENDBRANCH  28  29
ENDBRANCH  27  28
ENDBRANCH  26  27
ENDBRANCH   4  26
TORSDOF 16
