REMARK  4 active torsions:
REMARK  status: ('A' for Active; 'I' for Inactive)
REMARK    1  A    between atoms: C3_4  and  C4_5 
REMARK    2  A    between atoms: C6_7  and  C7_8 
REMARK    3  A    between atoms: C10_17  and  N4_18 
REMARK    4  A    between atoms: N5_24  and  C16_25 
ROOT
HETATM    1  F1  UNL     1       0.661   2.076   3.576  1.00  0.00    -0.203 F 
HETATM    2  C1  UNL     1       0.777   1.377   2.439  1.00  0.00     0.161 A 
HETATM    3  C2  UNL     1       1.957   1.164   1.770  1.00  0.00     0.077 A 
HETATM    4  C3  UNL     1       2.019   0.435   0.601  1.00  0.00     0.065 A 
HETATM    5  N3  UNL     1       0.896  -0.081   0.103  1.00  0.00    -0.337 N 
ATOM      6  H3  UNL     1       0.943  -0.620  -0.762  1.00  0.00     0.167 HD
HETATM    7  C10 UNL     1      -0.322   0.087   0.712  1.00  0.00     0.161 A 
HETATM    8  C20 UNL     1      -0.371   0.813   1.873  1.00  0.00     0.199 A 
HETATM    9  F4  UNL     1      -1.544   0.985   2.513  1.00  0.00    -0.199 F 
ENDROOT
BRANCH   7  10
HETATM   10  N4  UNL     1      -1.486  -0.462   0.136  1.00  0.00    -0.291 N 
HETATM   11  C11 UNL     1      -1.410  -1.431  -0.947  1.00  0.00     0.150 C 
HETATM   12  C12 UNL     1      -2.106  -2.713  -0.557  1.00  0.00     0.011 A 
HETATM   13  C13 UNL     1      -3.472  -2.901  -1.189  1.00  0.00     0.013 A 
HETATM   14  C14 UNL     1      -3.317  -2.519   0.247  1.00  0.00     0.007 A 
HETATM   15  C15 UNL     1      -3.651  -1.184   0.753  1.00  0.00     0.121 C 
HETATM   16  N5  UNL     1      -2.745  -0.106   0.558  1.00  0.00    -0.196 NA
BRANCH  16  17
HETATM   17  C16 UNL     1      -3.301   1.014  -0.151  1.00  0.00     0.286 C 
HETATM   18  C17 UNL     1      -4.461   1.635   0.547  1.00  0.00     0.058 C 
HETATM   19  C18 UNL     1      -5.562   1.566  -0.459  1.00  0.00     0.114 C 
HETATM   20  C19 UNL     1      -4.880   1.476  -1.790  1.00  0.00     0.405 C 
HETATM   21  F2  UNL     1      -5.598   0.701  -2.704  1.00  0.00    -0.174 F 
HETATM   22  F3  UNL     1      -4.684   2.721  -2.354  1.00  0.00    -0.174 F 
HETATM   23  N6  UNL     1      -3.650   0.793  -1.511  1.00  0.00     0.009 N 
ATOM     24  H62 UNL     1      -2.903   1.058  -2.153  1.00  0.00     0.286 HD
ATOM     25  H61 UNL     1      -3.693  -0.199  -1.746  1.00  0.00     0.286 HD
ENDBRANCH  16  17
ENDBRANCH   7  10
BRANCH   4  26
HETATM   26  C4  UNL     1       3.318   0.242  -0.069  1.00  0.00     0.076 A 
HETATM   27  C5  UNL     1       4.562   0.700   0.302  1.00  0.00     0.060 A 
HETATM   28  C6  UNL     1       5.501   0.276  -0.631  1.00  0.00     0.032 A 
HETATM   29  N1  UNL     1       4.800  -0.423  -1.535  1.00  0.00    -0.304 N 
HETATM   30  N2  UNL     1       3.503  -0.447  -1.207  1.00  0.00    -0.298 N 
ATOM     31  H1  UNL     1       5.200  -0.874  -2.358  1.00  0.00     0.186 HD
ATOM     32  H2  UNL     1       2.769  -0.916  -1.738  1.00  0.00     0.187 HD
BRANCH  28  33
HETATM   33  C7  UNL     1       6.959   0.554  -0.605  1.00  0.00     0.037 A 
HETATM   34  C8  UNL     1       7.839  -0.687  -0.778  1.00  0.00     0.011 A 
HETATM   35  C9  UNL     1       7.775   0.381  -1.813  1.00  0.00     0.011 A 
ENDBRANCH  28  33
ENDBRANCH   4  26
TORSDOF 4
