REMARK  6 active torsions:
REMARK  status: ('A' for Active; 'I' for Inactive)
REMARK    1  A    between atoms: O1_1  and  C1_3 
REMARK    2  A    between atoms: C9_13  and  O2_14 
REMARK    3  A    between atoms: O2_14  and  C10_15 
REMARK    4  A    between atoms: C10_15  and  C11_16 
REMARK    5  A    between atoms: C11_16  and  O3_17 
REMARK    6  A    between atoms: C11_16  and  C12_19 
ROOT
HETATM    1  C1  UNL     1      -2.297   1.303   0.770  1.00  0.00     0.152 C 
HETATM    2  C2  UNL     1      -3.042   2.576   1.082  1.00  0.00     0.043 C 
HETATM    3  C3  UNL     1      -4.319   2.696   0.277  1.00  0.00     0.087 C 
HETATM    4  C4  UNL     1      -5.147   1.463   0.666  1.00  0.00     0.268 C 
HETATM    5  F1  UNL     1      -5.081   1.345   2.021  1.00  0.00    -0.201 F 
HETATM    6  F2  UNL     1      -6.404   1.636   0.166  1.00  0.00    -0.201 F 
HETATM    7  C5  UNL     1      -4.444   0.312  -0.020  1.00  0.00     0.001 A 
HETATM    8  C6  UNL     1      -3.140   0.311   0.073  1.00  0.00    -0.011 A 
HETATM    9  C7  UNL     1      -2.438  -0.807  -0.597  1.00  0.00    -0.018 A 
HETATM   10  C8  UNL     1      -1.065  -0.917  -0.560  1.00  0.00     0.052 A 
HETATM   11  C9  UNL     1      -0.405  -1.957  -1.176  1.00  0.00     0.108 A 
HETATM   12  C17 UNL     1      -1.110  -2.925  -1.852  1.00  0.00     0.150 A 
HETATM   13  F4  UNL     1      -0.502  -3.978  -2.481  1.00  0.00    -0.203 F 
HETATM   14  C18 UNL     1      -2.474  -2.822  -1.893  1.00  0.00     0.053 A 
HETATM   15  C19 UNL     1      -3.152  -1.770  -1.272  1.00  0.00    -0.044 A 
HETATM   16  C20 UNL     1      -4.614  -1.764  -1.389  1.00  0.00     0.044 A 
HETATM   17  C21 UNL     1      -5.303  -0.658  -0.698  1.00  0.00     0.045 A 
ENDROOT
BRANCH  11  18
HETATM   18  O2  UNL     1       0.956  -2.030  -1.116  1.00  0.00    -0.345 OA
BRANCH  18  19
HETATM   19  C10 UNL     1       1.722  -1.054  -0.429  1.00  0.00     0.210 C 
BRANCH  19  20
HETATM   20  C11 UNL     1       3.194  -1.411  -0.543  1.00  0.00     0.171 C 
BRANCH  20  21
HETATM   21  O3  UNL     1       3.578  -1.442  -1.879  1.00  0.00    -0.391 OA
ATOM     22  H3  UNL     1       4.499  -1.665  -1.950  1.00  0.00     0.210 HD
ENDBRANCH  20  21
BRANCH  20  23
HETATM   23  C12 UNL     1       3.975  -0.323   0.186  1.00  0.00     0.152 C 
HETATM   24  C13 UNL     1       5.455  -0.712   0.068  1.00  0.00     0.037 C 
HETATM   25  C14 UNL     1       6.329   0.239   0.829  1.00  0.00     0.042 C 
HETATM   26  C15 UNL     1       5.770   1.634   0.653  1.00  0.00     0.194 C 
HETATM   27  F3  UNL     1       6.810   2.515   0.504  1.00  0.00    -0.247 F 
HETATM   28  C16 UNL     1       4.897   1.642  -0.594  1.00  0.00     0.205 C 
HETATM   29  O4  UNL     1       3.739   0.910  -0.367  1.00  0.00    -0.380 OA
ENDBRANCH  20  23
ENDBRANCH  19  20
ENDBRANCH  18  19
ENDBRANCH  11  18
BRANCH   1  30
HETATM   30  O1  UNL     1      -1.804   0.817   1.980  1.00  0.00    -0.391 OA
ATOM     31  H1  UNL     1      -1.335   0.015   1.783  1.00  0.00     0.210 HD
ENDBRANCH   1  30
TORSDOF 6
