REMARK  4 active torsions:
REMARK  status: ('A' for Active; 'I' for Inactive)
REMARK    1  A    between atoms: C9_12  and  N1_13 
REMARK    2  A    between atoms: C10_14  and  S1_15 
REMARK    3  A    between atoms: S1_15  and  C11_16 
REMARK    4  A    between atoms: C11_16  and  C12_17 
ROOT
HETATM    1  N1  UNL     1       0.675   0.015   1.030  1.00  0.00    -0.259 N 
HETATM    2  C10 UNL     1       1.720  -0.825   0.708  1.00  0.00     0.086 A 
HETATM    3  C13 UNL     1       2.709  -1.148   1.614  1.00  0.00     0.112 A 
HETATM    4  C14 UNL     1       2.693  -0.637   2.890  1.00  0.00     0.251 A 
HETATM    5  O3  UNL     1       3.559  -0.900   3.735  1.00  0.00    -0.268 OA
HETATM    6  N2  UNL     1       1.676   0.176   3.194  1.00  0.00    -0.275 N 
ATOM      7  H2  UNL     1       1.620   0.579   4.129  1.00  0.00     0.173 HD
HETATM    8  C15 UNL     1       0.715   0.476   2.280  1.00  0.00     0.334 A 
HETATM    9  O4  UNL     1      -0.174   1.231   2.652  1.00  0.00    -0.246 OA
ENDROOT
BRANCH   1  10
HETATM   10  C9  UNL     1      -0.285   0.280   0.033  1.00  0.00     0.078 C 
HETATM   11  C2  UNL     1      -0.648   1.653  -0.373  1.00  0.00     0.142 C 
HETATM   12  C1  UNL     1       0.541   2.327  -1.064  1.00  0.00     0.058 C 
HETATM   13  F1  UNL     1      -1.325   2.477   0.437  1.00  0.00    -0.237 F 
HETATM   14  C3  UNL     1      -1.666   1.437  -1.529  1.00  0.00     0.050 C 
HETATM   15  C4  UNL     1      -2.959   1.086  -0.825  1.00  0.00     0.016 C 
HETATM   16  C5  UNL     1      -2.814  -0.102   0.088  1.00  0.00    -0.007 C 
HETATM   17  C6  UNL     1      -3.372   0.137   1.460  1.00  0.00     0.018 C 
HETATM   18  C7  UNL     1      -3.764  -1.171  -0.502  1.00  0.00     0.018 C 
HETATM   19  C8  UNL     1      -1.454  -0.696   0.111  1.00  0.00     0.162 C 
HETATM   20 CL1  UNL     1      -1.351  -1.764   1.526  1.00  0.00    -0.094 Cl
HETATM   21 CL2  UNL     1      -1.431  -1.827  -1.309  1.00  0.00    -0.094 Cl
ENDBRANCH   1  10
BRANCH   2  22
HETATM   22  S1  UNL     1       1.884  -1.489  -0.937  1.00  0.00    -0.101 SA
BRANCH  22  23
HETATM   23  C11 UNL     1       3.499  -2.162  -1.292  1.00  0.00     0.194 C 
BRANCH  23  24
HETATM   24  C12 UNL     1       4.484  -1.037  -1.420  1.00  0.00     0.182 C 
HETATM   25  O1  UNL     1       5.237  -0.742  -0.492  1.00  0.00    -0.647 OA
HETATM   26  O2  UNL     1       4.527  -0.325  -2.624  1.00  0.00    -0.647 OA
ENDBRANCH  23  24
ENDBRANCH  22  23
ENDBRANCH   2  22
TORSDOF 4
