REMARK  4 active torsions:
REMARK  status: ('A' for Active; 'I' for Inactive)
REMARK    1  A    between atoms: C2_2  and  N1_3 
REMARK    2  A    between atoms: N2_6  and  C5_7 
REMARK    3  A    between atoms: C7_9  and  C8_10 
REMARK    4  A    between atoms: C8_10  and  C9_11 
ROOT
HETATM    1  C5  UNL     1       0.672   0.897  -0.365  1.00  0.00     0.073 A 
HETATM    2  C6  UNL     1      -0.536   0.212  -0.262  1.00  0.00     0.045 A 
HETATM    3  C7  UNL     1      -1.739   0.783  -0.697  1.00  0.00     0.017 A 
HETATM    4  C15 UNL     1      -1.698   2.045  -1.228  1.00  0.00     0.167 A 
HETATM    5  F2  UNL     1      -2.825   2.673  -1.624  1.00  0.00    -0.202 F 
HETATM    6  C16 UNL     1      -0.473   2.710  -1.321  1.00  0.00     0.196 A 
HETATM    7  F3  UNL     1      -0.495   3.963  -1.860  1.00  0.00    -0.199 F 
HETATM    8  C17 UNL     1       0.717   2.161  -0.899  1.00  0.00     0.184 A 
HETATM    9  F4  UNL     1       1.869   2.890  -1.054  1.00  0.00    -0.200 F 
ENDROOT
BRANCH   3  10
HETATM   10  C8  UNL     1      -3.014   0.019  -0.618  1.00  0.00     0.092 C 
HETATM   11  C10 UNL     1      -4.049   0.802   0.103  1.00  0.00     0.076 C 
HETATM   12  C11 UNL     1      -4.778   0.090   1.184  1.00  0.00     0.066 C 
HETATM   13  C12 UNL     1      -5.422   1.128   2.091  1.00  0.00     0.046 C 
HETATM   14  C13 UNL     1      -5.927  -0.738   0.613  1.00  0.00     0.046 C 
HETATM   15  O1  UNL     1      -3.938  -0.697   2.008  1.00  0.00    -0.312 OA
HETATM   16  C14 UNL     1      -3.069  -1.564   1.365  1.00  0.00     0.214 C 
HETATM   17  N3  UNL     1      -2.621  -2.641   1.940  1.00  0.00    -0.365 N 
HETATM   18  N4  UNL     1      -2.673  -1.255   0.060  1.00  0.00    -0.341 N 
ATOM     19  H32 UNL     1      -2.910  -2.866   2.892  1.00  0.00     0.159 HD
ATOM     20  H31 UNL     1      -1.981  -3.279   1.467  1.00  0.00     0.159 HD
ATOM     21  H4  UNL     1      -2.120  -1.942  -0.453  1.00  0.00     0.164 HD
BRANCH  10  22
HETATM   22  C9  UNL     1      -3.476  -0.482  -1.987  1.00  0.00     0.258 C 
HETATM   23  F1  UNL     1      -3.723   0.438  -2.923  1.00  0.00    -0.253 F 
ENDBRANCH  10  22
ENDBRANCH   3  10
BRANCH   1  24
HETATM   24  N2  UNL     1       1.844   0.292   0.121  1.00  0.00    -0.374 N 
HETATM   25  C4  UNL     1       1.990  -1.176  -0.034  1.00  0.00     0.153 C 
HETATM   26  C3  UNL     1       3.171  -1.311  -0.976  1.00  0.00     0.292 C 
HETATM   27  N1  UNL     1       4.340  -0.690  -0.519  1.00  0.00     0.095 N 
HETATM   28  C19 UNL     1       4.286   0.347   0.420  1.00  0.00     0.236 C 
HETATM   29  C18 UNL     1       2.944   0.889   0.803  1.00  0.00     0.158 C 
HETATM   30  C20 UNL     1       5.125   1.509  -0.079  1.00  0.00     0.044 C 
BRANCH  27  31
HETATM   31  C2  UNL     1       5.317  -1.716  -0.209  1.00  0.00     0.268 C 
HETATM   32  C1  UNL     1       6.650  -1.212   0.219  1.00  0.00     0.037 C 
ENDBRANCH  27  31
ENDBRANCH   1  24
TORSDOF 4
