REMARK  11 active torsions:
REMARK  status: ('A' for Active; 'I' for Inactive)
REMARK    1  A    between atoms: C2_2  and  C3_3 
REMARK    2  A    between atoms: C3_3  and  C4_4 
REMARK    3  A    between atoms: C4_4  and  C5_5 
REMARK    4  A    between atoms: C5_5  and  C6_6 
REMARK    5  A    between atoms: C6_6  and  O1_7 
REMARK    6  A    between atoms: O1_7  and  C7_8 
REMARK    7  A    between atoms: C11_12  and  C12_13 
REMARK    8  A    between atoms: C12_13  and  C13_14 
REMARK    9  A    between atoms: C13_14  and  C14_15 
REMARK   10  A    between atoms: C14_15  and  C15_16 
REMARK   11  A    between atoms: C15_16  and  O2_17 
ROOT
HETATM    1  C7  UNL     1      -0.267  -0.187  -0.707  1.00  0.00     0.080 A 
HETATM    2  C8  UNL     1       0.188  -1.418  -0.287  1.00  0.00    -0.028 A 
HETATM    3  C9  UNL     1      -0.807  -2.453   0.091  1.00  0.00     0.051 C 
HETATM    4  C10 UNL     1       1.539  -1.681  -0.219  1.00  0.00     0.016 A 
HETATM    5  C11 UNL     1       2.491  -0.739  -0.564  1.00  0.00    -0.057 A 
HETATM    6  C16 UNL     1       2.040   0.491  -0.984  1.00  0.00     0.016 A 
HETATM    7  C17 UNL     1       0.680   0.755  -1.052  1.00  0.00    -0.028 A 
HETATM    8  C18 UNL     1       0.206   2.090  -1.508  1.00  0.00     0.051 C 
ENDROOT
BRANCH   1   9
HETATM    9  O1  UNL     1      -1.615   0.120  -0.790  1.00  0.00    -0.350 OA
BRANCH   9  10
HETATM   10  C6  UNL     1      -2.360   0.680   0.271  1.00  0.00     0.175 C 
BRANCH  10  11
HETATM   11  C5  UNL     1      -3.791   0.849  -0.265  1.00  0.00     0.027 C 
BRANCH  11  12
HETATM   12  C4  UNL     1      -4.640   1.439   0.809  1.00  0.00     0.006 C 
BRANCH  12  13
HETATM   13  C3  UNL     1      -6.063   1.663   0.481  1.00  0.00     0.026 C 
BRANCH  13  14
HETATM   14  C2  UNL     1      -6.893   0.499   0.186  1.00  0.00    -0.037 C 
HETATM   15  C1  UNL     1      -6.628  -0.765   0.299  1.00  0.00     0.007 C 
ENDBRANCH  13  14
ENDBRANCH  12  13
ENDBRANCH  11  12
ENDBRANCH  10  11
ENDBRANCH   9  10
ENDBRANCH   1   9
BRANCH   5  16
HETATM   16  C12 UNL     1       3.959  -1.072  -0.474  1.00  0.00     0.038 C 
BRANCH  16  17
HETATM   17  C13 UNL     1       4.505  -0.731   0.878  1.00  0.00     0.007 C 
BRANCH  17  18
HETATM   18  C14 UNL     1       5.969  -1.068   0.979  1.00  0.00     0.026 C 
BRANCH  18  19
HETATM   19  C15 UNL     1       6.738  -0.288  -0.049  1.00  0.00     0.164 C 
BRANCH  19  20
HETATM   20  O2  UNL     1       6.566   1.089   0.153  1.00  0.00    -0.401 OA
ATOM     21  H2  UNL     1       7.052   1.582  -0.497  1.00  0.00     0.209 HD
ENDBRANCH  19  20
ENDBRANCH  18  19
ENDBRANCH  17  18
ENDBRANCH  16  17
ENDBRANCH   5  16
TORSDOF 11
