REMARK  10 active torsions:
REMARK  status: ('A' for Active; 'I' for Inactive)
REMARK    1  A    between atoms: C2_2  and  C4_4 
REMARK    2  A    between atoms: C4_4  and  C5_5 
REMARK    3  A    between atoms: C5_5  and  C6_6 
REMARK    4  A    between atoms: C6_6  and  C7_7 
REMARK    5  A    between atoms: C7_7  and  O2_9 
REMARK    6  A    between atoms: O2_9  and  C8_10 
REMARK    7  A    between atoms: C8_10  and  C9_11 
REMARK    8  A    between atoms: C8_10  and  C15_17 
REMARK    9  A    between atoms: C9_11  and  C10_12 
REMARK   10  A    between atoms: C15_17  and  C16_18 
ROOT
HETATM    1  C8  UNL     1      -1.499   0.388   0.088  1.00  0.00     0.136 C 
ENDROOT
BRANCH   1   2
HETATM    2  O2  UNL     1      -0.265  -0.256  -0.040  1.00  0.00    -0.316 OA
BRANCH   2   3
HETATM    3  C7  UNL     1       0.822   0.057   0.708  1.00  0.00     0.259 C 
HETATM    4  O1  UNL     1       0.702   0.965   1.547  1.00  0.00    -0.265 OA
BRANCH   3   5
HETATM    5  C6  UNL     1       2.152  -0.636   0.572  1.00  0.00     0.111 C 
BRANCH   5   6
HETATM    6  C5  UNL     1       3.139  -0.049   1.547  1.00  0.00     0.010 C 
BRANCH   6   7
HETATM    7  C4  UNL     1       4.456  -0.750   1.398  1.00  0.00     0.004 C 
BRANCH   7   8
HETATM    8  C2  UNL     1       5.034  -0.617   0.020  1.00  0.00    -0.023 C 
HETATM    9  C1  UNL     1       5.280   0.819  -0.367  1.00  0.00     0.009 C 
HETATM   10  C3  UNL     1       6.408  -1.297   0.043  1.00  0.00     0.009 C 
ENDBRANCH   7   8
ENDBRANCH   6   7
ENDBRANCH   5   6
ENDBRANCH   3   5
ENDBRANCH   2   3
ENDBRANCH   1   2
BRANCH   1  11
HETATM   11  C9  UNL     1      -1.945   1.234  -1.041  1.00  0.00     0.070 C 
BRANCH  11  12
HETATM   12  C10 UNL     1      -3.242   1.878  -0.696  1.00  0.00    -0.059 A 
HETATM   13  C11 UNL     1      -4.413   1.824  -1.293  1.00  0.00    -0.016 A 
HETATM   14  C12 UNL     1      -5.418   2.639  -0.574  1.00  0.00     0.054 A 
HETATM   15  C13 UNL     1      -4.649   3.196   0.563  1.00  0.00    -0.022 A 
HETATM   16  C14 UNL     1      -3.408   2.758   0.488  1.00  0.00     0.003 A 
ENDBRANCH  11  12
ENDBRANCH   1  11
BRANCH   1  17
HETATM   17  C15 UNL     1      -2.531  -0.492   0.737  1.00  0.00     0.037 C 
BRANCH  17  18
HETATM   18  C16 UNL     1      -2.823  -1.790   0.112  1.00  0.00    -0.020 C 
HETATM   19  C17 UNL     1      -1.596  -2.702   0.036  1.00  0.00     0.009 C 
HETATM   20  C18 UNL     1      -3.585  -1.823  -1.162  1.00  0.00     0.009 C 
ENDBRANCH  17  18
ENDBRANCH   1  17
TORSDOF 10
