REMARK  9 active torsions:
REMARK  status: ('A' for Active; 'I' for Inactive)
REMARK    1  A    between atoms: C2_2  and  C3_3 
REMARK    2  A    between atoms: C3_3  and  O1_4 
REMARK    3  A    between atoms: O1_4  and  C4_5 
REMARK    4  A    between atoms: C4_5  and  C5_6 
REMARK    5  A    between atoms: C5_6  and  O2_7 
REMARK    6  A    between atoms: O2_7  and  C6_8 
REMARK    7  A    between atoms: C7_9  and  C8_10 
REMARK    8  A    between atoms: C8_10  and  C9_11 
REMARK    9  A    between atoms: C14_16  and  C15_17 
ROOT
HETATM    1  C6  UNL     1      -0.917   0.033  -0.024  1.00  0.00     0.081 A 
HETATM    2  C7  UNL     1      -1.874   0.974   0.305  1.00  0.00    -0.024 A 
HETATM    3  C11 UNL     1      -3.207   0.592   0.366  1.00  0.00     0.017 A 
HETATM    4  C12 UNL     1      -3.589  -0.699   0.105  1.00  0.00    -0.054 A 
HETATM    5  C13 UNL     1      -5.019  -1.079   0.177  1.00  0.00     0.049 C 
HETATM    6  C14 UNL     1      -2.635  -1.659  -0.228  1.00  0.00    -0.044 A 
HETATM    7  C17 UNL     1      -1.313  -1.273  -0.287  1.00  0.00    -0.021 A 
HETATM    8  C18 UNL     1      -0.325  -2.316  -0.648  1.00  0.00     0.052 C 
ENDROOT
BRANCH   1   9
HETATM    9  O2  UNL     1       0.419   0.322  -0.106  1.00  0.00    -0.348 OA
BRANCH   9  10
HETATM   10  C5  UNL     1       1.338   0.223   0.949  1.00  0.00     0.201 C 
BRANCH  10  11
HETATM   11  C4  UNL     1       2.691   0.648   0.417  1.00  0.00     0.194 C 
BRANCH  11  12
HETATM   12  O1  UNL     1       3.043  -0.183  -0.609  1.00  0.00    -0.389 OA
BRANCH  12  13
HETATM   13  C3  UNL     1       4.251   0.069  -1.206  1.00  0.00     0.167 C 
BRANCH  13  14
HETATM   14  C2  UNL     1       5.415  -0.029  -0.241  1.00  0.00     0.022 C 
HETATM   15  C1  UNL     1       6.728   0.247  -0.910  1.00  0.00     0.007 C 
ENDBRANCH  13  14
ENDBRANCH  12  13
ENDBRANCH  11  12
ENDBRANCH  10  11
ENDBRANCH   9  10
ENDBRANCH   1   9
BRANCH   2  16
HETATM   16  C8  UNL     1      -1.497   2.367   0.585  1.00  0.00     0.041 C 
BRANCH  16  17
HETATM   17  C9  UNL     1      -1.174   3.165  -0.638  1.00  0.00     0.000 C 
HETATM   18  C10 UNL     1      -0.801   4.569  -0.228  1.00  0.00     0.005 C 
ENDBRANCH  16  17
ENDBRANCH   2  16
BRANCH   6  19
HETATM   19  C15 UNL     1      -3.052  -3.057  -0.507  1.00  0.00     0.035 C 
HETATM   20  C16 UNL     1      -3.377  -3.808   0.763  1.00  0.00     0.010 C 
ENDBRANCH   6  19
TORSDOF 9
