REMARK  4 active torsions:
REMARK  status: ('A' for Active; 'I' for Inactive)
REMARK    1  A    between atoms: C2_3  and  C3_4 
REMARK    2  A    between atoms: C4_7  and  N3_8 
REMARK    3  A    between atoms: C6_19  and  N7_20 
REMARK    4  A    between atoms: N7_20  and  O1_22 
ROOT
HETATM    1  C3  UNL     1      -1.101  -0.411  -0.282  1.00  0.00     0.166 A 
HETATM    2  N2  UNL     1      -1.227  -1.759  -0.081  1.00  0.00    -0.173 N 
ATOM      3  H2  UNL     1      -0.410  -2.269   0.256  1.00  0.00     0.186 HD
HETATM    4  C4  UNL     1      -2.341  -2.447  -0.295  1.00  0.00     0.692 A 
HETATM    5  N4  UNL     1      -3.457  -1.816  -0.743  1.00  0.00    -0.023 N 
ATOM      6  H4  UNL     1      -4.321  -2.331  -0.912  1.00  0.00     0.203 HD
HETATM    7  C5  UNL     1      -3.385  -0.499  -0.955  1.00  0.00     0.692 A 
HETATM    8  N5  UNL     1      -4.430   0.128  -1.380  1.00  0.00    -0.234 N 
ATOM      9  H51 UNL     1      -4.375   1.134  -1.542  1.00  0.00     0.174 HD
ATOM     10  H52 UNL     1      -5.301  -0.373  -1.553  1.00  0.00     0.174 HD
HETATM   11  N6  UNL     1      -2.217   0.173  -0.723  1.00  0.00    -0.173 N 
ATOM     12  H6  UNL     1      -2.198   1.178  -0.897  1.00  0.00     0.186 HD
ENDROOT
BRANCH   1  13
HETATM   13  C2  UNL     1       0.148   0.260   0.064  1.00  0.00     0.118 A 
HETATM   14  N1  UNL     1       1.343  -0.403   0.078  1.00  0.00    -0.298 N 
HETATM   15  C1  UNL     1       1.342  -1.813  -0.221  1.00  0.00     0.161 C 
HETATM   16  C9  UNL     1       2.517   0.240   0.344  1.00  0.00     0.331 A 
HETATM   17  N8  UNL     1       2.578   1.550   0.606  1.00  0.00    -0.269 N 
HETATM   18  O3  UNL     1       3.568  -0.483   0.331  1.00  0.00    -0.246 OA
HETATM   19  C7  UNL     1       1.419   2.209   0.595  1.00  0.00     0.282 A 
HETATM   20  C8  UNL     1       3.852   2.183   0.881  1.00  0.00     0.164 C 
HETATM   21  C6  UNL     1       0.197   1.601   0.331  1.00  0.00     0.153 A 
HETATM   22  O2  UNL     1       1.442   3.434   0.835  1.00  0.00    -0.265 OA
BRANCH  21  23
HETATM   23  N7  UNL     1      -0.969   2.442   0.408  1.00  0.00    -0.262 N 
ATOM     24  H7  UNL     1      -1.574   2.618  -0.395  1.00  0.00     0.194 HD
BRANCH  23  25
HETATM   25  O1  UNL     1      -1.185   2.944   1.542  1.00  0.00    -0.289 OA
ATOM     26  H1  UNL     1      -1.954   3.499   1.593  1.00  0.00     0.244 HD
ENDBRANCH  23  25
ENDBRANCH  21  23
ENDBRANCH   1  13
BRANCH   4  27
HETATM   27  N3  UNL     1      -2.456  -3.716  -0.105  1.00  0.00    -0.234 N 
ATOM     28  H32 UNL     1      -1.618  -4.190   0.231  1.00  0.00     0.174 HD
ATOM     29  H31 UNL     1      -3.312  -4.245  -0.270  1.00  0.00     0.174 HD
ENDBRANCH   4  27
TORSDOF 4
