REMARK  6 active torsions:
REMARK  status: ('A' for Active; 'I' for Inactive)
REMARK    1  A    between atoms: N1_1  and  N2_4 
REMARK    2  A    between atoms: N2_4  and  C1_6 
REMARK    3  A    between atoms: C2_9  and  C3_10 
REMARK    4  A    between atoms: C6_15  and  N5_16 
REMARK    5  A    between atoms: C7_21  and  N7_22 
REMARK    6  A    between atoms: N7_22  and  N8_24 
ROOT
HETATM    1  C1  UNL     1      -2.512   0.795   0.156  1.00  0.00     0.712 A 
HETATM    2  N3  UNL     1      -1.194   0.997   0.179  1.00  0.00    -0.173 N 
ATOM      3  H3  UNL     1      -0.883   1.954   0.343  1.00  0.00     0.186 HD
HETATM    4  C2  UNL     1      -0.242   0.084   0.011  1.00  0.00     0.151 A 
HETATM    5  N6  UNL     1      -0.693  -1.199  -0.207  1.00  0.00    -0.173 N 
ATOM      6  H6  UNL     1      -0.023  -1.955  -0.344  1.00  0.00     0.186 HD
HETATM    7  C7  UNL     1      -2.010  -1.460  -0.240  1.00  0.00     0.712 A 
HETATM    8  N9  UNL     1      -2.922  -0.491  -0.063  1.00  0.00    -0.019 N 
ATOM      9  H9  UNL     1      -3.917  -0.713  -0.092  1.00  0.00     0.203 HD
ENDROOT
BRANCH   4  10
HETATM   10  C3  UNL     1       1.203   0.290   0.032  1.00  0.00     0.070 A 
HETATM   11  C4  UNL     1       2.143  -0.732  -0.165  1.00  0.00     0.073 A 
HETATM   12  C5  UNL     1       3.372  -0.149  -0.072  1.00  0.00     0.160 A 
HETATM   13  N4  UNL     1       4.631  -0.827  -0.210  1.00  0.00    -0.074 NA
HETATM   14  O1  UNL     1       3.218   1.095   0.155  1.00  0.00    -0.273 OA
HETATM   15  C6  UNL     1       1.913   1.432   0.231  1.00  0.00     0.230 A 
BRANCH  15  16
HETATM   16  N5  UNL     1       1.491   2.753   0.476  1.00  0.00    -0.089 N 
HETATM   17  O2  UNL     1       2.430   3.608   0.620  1.00  0.00    -0.530 OA
HETATM   18  O3  UNL     1       0.213   3.152   0.564  1.00  0.00    -0.530 OA
ENDBRANCH  15  16
ENDBRANCH   4  10
BRANCH   1  19
HETATM   19  N2  UNL     1      -3.414   1.680   0.318  1.00  0.00    -0.138 N 
ATOM     20  H2  UNL     1      -4.374   1.338   0.268  1.00  0.00     0.205 HD
BRANCH  19  21
HETATM   21  N1  UNL     1      -3.284   3.021   0.549  1.00  0.00    -0.331 N 
ATOM     22  H12 UNL     1      -2.317   3.343   0.595  1.00  0.00     0.177 HD
ATOM     23  H11 UNL     1      -4.006   3.730   0.679  1.00  0.00     0.177 HD
ENDBRANCH  19  21
ENDBRANCH   1  19
BRANCH   7  24
HETATM   24  N7  UNL     1      -2.361  -2.680  -0.449  1.00  0.00    -0.138 N 
ATOM     25  H7  UNL     1      -3.355  -2.905  -0.479  1.00  0.00     0.205 HD
BRANCH  24  26
HETATM   26  N8  UNL     1      -1.437  -3.707  -0.636  1.00  0.00    -0.331 N 
ATOM     27  H82 UNL     1      -0.447  -3.464  -0.603  1.00  0.00     0.177 HD
ATOM     28  H81 UNL     1      -1.715  -4.674  -0.802  1.00  0.00     0.177 HD
ENDBRANCH  24  26
ENDBRANCH   7  24
TORSDOF 6
