REMARK  3 active torsions:
REMARK  status: ('A' for Active; 'I' for Inactive)
REMARK    1  A    between atoms: C4_10  and  N4_11 
REMARK    2  A    between atoms: C5_16  and  N6_17 
REMARK    3  A    between atoms: N7_19  and  N8_21 
REMARK       I    between atoms: N8_21  and  C6_23 
ROOT
HETATM    1  C1  UNL     1      -2.716   2.457  -0.732  1.00  0.00     0.164 C 
HETATM    2  N1  UNL     1      -2.486   1.068  -0.380  1.00  0.00    -0.270 N 
HETATM    3  C2  UNL     1      -3.478   0.194  -0.143  1.00  0.00     0.330 A 
HETATM    4  O1  UNL     1      -4.668   0.633  -0.239  1.00  0.00    -0.246 OA
HETATM    5  N2  UNL     1      -3.237  -1.096   0.183  1.00  0.00    -0.293 N 
ATOM      6  H2  UNL     1      -4.004  -1.745   0.358  1.00  0.00     0.172 HD
HETATM    7  C3  UNL     1      -1.946  -1.501   0.270  1.00  0.00     0.144 A 
HETATM    8  N3  UNL     1      -1.635  -2.766   0.589  1.00  0.00    -0.176 N 
ATOM      9  H3  UNL     1      -2.393  -3.425   0.768  1.00  0.00     0.186 HD
HETATM   10  C4  UNL     1      -0.367  -3.203   0.683  1.00  0.00     0.679 A 
HETATM   11  N5  UNL     1       0.667  -2.345   0.450  1.00  0.00    -0.174 N 
ATOM     12  H5  UNL     1       1.631  -2.672   0.521  1.00  0.00     0.186 HD
HETATM   13  C5  UNL     1       0.409  -1.067   0.127  1.00  0.00     0.156 A 
HETATM   14  C7  UNL     1      -0.895  -0.635   0.034  1.00  0.00     0.123 A 
HETATM   15  C8  UNL     1      -1.190   0.671  -0.296  1.00  0.00     0.269 A 
HETATM   16  O3  UNL     1      -0.259   1.492  -0.518  1.00  0.00    -0.267 OA
ENDROOT
BRANCH  13  17
HETATM   17  N6  UNL     1       1.502  -0.196  -0.110  1.00  0.00    -0.269 N 
HETATM   18  N7  UNL     1       2.655  -0.564  -0.405  1.00  0.00    -0.237 N 
ATOM     19  H7  UNL     1       2.873  -1.557  -0.492  1.00  0.00     0.208 HD
ATOM     20  H6  UNL     1       1.332   0.807  -0.033  1.00  0.00     0.190 HD
BRANCH  18  21
HETATM   21  N8  UNL     1       3.643   0.395  -0.614  1.00  0.00    -0.239 N 
HETATM   22  C6  UNL     1       3.642   1.604   0.122  1.00  0.00     0.348 C 
HETATM   23  N9  UNL     1       4.661   2.552  -0.120  1.00  0.00    -0.038 NA
HETATM   24  O2  UNL     1       2.767   1.872   0.985  1.00  0.00    -0.249 OA
ATOM     25  H8  UNL     1       4.374   0.224  -1.304  1.00  0.00     0.193 HD
ENDBRANCH  18  21
ENDBRANCH  13  17
BRANCH  10  26
HETATM   26  N4  UNL     1      -0.079  -4.422   0.991  1.00  0.00    -0.234 N 
ATOM     27  H42 UNL     1      -0.852  -5.064   1.165  1.00  0.00     0.174 HD
ATOM     28  H41 UNL     1       0.883  -4.754   1.062  1.00  0.00     0.174 HD
ENDBRANCH  10  26
TORSDOF 3
