REMARK  3 active torsions:
REMARK  status: ('A' for Active; 'I' for Inactive)
REMARK    1  A    between atoms: O1_2  and  C2_3 
REMARK    2  A    between atoms: C2_3  and  C3_5 
REMARK    3  A    between atoms: C4_6  and  N1_7 
REMARK       I    between atoms: N1_7  and  C5_9 
ROOT
HETATM    1  C3  UNL     1       0.960  -0.611  -0.311  1.00  0.00     0.136 A 
HETATM    2  C4  UNL     1      -0.177  -0.087   0.268  1.00  0.00     0.089 A 
HETATM    3  C6  UNL     1      -1.323  -0.836   0.453  1.00  0.00     0.115 A 
HETATM    4  N3  UNL     1      -2.441  -0.358   1.012  1.00  0.00    -0.237 N 
ATOM      5  H3  UNL     1      -2.487   0.609   1.332  1.00  0.00     0.197 HD
HETATM    6  O4  UNL     1      -3.460  -1.140   1.140  1.00  0.00    -0.155 OA
HETATM    7  N4  UNL     1      -3.533  -2.366   0.783  1.00  0.00    -0.224 N 
ATOM      8  H4  UNL     1      -4.393  -2.893   0.932  1.00  0.00     0.198 HD
HETATM    9  C7  UNL     1      -2.470  -2.956   0.210  1.00  0.00     0.150 A 
HETATM   10  N5  UNL     1      -2.493  -4.195  -0.170  1.00  0.00    -0.382 N 
ATOM     11  H51 UNL     1      -1.686  -4.643  -0.605  1.00  0.00     0.157 HD
ATOM     12  H52 UNL     1      -3.342  -4.744  -0.031  1.00  0.00     0.157 HD
HETATM   13  C8  UNL     1      -1.339  -2.225   0.025  1.00  0.00     0.112 A 
HETATM   14  N6  UNL     1      -0.212  -2.700  -0.536  1.00  0.00    -0.317 N 
ATOM     15  H6  UNL     1      -0.185  -3.670  -0.849  1.00  0.00     0.169 HD
HETATM   16  C9  UNL     1       0.874  -1.936  -0.695  1.00  0.00     0.264 A 
HETATM   17  O5  UNL     1       1.882  -2.467  -1.229  1.00  0.00    -0.267 OA
ENDROOT
BRANCH   2  18
HETATM   18  N1  UNL     1      -0.174   1.259   0.682  1.00  0.00    -0.308 N 
HETATM   19  C5  UNL     1      -0.586   2.310  -0.167  1.00  0.00     0.333 C 
HETATM   20  N2  UNL     1      -0.568   3.647   0.287  1.00  0.00    -0.040 NA
HETATM   21  O3  UNL     1      -0.967   2.041  -1.329  1.00  0.00    -0.251 OA
ATOM     22  H1  UNL     1       0.136   1.483   1.628  1.00  0.00     0.170 HD
ENDBRANCH   2  18
BRANCH   1  23
HETATM   23  C2  UNL     1       2.189   0.136  -0.521  1.00  0.00     0.300 C 
HETATM   24  O2  UNL     1       3.152  -0.460  -1.062  1.00  0.00    -0.259 OA
BRANCH  23  25
HETATM   25  O1  UNL     1       2.378   1.459  -0.169  1.00  0.00    -0.322 OA
HETATM   26  C1  UNL     1       3.571   2.174  -0.375  1.00  0.00     0.213 C 
ENDBRANCH  23  25
ENDBRANCH   1  23
TORSDOF 3
