REMARK  3 active torsions:
REMARK  status: ('A' for Active; 'I' for Inactive)
REMARK    1  A    between atoms: C3_5  and  N3_6 
REMARK    2  A    between atoms: N4_8  and  C4_10 
REMARK    3  A    between atoms: C5_13  and  N6_14 
ROOT
HETATM    1  N3  UNL     1       0.218  -0.592   0.143  1.00  0.00    -0.291 N 
ATOM      2  H3  UNL     1       0.646  -0.965   0.990  1.00  0.00     0.187 HD
HETATM    3  N4  UNL     1       0.946   0.121  -0.629  1.00  0.00    -0.280 N 
ATOM      4  H4  UNL     1       0.570   0.520  -1.489  1.00  0.00     0.188 HD
ENDROOT
BRANCH   3   5
HETATM    5  C4  UNL     1       2.299   0.338  -0.246  1.00  0.00     0.205 A 
HETATM    6  N5  UNL     1       3.248   0.395  -1.192  1.00  0.00    -0.169 N 
HETATM    7  C5  UNL     1       4.528   0.601  -0.833  1.00  0.00     0.692 A 
ATOM      8  H5  UNL     1       3.001   0.283  -2.175  1.00  0.00     0.186 HD
HETATM    9  N7  UNL     1       4.863   0.748   0.460  1.00  0.00    -0.129 N 
HETATM   10  N8  UNL     1       3.970   0.700   1.426  1.00  0.00    -0.249 N 
ATOM     11  H7  UNL     1       5.842   0.902   0.701  1.00  0.00     0.205 HD
HETATM   12  C6  UNL     1       2.688   0.494   1.062  1.00  0.00     0.306 A 
ATOM     13  H8  UNL     1       4.235   0.813   2.404  1.00  0.00     0.191 HD
HETATM   14  O1  UNL     1       1.786   0.438   1.940  1.00  0.00    -0.263 OA
BRANCH   7  15
HETATM   15  N6  UNL     1       5.427   0.653  -1.747  1.00  0.00    -0.233 N 
ATOM     16  H62 UNL     1       5.173   0.541  -2.728  1.00  0.00     0.174 HD
ATOM     17  H61 UNL     1       6.398   0.809  -1.475  1.00  0.00     0.174 HD
ENDBRANCH   7  15
ENDBRANCH   3   5
BRANCH   1  18
HETATM   18  C3  UNL     1      -1.128  -0.895  -0.096  1.00  0.00     0.158 A 
HETATM   19  C2  UNL     1      -2.097   0.085   0.006  1.00  0.00     0.156 A 
HETATM   20  N1  UNL     1      -3.373  -0.271  -0.236  1.00  0.00    -0.290 N 
HETATM   21  N2  UNL     1      -1.779   1.418   0.350  1.00  0.00    -0.080 NA
HETATM   22  C1  UNL     1      -4.391   0.759  -0.129  1.00  0.00     0.162 C 
HETATM   23  C8  UNL     1      -3.689  -1.522  -0.561  1.00  0.00     0.330 A 
HETATM   24  N9  UNL     1      -2.765  -2.484  -0.664  1.00  0.00    -0.273 N 
HETATM   25  O3  UNL     1      -4.925  -1.750  -0.769  1.00  0.00    -0.246 OA
HETATM   26  C7  UNL     1      -1.495  -2.174  -0.434  1.00  0.00     0.281 A 
ATOM     27  H9  UNL     1      -3.031  -3.436  -0.914  1.00  0.00     0.173 HD
HETATM   28  O2  UNL     1      -0.581  -3.064  -0.522  1.00  0.00    -0.265 OA
ENDBRANCH   1  18
TORSDOF 3
