REMARK  4 active torsions:
REMARK  status: ('A' for Active; 'I' for Inactive)
REMARK    1  A    between atoms: C3_3  and  C4_4 
REMARK    2  A    between atoms: C4_4  and  C5_5 
REMARK    3  A    between atoms: C5_5  and  C6_6 
REMARK    4  A    between atoms: C6_6  and  N1_7 
ROOT
HETATM    1  C1  UNL     1       5.865   1.014  -0.493  1.00  0.00     0.012 C 
HETATM    2  C2  UNL     1       4.831   0.400  -0.427  1.00  0.00    -0.117 C 
HETATM    3  C3  UNL     1       3.542  -0.335  -0.346  1.00  0.00     0.093 C 
ENDROOT
BRANCH   3   4
HETATM    4  C4  UNL     1       2.668   0.455   0.586  1.00  0.00     0.014 C 
BRANCH   4   5
HETATM    5  C5  UNL     1       1.308  -0.126   0.811  1.00  0.00     0.021 C 
BRANCH   5   6
HETATM    6  C6  UNL     1       0.574  -0.215  -0.487  1.00  0.00     0.130 C 
BRANCH   6   7
HETATM    7  N1  UNL     1      -0.755  -0.767  -0.337  1.00  0.00    -0.341 N 
HETATM    8  C7  UNL     1      -1.168  -2.036  -0.397  1.00  0.00     0.183 A 
HETATM    9  N2  UNL     1      -2.486  -2.128  -0.204  1.00  0.00    -0.350 N 
HETATM   10  C8  UNL     1      -2.940  -0.876  -0.014  1.00  0.00     0.060 A 
ATOM     11  H2  UNL     1      -3.042  -2.983  -0.201  1.00  0.00     0.166 HD
HETATM   12  C9  UNL     1      -4.200  -0.339   0.231  1.00  0.00     0.032 A 
HETATM   13  C13 UNL     1      -1.851  -0.036  -0.099  1.00  0.00     0.062 A 
HETATM   14  C10 UNL     1      -4.417   1.011   0.395  1.00  0.00     0.002 A 
HETATM   15  C11 UNL     1      -3.328   1.847   0.310  1.00  0.00     0.002 A 
HETATM   16  C12 UNL     1      -2.070   1.335   0.068  1.00  0.00     0.032 A 
ENDBRANCH   6   7
ENDBRANCH   5   6
ENDBRANCH   4   5
ENDBRANCH   3   4
TORSDOF 4
