REMARK  4 active torsions:
REMARK  status: ('A' for Active; 'I' for Inactive)
REMARK    1  A    between atoms: N1_4  and  C4_5 
REMARK    2  A    between atoms: C4_5  and  C5_6 
REMARK    3  A    between atoms: C5_6  and  C6_7 
REMARK    4  A    between atoms: C6_7  and  N2_8 
ROOT
HETATM    1  C5  UNL     1      -0.011  -0.375  -0.443  1.00  0.00     0.040 C 
ENDROOT
BRANCH   1   2
HETATM    2  C4  UNL     1       1.228  -0.895  -1.125  1.00  0.00     0.129 C 
BRANCH   2   3
HETATM    3  N1  UNL     1       2.369  -0.279  -0.444  1.00  0.00    -0.366 N 
HETATM    4  C3  UNL     1       2.928  -0.890   0.615  1.00  0.00     0.090 A 
HETATM    5  C2  UNL     1       4.005  -0.339   1.280  1.00  0.00     0.017 A 
HETATM    6  C1  UNL     1       4.510   0.866   0.842  1.00  0.00     0.003 A 
HETATM    7  C13 UNL     1       3.951   1.514  -0.248  1.00  0.00     0.017 A 
HETATM    8  C12 UNL     1       2.875   0.889  -0.854  1.00  0.00     0.090 A 
ENDBRANCH   2   3
ENDBRANCH   1   2
BRANCH   1   9
HETATM    9  C6  UNL     1      -1.278  -0.922  -1.035  1.00  0.00     0.129 C 
BRANCH   9  10
HETATM   10  N2  UNL     1      -2.379  -0.357  -0.306  1.00  0.00    -0.366 N 
HETATM   11  C7  UNL     1      -2.937   0.794  -0.699  1.00  0.00     0.090 A 
HETATM   12  C8  UNL     1      -3.993   1.373  -0.033  1.00  0.00     0.017 A 
HETATM   13  C9  UNL     1      -4.482   0.737   1.074  1.00  0.00     0.003 A 
HETATM   14  C10 UNL     1      -3.912  -0.459   1.493  1.00  0.00     0.017 A 
HETATM   15  C11 UNL     1      -2.854  -0.980   0.772  1.00  0.00     0.090 A 
ENDBRANCH   9  10
ENDBRANCH   1   9
TORSDOF 4
