REMARK  4 active torsions:
REMARK  status: ('A' for Active; 'I' for Inactive)
REMARK    1  A    between atoms: C3_3  and  C4_4 
REMARK    2  A    between atoms: C4_4  and  C5_5 
REMARK    3  A    between atoms: C5_5  and  N1_6 
REMARK    4  A    between atoms: C8_11  and  C9_12 
ROOT
HETATM    1  C1  UNL     1       4.574   0.218  -2.050  1.00  0.00     0.012 C 
HETATM    2  C2  UNL     1       3.906  -0.468  -1.319  1.00  0.00    -0.117 C 
HETATM    3  C3  UNL     1       3.097  -1.307  -0.414  1.00  0.00     0.094 C 
ENDROOT
BRANCH   3   4
HETATM    4  C4  UNL     1       2.214  -0.460   0.472  1.00  0.00     0.032 C 
BRANCH   4   5
HETATM    5  C5  UNL     1       1.305   0.338  -0.458  1.00  0.00     0.131 C 
BRANCH   5   6
HETATM    6  N1  UNL     1       0.393   1.205   0.261  1.00  0.00    -0.341 N 
HETATM    7  C6  UNL     1       0.744   2.475   0.670  1.00  0.00     0.109 A 
HETATM    8  C7  UNL     1      -0.291   3.061   1.327  1.00  0.00     0.107 A 
HETATM    9  N2  UNL     1      -1.273   2.176   1.330  1.00  0.00    -0.350 N 
HETATM   10  C8  UNL     1      -0.864   1.035   0.680  1.00  0.00     0.117 A 
ATOM     11  H2  UNL     1      -2.192   2.317   1.749  1.00  0.00     0.166 HD
BRANCH  10  12
HETATM   12  C9  UNL     1      -1.755  -0.109   0.468  1.00  0.00     0.008 A 
HETATM   13  C10 UNL     1      -1.426  -1.352   0.034  1.00  0.00     0.015 A 
HETATM   14  C11 UNL     1      -2.353  -2.377  -0.194  1.00  0.00     0.001 A 
HETATM   15  C12 UNL     1      -3.671  -2.141   0.025  1.00  0.00     0.000 A 
HETATM   16  C13 UNL     1      -4.058  -0.905   0.464  1.00  0.00     0.001 A 
HETATM   17  C14 UNL     1      -3.127   0.082   0.679  1.00  0.00     0.015 A 
ENDBRANCH  10  12
ENDBRANCH   5   6
ENDBRANCH   4   5
ENDBRANCH   3   4
TORSDOF 4
