REMARK  4 active torsions:
REMARK  status: ('A' for Active; 'I' for Inactive)
REMARK    1  A    between atoms: C3_3  and  C4_4 
REMARK    2  A    between atoms: C4_4  and  C5_5 
REMARK    3  A    between atoms: C5_5  and  N1_6 
REMARK    4  A    between atoms: C8_9  and  N2_10 
ROOT
HETATM    1  C1  UNL     1       4.749   0.817  -0.763  1.00  0.00     0.096 C 
HETATM    2  C2  UNL     1       3.915   0.222  -0.100  1.00  0.00    -0.188 C 
HETATM    3  C3  UNL     1       2.916  -0.469   0.713  1.00  0.00     0.081 C 
ENDROOT
BRANCH   3   4
HETATM    4  C4  UNL     1       1.495  -0.145   0.244  1.00  0.00     0.041 C 
BRANCH   4   5
HETATM    5  C5  UNL     1       0.547  -0.873   1.114  1.00  0.00     0.273 C 
BRANCH   5   6
HETATM    6  N1  UNL     1      -0.839  -0.685   0.825  1.00  0.00     0.090 N 
HETATM    7  C6  UNL     1      -1.330  -1.242  -0.379  1.00  0.00     0.274 C 
HETATM    8  C7  UNL     1      -1.958  -0.191  -1.227  1.00  0.00     0.064 C 
HETATM    9  C8  UNL     1      -2.098   0.988  -0.298  1.00  0.00     0.213 C 
HETATM   10  C9  UNL     1      -1.269   0.683   0.925  1.00  0.00     0.305 C 
BRANCH   9  11
HETATM   11  N2  UNL     1      -3.500   1.151   0.017  1.00  0.00    -0.073 N 
ATOM     12  H23 UNL     1      -4.083   1.235  -0.816  1.00  0.00     0.274 HD
ATOM     13  H22 UNL     1      -3.920   0.301   0.394  1.00  0.00     0.274 HD
ATOM     14  H21 UNL     1      -3.595   1.949   0.646  1.00  0.00     0.274 HD
ENDBRANCH   9  11
ENDBRANCH   5   6
ENDBRANCH   4   5
ENDBRANCH   3   4
TORSDOF 4
