REMARK  5 active torsions:
REMARK  status: ('A' for Active; 'I' for Inactive)
REMARK    1  A    between atoms: N1_1  and  C1_5 
REMARK    2  A    between atoms: C1_5  and  C2_6 
REMARK    3  A    between atoms: C2_6  and  C3_7 
REMARK    4  A    between atoms: C4_8  and  C5_9 
REMARK    5  A    between atoms: C5_9  and  N2_10 
ROOT
HETATM    1  C3  UNL     1      -1.777  -0.186  -0.078  1.00  0.00    -0.103 C 
HETATM    2  C4  UNL     1      -0.787   0.333   0.380  1.00  0.00    -0.076 C 
ENDROOT
BRANCH   1   3
HETATM    3  C2  UNL     1      -2.959  -0.835  -0.645  1.00  0.00     0.121 C 
BRANCH   3   4
HETATM    4  C1  UNL     1      -4.097  -0.738   0.343  1.00  0.00     0.241 C 
BRANCH   4   5
HETATM    5  N1  UNL     1      -4.382   0.637   0.608  1.00  0.00    -0.079 N 
ATOM      6  H13 UNL     1      -3.556   1.149   0.919  1.00  0.00     0.274 HD
ATOM      7  H12 UNL     1      -4.567   1.164  -0.246  1.00  0.00     0.274 HD
ATOM      8  H11 UNL     1      -5.151   0.703   1.275  1.00  0.00     0.274 HD
ENDBRANCH   4   5
ENDBRANCH   3   4
ENDBRANCH   1   3
BRANCH   2   9
HETATM    9  C5  UNL     1       0.436   0.946   0.925  1.00  0.00     0.365 C 
BRANCH   9  10
HETATM   10  N2  UNL     1       1.546   0.568   0.107  1.00  0.00     0.099 N 
HETATM   11  C6  UNL     1       1.865  -0.839   0.197  1.00  0.00     0.273 C 
HETATM   12  C7  UNL     1       3.136  -0.901  -0.639  1.00  0.00     0.032 C 
HETATM   13  C8  UNL     1       3.813   0.395  -0.262  1.00  0.00     0.032 C 
HETATM   14  C9  UNL     1       2.747   1.295   0.336  1.00  0.00     0.273 C 
ENDBRANCH   9  10
ENDBRANCH   2   9
TORSDOF 5
