REMARK  4 active torsions:
REMARK  status: ('A' for Active; 'I' for Inactive)
REMARK    1  A    between atoms: C2_2  and  C3_3 
REMARK    2  A    between atoms: C3_3  and  C4_4 
REMARK    3  A    between atoms: C4_4  and  N1_5 
REMARK    4  A    between atoms: C4_4  and  N2_9 
ROOT
HETATM    1  N2  UNL     1       0.609   0.098   0.263  1.00  0.00    -0.363 N 
HETATM    2  C5  UNL     1       1.576   1.115   0.328  1.00  0.00     0.087 C 
HETATM    3  C6  UNL     1       2.803   0.670  -0.464  1.00  0.00     0.276 C 
HETATM    4  N3  UNL     1       3.273  -0.575   0.109  1.00  0.00    -0.069 N 
ATOM      5  H31 UNL     1       3.654  -0.424   1.043  1.00  0.00     0.277 HD
ATOM      6  H32 UNL     1       4.116  -0.898  -0.365  1.00  0.00     0.277 HD
HETATM    7  C7  UNL     1       2.278  -1.595   0.125  1.00  0.00     0.252 C 
HETATM    8  C8  UNL     1       0.923  -1.090  -0.391  1.00  0.00     0.151 C 
ENDROOT
BRANCH   1   9
HETATM    9  C4  UNL     1      -0.748   0.497   0.354  1.00  0.00     0.286 C 
BRANCH   9  10
HETATM   10  C3  UNL     1      -1.753  -0.583   0.284  1.00  0.00     0.080 C 
BRANCH  10  11
HETATM   11  C2  UNL     1      -3.104   0.004   0.513  1.00  0.00    -0.033 C 
HETATM   12  C1  UNL     1      -4.077  -0.068  -0.381  1.00  0.00     0.007 C 
ENDBRANCH  10  11
ENDBRANCH   9  10
BRANCH   9  13
HETATM   13  N1  UNL     1      -1.049   1.479  -0.673  1.00  0.00    -0.058 N 
ATOM     14  H13 UNL     1      -1.113   1.065  -1.603  1.00  0.00     0.276 HD
ATOM     15  H12 UNL     1      -2.005   1.830  -0.610  1.00  0.00     0.276 HD
ATOM     16  H11 UNL     1      -0.355   2.225  -0.625  1.00  0.00     0.276 HD
ENDBRANCH   9  13
ENDBRANCH   1   9
TORSDOF 4
