REMARK  5 active torsions:
REMARK  status: ('A' for Active; 'I' for Inactive)
REMARK    1  A    between atoms: N1_1  and  C1_5 
REMARK    2  A    between atoms: C1_5  and  C2_6 
REMARK    3  A    between atoms: C2_6  and  C3_7 
REMARK    4  A    between atoms: C3_7  and  N2_8 
REMARK    5  A    between atoms: C7_12  and  N3_13 
ROOT
HETATM    1  N2  UNL     1       0.039  -0.302  -1.231  1.00  0.00     0.090 N 
HETATM    2  C4  UNL     1      -1.107   0.285  -1.954  1.00  0.00     0.272 C 
HETATM    3  C5  UNL     1      -1.979   1.115  -1.094  1.00  0.00     0.032 C 
HETATM    4  C6  UNL     1      -2.462   0.410   0.148  1.00  0.00     0.036 C 
HETATM    5  C7  UNL     1      -1.359  -0.378   0.810  1.00  0.00     0.211 C 
HETATM    6  C8  UNL     1      -0.628  -1.146  -0.249  1.00  0.00     0.305 C 
ENDROOT
BRANCH   1   7
HETATM    7  C3  UNL     1       0.780   0.771  -0.672  1.00  0.00     0.274 C 
BRANCH   7   8
HETATM    8  C2  UNL     1       2.155   0.509  -0.206  1.00  0.00     0.057 C 
BRANCH   8   9
HETATM    9  C1  UNL     1       2.401  -0.525   0.825  1.00  0.00     0.231 C 
BRANCH   9  10
HETATM   10  N1  UNL     1       3.864  -0.520   1.064  1.00  0.00    -0.079 N 
ATOM     11  H13 UNL     1       4.416  -0.650   0.216  1.00  0.00     0.274 HD
ATOM     12  H12 UNL     1       4.233   0.398   1.311  1.00  0.00     0.274 HD
ATOM     13  H11 UNL     1       4.033  -1.232   1.774  1.00  0.00     0.274 HD
ENDBRANCH   9  10
ENDBRANCH   8   9
ENDBRANCH   7   8
ENDBRANCH   1   7
BRANCH   5  14
HETATM   14  N3  UNL     1      -1.982  -1.386   1.687  1.00  0.00    -0.073 N 
ATOM     15  H33 UNL     1      -2.632  -0.977   2.358  1.00  0.00     0.274 HD
ATOM     16  H32 UNL     1      -2.649  -1.979   1.194  1.00  0.00     0.274 HD
ATOM     17  H31 UNL     1      -1.236  -1.919   2.135  1.00  0.00     0.274 HD
ENDBRANCH   5  14
TORSDOF 5
