REMARK  4 active torsions:
REMARK  status: ('A' for Active; 'I' for Inactive)
REMARK    1  A    between atoms: C4_4  and  C5_5 
REMARK    2  A    between atoms: C5_5  and  N1_6 
REMARK    3  A    between atoms: N1_6  and  C6_9 
REMARK    4  A    between atoms: C9_12  and  N2_13 
ROOT
HETATM    1  C1  UNL     1       3.818  -1.136  -0.077  1.00  0.00     0.017 C 
HETATM    2  C2  UNL     1       3.550   0.036  -0.153  1.00  0.00    -0.090 C 
HETATM    3  C3  UNL     1       3.256   1.432  -0.237  1.00  0.00     0.061 C 
HETATM    4  C4  UNL     1       2.085   1.896   0.113  1.00  0.00     0.009 C 
ENDROOT
BRANCH   4   5
HETATM    5  C5  UNL     1       1.045   0.967   0.602  1.00  0.00     0.260 C 
BRANCH   5   6
HETATM    6  N1  UNL     1      -0.141   0.997  -0.231  1.00  0.00    -0.066 N 
ATOM      7  H12 UNL     1      -0.512   1.942  -0.328  1.00  0.00     0.278 HD
ATOM      8  H11 UNL     1       0.080   0.819  -1.211  1.00  0.00     0.278 HD
BRANCH   6   9
HETATM    9  C6  UNL     1      -1.128   0.087   0.266  1.00  0.00     0.216 A 
HETATM   10  C7  UNL     1      -0.691  -1.343   0.238  1.00  0.00     0.037 A 
HETATM   11  C8  UNL     1      -1.720  -1.657  -0.804  1.00  0.00     0.037 A 
HETATM   12  C9  UNL     1      -2.245  -0.245  -0.691  1.00  0.00     0.214 A 
BRANCH  12  13
HETATM   13  N2  UNL     1      -3.530  -0.216  -0.070  1.00  0.00    -0.073 N 
ATOM     14  H23 UNL     1      -3.555  -0.826   0.747  1.00  0.00     0.274 HD
ATOM     15  H22 UNL     1      -3.695   0.680   0.388  1.00  0.00     0.274 HD
ATOM     16  H21 UNL     1      -4.286  -0.441  -0.717  1.00  0.00     0.274 HD
ENDBRANCH  12  13
ENDBRANCH   6   9
ENDBRANCH   5   6
ENDBRANCH   4   5
TORSDOF 4
