REMARK  2 active torsions:
REMARK  status: ('A' for Active; 'I' for Inactive)
REMARK    1  A    between atoms: C3_3  and  C4_4 
REMARK    2  A    between atoms: C4_4  and  C5_6 
ROOT
HETATM    1  C5  UNL     1       0.289   0.193  -0.720  1.00  0.00     0.195 C 
HETATM    2  C6  UNL     1       1.059  -0.897   0.021  1.00  0.00     0.040 C 
HETATM    3  C7  UNL     1       2.451  -0.953  -0.543  1.00  0.00     0.005 C 
HETATM    4  C8  UNL     1       3.149   0.364  -0.339  1.00  0.00     0.026 C 
HETATM    5  C9  UNL     1       2.094   1.362   0.134  1.00  0.00     0.168 C 
HETATM    6  O2  UNL     1       0.985   1.369  -0.680  1.00  0.00    -0.378 OA
ENDROOT
BRANCH   1   7
HETATM    7  C4  UNL     1      -1.082   0.333  -0.215  1.00  0.00     0.177 C 
HETATM    8  O1  UNL     1      -1.455   1.462   0.181  1.00  0.00    -0.290 OA
BRANCH   7   9
HETATM    9  C3  UNL     1      -1.992  -0.798  -0.170  1.00  0.00     0.048 C 
HETATM   10  C2  UNL     1      -3.239  -0.747   0.270  1.00  0.00    -0.027 C 
HETATM   11  C1  UNL     1      -3.881   0.484   0.784  1.00  0.00     0.036 C 
ENDBRANCH   7   9
ENDBRANCH   1   7
TORSDOF 2
