REMARK  2 active torsions:
REMARK  status: ('A' for Active; 'I' for Inactive)
REMARK    1  A    between atoms: C2_2  and  C3_4 
REMARK    2  A    between atoms: C3_4  and  C4_5 
ROOT
HETATM    1  C3  UNL     1       0.146  -0.013   0.204  1.00  0.00     0.124 C 
HETATM    2  C7  UNL     1       0.497   0.530  -1.171  1.00  0.00     0.049 C 
HETATM    3  C8  UNL     1       0.213   2.010  -1.001  1.00  0.00     0.030 C 
HETATM    4  C9  UNL     1       0.493   2.141   0.503  1.00  0.00     0.169 C 
HETATM    5  O2  UNL     1      -0.267   1.069   0.969  1.00  0.00    -0.372 OA
ENDROOT
BRANCH   1   6
HETATM    6  C2  UNL     1       1.353  -0.604   0.819  1.00  0.00     0.157 C 
HETATM    7  C1  UNL     1       1.999  -1.772   0.200  1.00  0.00     0.094 C 
HETATM    8  O1  UNL     1       1.809  -0.124   1.834  1.00  0.00    -0.295 OA
ENDBRANCH   1   6
BRANCH   1   9
HETATM    9  C4  UNL     1      -0.949  -1.051   0.122  1.00  0.00     0.028 A 
HETATM   10  C5  UNL     1      -2.273  -0.729  -0.454  1.00  0.00     0.008 A 
HETATM   11  C6  UNL     1      -2.157  -0.769   1.011  1.00  0.00     0.008 A 
ENDBRANCH   1   9
TORSDOF 2
