REMARK  3 active torsions:
REMARK  status: ('A' for Active; 'I' for Inactive)
REMARK    1  A    between atoms: C2_2  and  C3_4 
REMARK    2  A    between atoms: C3_4  and  C4_5 
REMARK    3  A    between atoms: C4_5  and  N1_8 
REMARK       I    between atoms: N1_8  and  C7_10 
REMARK       I    between atoms: C7_10  and  N2_12 
ROOT
HETATM    1  N1  UNL     1       1.172   0.739   0.939  1.00  0.00    -0.333 N 
ATOM      2  H1  UNL     1       1.180   0.298   1.859  1.00  0.00     0.165 HD
HETATM    3  C7  UNL     1      -0.043   0.745   0.230  1.00  0.00     0.334 C 
HETATM    4  O2  UNL     1      -0.144   1.261  -0.892  1.00  0.00    -0.246 OA
HETATM    5  N2  UNL     1      -1.191   0.151   0.799  1.00  0.00    -0.196 N 
HETATM    6  C8  UNL     1      -2.533   0.026   0.289  1.00  0.00     0.153 C 
HETATM    7  C9  UNL     1      -2.638   0.108  -1.199  1.00  0.00     0.169 C 
HETATM    8  S1  UNL     1      -4.206  -0.756  -1.416  1.00  0.00     0.149 S 
HETATM    9  O3  UNL     1      -5.321   0.250  -1.337  1.00  0.00    -0.228 OA
HETATM   10  O4  UNL     1      -4.224  -1.558  -2.658  1.00  0.00    -0.228 OA
HETATM   11  C10 UNL     1      -4.165  -1.781   0.060  1.00  0.00     0.175 C 
HETATM   12  C11 UNL     1      -2.857  -1.416   0.655  1.00  0.00     0.183 C 
HETATM   13  O5  UNL     1      -2.834  -1.446   2.044  1.00  0.00    -0.251 OA
HETATM   14  S2  UNL     1      -1.361  -0.643   2.345  1.00  0.00     0.368 S 
HETATM   15  O6  UNL     1      -1.583   0.390   3.392  1.00  0.00    -0.175 OA
HETATM   16  O7  UNL     1      -0.260  -1.575   2.625  1.00  0.00    -0.175 OA
ENDROOT
BRANCH   1  17
HETATM   17  C4  UNL     1       2.412   1.313   0.459  1.00  0.00     0.034 C 
HETATM   18  C5  UNL     1       3.498   1.238   1.502  1.00  0.00     0.038 C 
HETATM   19  C6  UNL     1       2.207   2.790   0.152  1.00  0.00     0.038 C 
BRANCH  17  20
HETATM   20  C3  UNL     1       2.827   0.616  -0.816  1.00  0.00     0.108 C 
BRANCH  20  21
HETATM   21  C2  UNL     1       3.117  -0.825  -0.574  1.00  0.00     0.125 C 
HETATM   22  C1  UNL     1       2.194  -1.916  -0.968  1.00  0.00     0.091 C 
HETATM   23  O1  UNL     1       4.164  -1.171  -0.022  1.00  0.00    -0.298 OA
ENDBRANCH  20  21
ENDBRANCH  17  20
ENDBRANCH   1  17
TORSDOF 3
