REMARK  6 active torsions:
REMARK  status: ('A' for Active; 'I' for Inactive)
REMARK    1  A    between atoms: N1_1  and  S1_4 
REMARK    2  A    between atoms: S1_4  and  C1_6 
REMARK    3  A    between atoms: C1_6  and  C2_7 
REMARK    4  A    between atoms: C3_9  and  C4_10 
REMARK    5  A    between atoms: C5_12  and  O3_13 
REMARK    6  A    between atoms: C6_15  and  O4_16 
ROOT
HETATM    1  C2  UNL     1       0.307   0.290  -0.471  1.00  0.00     0.166 C 
HETATM    2  O2  UNL     1      -0.867   0.984  -0.776  1.00  0.00    -0.372 OA
HETATM    3  C3  UNL     1      -1.932   0.365  -0.202  1.00  0.00     0.181 C 
HETATM    4  C5  UNL     1      -1.546  -0.954   0.364  1.00  0.00     0.180 C 
HETATM    5  C6  UNL     1      -0.086  -1.074  -0.042  1.00  0.00     0.179 C 
ENDROOT
BRANCH   1   6
HETATM    6  C1  UNL     1       1.071   1.117   0.488  1.00  0.00     0.166 C 
BRANCH   6   7
HETATM    7  S1  UNL     1       2.622   0.465   1.043  1.00  0.00     0.110 S 
HETATM    8  O1  UNL     1       2.532  -0.926   1.968  1.00  0.00    -0.236 OA
BRANCH   7   9
HETATM    9  N1  UNL     1       3.735   0.201  -0.287  1.00  0.00    -0.350 NA
ATOM     10  H12 UNL     1       4.628  -0.174   0.033  1.00  0.00     0.166 HD
ATOM     11  H11 UNL     1       3.790   1.049  -0.851  1.00  0.00     0.166 HD
ENDBRANCH   7   9
ENDBRANCH   6   7
ENDBRANCH   1   6
BRANCH   5  12
HETATM   12  O4  UNL     1      -0.079  -1.946  -1.156  1.00  0.00    -0.390 OA
ATOM     13  H4  UNL     1      -0.331  -2.820  -0.881  1.00  0.00     0.210 HD
ENDBRANCH   5  12
BRANCH   3  14
HETATM   14  C4  UNL     1      -2.597   1.171   0.893  1.00  0.00     0.256 C 
HETATM   15  F1  UNL     1      -3.661   0.450   1.403  1.00  0.00    -0.253 F 
ENDBRANCH   3  14
BRANCH   4  16
HETATM   16  O3  UNL     1      -2.332  -1.943  -0.208  1.00  0.00    -0.390 OA
ATOM     17  H3  UNL     1      -2.085  -2.786   0.154  1.00  0.00     0.210 HD
ENDBRANCH   4  16
TORSDOF 6
