REMARK  5 active torsions:
REMARK  status: ('A' for Active; 'I' for Inactive)
REMARK    1  A    between atoms: N1_2  and  C4_5 
REMARK    2  A    between atoms: C4_5  and  C5_6 
REMARK    3  A    between atoms: C6_9  and  C7_10 
REMARK    4  A    between atoms: C8_12  and  O2_13 
REMARK    5  A    between atoms: C9_15  and  O3_16 
ROOT
HETATM    1  C5  UNL     1       0.075   0.256  -0.308  1.00  0.00     0.164 C 
HETATM    2  N2  UNL     1       0.229   0.694   1.040  1.00  0.00    -0.091 NA
HETATM    3  O1  UNL     1       1.379   0.287   1.615  1.00  0.00    -0.276 OA
HETATM    4  C6  UNL     1       2.500   0.836   1.008  1.00  0.00     0.207 C 
HETATM    5  C8  UNL     1       2.498   0.477  -0.477  1.00  0.00     0.181 C 
HETATM    6  C9  UNL     1       1.359  -0.507  -0.667  1.00  0.00     0.172 C 
ENDROOT
BRANCH   1   7
HETATM    7  C4  UNL     1      -1.057  -0.692  -0.526  1.00  0.00     0.262 C 
BRANCH   7   8
HETATM    8  N1  UNL     1      -2.343  -0.209  -0.200  1.00  0.00    -0.077 N 
HETATM    9  C1  UNL     1      -2.411   1.124   0.298  1.00  0.00     0.271 C 
HETATM   10  C2  UNL     1      -3.245  -0.304  -1.346  1.00  0.00     0.271 C 
HETATM   11  C3  UNL     1      -2.916  -1.103   0.818  1.00  0.00     0.271 C 
ENDBRANCH   7   8
ENDBRANCH   1   7
BRANCH   6  12
HETATM   12  O3  UNL     1       1.309  -1.042  -1.929  1.00  0.00    -0.391 OA
ATOM     13  H3  UNL     1       2.103  -1.514  -2.151  1.00  0.00     0.210 HD
ENDBRANCH   6  12
BRANCH   5  14
HETATM   14  O2  UNL     1       3.697  -0.070  -0.874  1.00  0.00    -0.390 OA
ATOM     15  H2  UNL     1       3.696  -0.293  -1.797  1.00  0.00     0.210 HD
ENDBRANCH   5  14
BRANCH   4  16
HETATM   16  C7  UNL     1       3.710   0.116   1.606  1.00  0.00     0.258 C 
HETATM   17  F1  UNL     1       3.728   0.322   2.956  1.00  0.00    -0.253 F 
ENDBRANCH   4  16
TORSDOF 5
