REMARK  5 active torsions:
REMARK  status: ('A' for Active; 'I' for Inactive)
REMARK    1  A    between atoms: N1_2  and  C3_4 
REMARK    2  A    between atoms: N1_2  and  C4_6 
REMARK    3  A    between atoms: C4_6  and  C5_7 
REMARK    4  A    between atoms: C6_9  and  O2_10 
REMARK    5  A    between atoms: C7_15  and  O3_16 
ROOT
HETATM    1  C5  UNL     1       0.796  -0.196  -0.859  1.00  0.00     0.209 C 
HETATM    2  O1  UNL     1       1.278  -1.287  -0.196  1.00  0.00    -0.328 OA
HETATM    3  C6  UNL     1       2.634  -1.027  -0.060  1.00  0.00     0.470 C 
HETATM    4  N2  UNL     1       2.837   0.381  -0.092  1.00  0.00     0.004 N 
ATOM      5  H21 UNL     1       3.455   0.700  -0.838  1.00  0.00     0.286 HD
ATOM      6  H22 UNL     1       3.400   0.742   0.678  1.00  0.00     0.286 HD
HETATM    7  C7  UNL     1       1.470   0.932  -0.157  1.00  0.00     0.355 C 
ENDROOT
BRANCH   1   8
HETATM    8  C4  UNL     1      -0.661  -0.097  -1.015  1.00  0.00     0.274 C 
BRANCH   8   9
HETATM    9  N1  UNL     1      -1.475  -0.050   0.128  1.00  0.00    -0.060 N 
HETATM   10  C1  UNL     1      -1.132  -0.966   1.184  1.00  0.00     0.273 C 
HETATM   11  C2  UNL     1      -1.657   1.269   0.699  1.00  0.00     0.273 C 
BRANCH   9  12
HETATM   12  C3  UNL     1      -2.824  -0.461  -0.316  1.00  0.00     0.350 C 
HETATM   13 CL1  UNL     1      -2.835  -2.136  -0.857  1.00  0.00    -0.101 Cl
ENDBRANCH   9  12
ENDBRANCH   8   9
ENDBRANCH   1   8
BRANCH   7  14
HETATM   14  O3  UNL     1       1.450   2.106  -0.903  1.00  0.00    -0.368 OA
ATOM     15  H3  UNL     1       1.880   2.825  -0.455  1.00  0.00     0.212 HD
ENDBRANCH   7  14
BRANCH   3  16
HETATM   16  O2  UNL     1       3.161  -1.595   1.100  1.00  0.00    -0.349 OA
ATOM     17  H2  UNL     1       4.090  -1.417   1.193  1.00  0.00     0.214 HD
ENDBRANCH   3  16
TORSDOF 5
