REMARK  15 active torsions:
REMARK  status: ('A' for Active; 'I' for Inactive)
REMARK    1  A    between atoms: C2_2  and  N1_3 
REMARK    2  A    between atoms: C2_2  and  C4_12 
REMARK    3  A    between atoms: N1_3  and  C3_5 
REMARK    4  A    between atoms: C5_17  and  C6_18 
REMARK    5  A    between atoms: C6_18  and  N8_19 
REMARK    6  A    between atoms: N8_19  and  C7_21 
REMARK    7  A    between atoms: C8_22  and  N9_23 
REMARK    8  A    between atoms: C10_28  and  N10_29 
REMARK    9  A    between atoms: C11_33  and  O1_34 
REMARK   10  A    between atoms: O1_34  and  C12_35 
REMARK   11  A    between atoms: C12_35  and  C13_37 
REMARK   12  A    between atoms: C14_39  and  O3_40 
REMARK   13  A    between atoms: C15_42  and  N11_43 
REMARK   14  A    between atoms: N11_43  and  C16_44 
REMARK   15  A    between atoms: C18_48  and  C19_49 
ROOT
HETATM    1  C4  UNL     1      -2.666  -1.667   1.223  1.00  0.00     0.090 A 
HETATM    2  N6  UNL     1      -1.769  -2.527   1.547  1.00  0.00    -0.299 N 
ATOM      3  H6  UNL     1      -1.963  -3.390   2.055  1.00  0.00     0.186 HD
HETATM    4  N7  UNL     1      -0.515  -2.147   1.128  1.00  0.00    -0.299 N 
ATOM      5  H7  UNL     1       0.329  -2.697   1.290  1.00  0.00     0.186 HD
HETATM    6  C5  UNL     1      -0.527  -1.034   0.517  1.00  0.00     0.085 A 
HETATM    7  C15 UNL     1      -1.962  -0.587   0.510  1.00  0.00     0.160 A 
ENDROOT
BRANCH   6   8
HETATM    8  C6  UNL     1       0.588  -0.236  -0.109  1.00  0.00     0.176 C 
BRANCH   8   9
HETATM    9  N8  UNL     1       1.794  -0.954   0.110  1.00  0.00    -0.407 N 
ATOM     10  H8  UNL     1       1.805  -1.846   0.605  1.00  0.00     0.154 HD
BRANCH   9  11
HETATM   11  C7  UNL     1       2.979  -0.369  -0.394  1.00  0.00     0.138 C 
HETATM   12  C8  UNL     1       2.931  -0.258  -1.902  1.00  0.00     0.210 C 
HETATM   13  C9  UNL     1       4.130   0.483  -2.448  1.00  0.00     0.070 C 
HETATM   14  C10 UNL     1       5.207   0.738  -1.445  1.00  0.00     0.217 C 
HETATM   15  C11 UNL     1       4.756   1.259  -0.127  1.00  0.00     0.193 C 
HETATM   16  C14 UNL     1       3.261   1.018   0.121  1.00  0.00     0.174 C 
BRANCH  12  17
HETATM   17  N9  UNL     1       2.817  -1.586  -2.460  1.00  0.00    -0.073 N 
ATOM     18  H93 UNL     1       3.557  -2.210  -2.138  1.00  0.00     0.274 HD
ATOM     19  H92 UNL     1       2.023  -2.102  -2.081  1.00  0.00     0.274 HD
ATOM     20  H91 UNL     1       2.785  -1.511  -3.477  1.00  0.00     0.274 HD
ENDBRANCH  12  17
BRANCH  14  21
HETATM   21  N10 UNL     1       6.055  -0.438  -1.363  1.00  0.00    -0.072 N 
ATOM     22 3H10 UNL     1       5.527  -1.287  -1.161  1.00  0.00     0.274 HD
ATOM     23 2H10 UNL     1       6.426  -0.716  -2.272  1.00  0.00     0.274 HD
ATOM     24 1H10 UNL     1       6.790  -0.264  -0.678  1.00  0.00     0.274 HD
ENDBRANCH  14  21
BRANCH  15  25
HETATM   25  O1  UNL     1       5.511   0.582   0.887  1.00  0.00    -0.310 OA
BRANCH  25  26
HETATM   26  C12 UNL     1       6.274   1.223   1.825  1.00  0.00     0.273 C 
HETATM   27  O2  UNL     1       6.338   2.465   1.824  1.00  0.00    -0.264 OA
BRANCH  26  28
HETATM   28  C13 UNL     1       7.056   0.502   2.876  1.00  0.00     0.225 C 
HETATM   29 CL1  UNL     1       6.867  -1.237   2.765  1.00  0.00    -0.120 Cl
ENDBRANCH  26  28
ENDBRANCH  25  26
ENDBRANCH  15  25
BRANCH  16  30
HETATM   30  O3  UNL     1       2.596   1.990  -0.630  1.00  0.00    -0.391 OA
ATOM     31  H3  UNL     1       2.774   2.865  -0.305  1.00  0.00     0.210 HD
ENDBRANCH  16  30
ENDBRANCH   9  11
ENDBRANCH   8   9
ENDBRANCH   6   8
BRANCH   7  32
HETATM   32  N11 UNL     1      -2.323   0.440  -0.018  1.00  0.00    -0.386 NA
BRANCH  32  33
HETATM   33  C16 UNL     1      -3.111   1.418  -0.456  1.00  0.00     0.178 C 
HETATM   34  N12 UNL     1      -3.854   2.236   0.267  1.00  0.00    -0.365 N 
HETATM   35  C17 UNL     1      -4.626   3.221  -0.456  1.00  0.00     0.166 C 
ATOM     36  H12 UNL     1      -3.882   2.176   1.285  1.00  0.00     0.161 HD
HETATM   37  C18 UNL     1      -3.732   4.033  -1.394  1.00  0.00     0.303 C 
HETATM   38  N13 UNL     1      -2.891   3.136  -2.175  1.00  0.00    -0.052 N 
HETATM   39  C20 UNL     1      -3.250   1.749  -1.947  1.00  0.00     0.325 C 
ATOM     40 2H13 UNL     1      -2.913   3.371  -3.167  1.00  0.00     0.278 HD
ATOM     41 1H13 UNL     1      -1.900   3.301  -1.997  1.00  0.00     0.278 HD
BRANCH  37  42
HETATM   42  C19 UNL     1      -2.846   4.849  -0.527  1.00  0.00     0.206 C 
HETATM   43  O4  UNL     1      -1.606   4.719  -0.537  1.00  0.00    -0.646 OA
HETATM   44  O5  UNL     1      -3.407   5.789   0.325  1.00  0.00    -0.646 OA
ENDBRANCH  37  42
ENDBRANCH  32  33
ENDBRANCH   7  32
BRANCH   1  45
HETATM   45  C2  UNL     1      -4.123  -1.718   1.497  1.00  0.00     0.135 C 
HETATM   46  C1  UNL     1      -4.618  -0.654   2.425  1.00  0.00     0.039 C 
BRANCH  45  47
HETATM   47  N1  UNL     1      -4.461  -3.010   2.070  1.00  0.00    -0.350 N 
ATOM     48  H1  UNL     1      -4.948  -3.032   2.966  1.00  0.00     0.163 HD
BRANCH  47  49
HETATM   49  C3  UNL     1      -4.144  -4.248   1.440  1.00  0.00     0.206 C 
HETATM   50  N2  UNL     1      -3.582  -5.284   1.962  1.00  0.00    -0.256 N 
HETATM   51  N3  UNL     1      -3.462  -6.286   0.974  1.00  0.00    -0.006 NA
ATOM     52  H2  UNL     1      -3.274  -5.367   2.931  1.00  0.00     0.187 HD
HETATM   53  N4  UNL     1      -4.106  -5.882  -0.193  1.00  0.00    -0.006 NA
HETATM   54  N5  UNL     1      -4.411  -4.551   0.073  1.00  0.00    -0.256 N 
ATOM     55  H5  UNL     1      -4.774  -3.887  -0.612  1.00  0.00     0.187 HD
ENDBRANCH  47  49
ENDBRANCH  45  47
ENDBRANCH   1  45
TORSDOF 15
