REMARK  17 active torsions:
REMARK  status: ('A' for Active; 'I' for Inactive)
REMARK    1  A    between atoms: N5_15  and  C6_16 
REMARK    2  A    between atoms: C6_16  and  O1_17 
REMARK    3  A    between atoms: N7_28  and  C12_29 
REMARK    4  A    between atoms: C12_29  and  C13_30 
REMARK    5  A    between atoms: C13_30  and  O3_31 
REMARK    6  A    between atoms: C13_30  and  C14_33 
REMARK    7  A    between atoms: C13_30  and  C17_44 
REMARK    8  A    between atoms: C14_33  and  O4_34 
REMARK    9  A    between atoms: C14_33  and  C15_36 
REMARK   10  A    between atoms: C15_36  and  N8_37 
REMARK   11  A    between atoms: C15_36  and  C16_41 
REMARK   12  A    between atoms: C16_41  and  O5_42 
REMARK   13  A    between atoms: C17_44  and  O6_45 
REMARK   14  A    between atoms: C17_44  and  C18_47 
REMARK   15  A    between atoms: C18_47  and  O7_48 
REMARK   16  A    between atoms: C18_47  and  C19_50 
REMARK   17  A    between atoms: C19_50  and  O8_51 
ROOT
HETATM    1  C6  UNL     1       3.516   0.335  -1.032  1.00  0.00     0.150 C 
HETATM    2  C7  UNL     1       3.597  -0.274  -2.442  1.00  0.00     0.069 C 
HETATM    3  C8  UNL     1       3.593  -1.615  -1.719  1.00  0.00     0.031 C 
HETATM    4  C9  UNL     1       2.964  -2.753  -2.414  1.00  0.00     0.163 C 
HETATM    5 CL1  UNL     1       3.825  -4.242  -1.977  1.00  0.00    -0.116 Cl
HETATM    6  C10 UNL     1       1.506  -2.878  -2.237  1.00  0.00     0.198 C 
HETATM    7  O2  UNL     1       0.933  -3.958  -2.425  1.00  0.00    -0.289 OA
HETATM    8  C11 UNL     1       0.741  -1.705  -1.834  1.00  0.00     0.121 A 
HETATM    9  N6  UNL     1      -0.508  -1.268  -2.033  1.00  0.00    -0.279 N 
ATOM     10  H6  UNL     1      -1.203  -1.776  -2.580  1.00  0.00     0.189 HD
HETATM   11  N7  UNL     1      -0.745  -0.111  -1.448  1.00  0.00    -0.230 N 
HETATM   12  N9  UNL     1       0.426   0.187  -0.850  1.00  0.00    -0.285 N 
ATOM     13  H9  UNL     1       0.593   1.030  -0.301  1.00  0.00     0.188 HD
HETATM   14  C20 UNL     1       1.337  -0.760  -1.068  1.00  0.00     0.068 A 
HETATM   15  C21 UNL     1       2.766  -0.959  -0.663  1.00  0.00     0.102 C 
ENDROOT
BRANCH  11  16
HETATM   16  C12 UNL     1      -1.877   0.734  -1.366  1.00  0.00     0.212 C 
BRANCH  16  17
HETATM   17  C13 UNL     1      -2.804   0.528  -0.180  1.00  0.00     0.133 C 
BRANCH  17  18
HETATM   18  O3  UNL     1      -2.105   0.705   1.018  1.00  0.00    -0.383 OA
ATOM     19  H3  UNL     1      -2.685   0.576   1.760  1.00  0.00     0.210 HD
ENDBRANCH  17  18
BRANCH  17  20
HETATM   20  C14 UNL     1      -3.667   1.819  -0.243  1.00  0.00     0.189 C 
BRANCH  20  21
HETATM   21  O4  UNL     1      -4.516   1.856  -1.309  1.00  0.00    -0.390 OA
ATOM     22  H4  UNL     1      -5.044   2.645  -1.348  1.00  0.00     0.210 HD
ENDBRANCH  20  21
BRANCH  20  23
HETATM   23  C15 UNL     1      -4.280   2.261   1.009  1.00  0.00     0.238 C 
BRANCH  23  24
HETATM   24  N8  UNL     1      -5.430   1.589   1.502  1.00  0.00    -0.070 N 
ATOM     25  H83 UNL     1      -6.144   1.588   0.773  1.00  0.00     0.274 HD
ATOM     26  H82 UNL     1      -5.218   0.594   1.577  1.00  0.00     0.274 HD
ATOM     27  H81 UNL     1      -5.858   1.897   2.375  1.00  0.00     0.274 HD
ENDBRANCH  23  24
BRANCH  23  28
HETATM   28  C16 UNL     1      -4.742   3.715   0.755  1.00  0.00     0.199 C 
BRANCH  28  29
HETATM   29  O5  UNL     1      -5.192   4.295   1.916  1.00  0.00    -0.399 OA
ATOM     30  H5  UNL     1      -5.476   5.188   1.760  1.00  0.00     0.209 HD
ENDBRANCH  28  29
ENDBRANCH  23  28
ENDBRANCH  20  23
ENDBRANCH  17  20
BRANCH  17  31
HETATM   31  C17 UNL     1      -3.717  -0.611  -0.255  1.00  0.00     0.187 C 
BRANCH  31  32
HETATM   32  O6  UNL     1      -4.284  -0.661  -1.553  1.00  0.00    -0.390 OA
ATOM     33  H6  UNL     1      -4.877  -1.401  -1.602  1.00  0.00     0.210 HD
ENDBRANCH  31  32
BRANCH  31  34
HETATM   34  C18 UNL     1      -3.301  -1.966   0.125  1.00  0.00     0.173 C 
BRANCH  34  35
HETATM   35  O7  UNL     1      -2.687  -2.094   1.356  1.00  0.00    -0.391 OA
ATOM     36  H7  UNL     1      -2.418  -2.971   1.602  1.00  0.00     0.210 HD
ENDBRANCH  34  35
BRANCH  34  37
HETATM   37  C19 UNL     1      -4.586  -2.835   0.276  1.00  0.00     0.198 C 
BRANCH  37  38
HETATM   38  O8  UNL     1      -4.227  -4.132   0.555  1.00  0.00    -0.398 OA
ATOM     39  H8  UNL     1      -5.010  -4.662   0.647  1.00  0.00     0.209 HD
ENDBRANCH  37  38
ENDBRANCH  34  37
ENDBRANCH  31  34
ENDBRANCH  17  31
ENDBRANCH  16  17
ENDBRANCH  11  16
BRANCH   1  40
HETATM   40  N5  UNL     1       4.803   0.452  -0.417  1.00  0.00    -0.293 N 
HETATM   41  C3  UNL     1       5.027   0.408   0.925  1.00  0.00     0.143 A 
HETATM   42  N3  UNL     1       4.207   0.256   1.984  1.00  0.00    -0.336 N 
HETATM   43  C4  UNL     1       6.371   0.552   1.157  1.00  0.00     0.122 A 
HETATM   44  C2  UNL     1       4.676   0.244   3.243  1.00  0.00     0.183 A 
ATOM     45  H3  UNL     1       3.205   0.147   1.826  1.00  0.00     0.168 HD
HETATM   46  N2  UNL     1       5.972   0.383   3.484  1.00  0.00    -0.337 N 
HETATM   47  C1  UNL     1       6.839   0.537   2.473  1.00  0.00     0.131 A 
ATOM     48  H2  UNL     1       6.312   0.373   4.446  1.00  0.00     0.168 HD
HETATM   49  N1  UNL     1       8.106   0.676   2.648  1.00  0.00    -0.383 N 
ATOM     50  H12 UNL     1       8.448   0.665   3.609  1.00  0.00     0.157 HD
ATOM     51  H11 UNL     1       8.766   0.793   1.879  1.00  0.00     0.157 HD
HETATM   52  N4  UNL     1       6.953   0.683  -0.028  1.00  0.00    -0.346 N 
HETATM   53  C5  UNL     1       6.008   0.623  -0.984  1.00  0.00     0.188 A 
ATOM     54  H4  UNL     1       7.953   0.809  -0.188  1.00  0.00     0.167 HD
ENDBRANCH   1  40
BRANCH   1  55
HETATM   55  O1  UNL     1       2.698   1.445  -0.946  1.00  0.00    -0.369 OA
ATOM     56  H1  UNL     1       1.844   1.367  -1.354  1.00  0.00     0.212 HD
ENDBRANCH   1  55
TORSDOF 17
