REMARK  18 active torsions:
REMARK  status: ('A' for Active; 'I' for Inactive)
REMARK       I    between atoms: C2_2  and  N1_4 
REMARK    1  A    between atoms: N1_4  and  N9_40 
REMARK    2  A    between atoms: C4_8  and  N3_9 
REMARK    3  A    between atoms: C6_13  and  C7_14 
REMARK    4  A    between atoms: C7_14  and  O2_15 
REMARK    5  A    between atoms: C7_14  and  C8_17 
REMARK    6  A    between atoms: C8_17  and  O3_18 
REMARK    7  A    between atoms: C8_17  and  C9_20 
REMARK    8  A    between atoms: C9_20  and  O4_21 
REMARK    9  A    between atoms: C12_29  and  C13_30 
REMARK   10  A    between atoms: C13_30  and  C14_35 
REMARK   11  A    between atoms: N6_31  and  O5_33 
REMARK       I    between atoms: N9_40  and  C16_42 
REMARK   12  A    between atoms: C16_42  and  C17_44 
REMARK   13  A    between atoms: C17_44  and  O8_45 
REMARK   14  A    between atoms: C17_44  and  C18_47 
REMARK   15  A    between atoms: C18_47  and  O9_48 
REMARK   16  A    between atoms: C18_47  and  C19_51 
REMARK   17  A    between atoms: C19_51  and  O10_52 
REMARK   18  A    between atoms: C19_51  and  O11_54 
ROOT
HETATM    1  C1  UNL     1       2.684  -0.264  -3.275  1.00  0.00     0.120 C 
HETATM    2  C2  UNL     1       1.299  -0.348  -2.812  1.00  0.00     0.255 C 
HETATM    3  O1  UNL     1       0.442  -0.802  -3.642  1.00  0.00    -0.271 OA
HETATM    4  N1  UNL     1       0.838   0.027  -1.542  1.00  0.00    -0.048 N 
HETATM    5  C3  UNL     1      -0.367  -0.052  -1.137  1.00  0.00     0.708 C 
HETATM    6  N2  UNL     1      -1.422  -0.560  -1.971  1.00  0.00    -0.173 N 
ATOM      7  H2  UNL     1      -1.192  -0.866  -2.916  1.00  0.00     0.186 HD
HETATM    8  C4  UNL     1      -2.909  -0.664  -1.492  1.00  0.00     0.143 C 
HETATM    9  C5  UNL     1      -3.264   0.246  -0.451  1.00  0.00     0.102 C 
HETATM   10  C6  UNL     1      -3.286  -0.530   0.493  1.00  0.00     0.068 C 
HETATM   11  N4  UNL     1      -2.893  -0.178   1.988  1.00  0.00    -0.383 N 
ATOM     12  H4  UNL     1      -3.285  -0.589   2.835  1.00  0.00     0.160 HD
HETATM   13  C10 UNL     1      -1.888   0.822   1.915  1.00  0.00     0.179 C 
HETATM   14  C11 UNL     1      -1.604   1.252   0.506  1.00  0.00     0.073 C 
HETATM   15  N5  UNL     1      -0.940   0.286   0.130  1.00  0.00    -0.190 N 
ATOM     16  H5  UNL     1      -0.765  -0.405   0.860  1.00  0.00     0.184 HD
HETATM   17  C12 UNL     1      -2.388   2.371  -0.011  1.00  0.00     0.092 C 
HETATM   18  N8  UNL     1      -3.505   1.755  -0.631  1.00  0.00    -0.348 N 
ATOM     19  H8  UNL     1      -4.292   2.210  -1.093  1.00  0.00     0.166 HD
ENDROOT
BRANCH   4  20
HETATM   20  N9  UNL     1       1.872   0.534  -0.659  1.00  0.00    -0.239 N 
HETATM   21  C15 UNL     1       2.180   1.919  -0.908  1.00  0.00     0.182 C 
HETATM   22  C16 UNL     1       2.425  -0.289   0.312  1.00  0.00     0.273 C 
HETATM   23  O7  UNL     1       1.968  -1.486   0.375  1.00  0.00    -0.268 OA
BRANCH  22  24
HETATM   24  C17 UNL     1       3.465   0.092   1.257  1.00  0.00     0.284 C 
BRANCH  24  25
HETATM   25  O8  UNL     1       3.459  -0.872   2.329  1.00  0.00    -0.380 OA
ATOM     26  H8  UNL     1       4.138  -0.623   2.946  1.00  0.00     0.210 HD
ENDBRANCH  24  25
BRANCH  24  27
HETATM   27  C18 UNL     1       4.884  -0.009   0.672  1.00  0.00     0.287 C 
HETATM   28  F1  UNL     1       5.026   0.892  -0.335  1.00  0.00    -0.203 F 
BRANCH  27  29
HETATM   29  O9  UNL     1       5.766   0.265   1.735  1.00  0.00    -0.356 OA
ATOM     30  H9  UNL     1       6.642   0.203   1.374  1.00  0.00     0.213 HD
ENDBRANCH  27  29
BRANCH  27  31
HETATM   31  C19 UNL     1       5.135  -1.385   0.155  1.00  0.00     0.325 C 
BRANCH  31  32
HETATM   32  O10 UNL     1       4.939  -2.371   1.113  1.00  0.00    -0.366 OA
ATOM     33  H10 UNL     1       5.099  -3.248   0.784  1.00  0.00     0.212 HD
ENDBRANCH  31  32
BRANCH  31  34
HETATM   34  O11 UNL     1       6.485  -1.421  -0.269  1.00  0.00    -0.366 OA
ATOM     35  H11 UNL     1       6.645  -2.298  -0.598  1.00  0.00     0.212 HD
ENDBRANCH  31  34
ENDBRANCH  27  31
ENDBRANCH  24  27
ENDBRANCH  22  24
ENDBRANCH   4  20
BRANCH   8  36
HETATM   36  N3  UNL     1      -3.327  -1.478  -2.135  1.00  0.00    -0.383 N 
ATOM     37  H32 UNL     1      -3.073  -2.128  -2.879  1.00  0.00     0.157 HD
ATOM     38  H31 UNL     1      -4.296  -1.546  -1.823  1.00  0.00     0.157 HD
ENDBRANCH   8  36
BRANCH  17  39
HETATM   39  C13 UNL     1      -2.257   3.731  -0.020  1.00  0.00     0.147 C 
HETATM   40  N6  UNL     1      -3.119   4.529  -0.572  1.00  0.00    -0.262 N 
ATOM     41  H6  UNL     1      -2.976   5.539  -0.552  1.00  0.00     0.194 HD
BRANCH  40  42
HETATM   42  O5  UNL     1      -4.207   4.004  -1.173  1.00  0.00    -0.289 OA
ATOM     43  H5  UNL     1      -4.838   4.588  -1.577  1.00  0.00     0.244 HD
ENDBRANCH  40  42
BRANCH  39  44
HETATM   44  C14 UNL     1      -1.077   4.362   0.639  1.00  0.00     0.285 C 
HETATM   45  N7  UNL     1      -0.938   5.762   0.637  1.00  0.00    -0.056 NA
HETATM   46  O6  UNL     1      -0.208   3.654   1.194  1.00  0.00    -0.269 OA
ENDBRANCH  39  44
ENDBRANCH  17  39
BRANCH  10  47
HETATM   47  C7  UNL     1      -3.075  -1.905   0.254  1.00  0.00     0.200 C 
BRANCH  47  48
HETATM   48  O2  UNL     1      -2.367  -2.240   1.496  1.00  0.00    -0.387 OA
ATOM     49  H2  UNL     1      -2.225  -3.165   1.335  1.00  0.00     0.210 HD
ENDBRANCH  47  48
BRANCH  47  50
HETATM   50  C8  UNL     1      -4.250  -2.840   0.555  1.00  0.00     0.176 C 
BRANCH  50  51
HETATM   51  O3  UNL     1      -4.883  -2.538   1.757  1.00  0.00    -0.390 OA
ATOM     52  H3  UNL     1      -5.612  -3.118   1.944  1.00  0.00     0.210 HD
ENDBRANCH  50  51
BRANCH  50  53
HETATM   53  C9  UNL     1      -3.765  -4.263   0.616  1.00  0.00     0.198 C 
BRANCH  53  54
HETATM   54  O4  UNL     1      -2.868  -4.535   1.622  1.00  0.00    -0.398 OA
ATOM     55  H4  UNL     1      -2.562  -5.433   1.661  1.00  0.00     0.209 HD
ENDBRANCH  53  54
ENDBRANCH  50  53
ENDBRANCH  47  50
ENDBRANCH  10  47
TORSDOF 18
