REMARK  16 active torsions:
REMARK  status: ('A' for Active; 'I' for Inactive)
REMARK    1  A    between atoms: C2_2  and  O1_3 
REMARK    2  A    between atoms: N1_6  and  C4_7 
REMARK    3  A    between atoms: C5_10  and  N3_11 
REMARK    4  A    between atoms: C7_17  and  O2_18 
REMARK    5  A    between atoms: O2_18  and  C8_19 
REMARK    6  A    between atoms: C8_19  and  C9_21 
REMARK    7  A    between atoms: C11_26  and  C12_27 
REMARK    8  A    between atoms: C12_27  and  O5_28 
REMARK    9  A    between atoms: C12_27  and  C13_30 
REMARK   10  A    between atoms: C13_30  and  O6_31 
REMARK   11  A    between atoms: C13_30  and  C14_33 
REMARK   12  A    between atoms: C14_33  and  O7_34 
REMARK   13  A    between atoms: C14_33  and  C15_36 
REMARK   14  A    between atoms: C15_36  and  O8_37 
REMARK   15  A    between atoms: C16_39  and  C17_40 
REMARK   16  A    between atoms: C18_44  and  C19_45 
ROOT
HETATM    1  C4  UNL     1      -1.774   0.872  -0.037  1.00  0.00     0.708 A 
HETATM    2  N2  UNL     1      -2.589   2.037  -0.071  1.00  0.00    -0.022 N 
ATOM      3  H2  UNL     1      -3.600   1.914  -0.010  1.00  0.00     0.203 HD
HETATM    4  C5  UNL     1      -2.130   3.247  -0.175  1.00  0.00     0.692 A 
HETATM    5  N4  UNL     1      -0.829   3.441  -0.257  1.00  0.00    -0.172 N 
ATOM      6  H4  UNL     1      -0.448   4.383  -0.341  1.00  0.00     0.186 HD
HETATM    7  C6  UNL     1      -0.007   2.363  -0.228  1.00  0.00     0.183 A 
HETATM    8  C7  UNL     1       1.324   2.637  -0.356  1.00  0.00     0.175 A 
HETATM    9  C10 UNL     1       2.194   1.601  -0.369  1.00  0.00     0.221 A 
HETATM   10  O4  UNL     1       3.431   1.920  -0.499  1.00  0.00    -0.284 OA
HETATM   11  C11 UNL     1       1.804   0.268  -0.252  1.00  0.00     0.061 A 
HETATM   12  C16 UNL     1       0.420   0.035  -0.127  1.00  0.00     0.148 A 
HETATM   13  N5  UNL     1      -0.469   1.081  -0.117  1.00  0.00    -0.121 N 
ENDROOT
BRANCH   1  14
HETATM   14  N1  UNL     1      -2.600  -0.244   0.051  1.00  0.00    -0.172 N 
HETATM   15  C3  UNL     1      -3.090  -0.912  -1.100  1.00  0.00     0.215 C 
HETATM   16  C2  UNL     1      -4.098  -1.994  -0.788  1.00  0.00     0.175 C 
HETATM   17  C1  UNL     1      -4.082  -3.047  -1.909  1.00  0.00     0.080 C 
HETATM   18  O13 UNL     1      -3.894  -2.678   0.370  1.00  0.00    -0.348 OA
HETATM   19  C20 UNL     1      -3.724  -1.928   1.490  1.00  0.00     0.236 C 
HETATM   20  C18 UNL     1      -3.244  -0.553   1.292  1.00  0.00     0.129 C 
BRANCH  16  21
HETATM   21  O1  UNL     1      -5.385  -1.471  -0.821  1.00  0.00    -0.364 OA
ATOM     22  H1  UNL     1      -5.395  -0.821  -0.129  1.00  0.00     0.213 HD
ENDBRANCH  16  21
BRANCH  20  23
HETATM   23  C19 UNL     1      -2.682  -0.024   2.564  1.00  0.00     0.225 C 
HETATM   24  O11 UNL     1      -1.419  -0.351   2.922  1.00  0.00    -0.643 OA
HETATM   25  O12 UNL     1      -2.987   1.335   2.796  1.00  0.00    -0.643 OA
ENDBRANCH  20  23
ENDBRANCH   1  14
BRANCH   4  26
HETATM   26  N3  UNL     1      -2.921   4.269  -0.200  1.00  0.00    -0.234 N 
ATOM     27  H32 UNL     1      -3.928   4.119  -0.137  1.00  0.00     0.174 HD
ATOM     28  H31 UNL     1      -2.560   5.220  -0.282  1.00  0.00     0.174 HD
ENDBRANCH   4  26
BRANCH  12  29
HETATM   29  C17 UNL     1       0.047  -1.313  -0.271  1.00  0.00     0.228 C 
HETATM   30  O9  UNL     1      -0.605  -2.146   0.268  1.00  0.00    -0.643 OA
HETATM   31  O10 UNL     1       0.633  -1.893  -1.513  1.00  0.00    -0.643 OA
ENDBRANCH  12  29
BRANCH   8  32
HETATM   32  O2  UNL     1       1.782   3.955  -0.465  1.00  0.00    -0.266 OA
BRANCH  32  33
HETATM   33  C8  UNL     1       2.070   4.513  -1.671  1.00  0.00     0.329 C 
HETATM   34  O3  UNL     1       1.924   3.830  -2.712  1.00  0.00    -0.259 OA
BRANCH  33  35
HETATM   35  C9  UNL     1       2.559   5.925  -1.804  1.00  0.00     0.452 C 
HETATM   36  F1  UNL     1       1.634   6.830  -1.321  1.00  0.00    -0.203 F 
HETATM   37  F2  UNL     1       3.717   6.082  -1.065  1.00  0.00    -0.203 F 
ENDBRANCH  33  35
ENDBRANCH  32  33
ENDBRANCH   8  32
BRANCH  11  38
HETATM   38  C12 UNL     1       2.883  -0.704  -0.238  1.00  0.00     0.189 C 
BRANCH  38  39
HETATM   39  O5  UNL     1       4.070  -0.042   0.192  1.00  0.00    -0.388 OA
ATOM     40  H5  UNL     1       4.776  -0.678   0.201  1.00  0.00     0.210 HD
ENDBRANCH  38  39
BRANCH  38  41
HETATM   41  C13 UNL     1       2.859  -1.950   0.531  1.00  0.00     0.182 C 
BRANCH  41  42
HETATM   42  O6  UNL     1       2.797  -1.703   1.934  1.00  0.00    -0.390 OA
ATOM     43  H6  UNL     1       2.781  -2.511   2.433  1.00  0.00     0.210 HD
ENDBRANCH  41  42
BRANCH  41  44
HETATM   44  C14 UNL     1       4.110  -2.820   0.273  1.00  0.00     0.173 C 
BRANCH  44  45
HETATM   45  O7  UNL     1       4.217  -3.045  -1.080  1.00  0.00    -0.391 OA
ATOM     46  H7  UNL     1       4.986  -3.580  -1.239  1.00  0.00     0.210 HD
ENDBRANCH  44  45
BRANCH  44  47
HETATM   47  C15 UNL     1       5.337  -2.415   0.965  1.00  0.00     0.198 C 
BRANCH  47  48
HETATM   48  O8  UNL     1       5.187  -2.140   2.318  1.00  0.00    -0.398 OA
ATOM     49  H8  UNL     1       5.982  -1.878   2.767  1.00  0.00     0.209 HD
ENDBRANCH  47  48
ENDBRANCH  44  47
ENDBRANCH  41  44
ENDBRANCH  38  41
ENDBRANCH  11  38
TORSDOF 16
