REMARK  18 active torsions:
REMARK  status: ('A' for Active; 'I' for Inactive)
REMARK    1  A    between atoms: C1_2  and  C2_4 
REMARK    2  A    between atoms: C8_20  and  C9_21 
REMARK    3  A    between atoms: C11_23  and  O2_24 
REMARK    4  A    between atoms: C11_23  and  N7_26 
REMARK    5  A    between atoms: N7_26  and  C12_28 
REMARK    6  A    between atoms: C12_28  and  C13_29 
REMARK    7  A    between atoms: C12_28  and  C14_32 
REMARK    8  A    between atoms: C13_29  and  O3_30 
REMARK    9  A    between atoms: C14_32  and  O4_33 
REMARK   10  A    between atoms: C15_38  and  C16_39 
REMARK   11  A    between atoms: C16_39  and  C17_40 
REMARK   12  A    between atoms: C16_39  and  C18_43 
REMARK   13  A    between atoms: C17_40  and  O6_41 
REMARK   14  A    between atoms: C18_43  and  O7_44 
REMARK   15  A    between atoms: C19_46  and  O8_47 
REMARK   16  A    between atoms: C19_46  and  C20_49 
REMARK   17  A    between atoms: C21_50  and  N9_51 
REMARK   18  A    between atoms: N9_51  and  O9_53 
ROOT
HETATM    1  C2  UNL     1      -2.769   3.486   0.276  1.00  0.00     0.174 A 
HETATM    2  N2  UNL     1      -2.029   3.276   1.410  1.00  0.00    -0.314 N 
ATOM      3  H2  UNL     1      -1.954   3.999   2.125  1.00  0.00     0.170 HD
HETATM    4  C3  UNL     1      -1.405   2.095   1.558  1.00  0.00     0.203 A 
HETATM    5  F1  UNL     1      -0.674   1.905   2.691  1.00  0.00    -0.185 F 
HETATM    6  C4  UNL     1      -1.511   1.130   0.600  1.00  0.00     0.081 A 
HETATM    7  C5  UNL     1      -2.246   1.338  -0.542  1.00  0.00     0.095 A 
HETATM    8  N3  UNL     1      -2.854   2.533  -0.646  1.00  0.00    -0.334 N 
ATOM      9  H3  UNL     1      -3.412   2.718  -1.480  1.00  0.00     0.168 HD
HETATM   10  C6  UNL     1      -2.177   0.314  -1.565  1.00  0.00     0.156 A 
HETATM   11  N4  UNL     1      -2.836   0.284  -2.750  1.00  0.00    -0.334 N 
ATOM     12  H4  UNL     1      -3.475   0.999  -3.098  1.00  0.00     0.168 HD
HETATM   13  C7  UNL     1      -2.503  -0.846  -3.382  1.00  0.00     0.199 A 
HETATM   14  N5  UNL     1      -1.661  -1.473  -2.575  1.00  0.00    -0.288 N 
ATOM     15  H5  UNL     1      -1.231  -2.374  -2.785  1.00  0.00     0.188 HD
HETATM   16  N6  UNL     1      -1.446  -0.792  -1.468  1.00  0.00    -0.235 N 
HETATM   17  C8  UNL     1      -0.597  -1.050  -0.284  1.00  0.00     0.103 C 
HETATM   18  C19 UNL     1      -0.912  -0.178   0.853  1.00  0.00     0.203 C 
ENDROOT
BRANCH  17  19
HETATM   19  C9  UNL     1       0.777  -1.420  -0.562  1.00  0.00     0.062 A 
HETATM   20  C10 UNL     1       1.799  -0.604  -1.033  1.00  0.00     0.120 A 
HETATM   21  C11 UNL     1       1.887   0.779  -1.381  1.00  0.00     0.166 C 
HETATM   22  N8  UNL     1       2.902  -1.431  -1.273  1.00  0.00    -0.256 N 
HETATM   23  O5  UNL     1       2.570  -2.614  -0.976  1.00  0.00    -0.236 OA
ATOM     24  H8  UNL     1       3.812  -1.132  -1.625  1.00  0.00     0.195 HD
HETATM   25  C15 UNL     1       1.320  -2.714  -0.537  1.00  0.00     0.120 A 
BRANCH  21  26
HETATM   26  O2  UNL     1       0.935   1.298  -2.267  1.00  0.00    -0.345 OA
ATOM     27  H2  UNL     1       0.994   2.218  -2.498  1.00  0.00     0.219 HD
ENDBRANCH  21  26
BRANCH  21  28
HETATM   28  N7  UNL     1       2.172   1.776  -0.384  1.00  0.00    -0.360 N 
ATOM     29  H7  UNL     1       1.417   2.361  -0.025  1.00  0.00     0.162 HD
BRANCH  28  30
HETATM   30  C12 UNL     1       3.464   1.951   0.095  1.00  0.00     0.130 C 
BRANCH  30  31
HETATM   31  C13 UNL     1       3.421   2.381   1.566  1.00  0.00     0.191 C 
BRANCH  31  32
HETATM   32  O3  UNL     1       4.701   2.608   2.062  1.00  0.00    -0.399 OA
ATOM     33  H3  UNL     1       4.674   2.874   2.973  1.00  0.00     0.209 HD
ENDBRANCH  31  32
ENDBRANCH  30  31
BRANCH  30  34
HETATM   34  C14 UNL     1       4.115   3.139  -0.660  1.00  0.00     0.191 C 
BRANCH  34  35
HETATM   35  O4  UNL     1       4.168   2.937  -2.006  1.00  0.00    -0.399 OA
ATOM     36  H4  UNL     1       4.567   3.665  -2.468  1.00  0.00     0.209 HD
ENDBRANCH  34  35
ENDBRANCH  30  34
ENDBRANCH  28  30
ENDBRANCH  21  28
BRANCH  25  37
HETATM   37  C16 UNL     1       0.728  -3.969  -0.096  1.00  0.00     0.003 C 
BRANCH  37  38
HETATM   38  C17 UNL     1       0.671  -5.003  -1.232  1.00  0.00     0.203 C 
BRANCH  38  39
HETATM   39  O6  UNL     1       1.943  -5.237  -1.686  1.00  0.00    -0.396 OA
ATOM     40  H6  UNL     1       1.908  -5.876  -2.388  1.00  0.00     0.209 HD
ENDBRANCH  38  39
ENDBRANCH  37  38
BRANCH  37  41
HETATM   41  C18 UNL     1      -0.125  -4.172   1.051  1.00  0.00     0.203 C 
BRANCH  41  42
HETATM   42  O7  UNL     1      -0.398  -5.600   1.101  1.00  0.00    -0.396 OA
ATOM     43  H7  UNL     1      -0.959  -5.734   1.856  1.00  0.00     0.209 HD
ENDBRANCH  41  42
ENDBRANCH  37  41
ENDBRANCH  25  37
ENDBRANCH  17  19
BRANCH  18  44
HETATM   44  O8  UNL     1       0.190  -0.046   1.681  1.00  0.00    -0.368 OA
ATOM     45  H8  UNL     1       0.580  -0.897   1.846  1.00  0.00     0.212 HD
ENDBRANCH  18  44
BRANCH  18  46
HETATM   46  C20 UNL     1      -1.950  -0.799   1.774  1.00  0.00    -0.031 C 
HETATM   47  C21 UNL     1      -2.780  -1.297   2.507  1.00  0.00     0.035 C 
BRANCH  47  48
HETATM   48  N9  UNL     1      -3.747  -1.911   3.340  1.00  0.00    -0.226 N 
ATOM     49  H9  UNL     1      -3.529  -2.810   3.769  1.00  0.00     0.204 HD
BRANCH  48  50
HETATM   50  O9  UNL     1      -4.961  -1.339   3.587  1.00  0.00    -0.282 OA
ATOM     51  H9  UNL     1      -5.610  -1.751   4.146  1.00  0.00     0.245 HD
ENDBRANCH  48  50
ENDBRANCH  47  48
ENDBRANCH  18  46
BRANCH   1  52
HETATM   52  C1  UNL     1      -3.372   4.782   0.147  1.00  0.00     0.298 C 
HETATM   53  N1  UNL     1      -4.739   4.842  -0.272  1.00  0.00    -0.054 NA
HETATM   54  O1  UNL     1      -2.722   5.824   0.403  1.00  0.00    -0.268 OA
ENDBRANCH   1  52
TORSDOF 18
