REMARK  15 active torsions:
REMARK  status: ('A' for Active; 'I' for Inactive)
REMARK    1  A    between atoms: C2_2  and  C3_3 
REMARK    2  A    between atoms: C3_3  and  N1_4 
REMARK    3  A    between atoms: C3_3  and  C6_9 
REMARK       I    between atoms: N1_4  and  C4_6 
REMARK    4  A    between atoms: C7_13  and  C8_14 
REMARK    5  A    between atoms: C9_17  and  N4_18 
REMARK    6  A    between atoms: N4_18  and  C10_20 
REMARK    7  A    between atoms: C10_20  and  O3_21 
REMARK    8  A    between atoms: C10_20  and  C11_23 
REMARK    9  A    between atoms: N7_28  and  C12_29 
REMARK   10  A    between atoms: C12_29  and  C13_30 
REMARK   11  A    between atoms: C13_30  and  O4_31 
REMARK   12  A    between atoms: C13_30  and  C14_33 
REMARK   13  A    between atoms: C14_33  and  C15_35 
REMARK   14  A    between atoms: C17_40  and  N10_41 
REMARK   15  A    between atoms: C20_53  and  O7_54 
ROOT
HETATM    1  C10 UNL     1      -1.555   1.499   2.550  1.00  0.00     0.203 C 
ENDROOT
BRANCH   1   2
HETATM    2  N4  UNL     1      -0.231   1.237   2.295  1.00  0.00    -0.167 N 
ATOM      3  H4  UNL     1       0.380   1.323   3.108  1.00  0.00     0.186 HD
BRANCH   2   4
HETATM    4  C9  UNL     1       0.421   0.875   1.124  1.00  0.00     0.684 A 
HETATM    5  N3  UNL     1       1.789   0.688   1.250  1.00  0.00    -0.184 N 
HETATM    6  C8  UNL     1       2.584   0.345   0.220  1.00  0.00     0.137 A 
ATOM      7  H3  UNL     1       2.214   0.817   2.168  1.00  0.00     0.184 HD
HETATM    8  C20 UNL     1       1.989   0.178  -1.000  1.00  0.00     0.113 A 
HETATM    9  C19 UNL     1       0.597   0.368  -1.135  1.00  0.00     0.145 A 
HETATM   10  N13 UNL     1      -0.126   0.706  -0.074  1.00  0.00    -0.199 N 
ATOM     11  H13 UNL     1      -1.131   0.840  -0.182  1.00  0.00     0.183 HD
BRANCH   6  12
HETATM   12  C7  UNL     1       4.021   0.170   0.450  1.00  0.00     0.202 A 
HETATM   13  O2  UNL     1       4.626   0.324   1.625  1.00  0.00    -0.216 OA
HETATM   14  N2  UNL     1       5.886   0.111   1.547  1.00  0.00    -0.245 N 
HETATM   15  C6  UNL     1       6.203  -0.210   0.262  1.00  0.00     0.127 A 
ATOM     16  H2  UNL     1       6.546   0.172   2.322  1.00  0.00     0.196 HD
HETATM   17  N14 UNL     1       5.017  -0.158  -0.367  1.00  0.00    -0.320 N 
ATOM     18  H14 UNL     1       4.894  -0.349  -1.361  1.00  0.00     0.169 HD
BRANCH  15  19
HETATM   19  C3  UNL     1       7.550  -0.531  -0.277  1.00  0.00     0.153 C 
BRANCH  19  20
HETATM   20  C2  UNL     1       7.913  -1.970   0.043  1.00  0.00     0.028 C 
HETATM   21  C1  UNL     1       9.250  -2.355  -0.514  1.00  0.00     0.007 C 
ENDBRANCH  19  20
BRANCH  19  22
HETATM   22  N1  UNL     1       8.494   0.415   0.254  1.00  0.00    -0.350 N 
HETATM   23  C4  UNL     1       9.239   1.295  -0.578  1.00  0.00     0.214 C 
HETATM   24  C5  UNL     1      10.202   2.259   0.016  1.00  0.00     0.117 C 
HETATM   25  O1  UNL     1       9.093   1.272  -1.845  1.00  0.00    -0.274 OA
ATOM     26  H1  UNL     1       8.634   0.456   1.263  1.00  0.00     0.163 HD
ENDBRANCH  19  22
ENDBRANCH  15  19
ENDBRANCH   6  12
BRANCH   8  27
HETATM   27  O7  UNL     1       2.662  -0.161  -2.108  1.00  0.00    -0.357 OA
ATOM     28  H7  UNL     1       2.249  -0.277  -2.955  1.00  0.00     0.217 HD
ENDBRANCH   8  27
ENDBRANCH   2   4
ENDBRANCH   1   2
BRANCH   1  29
HETATM   29  O3  UNL     1      -1.857   1.850   3.798  1.00  0.00    -0.343 OA
ATOM     30  H3  UNL     1      -2.773   2.031   3.974  1.00  0.00     0.219 HD
ENDBRANCH   1  29
BRANCH   1  31
HETATM   31  C11 UNL     1      -2.680   1.445   1.638  1.00  0.00     0.189 A 
HETATM   32  N5  UNL     1      -3.962   1.855   2.005  1.00  0.00    -0.265 N 
HETATM   33  N6  UNL     1      -4.727   1.665   0.983  1.00  0.00    -0.224 N 
ATOM     34  H5  UNL     1      -4.242   2.233   2.910  1.00  0.00     0.190 HD
HETATM   35  N7  UNL     1      -4.055   1.162  -0.032  1.00  0.00    -0.215 N 
ATOM     36  H6  UNL     1      -5.724   1.877   0.964  1.00  0.00     0.210 HD
HETATM   37  N12 UNL     1      -2.828   1.042   0.393  1.00  0.00    -0.263 N 
ATOM     38  H12 UNL     1      -2.066   0.676  -0.177  1.00  0.00     0.190 HD
BRANCH  35  39
HETATM   39  C12 UNL     1      -4.592   0.829  -1.325  1.00  0.00     0.211 C 
BRANCH  39  40
HETATM   40  C13 UNL     1      -5.100  -0.616  -1.354  1.00  0.00     0.214 C 
BRANCH  40  41
HETATM   41  O4  UNL     1      -3.922  -1.368  -1.039  1.00  0.00    -0.386 OA
ATOM     42  H4  UNL     1      -4.237  -2.264  -1.057  1.00  0.00     0.210 HD
ENDBRANCH  40  41
BRANCH  40  43
HETATM   43  C14 UNL     1      -6.083  -0.866  -0.302  1.00  0.00     0.198 C 
HETATM   44  O5  UNL     1      -5.586  -1.349   0.791  1.00  0.00    -0.289 OA
BRANCH  43  45
HETATM   45  C15 UNL     1      -7.507  -0.645  -0.339  1.00  0.00     0.122 A 
HETATM   46  C16 UNL     1      -8.244  -0.902   0.823  1.00  0.00     0.151 A 
HETATM   47  N8  UNL     1      -7.592  -1.343   1.999  1.00  0.00    -0.081 NA
HETATM   48  N9  UNL     1      -9.567  -0.713   0.760  1.00  0.00    -0.178 N 
HETATM   49  C17 UNL     1     -10.229  -0.297  -0.334  1.00  0.00     0.680 A 
ATOM     50  H9  UNL     1     -10.112  -0.898   1.602  1.00  0.00     0.185 HD
HETATM   51  N11 UNL     1      -9.530  -0.050  -1.447  1.00  0.00    -0.155 N 
HETATM   52  C18 UNL     1      -8.171  -0.225  -1.445  1.00  0.00     0.277 A 
ATOM     53  H11 UNL     1     -10.005   0.267  -2.292  1.00  0.00     0.187 HD
HETATM   54  O6  UNL     1      -7.577   0.019  -2.518  1.00  0.00    -0.267 OA
BRANCH  49  55
HETATM   55  N10 UNL     1     -11.498  -0.133  -0.337  1.00  0.00    -0.234 N 
ATOM     56 2H10 UNL     1     -12.031  -0.321   0.512  1.00  0.00     0.174 HD
ATOM     57 1H10 UNL     1     -12.000   0.183  -1.167  1.00  0.00     0.174 HD
ENDBRANCH  49  55
ENDBRANCH  43  45
ENDBRANCH  40  43
ENDBRANCH  39  40
ENDBRANCH  35  39
ENDBRANCH   1  31
TORSDOF 15
