REMARK  14 active torsions:
REMARK  status: ('A' for Active; 'I' for Inactive)
REMARK    1  A    between atoms: C4_4  and  O1_5 
REMARK    2  A    between atoms: N1_7  and  C5_8 
REMARK    3  A    between atoms: C5_8  and  C6_9 
REMARK    4  A    between atoms: C6_9  and  N2_10 
REMARK    5  A    between atoms: C7_12  and  C8_13 
REMARK    6  A    between atoms: C7_12  and  C9_15 
REMARK       I    between atoms: C9_15  and  N3_17 
REMARK    7  A    between atoms: N3_17  and  N4_19 
REMARK       I    between atoms: N4_19  and  C10_21 
REMARK       I    between atoms: C10_21  and  N5_23 
REMARK    8  A    between atoms: C11_26  and  C12_27 
REMARK    9  A    between atoms: C16_38  and  C17_39 
REMARK   10  A    between atoms: N11_41  and  C19_42 
REMARK   11  A    between atoms: C19_42  and  C20_43 
REMARK   12  A    between atoms: C20_43  and  O5_44 
REMARK   13  A    between atoms: C21_50  and  O6_51 
REMARK   14  A    between atoms: C22_53  and  O7_54 
ROOT
HETATM    1  N4  UNL     1       0.040  -0.008   1.842  1.00  0.00    -0.247 N 
ATOM      2  H4  UNL     1       0.666   0.613   2.355  1.00  0.00     0.192 HD
HETATM    3  C10 UNL     1       0.535  -0.579   0.667  1.00  0.00     0.362 C 
HETATM    4  O4  UNL     1      -0.223  -1.336   0.011  1.00  0.00    -0.243 OA
HETATM    5  N5  UNL     1       1.842  -0.359   0.170  1.00  0.00    -0.180 N 
HETATM    6  N6  UNL     1       2.373  -0.890  -0.948  1.00  0.00    -0.285 N 
ATOM      7  H6  UNL     1       1.868  -1.515  -1.576  1.00  0.00     0.188 HD
HETATM    8  C11 UNL     1       3.623  -0.509  -1.137  1.00  0.00     0.094 A 
HETATM    9  C16 UNL     1       3.966   0.320  -0.105  1.00  0.00     0.077 A 
HETATM   10  C21 UNL     1       2.837   0.394   0.692  1.00  0.00     0.181 A 
ENDROOT
BRANCH  10  11
HETATM   11  O6  UNL     1       2.832   1.165   1.851  1.00  0.00    -0.344 OA
ATOM     12  H6  UNL     1       3.531   1.694   2.218  1.00  0.00     0.219 HD
ENDBRANCH  10  11
BRANCH   1  13
HETATM   13  N3  UNL     1      -1.226  -0.209   2.376  1.00  0.00    -0.261 N 
HETATM   14  C9  UNL     1      -2.445   0.223   1.891  1.00  0.00     0.289 C 
HETATM   15  O3  UNL     1      -2.655   0.881   0.850  1.00  0.00    -0.264 OA
ATOM     16  H3  UNL     1      -1.260  -0.747   3.242  1.00  0.00     0.190 HD
BRANCH  14  17
HETATM   17  C7  UNL     1      -3.680  -0.124   2.713  1.00  0.00     0.140 C 
HETATM   18  N2  UNL     1      -4.850   0.466   2.372  1.00  0.00    -0.361 N 
ATOM     19  H2  UNL     1      -5.177   1.141   3.063  1.00  0.00     0.165 HD
BRANCH  18  20
HETATM   20  C6  UNL     1      -5.684   0.346   1.296  1.00  0.00     0.081 C 
BRANCH  20  21
HETATM   21  C5  UNL     1      -6.450  -0.915   1.053  1.00  0.00     0.177 C 
BRANCH  21  22
HETATM   22  N1  UNL     1      -7.362  -0.719  -0.086  1.00  0.00    -0.303 N 
HETATM   23  C4  UNL     1      -7.090  -0.944  -1.354  1.00  0.00     0.144 A 
HETATM   24  C3  UNL     1      -8.228  -0.616  -2.112  1.00  0.00     0.067 A 
HETATM   25  C2  UNL     1      -9.177  -0.189  -1.214  1.00  0.00    -0.007 A 
HETATM   26  C1  UNL     1     -10.551   0.267  -1.572  1.00  0.00     0.052 C 
HETATM   27  C22 UNL     1      -8.622  -0.258   0.052  1.00  0.00     0.150 A 
BRANCH  23  28
HETATM   28  O1  UNL     1      -5.932  -1.414  -1.942  1.00  0.00    -0.346 OA
ATOM     29  H1  UNL     1      -5.163  -1.636  -1.430  1.00  0.00     0.219 HD
ENDBRANCH  23  28
BRANCH  27  30
HETATM   30  O7  UNL     1      -9.284   0.091   1.211  1.00  0.00    -0.345 OA
ATOM     31  H7  UNL     1      -8.903   0.044   2.080  1.00  0.00     0.219 HD
ENDBRANCH  27  30
ENDBRANCH  21  22
ENDBRANCH  20  21
ENDBRANCH  18  20
BRANCH  17  32
HETATM   32  C8  UNL     1      -3.687  -1.570   2.995  1.00  0.00     0.293 C 
HETATM   33  O2  UNL     1      -4.632  -2.280   3.208  1.00  0.00    -0.300 OA
ENDBRANCH  17  32
ENDBRANCH  14  17
ENDBRANCH   1  13
BRANCH   8  34
HETATM   34  C12 UNL     1       4.481  -0.916  -2.266  1.00  0.00     0.096 A 
HETATM   35  C13 UNL     1       4.282  -0.636  -3.600  1.00  0.00     0.167 A 
HETATM   36  N7  UNL     1       5.299  -1.193  -4.332  1.00  0.00    -0.094 N 
HETATM   37  N8  UNL     1       5.755  -1.336  -5.568  1.00  0.00    -0.275 N 
HETATM   38  C15 UNL     1       6.105  -1.804  -3.452  1.00  0.00     0.704 A 
HETATM   39  C14 UNL     1       6.882  -2.053  -5.507  1.00  0.00     0.215 A 
ATOM     40  H8  UNL     1       5.323  -0.965  -6.415  1.00  0.00     0.189 HD
HETATM   41  N9  UNL     1       7.089  -2.336  -4.210  1.00  0.00    -0.185 N 
ATOM     42  H9  UNL     1       7.876  -2.875  -3.849  1.00  0.00     0.185 HD
HETATM   43  N10 UNL     1       5.607  -1.632  -2.210  1.00  0.00    -0.186 N 
ATOM     44  H10 UNL     1       6.028  -1.995  -1.355  1.00  0.00     0.184 HD
ENDBRANCH   8  34
BRANCH   9  45
HETATM   45  C17 UNL     1       5.241   0.978   0.095  1.00  0.00     0.083 A 
HETATM   46  C18 UNL     1       6.094   0.907   1.185  1.00  0.00     0.143 A 
HETATM   47  N11 UNL     1       7.148   1.667   0.942  1.00  0.00    -0.285 N 
HETATM   48  N12 UNL     1       6.992   2.203  -0.242  1.00  0.00    -0.240 N 
HETATM   49  N13 UNL     1       5.860   1.813  -0.777  1.00  0.00    -0.284 N 
ATOM     50  H12 UNL     1       7.658   2.835  -0.686  1.00  0.00     0.208 HD
ATOM     51  H13 UNL     1       5.505   2.090  -1.692  1.00  0.00     0.188 HD
BRANCH  47  52
HETATM   52  C19 UNL     1       8.325   1.939   1.758  1.00  0.00     0.175 C 
BRANCH  52  53
HETATM   53  C20 UNL     1       9.391   0.918   1.436  1.00  0.00     0.185 C 
BRANCH  53  54
HETATM   54  O5  UNL     1       9.730   0.995   0.079  1.00  0.00    -0.399 OA
ATOM     55  H5  UNL     1      10.400   0.353  -0.123  1.00  0.00     0.209 HD
ENDBRANCH  53  54
ENDBRANCH  52  53
ENDBRANCH  47  52
ENDBRANCH   9  45
TORSDOF 14
