REMARK  14 active torsions:
REMARK  status: ('A' for Active; 'I' for Inactive)
REMARK    1  A    between atoms: C2_2  and  O1_3 
REMARK    2  A    between atoms: C2_2  and  C3_5 
REMARK    3  A    between atoms: C3_5  and  O2_6 
REMARK    4  A    between atoms: O2_6  and  C4_7 
REMARK    5  A    between atoms: C7_10  and  N1_11 
REMARK    6  A    between atoms: C10_16  and  C11_17 
REMARK    7  A    between atoms: C11_17  and  N3_18 
REMARK    8  A    between atoms: C11_17  and  C20_52 
REMARK    9  A    between atoms: N3_18  and  N4_20 
REMARK   10  A    between atoms: N5_22  and  C12_24 
REMARK   11  A    between atoms: C13_27  and  N7_28 
REMARK   12  A    between atoms: N7_28  and  N8_30 
REMARK   13  A    between atoms: C18_38  and  N11_39 
REMARK       I    between atoms: N11_39  and  C19_41 
REMARK       I    between atoms: C19_41  and  N12_42 
REMARK       I    between atoms: C19_41  and  N13_46 
REMARK   14  A    between atoms: C20_52  and  N15_55 
ROOT
HETATM    1  N4  UNL     1       0.228   0.433  -0.991  1.00  0.00    -0.228 N 
ATOM      2  H4  UNL     1       0.323   1.094  -0.220  1.00  0.00     0.209 HD
HETATM    3  N5  UNL     1      -0.911  -0.055  -1.198  1.00  0.00    -0.117 N 
ATOM      4  H5  UNL     1      -0.996  -0.714  -1.971  1.00  0.00     0.207 HD
ENDROOT
BRANCH   1   5
HETATM    5  N3  UNL     1       1.366   0.143  -1.729  1.00  0.00    -0.285 N 
ATOM      6  H3  UNL     1       2.104   0.846  -1.770  1.00  0.00     0.188 HD
BRANCH   5   7
HETATM    7  C11 UNL     1       1.565  -1.091  -2.439  1.00  0.00     0.090 C 
BRANCH   7   8
HETATM    8  C10 UNL     1       1.752  -2.295  -1.616  1.00  0.00     0.084 A 
HETATM    9  N1  UNL     1       2.429  -2.560  -0.506  1.00  0.00    -0.289 N 
HETATM   10  C8  UNL     1       2.254  -3.878  -0.197  1.00  0.00     0.190 A 
HETATM   11  N2  UNL     1       1.479  -4.463  -1.084  1.00  0.00    -0.359 N 
HETATM   12  C9  UNL     1       1.151  -3.523  -1.971  1.00  0.00     0.121 A 
ATOM     13  H2  UNL     1       1.187  -5.440  -1.092  1.00  0.00     0.166 HD
BRANCH   9  14
HETATM   14  C7  UNL     1       3.219  -1.655   0.265  1.00  0.00     0.128 A 
HETATM   15  C6  UNL     1       2.665  -1.003   1.345  1.00  0.00     0.054 A 
HETATM   16  C5  UNL     1       3.393  -0.144   2.143  1.00  0.00     0.061 A 
HETATM   17  C4  UNL     1       4.737   0.074   1.848  1.00  0.00     0.157 A 
HETATM   18  N17 UNL     1       5.233  -0.582   0.787  1.00  0.00    -0.278 N 
HETATM   19  N16 UNL     1       4.515  -1.384   0.059  1.00  0.00    -0.283 N 
ATOM     20  H17 UNL     1       6.214  -0.445   0.542  1.00  0.00     0.189 HD
ATOM     21  H16 UNL     1       4.973  -1.842  -0.729  1.00  0.00     0.188 HD
BRANCH  17  22
HETATM   22  O2  UNL     1       5.513   0.927   2.618  1.00  0.00    -0.332 OA
BRANCH  22  23
HETATM   23  C3  UNL     1       6.858   1.217   2.423  1.00  0.00     0.208 C 
BRANCH  23  24
HETATM   24  C2  UNL     1       7.217   1.832   1.110  1.00  0.00     0.138 C 
HETATM   25  C1  UNL     1       8.724   2.123   1.156  1.00  0.00     0.041 C 
BRANCH  24  26
HETATM   26  O1  UNL     1       6.599   3.039   0.852  1.00  0.00    -0.394 OA
ATOM     27  H1  UNL     1       5.667   2.859   0.824  1.00  0.00     0.210 HD
ENDBRANCH  24  26
ENDBRANCH  23  24
ENDBRANCH  22  23
ENDBRANCH  17  22
ENDBRANCH   9  14
ENDBRANCH   7   8
BRANCH   7  28
HETATM   28  C20 UNL     1       2.362  -1.012  -3.693  1.00  0.00     0.162 C 
HETATM   29  C21 UNL     1       2.106   0.264  -4.473  1.00  0.00     0.053 C 
HETATM   30  C22 UNL     1       3.848  -1.163  -3.550  1.00  0.00     0.053 C 
BRANCH  28  31
HETATM   31  N15 UNL     1       1.979  -2.091  -4.633  1.00  0.00    -0.065 N 
ATOM     32 3H15 UNL     1       2.050  -3.011  -4.199  1.00  0.00     0.275 HD
ATOM     33 2H15 UNL     1       0.977  -2.087  -4.823  1.00  0.00     0.275 HD
ATOM     34 1H15 UNL     1       2.525  -2.037  -5.493  1.00  0.00     0.275 HD
ENDBRANCH  28  31
ENDBRANCH   7  28
ENDBRANCH   5   7
ENDBRANCH   1   5
BRANCH   3  35
HETATM   35  C12 UNL     1      -2.071   0.218  -0.472  1.00  0.00     0.701 A 
HETATM   36  N6  UNL     1      -3.196  -0.466  -0.750  1.00  0.00    -0.174 N 
HETATM   37  C13 UNL     1      -4.358  -0.291  -0.120  1.00  0.00     0.139 A 
ATOM     38  H6  UNL     1      -3.157  -1.165  -1.492  1.00  0.00     0.186 HD
HETATM   39  C17 UNL     1      -4.392   0.659   0.880  1.00  0.00     0.099 A 
HETATM   40  C18 UNL     1      -3.260   1.388   1.202  1.00  0.00     0.123 A 
HETATM   41  N14 UNL     1      -2.129   1.138   0.507  1.00  0.00    -0.175 N 
ATOM     42  H14 UNL     1      -1.287   1.667   0.733  1.00  0.00     0.186 HD
BRANCH  37  43
HETATM   43  N7  UNL     1      -5.517  -1.041  -0.454  1.00  0.00    -0.280 N 
ATOM     44  H7  UNL     1      -5.439  -1.728  -1.204  1.00  0.00     0.189 HD
BRANCH  43  45
HETATM   45  N8  UNL     1      -6.740  -0.904   0.167  1.00  0.00    -0.262 N 
HETATM   46  C14 UNL     1      -7.818   0.001  -0.180  1.00  0.00     0.171 C 
HETATM   47  C15 UNL     1      -8.511   0.192   1.155  1.00  0.00     0.144 C 
HETATM   48  N9  UNL     1      -8.203  -1.020   1.858  1.00  0.00    -0.362 N 
HETATM   49  C16 UNL     1      -7.201  -1.638   1.297  1.00  0.00     0.205 C 
ATOM     50  H9  UNL     1      -8.700  -1.353   2.684  1.00  0.00     0.162 HD
HETATM   51  N10 UNL     1      -6.678  -2.876   1.787  1.00  0.00    -0.062 NA
ENDBRANCH  43  45
ENDBRANCH  37  43
BRANCH  40  52
HETATM   52  N11 UNL     1      -3.284   2.275   2.134  1.00  0.00    -0.327 N 
HETATM   53  C19 UNL     1      -4.499   2.538   2.875  1.00  0.00     0.481 C 
HETATM   54  N12 UNL     1      -4.135   3.381   4.021  1.00  0.00    -0.033 N 
HETATM   55  N13 UNL     1      -5.425   3.320   2.073  1.00  0.00    -0.033 N 
ATOM     56 3H12 UNL     1      -3.396   2.976   4.596  1.00  0.00     0.278 HD
ATOM     57 2H12 UNL     1      -3.640   4.231   3.750  1.00  0.00     0.278 HD
ATOM     58 1H12 UNL     1      -4.991   3.566   4.543  1.00  0.00     0.278 HD
ATOM     59 3H13 UNL     1      -4.997   4.180   1.729  1.00  0.00     0.278 HD
ATOM     60 2H13 UNL     1      -5.617   2.876   1.175  1.00  0.00     0.278 HD
ATOM     61 1H13 UNL     1      -6.281   3.505   2.595  1.00  0.00     0.278 HD
ATOM     62  H11 UNL     1      -2.437   2.799   2.353  1.00  0.00     0.164 HD
ENDBRANCH  40  52
ENDBRANCH   3  35
TORSDOF 14
