REMARK  19 active torsions:
REMARK  status: ('A' for Active; 'I' for Inactive)
REMARK    1  A    between atoms: C2_2  and  O1_3 
REMARK    2  A    between atoms: C2_2  and  N1_5 
REMARK    3  A    between atoms: N1_5  and  C3_7 
REMARK    4  A    between atoms: C4_8  and  C5_9 
REMARK    5  A    between atoms: C5_9  and  O2_10 
REMARK    6  A    between atoms: C5_9  and  C6_12 
REMARK    7  A    between atoms: C6_12  and  O3_13 
REMARK    8  A    between atoms: C6_12  and  C7_15 
REMARK    9  A    between atoms: C8_19  and  C9_20 
REMARK   10  A    between atoms: C9_20  and  C10_22 
REMARK   11  A    between atoms: C10_22  and  O8_23 
REMARK   12  A    between atoms: C10_22  and  N2_25 
REMARK   13  A    between atoms: N2_25  and  C11_27 
REMARK   14  A    between atoms: C11_27  and  C12_28 
REMARK   15  A    between atoms: C11_27  and  C19_42 
REMARK   16  A    between atoms: C13_31  and  N4_32 
REMARK   17  A    between atoms: C18_39  and  O10_40 
REMARK   18  A    between atoms: C19_42  and  O11_43 
REMARK   19  A    between atoms: C19_42  and  O12_45 
ROOT
HETATM    1  C9  UNL     1      -1.010   0.435   0.930  1.00  0.00     0.273 C 
HETATM    2  O7  UNL     1      -0.904   1.263   1.835  1.00  0.00    -0.279 OA
ENDROOT
BRANCH   1   3
HETATM    3  C8  UNL     1      -2.404   0.148   0.468  1.00  0.00     0.206 A 
HETATM    4  O6  UNL     1      -3.475   0.668   0.957  1.00  0.00    -0.285 OA
HETATM    5  C4  UNL     1      -4.697   0.397   0.557  1.00  0.00     0.142 A 
HETATM    6  C3  UNL     1      -4.859  -0.503  -0.478  1.00  0.00     0.136 A 
HETATM    7  C20 UNL     1      -3.725  -1.092  -1.037  1.00  0.00     0.277 A 
HETATM    8  N5  UNL     1      -2.558  -0.734  -0.534  1.00  0.00    -0.298 N 
HETATM    9  O13 UNL     1      -3.843  -1.930  -2.001  1.00  0.00    -0.266 OA
ATOM     10  H5  UNL     1      -1.718  -1.154  -0.932  1.00  0.00     0.171 HD
BRANCH   5  11
HETATM   11  C5  UNL     1      -5.893   0.970   1.166  1.00  0.00     0.119 C 
BRANCH  11  12
HETATM   12  O2  UNL     1      -6.913   0.069   1.305  1.00  0.00    -0.359 OA
ATOM     13  H2  UNL     1      -7.692   0.442   1.701  1.00  0.00     0.217 HD
ENDBRANCH  11  12
BRANCH  11  14
HETATM   14  C6  UNL     1      -6.243   2.401   1.100  1.00  0.00     0.278 C 
BRANCH  14  15
HETATM   15  O3  UNL     1      -7.209   2.542  -0.017  1.00  0.00    -0.378 OA
ATOM     16  H3  UNL     1      -7.434   3.464  -0.060  1.00  0.00     0.211 HD
ENDBRANCH  14  15
BRANCH  14  17
HETATM   17  C7  UNL     1      -5.196   3.397   0.864  1.00  0.00     0.209 C 
HETATM   18  O4  UNL     1      -5.259   4.133  -0.221  1.00  0.00    -0.646 OA
HETATM   19  O5  UNL     1      -4.132   3.658   1.689  1.00  0.00    -0.646 OA
ENDBRANCH  14  17
ENDBRANCH  11  14
ENDBRANCH   5  11
BRANCH   6  20
HETATM   20  N1  UNL     1      -6.058  -0.861  -1.112  1.00  0.00    -0.357 N 
ATOM     21  H1  UNL     1      -6.454  -0.166  -1.745  1.00  0.00     0.162 HD
BRANCH  20  22
HETATM   22  C2  UNL     1      -6.791  -2.076  -0.980  1.00  0.00     0.214 C 
HETATM   23  C1  UNL     1      -7.454  -2.397  -2.365  1.00  0.00     0.063 C 
BRANCH  22  24
HETATM   24  O1  UNL     1      -6.043  -3.188  -0.655  1.00  0.00    -0.377 OA
ATOM     25  H1  UNL     1      -5.641  -2.994   0.184  1.00  0.00     0.212 HD
ENDBRANCH  22  24
ENDBRANCH  20  22
ENDBRANCH   6  20
ENDBRANCH   1   3
BRANCH   1  26
HETATM   26  C10 UNL     1       0.030  -0.280   0.275  1.00  0.00     0.192 C 
BRANCH  26  27
HETATM   27  O8  UNL     1      -0.265  -1.219  -0.576  1.00  0.00    -0.343 OA
ATOM     28  H8  UNL     1       0.430  -1.697  -1.014  1.00  0.00     0.219 HD
ENDBRANCH  26  27
BRANCH  26  29
HETATM   29  N2  UNL     1       1.446  -0.108   0.408  1.00  0.00    -0.353 N 
ATOM     30  H2  UNL     1       1.837   0.596   1.034  1.00  0.00     0.162 HD
BRANCH  29  31
HETATM   31  C11 UNL     1       2.317  -0.987  -0.393  1.00  0.00     0.192 C 
BRANCH  31  32
HETATM   32  C12 UNL     1       3.658  -1.099   0.257  1.00  0.00     0.080 A 
HETATM   33  N3  UNL     1       4.691  -0.425  -0.146  1.00  0.00    -0.335 N 
HETATM   34  C13 UNL     1       5.847  -0.530   0.495  1.00  0.00     0.149 A 
ATOM     35  H3  UNL     1       4.614   0.187  -0.958  1.00  0.00     0.168 HD
HETATM   36  S1  UNL     1       5.475  -1.642   1.738  1.00  0.00    -0.027 SA
HETATM   37  C18 UNL     1       3.836  -1.909   1.359  1.00  0.00     0.135 A 
BRANCH  34  38
HETATM   38  N4  UNL     1       7.072   0.165   0.191  1.00  0.00    -0.357 N 
HETATM   39  C14 UNL     1       8.249  -0.465  -0.291  1.00  0.00     0.151 C 
HETATM   40  C15 UNL     1       9.142   0.654  -0.857  1.00  0.00     0.187 C 
HETATM   41  O9  UNL     1       9.473   1.531   0.175  1.00  0.00    -0.388 OA
HETATM   42  C16 UNL     1       8.408   2.060   0.851  1.00  0.00     0.187 C 
HETATM   43  C17 UNL     1       7.065   1.613   0.384  1.00  0.00     0.151 C 
ENDBRANCH  34  38
BRANCH  37  44
HETATM   44  O10 UNL     1       2.867  -2.728   1.974  1.00  0.00    -0.352 OA
ATOM     45  H10 UNL     1       2.990  -3.286   2.733  1.00  0.00     0.218 HD
ENDBRANCH  37  44
ENDBRANCH  31  32
BRANCH  31  46
HETATM   46  C19 UNL     1       2.458  -0.406  -1.793  1.00  0.00     0.282 C 
BRANCH  46  47
HETATM   47  O11 UNL     1       3.218  -1.366  -2.492  1.00  0.00    -0.369 OA
ATOM     48  H11 UNL     1       3.306  -1.003  -3.366  1.00  0.00     0.212 HD
ENDBRANCH  46  47
BRANCH  46  49
HETATM   49  O12 UNL     1       3.198   0.732  -1.782  1.00  0.00    -0.369 OA
ATOM     50  H12 UNL     1       3.286   1.095  -2.656  1.00  0.00     0.212 HD
ENDBRANCH  46  49
ENDBRANCH  31  46
ENDBRANCH  29  31
ENDBRANCH  26  29
ENDBRANCH   1  26
TORSDOF 19
