REMARK  6 active torsions:
REMARK  status: ('A' for Active; 'I' for Inactive)
REMARK       I    between atoms: C1_2  and  N1_3 
REMARK    1  A    between atoms: C1_2  and  C9_15 
REMARK    2  A    between atoms: N1_3  and  C2_5 
REMARK    3  A    between atoms: C2_5  and  C3_6 
REMARK    4  A    between atoms: C3_6  and  S1_7 
REMARK    5  A    between atoms: S1_7  and  C4_8 
REMARK    6  A    between atoms: C4_8  and  C5_9 
ROOT
HETATM    1  O1  UNL     1       0.546   1.037  -2.068  1.00  0.00    -0.273 OA
HETATM    2  C1  UNL     1       0.101   0.563  -0.951  1.00  0.00     0.233 C 
HETATM    3  N1  UNL     1       0.538  -0.731  -0.645  1.00  0.00    -0.360 N 
ATOM      4  H1  UNL     1       0.226  -1.161   0.226  1.00  0.00     0.162 HD
ENDROOT
BRANCH   2   5
HETATM    5  C9  UNL     1      -0.777   1.437  -0.192  1.00  0.00     0.197 C 
HETATM    6  C10 UNL     1      -0.558   1.487   1.283  1.00  0.00     0.234 C 
HETATM    7  O3  UNL     1       0.336   1.344   2.143  1.00  0.00    -0.273 OA
HETATM    8  N2  UNL     1      -1.938   1.805   1.390  1.00  0.00    -0.350 N 
HETATM    9  C11 UNL     1      -2.154   1.014   0.180  1.00  0.00     0.053 C 
ATOM     10  H2  UNL     1      -2.521   2.346   2.029  1.00  0.00     0.163 HD
HETATM   11  C12 UNL     1      -3.258   1.570  -0.703  1.00  0.00     0.032 C 
HETATM   12  C16 UNL     1      -2.345  -0.435   0.399  1.00  0.00     0.032 C 
HETATM   13  C13 UNL     1      -4.499   1.650   0.162  1.00  0.00     0.002 C 
HETATM   14  C14 UNL     1      -4.596   0.467   1.095  1.00  0.00     0.000 C 
HETATM   15  C15 UNL     1      -3.829  -0.725   0.569  1.00  0.00     0.002 C 
ENDBRANCH   2   5
BRANCH   3  16
HETATM   16  C2  UNL     1       1.421  -1.488  -1.521  1.00  0.00     0.132 C 
BRANCH  16  17
HETATM   17  C3  UNL     1       1.732  -2.845  -0.953  1.00  0.00     0.094 C 
BRANCH  17  18
HETATM   18  S1  UNL     1       2.491  -2.802   0.635  1.00  0.00    -0.161 SA
BRANCH  18  19
HETATM   19  C4  UNL     1       4.138  -2.248   0.831  1.00  0.00     0.139 C 
BRANCH  19  20
HETATM   20  C5  UNL     1       4.400  -0.823   0.602  1.00  0.00     0.063 A 
HETATM   21  C6  UNL     1       4.888  -0.156  -0.488  1.00  0.00     0.054 A 
HETATM   22  C7  UNL     1       4.946   1.189  -0.197  1.00  0.00     0.035 A 
HETATM   23 BR1  UNL     1       5.539   2.612  -1.314  1.00  0.00    -0.049 Br
HETATM   24  C8  UNL     1       4.476   1.288   1.098  1.00  0.00     0.161 A 
HETATM   25  O2  UNL     1       4.170   0.093   1.522  1.00  0.00    -0.325 OA
ENDBRANCH  19  20
ENDBRANCH  18  19
ENDBRANCH  17  18
ENDBRANCH  16  17
ENDBRANCH   3  16
TORSDOF 6
