REMARK  8 active torsions:
REMARK  status: ('A' for Active; 'I' for Inactive)
REMARK    1  A    between atoms: C2_2  and  C3_3 
REMARK       I    between atoms: C3_3  and  N1_5 
REMARK    2  A    between atoms: N1_5  and  C4_7 
REMARK    3  A    between atoms: C4_7  and  C5_8 
REMARK    4  A    between atoms: N2_11  and  C8_12 
REMARK    5  A    between atoms: C9_15  and  N4_16 
REMARK    6  A    between atoms: N4_16  and  C10_18 
REMARK    7  A    between atoms: C10_18  and  C11_19 
REMARK    8  A    between atoms: C15_23  and  C16_24 
ROOT
HETATM    1  C8  UNL     1      -0.815  -0.408   0.093  1.00  0.00     0.682 A 
HETATM    2  N3  UNL     1      -1.617   0.451   0.736  1.00  0.00    -0.177 N 
ATOM      3  H3  UNL     1      -1.189   1.105   1.391  1.00  0.00     0.185 HD
HETATM    4  C9  UNL     1      -2.969   0.507   0.571  1.00  0.00     0.118 A 
HETATM    5  C14 UNL     1      -3.489  -0.399  -0.328  1.00  0.00     0.076 A 
HETATM    6  C15 UNL     1      -2.692  -1.308  -1.020  1.00  0.00     0.053 A 
HETATM    7  N5  UNL     1      -1.374  -1.277  -0.779  1.00  0.00    -0.193 N 
ATOM      8  H5  UNL     1      -0.770  -1.934  -1.272  1.00  0.00     0.184 HD
ENDROOT
BRANCH   1   9
HETATM    9  N2  UNL     1       0.580  -0.422   0.343  1.00  0.00    -0.218 N 
HETATM   10  C7  UNL     1       0.985  -0.788   1.696  1.00  0.00     0.141 C 
HETATM   11  C6  UNL     1       2.328  -1.433   1.705  1.00  0.00     0.027 C 
HETATM   12  C5  UNL     1       3.384  -0.587   1.014  1.00  0.00     0.006 C 
HETATM   13  C20 UNL     1       2.793   0.457   0.102  1.00  0.00     0.027 C 
HETATM   14  C19 UNL     1       1.607  -0.132  -0.616  1.00  0.00     0.141 C 
BRANCH  12  15
HETATM   15  C4  UNL     1       4.258   0.114   2.016  1.00  0.00     0.127 C 
BRANCH  15  16
HETATM   16  N1  UNL     1       5.273   0.889   1.367  1.00  0.00    -0.361 N 
HETATM   17  C3  UNL     1       6.294   0.320   0.548  1.00  0.00     0.217 C 
HETATM   18  O1  UNL     1       6.336  -0.934   0.371  1.00  0.00    -0.274 OA
ATOM     19  H1  UNL     1       5.266   1.901   1.497  1.00  0.00     0.162 HD
BRANCH  17  20
HETATM   20  C2  UNL     1       7.336   1.135  -0.122  1.00  0.00     0.098 C 
HETATM   21  C1  UNL     1       8.265   0.196  -0.893  1.00  0.00     0.014 C 
ENDBRANCH  17  20
ENDBRANCH  15  16
ENDBRANCH  12  15
ENDBRANCH   1   9
BRANCH   4  22
HETATM   22  N4  UNL     1      -3.668   1.363   1.233  1.00  0.00    -0.375 N 
ATOM     23  H4  UNL     1      -3.194   1.994   1.879  1.00  0.00     0.161 HD
BRANCH  22  24
HETATM   24  C10 UNL     1      -5.073   1.455   1.092  1.00  0.00     0.126 C 
BRANCH  24  25
HETATM   25  C11 UNL     1      -5.644   2.792   1.544  1.00  0.00     0.003 A 
HETATM   26  C12 UNL     1      -7.171   2.878   1.422  1.00  0.00     0.007 A 
HETATM   27  C13 UNL     1      -6.281   3.672   0.518  1.00  0.00     0.007 A 
ENDBRANCH  24  25
ENDBRANCH  22  24
ENDBRANCH   4  22
BRANCH   6  28
HETATM   28  C16 UNL     1      -3.337  -2.234  -1.979  1.00  0.00     0.072 C 
HETATM   29  C17 UNL     1      -3.590  -1.430  -3.250  1.00  0.00     0.039 C 
HETATM   30  C18 UNL     1      -2.571  -3.484  -2.256  1.00  0.00     0.039 C 
HETATM   31 CL1  UNL     1      -4.923  -2.687  -1.320  1.00  0.00    -0.113 Cl
ENDBRANCH   6  28
TORSDOF 8
