REMARK  7 active torsions:
REMARK  status: ('A' for Active; 'I' for Inactive)
REMARK    1  A    between atoms: O1_1  and  C1_3 
REMARK    2  A    between atoms: C1_3  and  C2_4 
REMARK    3  A    between atoms: N1_13  and  C10_14 
REMARK    4  A    between atoms: C10_14  and  C11_15 
REMARK    5  A    between atoms: C14_18  and  N2_19 
REMARK    6  A    between atoms: N2_19  and  C15_22 
REMARK    7  A    between atoms: C15_22  and  C16_23 
ROOT
HETATM    1  C11 UNL     1      -0.031   0.072  -0.343  1.00  0.00     0.003 C 
HETATM    2  C12 UNL     1       0.275  -0.215   1.068  1.00  0.00     0.008 C 
HETATM    3  C13 UNL     1       1.590  -0.915   1.298  1.00  0.00     0.033 C 
HETATM    4  C14 UNL     1       2.608  -0.225   0.418  1.00  0.00     0.186 C 
HETATM    5  C21 UNL     1       2.278  -0.678  -0.995  1.00  0.00     0.033 C 
HETATM    6  C22 UNL     1       1.020   0.081  -1.359  1.00  0.00     0.008 C 
ENDROOT
BRANCH   1   7
HETATM    7  C10 UNL     1      -1.212  -0.779  -0.817  1.00  0.00     0.121 C 
BRANCH   7   8
HETATM    8  N1  UNL     1      -2.391  -0.465  -0.083  1.00  0.00    -0.412 N 
HETATM    9  C9  UNL     1      -2.916   0.846  -0.335  1.00  0.00     0.120 C 
HETATM   10  C8  UNL     1      -4.386   0.763  -0.643  1.00  0.00     0.062 C 
HETATM   11  C1  UNL     1      -5.112   0.254   0.575  1.00  0.00     0.088 C 
HETATM   12  C24 UNL     1      -4.414  -0.920   1.142  1.00  0.00     0.062 C 
HETATM   13  C23 UNL     1      -3.346  -1.460   0.163  1.00  0.00     0.120 C 
BRANCH  11  14
HETATM   14  O1  UNL     1      -5.141   1.310   1.514  1.00  0.00    -0.385 OA
ATOM     15  H1  UNL     1      -4.238   1.465   1.765  1.00  0.00     0.211 HD
ENDBRANCH  11  14
BRANCH  11  16
HETATM   16  C2  UNL     1      -6.520   0.012   0.184  1.00  0.00    -0.024 A 
HETATM   17  C3  UNL     1      -7.294   1.134  -0.063  1.00  0.00     0.013 A 
HETATM   18  C4  UNL     1      -8.606   1.040  -0.464  1.00  0.00     0.043 A 
HETATM   19  C5  UNL     1      -9.171  -0.190  -0.623  1.00  0.00     0.116 A 
HETATM   20  F1  UNL     1     -10.448  -0.385  -1.009  1.00  0.00    -0.206 F 
HETATM   21  C6  UNL     1      -8.414  -1.337  -0.381  1.00  0.00     0.043 A 
HETATM   22  C7  UNL     1      -7.099  -1.199   0.022  1.00  0.00     0.013 A 
ENDBRANCH  11  16
ENDBRANCH   7   8
ENDBRANCH   1   7
BRANCH   4  23
HETATM   23  N2  UNL     1       3.964  -0.401   0.804  1.00  0.00    -0.070 N 
ATOM     24  H22 UNL     1       4.099  -0.368   1.814  1.00  0.00     0.277 HD
ATOM     25  H21 UNL     1       4.301  -1.353   0.657  1.00  0.00     0.277 HD
BRANCH  23  26
HETATM   26  C15 UNL     1       4.747   0.596   0.092  1.00  0.00     0.237 C 
BRANCH  26  27
HETATM   27  C16 UNL     1       6.192   0.612   0.451  1.00  0.00     0.015 C 
HETATM   28  C17 UNL     1       6.840   1.718  -0.394  1.00  0.00     0.032 C 
HETATM   29  C18 UNL     1       8.347   1.642  -0.290  1.00  0.00     0.168 C 
HETATM   30  O2  UNL     1       8.733   0.411  -0.818  1.00  0.00    -0.391 OA
HETATM   31  C19 UNL     1       8.371  -0.565   0.088  1.00  0.00     0.168 C 
HETATM   32  C20 UNL     1       6.877  -0.702   0.274  1.00  0.00     0.032 C 
ENDBRANCH  26  27
ENDBRANCH  23  26
ENDBRANCH   4  23
TORSDOF 7
