REMARK  5 active torsions:
REMARK  status: ('A' for Active; 'I' for Inactive)
REMARK    1  A    between atoms: C9_15  and  C10_16 
REMARK    2  A    between atoms: N3_17  and  O3_18 
REMARK    3  A    between atoms: N3_17  and  C11_20 
REMARK    4  A    between atoms: C11_20  and  C12_21 
REMARK    5  A    between atoms: C12_21  and  N4_22 
ROOT
HETATM    1  C1  UNL     1      -1.503   1.603  -2.388  1.00  0.00     0.049 C 
HETATM    2  C2  UNL     1      -2.119   0.844  -1.275  1.00  0.00    -0.048 A 
HETATM    3  C3  UNL     1      -3.480   0.587  -1.242  1.00  0.00     0.039 A 
HETATM    4  C4  UNL     1      -4.025  -0.121  -0.194  1.00  0.00     0.062 A 
HETATM    5  N1  UNL     1      -5.344  -0.381  -0.143  1.00  0.00    -0.317 N 
ATOM      6  H1  UNL     1      -5.953  -0.051  -0.891  1.00  0.00     0.169 HD
HETATM    7  C5  UNL     1      -5.870  -1.077   0.893  1.00  0.00     0.314 A 
HETATM    8  O1  UNL     1      -7.104  -1.318   0.937  1.00  0.00    -0.262 OA
HETATM    9  C6  UNL     1      -5.079  -1.545   1.930  1.00  0.00     0.314 A 
HETATM   10  O2  UNL     1      -5.547  -2.194   2.902  1.00  0.00    -0.262 OA
HETATM   11  N2  UNL     1      -3.764  -1.278   1.866  1.00  0.00    -0.317 N 
ATOM     12  H2  UNL     1      -3.151  -1.606   2.612  1.00  0.00     0.169 HD
HETATM   13  C7  UNL     1      -3.237  -0.583   0.832  1.00  0.00     0.063 A 
HETATM   14  C8  UNL     1      -1.862  -0.311   0.779  1.00  0.00     0.045 A 
HETATM   15  C9  UNL     1      -1.280   0.394  -0.253  1.00  0.00    -0.010 A 
ENDROOT
BRANCH  15  16
HETATM   16  C10 UNL     1       0.122   0.678  -0.318  1.00  0.00     0.128 C 
HETATM   17  N3  UNL     1       1.068   0.392   0.455  1.00  0.00    -0.270 N 
BRANCH  17  18
HETATM   18  O3  UNL     1       0.952  -0.305   1.613  1.00  0.00    -0.288 OA
ATOM     19  H3  UNL     1       1.668  -0.522   2.198  1.00  0.00     0.244 HD
ENDBRANCH  17  18
BRANCH  17  20
HETATM   20  C11 UNL     1       2.434   0.833   0.115  1.00  0.00     0.185 C 
BRANCH  20  21
HETATM   21  C12 UNL     1       3.348  -0.372  -0.012  1.00  0.00     0.293 C 
BRANCH  21  22
HETATM   22  N4  UNL     1       4.681   0.029  -0.340  1.00  0.00     0.081 N 
HETATM   23  C13 UNL     1       5.314   0.746   0.766  1.00  0.00     0.309 C 
HETATM   24  C14 UNL     1       5.464  -1.195  -0.514  1.00  0.00     0.309 C 
ENDBRANCH  21  22
ENDBRANCH  20  21
ENDBRANCH  17  20
ENDBRANCH  15  16
TORSDOF 5
