REMARK  6 active torsions:
REMARK  status: ('A' for Active; 'I' for Inactive)
REMARK    1  A    between atoms: C2_4  and  N2_5 
REMARK    2  A    between atoms: N2_5  and  C3_7 
REMARK    3  A    between atoms: N4_13  and  C7_15 
REMARK    4  A    between atoms: C7_15  and  C8_16 
REMARK    5  A    between atoms: C8_16  and  C9_17 
REMARK    6  A    between atoms: C9_17  and  N5_18 
ROOT
HETATM    1  C3  UNL     1      -2.374   1.442   0.576  1.00  0.00     0.684 A 
HETATM    2  N3  UNL     1      -3.244   0.447   0.353  1.00  0.00    -0.195 N 
ATOM      3  H3  UNL     1      -4.246   0.620   0.439  1.00  0.00     0.184 HD
HETATM    4  C4  UNL     1      -2.800  -0.784   0.015  1.00  0.00     0.036 A 
HETATM    5  C5  UNL     1      -1.428  -1.010  -0.102  1.00  0.00     0.009 A 
HETATM    6  C6  UNL     1      -0.572   0.020   0.131  1.00  0.00     0.125 A 
HETATM    7  N4  UNL     1       0.660  -0.061   0.081  1.00  0.00    -0.375 N 
ATOM      8  H4  UNL     1       1.053   0.855   0.297  1.00  0.00     0.161 HD
HETATM    9  N6  UNL     1      -1.063   1.272   0.477  1.00  0.00    -0.176 N 
ATOM     10  H6  UNL     1      -0.425   2.048   0.652  1.00  0.00     0.186 HD
HETATM   11  C12 UNL     1      -1.064  -2.379  -0.485  1.00  0.00     0.044 C 
HETATM   12  C13 UNL     1      -2.071  -2.747  -1.610  1.00  0.00     0.005 C 
HETATM   13  C14 UNL     1      -3.378  -3.037  -0.925  1.00  0.00     0.006 C 
HETATM   14  C15 UNL     1      -3.830  -1.827  -0.194  1.00  0.00     0.058 C 
ENDROOT
BRANCH   7  15
HETATM   15  C7  UNL     1       1.685  -0.923  -0.156  1.00  0.00     0.123 C 
BRANCH  15  16
HETATM   16  C8  UNL     1       3.014  -0.175   0.176  1.00  0.00     0.039 C 
BRANCH  16  17
HETATM   17  C9  UNL     1       4.184  -1.082  -0.061  1.00  0.00     0.117 C 
BRANCH  17  18
HETATM   18  N5  UNL     1       5.392  -0.381   0.239  1.00  0.00    -0.421 N 
HETATM   19  C10 UNL     1       5.701   0.685  -0.664  1.00  0.00     0.142 C 
HETATM   20  C11 UNL     1       5.632  -0.090   1.608  1.00  0.00     0.142 C 
ENDBRANCH  17  18
ENDBRANCH  16  17
ENDBRANCH  15  16
ENDBRANCH   7  15
BRANCH   1  21
HETATM   21  N2  UNL     1      -2.797   2.622   0.901  1.00  0.00    -0.188 N 
ATOM     22  H2  UNL     1      -2.110   3.358   1.063  1.00  0.00     0.185 HD
BRANCH  21  23
HETATM   23  C2  UNL     1      -4.161   2.933   1.040  1.00  0.00     0.193 C 
HETATM   24  N1  UNL     1      -4.627   4.041   0.591  1.00  0.00    -0.390 N 
HETATM   25  C1  UNL     1      -3.725   4.963  -0.060  1.00  0.00     0.147 C 
ATOM     26  H1  UNL     1      -5.617   4.267   0.692  1.00  0.00     0.159 HD
ENDBRANCH  21  23
ENDBRANCH   1  21
TORSDOF 6
