REMARK  5 active torsions:
REMARK  status: ('A' for Active; 'I' for Inactive)
REMARK    1  A    between atoms: C5_7  and  N2_8 
REMARK    2  A    between atoms: N2_8  and  C6_10 
REMARK    3  A    between atoms: C6_10  and  C7_11 
REMARK    4  A    between atoms: C7_11  and  C8_12 
REMARK    5  A    between atoms: C8_12  and  N3_13 
ROOT
HETATM    1  C1  UNL     1       6.098   1.085   1.007  1.00  0.00     0.050 C 
HETATM    2  C2  UNL     1       5.048   0.250   0.395  1.00  0.00    -0.038 A 
HETATM    3  C3  UNL     1       3.743   0.689   0.489  1.00  0.00     0.041 A 
HETATM    4  C4  UNL     1       2.774  -0.121  -0.098  1.00  0.00     0.082 A 
HETATM    5  N1  UNL     1       1.465   0.208  -0.068  1.00  0.00    -0.189 N 
ATOM      6  H1  UNL     1       1.192   1.073   0.399  1.00  0.00     0.184 HD
HETATM    7  C5  UNL     1       0.503  -0.551  -0.625  1.00  0.00     0.681 A 
HETATM    8  N4  UNL     1       0.805  -1.702  -1.254  1.00  0.00    -0.154 N 
ATOM      9  H4  UNL     1       0.080  -2.281  -1.678  1.00  0.00     0.187 HD
HETATM   10  C12 UNL     1       2.109  -2.061  -1.302  1.00  0.00     0.288 A 
HETATM   11  O1  UNL     1       2.388  -3.156  -1.900  1.00  0.00    -0.265 OA
HETATM   12  C13 UNL     1       3.109  -1.297  -0.737  1.00  0.00     0.129 A 
HETATM   13  N5  UNL     1       4.416  -1.685  -0.802  1.00  0.00    -0.353 N 
ATOM     14  H5  UNL     1       4.663  -2.554  -1.275  1.00  0.00     0.166 HD
HETATM   15  C14 UNL     1       5.386  -0.925  -0.243  1.00  0.00     0.012 A 
HETATM   16  C15 UNL     1       6.817  -1.300  -0.285  1.00  0.00     0.068 C 
ENDROOT
BRANCH   7  17
HETATM   17  N2  UNL     1      -0.740  -0.208  -0.579  1.00  0.00    -0.226 N 
ATOM     18  H2  UNL     1      -1.448  -0.803  -1.010  1.00  0.00     0.177 HD
BRANCH  17  19
HETATM   19  C6  UNL     1      -1.133   1.020   0.083  1.00  0.00     0.139 C 
BRANCH  19  20
HETATM   20  C7  UNL     1      -2.614   1.273  -0.230  1.00  0.00     0.048 C 
BRANCH  20  21
HETATM   21  C8  UNL     1      -3.366   0.076   0.311  1.00  0.00     0.237 C 
BRANCH  21  22
HETATM   22  N3  UNL     1      -4.794   0.190   0.077  1.00  0.00    -0.079 N 
HETATM   23  C9  UNL     1      -5.403  -1.112   0.272  1.00  0.00     0.271 C 
HETATM   24  C10 UNL     1      -5.017   0.540  -1.331  1.00  0.00     0.271 C 
HETATM   25  C11 UNL     1      -5.339   1.191   0.953  1.00  0.00     0.271 C 
ENDBRANCH  21  22
ENDBRANCH  20  21
ENDBRANCH  19  20
ENDBRANCH  17  19
ENDBRANCH   7  17
TORSDOF 5
