REMARK  6 active torsions:
REMARK  status: ('A' for Active; 'I' for Inactive)
REMARK    1  A    between atoms: C2_2  and  C3_3 
REMARK    2  A    between atoms: C6_10  and  C7_11 
REMARK    3  A    between atoms: C7_11  and  N3_12 
REMARK    4  A    between atoms: N3_12  and  C8_14 
REMARK    5  A    between atoms: C8_14  and  N4_16 
REMARK    6  A    between atoms: N4_16  and  S2_18 
ROOT
HETATM    1  C7  UNL     1      -0.392  -0.980   1.259  1.00  0.00     0.181 C 
ENDROOT
BRANCH   1   2
HETATM    2  C6  UNL     1      -1.187   0.094   0.589  1.00  0.00     0.051 A 
HETATM    3  C3  UNL     1      -2.562   0.254   0.694  1.00  0.00     0.034 A 
HETATM    4  N1  UNL     1      -2.898   1.336  -0.031  1.00  0.00    -0.348 N 
HETATM    5  C4  UNL     1      -1.799   1.867  -0.589  1.00  0.00     0.077 A 
ATOM      6  H1  UNL     1      -3.845   1.698  -0.140  1.00  0.00     0.167 HD
HETATM    7  C5  UNL     1      -1.680   3.070  -1.474  1.00  0.00     0.089 C 
HETATM    8  N2  UNL     1      -0.776   1.101  -0.201  1.00  0.00    -0.347 N 
ATOM      9  H2  UNL     1       0.195   1.260  -0.470  1.00  0.00     0.167 HD
BRANCH   3  10
HETATM   10  C2  UNL     1      -3.424  -0.663   1.487  1.00  0.00     0.055 C 
HETATM   11  C1  UNL     1      -3.668  -1.963   0.795  1.00  0.00     0.011 C 
ENDBRANCH   3  10
ENDBRANCH   1   2
BRANCH   1  12
HETATM   12  N3  UNL     1       1.013  -0.795   0.869  1.00  0.00    -0.361 N 
ATOM     13  H3  UNL     1       1.704  -0.486   1.553  1.00  0.00     0.162 HD
BRANCH  12  14
HETATM   14  C8  UNL     1       1.390  -1.050  -0.457  1.00  0.00     0.183 C 
HETATM   15  S1  UNL     1       0.306  -1.587  -1.570  1.00  0.00    -0.040 SA
BRANCH  14  16
HETATM   16  N4  UNL     1       2.728  -0.872  -0.874  1.00  0.00    -0.257 N 
HETATM   17  C9  UNL     1       3.105  -1.147  -2.269  1.00  0.00     0.172 C 
BRANCH  16  18
HETATM   18  S2  UNL     1       3.900  -0.325   0.258  1.00  0.00     0.230 S 
HETATM   19  C10 UNL     1       3.534   1.271   0.903  1.00  0.00     0.186 C 
HETATM   20  O1  UNL     1       3.980  -1.295   1.406  1.00  0.00    -0.206 OA
HETATM   21  O2  UNL     1       5.276  -0.276  -0.368  1.00  0.00    -0.206 OA
ENDBRANCH  16  18
ENDBRANCH  14  16
ENDBRANCH  12  14
ENDBRANCH   1  12
TORSDOF 6
