REMARK  4 active torsions:
REMARK  status: ('A' for Active; 'I' for Inactive)
REMARK    1  A    between atoms: C2_2  and  C3_3 
REMARK    2  A    between atoms: C3_3  and  C4_4 
REMARK    3  A    between atoms: C4_4  and  C5_5 
REMARK    4  A    between atoms: C5_5  and  N1_6 
ROOT
HETATM    1  C3  UNL     1      -2.116   0.209  -0.123  1.00  0.00     0.123 C 
HETATM    2  C13 UNL     1      -2.463   1.457   0.565  1.00  0.00     0.243 C 
HETATM    3  O1  UNL     1      -1.639   2.115   1.303  1.00  0.00    -0.272 OA
HETATM    4  N2  UNL     1      -3.788   1.976   0.407  1.00  0.00    -0.278 N 
ATOM      5  H2  UNL     1      -4.128   2.627   1.114  1.00  0.00     0.173 HD
HETATM    6  C14 UNL     1      -4.659   1.651  -0.659  1.00  0.00     0.329 C 
HETATM    7  O2  UNL     1      -5.806   2.155  -0.719  1.00  0.00    -0.247 OA
HETATM    8  N3  UNL     1      -4.135   0.732  -1.627  1.00  0.00    -0.278 N 
ATOM      9  H3  UNL     1      -4.700   0.447  -2.427  1.00  0.00     0.173 HD
HETATM   10  C15 UNL     1      -2.823   0.224  -1.459  1.00  0.00     0.243 C 
HETATM   11  O3  UNL     1      -2.229  -0.231  -2.466  1.00  0.00    -0.272 OA
ENDROOT
BRANCH   1  12
HETATM   12  C2  UNL     1      -2.480  -1.052   0.618  1.00  0.00     0.025 C 
HETATM   13  C1  UNL     1      -3.924  -1.145   1.029  1.00  0.00     0.007 C 
ENDBRANCH   1  12
BRANCH   1  14
HETATM   14  C4  UNL     1      -0.633   0.099  -0.445  1.00  0.00     0.049 C 
BRANCH  14  15
HETATM   15  C5  UNL     1       0.259  -0.062   0.722  1.00  0.00     0.129 C 
BRANCH  15  16
HETATM   16  N1  UNL     1       1.677  -0.144   0.312  1.00  0.00    -0.365 N 
HETATM   17  C6  UNL     1       2.441   0.954   0.206  1.00  0.00     0.097 A 
HETATM   18  C7  UNL     1       3.757   0.933  -0.170  1.00  0.00    -0.046 A 
HETATM   19  C8  UNL     1       4.573   2.192  -0.275  1.00  0.00     0.049 C 
HETATM   20  C9  UNL     1       4.343  -0.279  -0.459  1.00  0.00     0.016 A 
HETATM   21  C10 UNL     1       3.583  -1.426  -0.359  1.00  0.00    -0.046 A 
HETATM   22  C11 UNL     1       4.188  -2.756  -0.665  1.00  0.00     0.049 C 
HETATM   23  C12 UNL     1       2.258  -1.322   0.027  1.00  0.00     0.097 A 
ENDBRANCH  15  16
ENDBRANCH  14  15
ENDBRANCH   1  14
TORSDOF 4
