REMARK  12 active torsions:
REMARK  status: ('A' for Active; 'I' for Inactive)
REMARK    1  A    between atoms: C2_2  and  N1_3 
REMARK    2  A    between atoms: N1_3  and  C3_4 
REMARK    3  A    between atoms: C3_4  and  C4_5 
REMARK    4  A    between atoms: C4_5  and  C5_6 
REMARK    5  A    between atoms: C5_6  and  C6_7 
REMARK    6  A    between atoms: C6_7  and  C7_8 
REMARK    7  A    between atoms: C7_8  and  C8_9 
REMARK    8  A    between atoms: C12_16  and  C13_17 
REMARK    9  A    between atoms: C13_17  and  C14_18 
REMARK   10  A    between atoms: C14_18  and  C15_19 
REMARK       I    between atoms: C15_19  and  N3_21 
REMARK   11  A    between atoms: N3_21  and  C16_23 
REMARK   12  A    between atoms: C20_34  and  N7_35 
ROOT
HETATM    1  C8  UNL     1      -1.359  -0.750   1.063  1.00  0.00     0.084 C 
HETATM    2  C9  UNL     1      -0.263   0.211   1.318  1.00  0.00     0.034 C 
HETATM    3  C10 UNL     1       0.303   0.967   0.173  1.00  0.00     0.105 C 
HETATM    4  C11 UNL     1       1.705   1.330   0.529  1.00  0.00     0.223 C 
HETATM    5  O1  UNL     1       1.757   1.630   1.782  1.00  0.00    -0.273 OA
HETATM    6  N2  UNL     1       2.856   1.379  -0.270  1.00  0.00    -0.317 N 
ATOM      7  H2  UNL     1       3.173   2.342  -0.380  1.00  0.00     0.170 HD
HETATM    8  C12 UNL     1       3.689   0.518  -0.952  1.00  0.00     0.086 C 
HETATM    9  N6  UNL     1       3.336  -0.731  -1.516  1.00  0.00    -0.315 N 
ATOM     10  H6  UNL     1       4.070  -1.049  -2.149  1.00  0.00     0.170 HD
HETATM   11  C19 UNL     1       2.310  -1.654  -1.479  1.00  0.00     0.246 C 
HETATM   12  O3  UNL     1       1.617  -1.879  -2.550  1.00  0.00    -0.271 OA
HETATM   13  C20 UNL     1       1.807  -2.506  -0.363  1.00  0.00     0.190 C 
HETATM   14  C25 UNL     1       0.399  -2.980  -0.664  1.00  0.00     0.138 C 
HETATM   15  C26 UNL     1      -0.483  -3.094   0.496  1.00  0.00     0.220 C 
HETATM   16  O5  UNL     1      -0.910  -4.277   0.774  1.00  0.00    -0.274 OA
HETATM   17  N9  UNL     1      -0.933  -2.094   1.353  1.00  0.00    -0.356 N 
ATOM     18  H9  UNL     1      -0.966  -2.354   2.339  1.00  0.00     0.162 HD
ENDROOT
BRANCH   8  19
HETATM   19  C13 UNL     1       5.070   0.315  -0.354  1.00  0.00     0.086 C 
BRANCH  19  20
HETATM   20  C14 UNL     1       5.948   1.484  -0.228  1.00  0.00     0.111 C 
BRANCH  20  21
HETATM   21  C15 UNL     1       5.589   2.559   0.695  1.00  0.00     0.236 C 
HETATM   22  O2  UNL     1       4.947   2.442   1.765  1.00  0.00    -0.273 OA
HETATM   23  N3  UNL     1       6.016   3.894   0.357  1.00  0.00    -0.160 N 
ATOM     24  H3  UNL     1       5.374   4.495  -0.160  1.00  0.00     0.187 HD
BRANCH  23  25
HETATM   25  C16 UNL     1       7.160   4.357   0.676  1.00  0.00     0.684 A 
HETATM   26  N4  UNL     1       8.124   3.687   1.364  1.00  0.00    -0.200 N 
HETATM   27  C17 UNL     1       9.167   4.521   1.492  1.00  0.00     0.123 A 
ATOM     28  H4  UNL     1       8.065   2.731   1.716  1.00  0.00     0.183 HD
HETATM   29  C18 UNL     1       8.856   5.713   0.885  1.00  0.00     0.123 A 
HETATM   30  N5  UNL     1       7.612   5.581   0.391  1.00  0.00    -0.200 N 
ATOM     31  H5  UNL     1       7.097   6.299  -0.119  1.00  0.00     0.183 HD
ENDBRANCH  23  25
ENDBRANCH  20  21
ENDBRANCH  19  20
ENDBRANCH   8  19
BRANCH  13  32
HETATM   32  N7  UNL     1       2.613  -3.719  -0.225  1.00  0.00    -0.320 N 
HETATM   33  C21 UNL     1       2.749  -4.648  -1.354  1.00  0.00     0.130 C 
HETATM   34  C22 UNL     1       3.970  -5.523  -1.082  1.00  0.00     0.040 C 
HETATM   35  C23 UNL     1       3.720  -6.286   0.226  1.00  0.00     0.126 C 
HETATM   36  N8  UNL     1       3.687  -5.323   1.302  1.00  0.00    -0.343 N 
HETATM   37  C24 UNL     1       3.261  -3.977   1.011  1.00  0.00     0.319 C 
ATOM     38  H8  UNL     1       3.959  -5.590   2.248  1.00  0.00     0.164 HD
HETATM   39  O4  UNL     1       3.467  -3.046   1.852  1.00  0.00    -0.247 OA
ENDBRANCH  13  32
BRANCH   1  40
HETATM   40  C7  UNL     1      -2.091  -0.540  -0.211  1.00  0.00     0.025 C 
BRANCH  40  41
HETATM   41  C6  UNL     1      -3.199  -1.511  -0.457  1.00  0.00     0.002 C 
BRANCH  41  42
HETATM   42  C5  UNL     1      -4.269  -1.506   0.581  1.00  0.00     0.002 C 
BRANCH  42  43
HETATM   43  C4  UNL     1      -4.980  -0.206   0.768  1.00  0.00     0.028 C 
BRANCH  43  44
HETATM   44  C3  UNL     1      -5.665   0.245  -0.503  1.00  0.00     0.237 C 
BRANCH  44  45
HETATM   45  N1  UNL     1      -6.364   1.501  -0.336  1.00  0.00    -0.067 N 
HETATM   46  C27 UNL     1      -7.751   1.207  -0.058  1.00  0.00     0.237 C 
HETATM   47  C28 UNL     1      -8.547   1.540  -1.274  1.00  0.00     0.029 C 
HETATM   48  C29 UNL     1      -7.653   2.326  -2.171  1.00  0.00     0.029 C 
HETATM   49  C30 UNL     1      -6.296   2.233  -1.560  1.00  0.00     0.237 C 
BRANCH  45  50
HETATM   50  C2  UNL     1      -5.767   2.317   0.705  1.00  0.00     0.233 C 
HETATM   51  C1  UNL     1      -6.435   3.686   0.767  1.00  0.00     0.035 C 
ENDBRANCH  45  50
ENDBRANCH  44  45
ENDBRANCH  43  44
ENDBRANCH  42  43
ENDBRANCH  41  42
ENDBRANCH  40  41
ENDBRANCH   1  40
TORSDOF 12
