REMARK  15 active torsions:
REMARK  status: ('A' for Active; 'I' for Inactive)
REMARK    1  A    between atoms: N1_8  and  C8_9 
REMARK    2  A    between atoms: C8_9  and  C9_10 
REMARK       I    between atoms: C9_10  and  N2_12 
REMARK    3  A    between atoms: C13_16  and  C14_17 
REMARK    4  A    between atoms: C14_17  and  O2_18 
REMARK    5  A    between atoms: C14_17  and  N3_20 
REMARK    6  A    between atoms: N3_20  and  C16_22 
REMARK    7  A    between atoms: C16_22  and  O3_23 
REMARK    8  A    between atoms: C16_22  and  N4_25 
REMARK    9  A    between atoms: N4_25  and  C17_27 
REMARK   10  A    between atoms: C17_27  and  C18_28 
REMARK   11  A    between atoms: C17_27  and  C19_31 
REMARK   12  A    between atoms: C26_38  and  N6_39 
REMARK       I    between atoms: N6_39  and  C27_41 
REMARK   13  A    between atoms: C27_41  and  C28_43 
REMARK   14  A    between atoms: C28_43  and  C29_44 
REMARK   15  A    between atoms: C29_44  and  N7_45 
REMARK       I    between atoms: N7_45  and  C30_47 
ROOT
HETATM    1  C9  UNL     1       0.451   0.321  -0.698  1.00  0.00     0.267 C 
HETATM    2  O1  UNL     1       0.832  -0.788  -1.092  1.00  0.00    -0.267 OA
HETATM    3  N2  UNL     1      -0.717   0.870  -1.269  1.00  0.00    -0.335 N 
HETATM    4  C10 UNL     1      -1.347   2.186  -0.977  1.00  0.00     0.127 C 
HETATM    5  C11 UNL     1      -1.952   2.650  -2.262  1.00  0.00     0.022 C 
HETATM    6  C12 UNL     1      -1.670   1.551  -3.256  1.00  0.00     0.035 C 
HETATM    7  C13 UNL     1      -1.523   0.312  -2.311  1.00  0.00     0.162 C 
ENDROOT
BRANCH   1   8
HETATM    8  C8  UNL     1       1.140   1.079   0.315  1.00  0.00     0.276 C 
BRANCH   8   9
HETATM    9  N1  UNL     1       2.313   0.589   0.937  1.00  0.00    -0.036 N 
HETATM   10  C2  UNL     1       2.641   1.349   2.139  1.00  0.00     0.192 C 
HETATM   11  C1  UNL     1       1.847   0.993   3.341  1.00  0.00     0.041 C 
HETATM   12  C3  UNL     1       4.107   1.248   2.456  1.00  0.00     0.045 C 
HETATM   13  C4  UNL     1       4.571  -0.111   1.925  1.00  0.00    -0.018 C 
HETATM   14  C5  UNL     1       5.900  -0.490   2.486  1.00  0.00     0.017 C 
HETATM   15  C6  UNL     1       3.492  -1.153   2.149  1.00  0.00     0.039 C 
HETATM   16  C26 UNL     1       4.653   0.084   0.401  1.00  0.00     0.119 C 
HETATM   17  C7  UNL     1       2.371  -0.833   1.178  1.00  0.00     0.244 C 
HETATM   18  C25 UNL     1       3.429   0.853   0.006  1.00  0.00     0.269 C 
BRANCH  16  19
HETATM   19  N6  UNL     1       5.864   0.817   0.092  1.00  0.00    -0.354 N 
HETATM   20  C27 UNL     1       6.963   0.237  -0.599  1.00  0.00     0.219 C 
HETATM   21  O5  UNL     1       6.886  -0.955  -0.955  1.00  0.00    -0.274 OA
ATOM     22  H6  UNL     1       5.931   1.792   0.383  1.00  0.00     0.162 HD
BRANCH  20  23
HETATM   23  C28 UNL     1       8.175   1.008  -0.897  1.00  0.00     0.122 C 
BRANCH  23  24
HETATM   24  C29 UNL     1       9.212   0.147  -1.571  1.00  0.00     0.131 C 
BRANCH  24  25
HETATM   25  N7  UNL     1       9.581  -0.964  -0.701  1.00  0.00    -0.364 N 
HETATM   26  C30 UNL     1      10.547  -1.932  -1.063  1.00  0.00     0.181 C 
HETATM   27  N8  UNL     1      11.750  -1.593  -1.321  1.00  0.00    -0.374 N 
HETATM   28  N9  UNL     1      10.164  -3.291  -1.136  1.00  0.00    -0.064 NA
ATOM     29  H82 UNL     1      12.026  -0.613  -1.268  1.00  0.00     0.158 HD
ATOM     30  H81 UNL     1      12.447  -2.291  -1.582  1.00  0.00     0.158 HD
ATOM     31  H7  UNL     1       9.123  -1.046   0.207  1.00  0.00     0.162 HD
ENDBRANCH  24  25
ENDBRANCH  23  24
ENDBRANCH  20  23
ENDBRANCH  16  19
ENDBRANCH   8   9
ENDBRANCH   1   8
BRANCH   7  32
HETATM   32  C14 UNL     1      -2.863  -0.095  -1.904  1.00  0.00     0.144 C 
BRANCH  32  33
HETATM   33  O2  UNL     1      -3.771   0.115  -2.826  1.00  0.00    -0.348 OA
ATOM     34  H2  UNL     1      -4.644  -0.150  -2.561  1.00  0.00     0.219 HD
ENDBRANCH  32  33
BRANCH  32  35
HETATM   35  N3  UNL     1      -3.351  -0.662  -0.722  1.00  0.00    -0.300 N 
HETATM   36  C15 UNL     1      -2.438  -1.049   0.377  1.00  0.00     0.161 C 
BRANCH  35  37
HETATM   37  C16 UNL     1      -4.709  -0.893  -0.476  1.00  0.00     0.221 C 
BRANCH  37  38
HETATM   38  O3  UNL     1      -4.992  -1.438   0.676  1.00  0.00    -0.332 OA
ATOM     39  H3  UNL     1      -5.914  -1.595   0.843  1.00  0.00     0.220 HD
ENDBRANCH  37  38
BRANCH  37  40
HETATM   40  N4  UNL     1      -5.799  -0.630  -1.266  1.00  0.00    -0.343 N 
ATOM     41  H4  UNL     1      -5.658  -0.203  -2.181  1.00  0.00     0.164 HD
BRANCH  40  42
HETATM   42  C17 UNL     1      -7.197  -0.956  -0.816  1.00  0.00     0.178 C 
BRANCH  42  43
HETATM   43  C18 UNL     1      -7.691  -1.963  -1.765  1.00  0.00     0.254 C 
HETATM   44  N5  UNL     1      -8.984  -2.501  -1.601  1.00  0.00    -0.060 NA
HETATM   45  O4  UNL     1      -6.985  -2.350  -2.712  1.00  0.00    -0.275 OA
ENDBRANCH  42  43
BRANCH  42  46
HETATM   46  C19 UNL     1      -7.945   0.326  -0.798  1.00  0.00     0.017 C 
HETATM   47  C20 UNL     1      -9.370   0.269  -0.379  1.00  0.00     0.007 C 
HETATM   48  C21 UNL     1      -9.561  -0.170   1.046  1.00  0.00     0.000 C 
HETATM   49  C22 UNL     1      -8.444   0.213   1.950  1.00  0.00     0.000 C 
HETATM   50  C23 UNL     1      -7.551   1.307   1.489  1.00  0.00     0.000 C 
HETATM   51  C24 UNL     1      -7.226   1.352   0.042  1.00  0.00     0.007 C 
ENDBRANCH  42  46
ENDBRANCH  40  42
ENDBRANCH  37  40
ENDBRANCH  35  37
ENDBRANCH  32  35
ENDBRANCH   7  32
TORSDOF 15
