REMARK  13 active torsions:
REMARK  status: ('A' for Active; 'I' for Inactive)
REMARK    1  A    between atoms: C2_2  and  C3_3 
REMARK    2  A    between atoms: C5_8  and  C6_9 
REMARK    3  A    between atoms: C6_9  and  C7_10 
REMARK    4  A    between atoms: C11_17  and  C12_18 
REMARK    5  A    between atoms: C12_18  and  C13_19 
REMARK    6  A    between atoms: C13_19  and  C14_20 
REMARK    7  A    between atoms: C14_20  and  N3_21 
REMARK    8  A    between atoms: C17_30  and  C18_31 
REMARK    9  A    between atoms: C18_31  and  C19_32 
REMARK   10  A    between atoms: C24_40  and  C25_41 
REMARK   11  A    between atoms: C25_41  and  N8_42 
REMARK   12  A    between atoms: N8_42  and  N9_43 
REMARK   13  A    between atoms: N10_46  and  C26_47 
ROOT
HETATM    1  C3  UNL     1      -3.033   1.494   0.218  1.00  0.00     0.176 C 
HETATM    2  N1  UNL     1      -2.520   2.431   1.206  1.00  0.00    -0.346 N 
ATOM      3  H1  UNL     1      -3.173   3.124   1.572  1.00  0.00     0.163 HD
HETATM    4  C4  UNL     1      -1.209   2.466   1.699  1.00  0.00     0.241 C 
HETATM    5  O1  UNL     1      -0.969   2.487   2.930  1.00  0.00    -0.271 OA
HETATM    6  C5  UNL     1      -0.002   2.483   0.794  1.00  0.00     0.177 C 
HETATM    7  N2  UNL     1       1.117   1.837   1.452  1.00  0.00    -0.346 N 
ATOM      8  H2  UNL     1       1.665   2.444   2.061  1.00  0.00     0.163 HD
HETATM    9  C10 UNL     1       1.559   0.531   1.385  1.00  0.00     0.241 C 
HETATM   10  O2  UNL     1       1.492  -0.129   2.502  1.00  0.00    -0.271 OA
HETATM   11  C11 UNL     1       2.099  -0.245   0.254  1.00  0.00     0.176 C 
HETATM   12  N6  UNL     1       1.190  -0.527  -0.819  1.00  0.00    -0.346 N 
ATOM     13  H6  UNL     1       0.756   0.281  -1.266  1.00  0.00     0.163 HD
HETATM   14  C16 UNL     1       0.825  -1.795  -1.329  1.00  0.00     0.241 C 
HETATM   15  O3  UNL     1       0.884  -2.024  -2.597  1.00  0.00    -0.271 OA
HETATM   16  C17 UNL     1       0.354  -2.954  -0.531  1.00  0.00     0.177 C 
HETATM   17  N7  UNL     1      -0.317  -2.570   0.689  1.00  0.00    -0.348 N 
ATOM     18  H7  UNL     1       0.212  -2.597   1.561  1.00  0.00     0.163 HD
HETATM   19  C22 UNL     1      -1.699  -2.149   0.740  1.00  0.00     0.220 C 
HETATM   20  O4  UNL     1      -2.274  -2.096   1.872  1.00  0.00    -0.274 OA
HETATM   21  C23 UNL     1      -2.334  -1.814  -0.532  1.00  0.00     0.134 C 
HETATM   22  C24 UNL     1      -3.810  -1.644  -0.547  1.00  0.00     0.150 C 
HETATM   23  N10 UNL     1      -4.403  -0.716   0.351  1.00  0.00    -0.336 N 
HETATM   24  C29 UNL     1      -3.868   0.475   0.877  1.00  0.00     0.243 C 
HETATM   25  O5  UNL     1      -4.164   0.685   2.114  1.00  0.00    -0.271 OA
ENDROOT
BRANCH  11  26
HETATM   26  C12 UNL     1       3.320   0.407  -0.374  1.00  0.00     0.036 C 
BRANCH  26  27
HETATM   27  C13 UNL     1       4.448   0.568   0.603  1.00  0.00     0.022 C 
BRANCH  27  28
HETATM   28  C14 UNL     1       5.594   1.232  -0.174  1.00  0.00     0.122 C 
BRANCH  28  29
HETATM   29  N3  UNL     1       6.671   1.382   0.775  1.00  0.00    -0.367 N 
HETATM   30  C15 UNL     1       7.823   1.756   0.367  1.00  0.00     0.196 C 
HETATM   31  N4  UNL     1       8.863   1.897   1.309  1.00  0.00    -0.067 NA
HETATM   32  N5  UNL     1       8.026   2.019  -1.008  1.00  0.00    -0.067 NA
ATOM     33  H3  UNL     1       6.514   1.191   1.765  1.00  0.00     0.161 HD
ENDBRANCH  28  29
ENDBRANCH  27  28
ENDBRANCH  26  27
ENDBRANCH  11  26
BRANCH   6  34
HETATM   34  C6  UNL     1       0.288   3.979   0.639  1.00  0.00     0.038 C 
BRANCH  34  35
HETATM   35  C7  UNL     1       1.454   4.277  -0.235  1.00  0.00    -0.020 C 
HETATM   36  C8  UNL     1       1.184   3.729  -1.619  1.00  0.00     0.009 C 
HETATM   37  C9  UNL     1       1.614   5.786  -0.276  1.00  0.00     0.009 C 
ENDBRANCH  34  35
ENDBRANCH   6  34
BRANCH  16  38
HETATM   38  C18 UNL     1       1.479  -3.956  -0.247  1.00  0.00     0.038 C 
BRANCH  38  39
HETATM   39  C19 UNL     1       0.810  -5.070   0.572  1.00  0.00    -0.020 C 
HETATM   40  C20 UNL     1      -0.309  -5.709  -0.213  1.00  0.00     0.009 C 
HETATM   41  C21 UNL     1       1.897  -6.114   0.794  1.00  0.00     0.009 C 
ENDBRANCH  38  39
ENDBRANCH  16  38
BRANCH   1  42
HETATM   42  C2  UNL     1      -3.833   2.353  -0.746  1.00  0.00     0.030 C 
HETATM   43  C1  UNL     1      -2.992   3.400  -1.404  1.00  0.00     0.007 C 
ENDBRANCH   1  42
BRANCH  22  44
HETATM   44  C25 UNL     1      -4.169  -1.424  -1.992  1.00  0.00     0.206 C 
BRANCH  44  45
HETATM   45  N8  UNL     1      -4.109  -2.421  -2.745  1.00  0.00    -0.348 NA
BRANCH  45  46
HETATM   46  N9  UNL     1      -4.338  -3.435  -3.434  1.00  0.00    -0.281 N 
ATOM     47  H92 UNL     1      -5.324  -3.435  -3.173  1.00  0.00     0.191 HD
ATOM     48  H91 UNL     1      -4.289  -4.248  -4.048  1.00  0.00     0.191 HD
ENDBRANCH  45  46
ENDBRANCH  44  45
ENDBRANCH  22  44
BRANCH  23  49
HETATM   49  C26 UNL     1      -5.764  -1.068   0.811  1.00  0.00     0.080 C 
HETATM   50  C27 UNL     1      -6.638  -1.080  -0.441  1.00  0.00     0.032 C 
HETATM   51  C28 UNL     1      -5.844  -2.425   1.434  1.00  0.00     0.032 C 
ENDBRANCH  23  49
TORSDOF 13
