REMARK  10 active torsions:
REMARK  status: ('A' for Active; 'I' for Inactive)
REMARK    1  A    between atoms: C2_2  and  C3_3 
REMARK    2  A    between atoms: C12_17  and  C13_18 
REMARK    3  A    between atoms: C17_25  and  C18_26 
REMARK    4  A    between atoms: C18_26  and  C19_27 
REMARK    5  A    between atoms: C24_34  and  C25_35 
REMARK    6  A    between atoms: C25_35  and  C26_36 
REMARK    7  A    between atoms: C26_36  and  C27_37 
REMARK    8  A    between atoms: C27_37  and  C28_38 
REMARK    9  A    between atoms: C28_38  and  N5_39 
REMARK   10  A    between atoms: N8_46  and  C31_47 
ROOT
HETATM    1  C3  UNL     1      -2.564  -3.169   0.970  1.00  0.00    -0.024 A 
HETATM    2  C4  UNL     1      -1.441  -3.690   0.429  1.00  0.00    -0.025 A 
HETATM    3  C5  UNL     1      -0.873  -5.036   0.798  1.00  0.00     0.051 C 
HETATM    4  C6  UNL     1      -0.937  -2.754  -0.517  1.00  0.00     0.055 A 
HETATM    5  N1  UNL     1      -1.776  -1.699  -0.513  1.00  0.00    -0.354 N 
ATOM      6  H1  UNL     1      -1.676  -0.864  -1.091  1.00  0.00     0.166 HD
HETATM    7  C7  UNL     1      -2.764  -1.917   0.369  1.00  0.00     0.035 A 
HETATM    8  C8  UNL     1      -3.821  -1.167   0.716  1.00  0.00     0.004 C 
HETATM    9  C9  UNL     1      -4.301   0.146   0.290  1.00  0.00     0.038 C 
HETATM   10  C10 UNL     1      -4.368   1.015   1.556  1.00  0.00     0.106 C 
HETATM   11  C11 UNL     1      -4.054   2.428   1.249  1.00  0.00     0.218 C 
HETATM   12  O1  UNL     1      -4.952   3.289   1.588  1.00  0.00    -0.274 OA
HETATM   13  N2  UNL     1      -2.919   2.940   0.642  1.00  0.00    -0.347 N 
ATOM     14  H2  UNL     1      -3.103   3.546  -0.157  1.00  0.00     0.163 HD
HETATM   15  C12 UNL     1      -1.524   2.761   0.949  1.00  0.00     0.180 C 
HETATM   16  C16 UNL     1      -0.723   3.963   0.581  1.00  0.00     0.245 C 
HETATM   17  O2  UNL     1      -1.255   5.062   0.981  1.00  0.00    -0.271 OA
HETATM   18  N3  UNL     1       0.476   4.033  -0.110  1.00  0.00    -0.324 N 
ATOM     19  H3  UNL     1       1.206   4.569   0.360  1.00  0.00     0.169 HD
HETATM   20  C17 UNL     1       0.866   3.475  -1.382  1.00  0.00     0.080 C 
HETATM   21  C22 UNL     1       2.056   2.592  -1.313  1.00  0.00     0.266 C 
HETATM   22  O3  UNL     1       3.109   3.197  -0.861  1.00  0.00    -0.266 OA
HETATM   23  N4  UNL     1       2.201   1.240  -1.656  1.00  0.00    -0.338 N 
HETATM   24  C23 UNL     1       3.244   0.907  -2.642  1.00  0.00     0.154 C 
HETATM   25  C24 UNL     1       1.453   0.105  -1.146  1.00  0.00     0.179 C 
HETATM   26  C30 UNL     1       1.096  -0.850  -2.209  1.00  0.00     0.246 C 
HETATM   27  O4  UNL     1       0.990  -0.278  -3.365  1.00  0.00    -0.271 OA
HETATM   28  N8  UNL     1       0.857  -2.222  -2.198  1.00  0.00    -0.325 N 
HETATM   29  C33 UNL     1       0.173  -2.985  -1.220  1.00  0.00     0.123 C 
ENDROOT
BRANCH  25  30
HETATM   30  C25 UNL     1       2.171  -0.430   0.034  1.00  0.00     0.035 C 
BRANCH  30  31
HETATM   31  C26 UNL     1       3.542  -0.915  -0.117  1.00  0.00     0.004 C 
BRANCH  31  32
HETATM   32  C27 UNL     1       4.117  -1.432   1.214  1.00  0.00     0.020 C 
BRANCH  32  33
HETATM   33  C28 UNL     1       3.353  -2.560   1.793  1.00  0.00     0.122 C 
BRANCH  33  34
HETATM   34  N5  UNL     1       3.924  -3.023   3.003  1.00  0.00    -0.367 N 
HETATM   35  C29 UNL     1       4.838  -2.625   3.741  1.00  0.00     0.196 C 
HETATM   36  N6  UNL     1       5.679  -1.487   3.608  1.00  0.00    -0.067 NA
HETATM   37  N7  UNL     1       5.115  -3.417   4.925  1.00  0.00    -0.067 NA
ATOM     38  H5  UNL     1       3.484  -3.877   3.345  1.00  0.00     0.161 HD
ENDBRANCH  33  34
ENDBRANCH  32  33
ENDBRANCH  31  32
ENDBRANCH  30  31
ENDBRANCH  25  30
BRANCH  28  39
HETATM   39  C31 UNL     1       1.378  -2.967  -3.367  1.00  0.00     0.127 C 
HETATM   40  C32 UNL     1       0.338  -3.025  -4.464  1.00  0.00     0.027 C 
ENDBRANCH  28  39
BRANCH  20  41
HETATM   41  C18 UNL     1      -0.231   3.003  -2.264  1.00  0.00     0.067 C 
BRANCH  41  42
HETATM   42  C19 UNL     1      -1.195   4.120  -2.659  1.00  0.00    -0.017 C 
HETATM   43  C20 UNL     1      -0.376   5.183  -3.405  1.00  0.00     0.010 C 
HETATM   44  C21 UNL     1      -2.144   3.534  -3.680  1.00  0.00     0.010 C 
ENDBRANCH  41  42
ENDBRANCH  20  41
BRANCH  15  45
HETATM   45  C13 UNL     1      -1.281   2.550   2.429  1.00  0.00     0.009 C 
HETATM   46  C14 UNL     1       0.231   2.377   2.638  1.00  0.00     0.012 C 
HETATM   47  C15 UNL     1      -1.684   3.736   3.263  1.00  0.00     0.012 C 
ENDBRANCH  15  45
BRANCH   1  48
HETATM   48  C2  UNL     1      -3.379  -3.878   2.020  1.00  0.00     0.037 C 
HETATM   49  C1  UNL     1      -4.167  -4.975   1.335  1.00  0.00     0.010 C 
ENDBRANCH   1  48
TORSDOF 10
