REMARK  5 active torsions:
REMARK  status: ('A' for Active; 'I' for Inactive)
REMARK    1  A    between atoms: C3_4  and  C4_5 
REMARK    2  A    between atoms: C6_7  and  N2_8 
REMARK    3  A    between atoms: N2_8  and  C7_10 
REMARK    4  A    between atoms: C8_13  and  C9_14 
REMARK    5  A    between atoms: C9_14  and  C10_15 
ROOT
HETATM    1  C7  UNL     1      -1.137  -0.099  -0.161  1.00  0.00     0.684 A 
HETATM    2  N3  UNL     1      -2.443  -0.255  -0.383  1.00  0.00    -0.191 N 
ATOM      3  H3  UNL     1      -2.757  -0.739  -1.224  1.00  0.00     0.184 HD
HETATM    4  C8  UNL     1      -3.368   0.228   0.507  1.00  0.00     0.080 A 
HETATM    5  C14 UNL     1      -2.906   0.867   1.611  1.00  0.00     0.156 A 
HETATM    6  F3  UNL     1      -3.701   1.453   2.555  1.00  0.00    -0.203 F 
HETATM    7  C15 UNL     1      -1.521   1.022   1.829  1.00  0.00     0.150 A 
HETATM    8  N4  UNL     1      -0.662   0.530   0.927  1.00  0.00    -0.199 N 
ATOM      9  H4  UNL     1       0.344   0.632   1.065  1.00  0.00     0.183 HD
ENDROOT
BRANCH   1  10
HETATM   10  N2  UNL     1      -0.237  -0.549  -0.991  1.00  0.00    -0.175 N 
ATOM     11  H2  UNL     1      -0.557  -1.033  -1.830  1.00  0.00     0.186 HD
BRANCH  10  12
HETATM   12  C6  UNL     1       1.143  -0.407  -0.799  1.00  0.00     0.137 A 
HETATM   13  C5  UNL     1       2.079  -1.300  -0.318  1.00  0.00     0.077 A 
HETATM   14  C4  UNL     1       3.298  -0.680  -0.323  1.00  0.00     0.037 A 
HETATM   15  N6  UNL     1       3.106   0.557  -0.795  1.00  0.00    -0.303 N 
HETATM   16  N5  UNL     1       1.826   0.717  -1.077  1.00  0.00    -0.285 N 
ATOM     17  H6  UNL     1       3.832   1.263  -0.917  1.00  0.00     0.186 HD
ATOM     18  H5  UNL     1       1.414   1.571  -1.452  1.00  0.00     0.188 HD
BRANCH  14  19
HETATM   19  C3  UNL     1       4.596  -1.268   0.113  1.00  0.00     0.093 C 
HETATM   20  C2  UNL     1       5.440  -0.366   0.977  1.00  0.00     0.284 C 
HETATM   21  N1  UNL     1       6.555  -0.535   0.054  1.00  0.00     0.085 N 
HETATM   22  C1  UNL     1       7.191   0.681  -0.372  1.00  0.00     0.309 C 
HETATM   23  C16 UNL     1       5.696  -1.162  -0.930  1.00  0.00     0.284 C 
ENDBRANCH  14  19
ENDBRANCH  10  12
ENDBRANCH   1  10
BRANCH   4  24
HETATM   24  C9  UNL     1      -4.806  -0.014   0.259  1.00  0.00     0.065 C 
HETATM   25  C11 UNL     1      -5.107  -0.331  -1.201  1.00  0.00     0.022 C 
HETATM   26  C12 UNL     1      -6.155   0.734  -1.195  1.00  0.00     0.003 C 
HETATM   27  C13 UNL     1      -5.580   1.290   0.070  1.00  0.00     0.022 C 
BRANCH  24  28
HETATM   28  C10 UNL     1      -5.487  -0.888   1.238  1.00  0.00     0.367 C 
HETATM   29  F1  UNL     1      -6.850  -1.071   0.895  1.00  0.00    -0.213 F 
HETATM   30  F2  UNL     1      -5.523  -0.454   2.524  1.00  0.00    -0.213 F 
ENDBRANCH  24  28
ENDBRANCH   4  24
TORSDOF 5
