REMARK  5 active torsions:
REMARK  status: ('A' for Active; 'I' for Inactive)
REMARK    1  A    between atoms: N2_5  and  C3_6 
REMARK    2  A    between atoms: C3_6  and  C4_7 
REMARK    3  A    between atoms: C6_10  and  N3_11 
REMARK    4  A    between atoms: N3_11  and  C7_13 
REMARK    5  A    between atoms: N5_17  and  C9_19 
ROOT
HETATM    1  C7  UNL     1       0.571  -1.373  -1.837  1.00  0.00     0.162 A 
HETATM    2  N4  UNL     1      -0.582  -0.751  -1.447  1.00  0.00    -0.173 N 
ATOM      3  H4  UNL     1      -0.563  -0.229  -0.571  1.00  0.00     0.186 HD
HETATM    4  C8  UNL     1      -1.722  -0.774  -2.120  1.00  0.00     0.684 A 
HETATM    5  N5  UNL     1      -2.833  -0.252  -1.764  1.00  0.00    -0.191 N 
ATOM      6  H5  UNL     1      -3.608  -0.367  -2.417  1.00  0.00     0.184 HD
HETATM    7  N6  UNL     1      -1.768  -1.475  -3.313  1.00  0.00    -0.199 N 
ATOM      8  H6  UNL     1      -2.627  -1.516  -3.861  1.00  0.00     0.183 HD
HETATM    9  C15 UNL     1      -0.661  -2.097  -3.730  1.00  0.00     0.152 A 
HETATM   10  C16 UNL     1       0.521  -2.083  -3.046  1.00  0.00     0.176 A 
HETATM   11  F4  UNL     1       1.645  -2.731  -3.494  1.00  0.00    -0.201 F 
ENDROOT
BRANCH   1  12
HETATM   12  N3  UNL     1       1.616  -1.338  -1.213  1.00  0.00    -0.337 N 
ATOM     13  H3  UNL     1       2.319  -1.880  -1.716  1.00  0.00     0.167 HD
BRANCH  12  14
HETATM   14  C6  UNL     1       2.182  -0.828  -0.073  1.00  0.00     0.074 A 
HETATM   15  C2  UNL     1       2.704  -1.480   1.054  1.00  0.00     0.050 A 
HETATM   16  C1  UNL     1       2.727  -2.963   1.234  1.00  0.00     0.072 C 
HETATM   17  N1  UNL     1       3.159  -0.538   1.897  1.00  0.00    -0.301 N 
HETATM   18  N2  UNL     1       2.974   0.675   1.413  1.00  0.00    -0.299 N 
ATOM     19  H1  UNL     1       3.593  -0.736   2.798  1.00  0.00     0.187 HD
HETATM   20  C5  UNL     1       2.382   0.516   0.216  1.00  0.00     0.141 A 
BRANCH  18  21
HETATM   21  C3  UNL     1       3.349   1.948   2.058  1.00  0.00     0.179 C 
BRANCH  21  22
HETATM   22  C4  UNL     1       2.189   2.403   2.904  1.00  0.00     0.243 C 
HETATM   23  F1  UNL     1       1.105   2.573   2.096  1.00  0.00    -0.254 F 
ENDBRANCH  21  22
ENDBRANCH  18  21
ENDBRANCH  12  14
ENDBRANCH   1  12
BRANCH   5  24
HETATM   24  C9  UNL     1      -3.124   0.463  -0.584  1.00  0.00     0.055 A 
HETATM   25  C10 UNL     1      -2.802  -0.019   0.683  1.00  0.00     0.072 A 
HETATM   26  C11 UNL     1      -3.092   0.650   1.839  1.00  0.00     0.121 A 
HETATM   27  F2  UNL     1      -2.770   0.177   3.071  1.00  0.00    -0.206 F 
HETATM   28  C12 UNL     1      -3.737   1.871   1.767  1.00  0.00     0.084 A 
HETATM   29  C13 UNL     1      -4.070   2.379   0.541  1.00  0.00     0.121 A 
HETATM   30  F3  UNL     1      -4.704   3.562   0.496  1.00  0.00    -0.206 F 
HETATM   31  C14 UNL     1      -3.768   1.682  -0.617  1.00  0.00     0.072 A 
ENDBRANCH   5  24
TORSDOF 5
