REMARK  7 active torsions:
REMARK  status: ('A' for Active; 'I' for Inactive)
REMARK    1  A    between atoms: C5_7  and  N2_8 
REMARK    2  A    between atoms: N2_8  and  C6_10 
REMARK    3  A    between atoms: C11_15  and  N3_16 
REMARK    4  A    between atoms: C12_22  and  O1_23 
REMARK    5  A    between atoms: O1_23  and  C13_24 
REMARK    6  A    between atoms: C13_24  and  C14_25 
REMARK    7  A    between atoms: C13_24  and  C15_27 
ROOT
HETATM    1  N1  UNL     1       4.884  -1.506   2.669  1.00  0.00    -0.191 NA
HETATM    2  C1  UNL     1       3.861  -1.300   2.186  1.00  0.00     0.104 C 
HETATM    3  C2  UNL     1       2.538  -1.058   1.595  1.00  0.00     0.097 A 
HETATM    4  C3  UNL     1       1.471  -1.692   2.195  1.00  0.00     0.055 A 
HETATM    5  C4  UNL     1       0.210  -1.514   1.699  1.00  0.00     0.079 A 
HETATM    6 CL1  UNL     1      -1.129  -2.335   2.487  1.00  0.00    -0.080 Cl
HETATM    7  C5  UNL     1       0.005  -0.711   0.611  1.00  0.00     0.125 A 
HETATM    8  N4  UNL     1       1.070  -0.113   0.057  1.00  0.00    -0.321 N 
ATOM      9  H4  UNL     1       0.908   0.485  -0.753  1.00  0.00     0.169 HD
HETATM   10  C12 UNL     1       2.356  -0.246   0.499  1.00  0.00     0.165 A 
ENDROOT
BRANCH  10  11
HETATM   11  O1  UNL     1       3.364   0.360  -0.078  1.00  0.00    -0.324 OA
BRANCH  11  12
HETATM   12  C13 UNL     1       4.589   0.737  -0.311  1.00  0.00     0.187 C 
BRANCH  12  13
HETATM   13  C14 UNL     1       4.852   2.256  -0.173  1.00  0.00     0.257 C 
HETATM   14  F1  UNL     1       6.162   2.530  -0.439  1.00  0.00    -0.253 F 
ENDBRANCH  12  13
BRANCH  12  15
HETATM   15  C15 UNL     1       5.171   0.390  -1.683  1.00  0.00     0.257 C 
HETATM   16  F2  UNL     1       4.406   0.981  -2.669  1.00  0.00    -0.253 F 
ENDBRANCH  12  15
ENDBRANCH  11  12
ENDBRANCH  10  11
BRANCH   7  17
HETATM   17  N2  UNL     1      -1.097  -0.471   0.068  1.00  0.00    -0.368 N 
ATOM     18  H2  UNL     1      -0.953   0.159  -0.721  1.00  0.00     0.161 HD
BRANCH  17  19
HETATM   19  C6  UNL     1      -2.441  -0.769   0.174  1.00  0.00     0.113 C 
HETATM   20  C7  UNL     1      -3.212  -0.042   1.231  1.00  0.00     0.027 C 
HETATM   21  C8  UNL     1      -4.105   1.051   0.803  1.00  0.00     0.002 C 
HETATM   22  C9  UNL     1      -4.738   0.940  -0.537  1.00  0.00     0.002 C 
HETATM   23  C10 UNL     1      -3.579   0.719  -1.521  1.00  0.00     0.035 C 
HETATM   24  C11 UNL     1      -3.065  -0.648  -1.207  1.00  0.00     0.206 C 
BRANCH  24  25
HETATM   25  N3  UNL     1      -4.184  -1.568  -1.323  1.00  0.00    -0.073 N 
ATOM     26  H33 UNL     1      -3.916  -2.528  -1.106  1.00  0.00     0.274 HD
ATOM     27  H32 UNL     1      -4.869  -1.435  -0.579  1.00  0.00     0.274 HD
ATOM     28  H31 UNL     1      -4.603  -1.487  -2.250  1.00  0.00     0.274 HD
ENDBRANCH  24  25
ENDBRANCH  17  19
ENDBRANCH   7  17
TORSDOF 7
