REMARK  4 active torsions:
REMARK  status: ('A' for Active; 'I' for Inactive)
REMARK    1  A    between atoms: C2_2  and  C3_3 
REMARK    2  A    between atoms: N1_5  and  C5_6 
REMARK    3  A    between atoms: C7_11  and  C8_12 
REMARK    4  A    between atoms: C8_12  and  N3_13 
ROOT
HETATM    1  C5  UNL     1       0.381  -0.587  -0.117  1.00  0.00     0.684 A 
HETATM    2  N2  UNL     1      -0.160  -0.764  -1.336  1.00  0.00    -0.165 N 
ATOM      3  H2  UNL     1       0.393  -1.236  -2.051  1.00  0.00     0.186 HD
HETATM    4  C6  UNL     1      -1.383  -0.351  -1.650  1.00  0.00     0.217 A 
HETATM    5  F1  UNL     1      -1.891  -0.548  -2.888  1.00  0.00    -0.185 F 
HETATM    6  C7  UNL     1      -2.212   0.309  -0.716  1.00  0.00     0.075 A 
HETATM    7  C13 UNL     1      -1.659   0.490   0.524  1.00  0.00     0.130 A 
HETATM    8  N4  UNL     1      -2.247   1.101   1.437  1.00  0.00    -0.384 N 
ATOM      9  H41 UNL     1      -1.835   1.236   2.360  1.00  0.00     0.157 HD
ATOM     10  H42 UNL     1      -3.191   1.439   1.251  1.00  0.00     0.157 HD
HETATM   11  N5  UNL     1      -0.370   0.028   0.778  1.00  0.00    -0.176 N 
ATOM     12  H5  UNL     1       0.017   0.173   1.711  1.00  0.00     0.186 HD
ENDROOT
BRANCH   1  13
HETATM   13  N1  UNL     1       1.705  -1.058   0.143  1.00  0.00    -0.217 N 
HETATM   14  C4  UNL     1       2.393  -0.936   1.400  1.00  0.00     0.149 C 
HETATM   15  C3  UNL     1       3.635  -0.082   1.263  1.00  0.00     0.043 C 
HETATM   16  C16 UNL     1       4.024   0.126  -0.165  1.00  0.00     0.106 C 
HETATM   17  C15 UNL     1       3.777  -1.036  -1.064  1.00  0.00     0.064 C 
HETATM   18  C17 UNL     1       5.466   0.548  -0.327  1.00  0.00     0.052 C 
HETATM   19  F4  UNL     1       3.271   1.196  -0.677  1.00  0.00    -0.243 F 
HETATM   20  C14 UNL     1       2.455  -1.714  -0.913  1.00  0.00     0.144 C 
BRANCH  15  21
HETATM   21  C2  UNL     1       4.702  -0.570   2.170  1.00  0.00     0.005 C 
HETATM   22  C1  UNL     1       5.185  -1.955   1.986  1.00  0.00     0.005 C 
ENDBRANCH  15  21
ENDBRANCH   1  13
BRANCH   6  23
HETATM   23  C8  UNL     1      -3.536   0.747  -1.194  1.00  0.00     0.079 C 
BRANCH  23  24
HETATM   24  N3  UNL     1      -4.429   1.327  -0.272  1.00  0.00    -0.286 NA
HETATM   25  C9  UNL     1      -5.520   1.917  -1.111  1.00  0.00     0.101 C 
HETATM   26  C10 UNL     1      -6.680   2.011  -0.147  1.00  0.00     0.095 C 
HETATM   27  C11 UNL     1      -6.379   0.939   0.891  1.00  0.00     0.256 C 
HETATM   28  F2  UNL     1      -7.455   0.091   1.066  1.00  0.00    -0.205 F 
HETATM   29  F3  UNL     1      -5.928   1.452   2.069  1.00  0.00    -0.205 F 
HETATM   30  C12 UNL     1      -5.268   0.178   0.222  1.00  0.00     0.173 C 
ENDBRANCH  23  24
ENDBRANCH   6  23
TORSDOF 4
