REMARK  5 active torsions:
REMARK  status: ('A' for Active; 'I' for Inactive)
REMARK    1  A    between atoms: C2_2  and  N1_3 
REMARK    2  A    between atoms: N1_3  and  C3_5 
REMARK    3  A    between atoms: C3_5  and  C4_6 
REMARK    4  A    between atoms: C5_7  and  O1_8 
REMARK    5  A    between atoms: O1_8  and  N2_9 
ROOT
HETATM    1  C4  UNL     1       0.084   0.074   0.106  1.00  0.00     0.039 C 
HETATM    2  C5  UNL     1      -0.888   1.172  -0.157  1.00  0.00     0.165 C 
HETATM    3  C6  UNL     1      -2.232   0.508  -0.237  1.00  0.00     0.040 C 
HETATM    4  C7  UNL     1      -1.912  -0.765  -0.975  1.00  0.00    -0.007 C 
HETATM    5  C8  UNL     1      -2.513  -1.985  -0.317  1.00  0.00     0.005 C 
HETATM    6  C9  UNL     1      -1.291  -2.007   0.588  1.00  0.00     0.006 C 
HETATM    7  C10 UNL     1      -0.576  -1.166  -0.428  1.00  0.00    -0.002 C 
ENDROOT
BRANCH   1   8
HETATM    8  C3  UNL     1       1.355   0.384  -0.637  1.00  0.00     0.126 C 
BRANCH   8   9
HETATM    9  N1  UNL     1       2.393  -0.568  -0.494  1.00  0.00    -0.399 N 
ATOM     10  H1  UNL     1       2.629  -1.105  -1.329  1.00  0.00     0.158 HD
BRANCH   9  11
HETATM   11  C2  UNL     1       3.133  -0.859   0.655  1.00  0.00     0.072 C 
HETATM   12  C1  UNL     1       4.022  -0.016   1.120  1.00  0.00     0.029 C 
ENDBRANCH   9  11
ENDBRANCH   8   9
ENDBRANCH   1   8
BRANCH   2  13
HETATM   13  O1  UNL     1      -0.842   2.230   0.753  1.00  0.00    -0.215 OA
BRANCH  13  14
HETATM   14  N2  UNL     1      -0.641   3.537   0.538  1.00  0.00     0.005 N 
HETATM   15  O2  UNL     1      -1.533   4.390   0.680  1.00  0.00    -0.511 OA
HETATM   16  O3  UNL     1       0.594   3.978   0.143  1.00  0.00    -0.511 OA
ENDBRANCH  13  14
ENDBRANCH   2  13
TORSDOF 5
