REMARK  6 active torsions:
REMARK  status: ('A' for Active; 'I' for Inactive)
REMARK    1  A    between atoms: C2_2  and  C3_3 
REMARK    2  A    between atoms: C5_5  and  C6_6 
REMARK    3  A    between atoms: C5_5  and  C7_11 
REMARK    4  A    between atoms: C6_6  and  N1_7 
REMARK    5  A    between atoms: C7_11  and  C8_12 
REMARK    6  A    between atoms: N2_13  and  C9_15 
ROOT
HETATM    1  C3  UNL     1      -2.571   0.449   0.332  1.00  0.00     0.078 C 
HETATM    2  C4  UNL     1      -1.370   0.452  -0.628  1.00  0.00     0.028 C 
HETATM    3  C5  UNL     1      -0.811  -0.925  -0.402  1.00  0.00    -0.005 C 
HETATM    4  C12 UNL     1      -1.042  -1.192   1.074  1.00  0.00     0.090 C 
HETATM    5  C13 UNL     1      -1.909  -0.087   1.541  1.00  0.00     0.135 C 
HETATM    6  O1  UNL     1      -2.051   0.301   2.666  1.00  0.00    -0.297 OA
ENDROOT
BRANCH   3   7
HETATM    7  C6  UNL     1      -1.643  -1.907  -1.192  1.00  0.00     0.239 C 
BRANCH   7   8
HETATM    8  N1  UNL     1      -1.145  -3.259  -1.012  1.00  0.00    -0.079 N 
ATOM      9  H13 UNL     1      -0.154  -3.331  -1.242  1.00  0.00     0.274 HD
ATOM     10  H12 UNL     1      -1.092  -3.515  -0.026  1.00  0.00     0.274 HD
ATOM     11  H11 UNL     1      -1.707  -3.922  -1.546  1.00  0.00     0.274 HD
ENDBRANCH   7   8
ENDBRANCH   3   7
BRANCH   3  12
HETATM   12  C7  UNL     1       0.613  -1.083  -0.802  1.00  0.00     0.056 C 
BRANCH  12  13
HETATM   13  C8  UNL     1       1.571  -0.217  -0.117  1.00  0.00     0.057 C 
HETATM   14  N2  UNL     1       2.801  -0.571  -0.137  1.00  0.00    -0.398 N 
ATOM     15  H2  UNL     1       3.036  -1.434  -0.628  1.00  0.00     0.159 HD
BRANCH  14  16
HETATM   16  C9  UNL     1       3.862   0.147   0.473  1.00  0.00     0.080 A 
HETATM   17  C10 UNL     1       3.683   1.365   1.249  1.00  0.00     0.027 A 
HETATM   18  C11 UNL     1       4.106   1.520  -0.158  1.00  0.00     0.027 A 
ENDBRANCH  14  16
ENDBRANCH  12  13
ENDBRANCH   3  12
BRANCH   1  19
HETATM   19  C2  UNL     1      -3.098   1.813   0.515  1.00  0.00    -0.025 C 
HETATM   20  C1  UNL     1      -2.646   2.775  -0.273  1.00  0.00     0.007 C 
ENDBRANCH   1  19
TORSDOF 6
