REMARK  7 active torsions:
REMARK  status: ('A' for Active; 'I' for Inactive)
REMARK    1  A    between atoms: C2_3  and  C3_4 
REMARK    2  A    between atoms: C3_4  and  C4_5 
REMARK    3  A    between atoms: C8_10  and  C9_11 
REMARK    4  A    between atoms: C9_11  and  C10_12 
REMARK    5  A    between atoms: C10_12  and  C11_13 
REMARK    6  A    between atoms: C11_13  and  C12_14 
REMARK    7  A    between atoms: C12_14  and  O2_15 
ROOT
HETATM    1  N1  UNL     1      -5.429   0.614   0.169  1.00  0.00    -0.197 NA
HETATM    2  C1  UNL     1      -4.387   1.149   0.266  1.00  0.00     0.059 C 
HETATM    3  C2  UNL     1      -3.108   1.830   0.411  1.00  0.00     0.124 C 
ENDROOT
BRANCH   3   4
HETATM    4  C3  UNL     1      -1.954   0.893   0.500  1.00  0.00     0.026 C 
BRANCH   4   5
HETATM    5  C4  UNL     1      -1.666   0.010  -0.582  1.00  0.00    -0.010 C 
HETATM    6  C5  UNL     1      -2.597  -1.023  -1.112  1.00  0.00     0.178 C 
HETATM    7  O1  UNL     1      -1.756  -1.634  -2.087  1.00  0.00    -0.385 OA
HETATM    8  C6  UNL     1      -0.568  -0.910  -1.970  1.00  0.00     0.127 C 
HETATM    9  C7  UNL     1      -1.088   0.520  -1.883  1.00  0.00     0.044 C 
HETATM   10  C8  UNL     1      -0.387  -0.847  -0.497  1.00  0.00     0.025 C 
BRANCH  10  11
HETATM   11  C9  UNL     1       0.716  -0.081   0.108  1.00  0.00     0.008 C 
BRANCH  11  12
HETATM   12  C10 UNL     1       2.012  -0.847   0.230  1.00  0.00     0.002 C 
BRANCH  12  13
HETATM   13  C11 UNL     1       3.061   0.040   0.862  1.00  0.00     0.026 C 
BRANCH  13  14
HETATM   14  C12 UNL     1       4.332  -0.775   0.958  1.00  0.00     0.164 C 
BRANCH  14  15
HETATM   15  O2  UNL     1       5.381  -0.084   1.521  1.00  0.00    -0.401 OA
ATOM     16  H2  UNL     1       6.179  -0.596   1.581  1.00  0.00     0.209 HD
ENDBRANCH  14  15
ENDBRANCH  13  14
ENDBRANCH  12  13
ENDBRANCH  11  12
ENDBRANCH  10  11
ENDBRANCH   4   5
ENDBRANCH   3   4
TORSDOF 7
