REMARK  5 active torsions:
REMARK  status: ('A' for Active; 'I' for Inactive)
REMARK    1  A    between atoms: S1_2  and  C2_3 
REMARK    2  A    between atoms: C2_3  and  C3_4 
REMARK    3  A    between atoms: C3_4  and  C4_5 
REMARK    4  A    between atoms: C4_5  and  N1_6 
REMARK    5  A    between atoms: N1_6  and  C5_8 
ROOT
HETATM    1  C5  UNL     1      -0.757   0.175  -0.311  1.00  0.00     0.010 C 
HETATM    2  C6  UNL     1      -0.899   0.999  -1.506  1.00  0.00     0.220 C 
HETATM    3  O1  UNL     1      -2.246   1.386  -1.619  1.00  0.00    -0.380 OA
HETATM    4  C7  UNL     1      -3.173   0.402  -1.546  1.00  0.00     0.122 C 
HETATM    5  C8  UNL     1      -3.895   0.312  -0.187  1.00  0.00     0.033 C 
HETATM    6  C9  UNL     1      -2.921  -0.399   0.702  1.00  0.00     0.013 C 
HETATM    7  C10 UNL     1      -1.825  -0.927  -0.247  1.00  0.00     0.035 C 
HETATM    8  C11 UNL     1      -2.593  -1.014  -1.545  1.00  0.00     0.042 C 
ENDROOT
BRANCH   1   9
HETATM    9  N1  UNL     1       0.416  -0.164   0.352  1.00  0.00    -0.394 N 
ATOM     10  H1  UNL     1       0.786  -1.111   0.266  1.00  0.00     0.159 HD
BRANCH   9  11
HETATM   11  C4  UNL     1       1.110   0.790   1.149  1.00  0.00     0.120 C 
BRANCH  11  12
HETATM   12  C3  UNL     1       2.088   0.137   2.068  1.00  0.00     0.029 C 
BRANCH  12  13
HETATM   13  C2  UNL     1       3.328  -0.484   1.556  1.00  0.00     0.075 C 
BRANCH  13  14
HETATM   14  S1  UNL     1       4.549   0.657   0.950  1.00  0.00    -0.173 SA
HETATM   15  C1  UNL     1       5.077   0.456  -0.736  1.00  0.00     0.089 C 
ENDBRANCH  13  14
ENDBRANCH  12  13
ENDBRANCH  11  12
ENDBRANCH   9  11
ENDBRANCH   1   9
TORSDOF 5
