REMARK  9 active torsions:
REMARK  status: ('A' for Active; 'I' for Inactive)
REMARK    1  A    between atoms: C5_5  and  C6_6 
REMARK    2  A    between atoms: C6_6  and  O1_7 
REMARK    3  A    between atoms: C7_9  and  N1_10 
REMARK       I    between atoms: N1_10  and  C8_12 
REMARK    4  A    between atoms: C8_12  and  C9_14 
REMARK    5  A    between atoms: C9_14  and  C10_15 
REMARK    6  A    between atoms: C10_15  and  C11_16 
REMARK    7  A    between atoms: C11_16  and  C12_17 
REMARK    8  A    between atoms: C12_17  and  C13_18 
REMARK    9  A    between atoms: C13_18  and  N2_19 
ROOT
HETATM    1  C1  UNL     1      -3.306   2.291  -1.753  1.00  0.00     0.020 C 
HETATM    2  C2  UNL     1      -2.524   1.006  -1.605  1.00  0.00    -0.022 C 
HETATM    3  C3  UNL     1      -1.242   1.159  -2.344  1.00  0.00    -0.021 C 
HETATM    4  C4  UNL     1      -0.216   1.922  -2.058  1.00  0.00    -0.021 C 
HETATM    5  C5  UNL     1       0.013   2.848  -0.959  1.00  0.00     0.054 C 
HETATM    6  C7  UNL     1      -0.252   2.164   0.387  1.00  0.00     0.094 C 
HETATM    7  C18 UNL     1      -1.663   1.814   0.597  1.00  0.00     0.032 C 
HETATM    8  C19 UNL     1      -2.187   0.658  -0.200  1.00  0.00     0.004 C 
HETATM    9  C20 UNL     1      -3.297   0.029   0.608  1.00  0.00    -0.005 C 
HETATM   10  C21 UNL     1      -2.635  -0.874   1.627  1.00  0.00     0.006 C 
HETATM   11  C22 UNL     1      -3.561  -1.850   2.284  1.00  0.00     0.006 C 
HETATM   12  C23 UNL     1      -4.454  -2.598   1.352  1.00  0.00     0.001 C 
HETATM   13  C24 UNL     1      -5.424  -3.409   2.138  1.00  0.00     0.083 C 
HETATM   14  C25 UNL     1      -6.675  -3.735   1.445  1.00  0.00     0.127 C 
HETATM   15  O4  UNL     1      -7.422  -4.546   1.986  1.00  0.00    -0.298 OA
HETATM   16  C26 UNL     1      -7.122  -3.178   0.153  1.00  0.00     0.079 C 
HETATM   17  C27 UNL     1      -5.977  -2.426  -0.518  1.00  0.00     0.017 C 
HETATM   18  C28 UNL     1      -5.206  -1.594   0.515  1.00  0.00    -0.036 C 
HETATM   19  C29 UNL     1      -6.166  -0.758   1.356  1.00  0.00     0.016 C 
HETATM   20  C30 UNL     1      -4.323  -0.649  -0.220  1.00  0.00    -0.002 C 
HETATM   21  C31 UNL     1      -3.630  -1.256  -1.416  1.00  0.00     0.007 C 
HETATM   22  C32 UNL     1      -3.273  -0.089  -2.310  1.00  0.00     0.014 C 
ENDROOT
BRANCH   6  23
HETATM   23  N1  UNL     1       0.704   1.136   0.606  1.00  0.00    -0.356 N 
HETATM   24  C8  UNL     1       1.799   1.189   1.490  1.00  0.00     0.217 C 
HETATM   25  O2  UNL     1       1.896   2.289   2.128  1.00  0.00    -0.274 OA
ATOM     26  H1  UNL     1       0.586   0.276   0.071  1.00  0.00     0.162 HD
BRANCH  24  27
HETATM   27  C9  UNL     1       2.766   0.113   1.697  1.00  0.00     0.103 C 
BRANCH  27  28
HETATM   28  C10 UNL     1       3.933   0.437   2.572  1.00  0.00     0.009 C 
BRANCH  28  29
HETATM   29  C11 UNL     1       4.751   1.535   1.988  1.00  0.00     0.002 C 
BRANCH  29  30
HETATM   30  C12 UNL     1       5.314   1.211   0.617  1.00  0.00     0.030 C 
BRANCH  30  31
HETATM   31  C13 UNL     1       6.206  -0.005   0.640  1.00  0.00     0.272 C 
BRANCH  31  32
HETATM   32  N2  UNL     1       6.737  -0.319  -0.653  1.00  0.00     0.092 N 
HETATM   33  C14 UNL     1       7.597  -1.482  -0.632  1.00  0.00     0.298 C 
HETATM   34  C15 UNL     1       7.788  -1.973  -2.070  1.00  0.00     0.198 C 
HETATM   35  O3  UNL     1       7.762  -0.882  -2.947  1.00  0.00    -0.388 OA
HETATM   36  C16 UNL     1       8.356   0.245  -2.393  1.00  0.00     0.198 C 
HETATM   37  C17 UNL     1       7.413   0.763  -1.311  1.00  0.00     0.298 C 
ENDBRANCH  31  32
ENDBRANCH  30  31
ENDBRANCH  29  30
ENDBRANCH  28  29
ENDBRANCH  27  28
ENDBRANCH  24  27
ENDBRANCH   6  23
BRANCH   5  38
HETATM   38  C6  UNL     1       1.443   3.400  -0.966  1.00  0.00     0.174 C 
BRANCH  38  39
HETATM   39  O1  UNL     1       1.686   4.069  -2.145  1.00  0.00    -0.400 OA
ATOM     40  H1  UNL     1       2.572   4.411  -2.149  1.00  0.00     0.209 HD
ENDBRANCH  38  39
ENDBRANCH   5  38
TORSDOF 9
