REMARK  11 active torsions:
REMARK  status: ('A' for Active; 'I' for Inactive)
REMARK    1  A    between atoms: C2_2  and  O1_3 
REMARK    2  A    between atoms: O1_3  and  C3_4 
REMARK    3  A    between atoms: C3_4  and  C4_6 
REMARK    4  A    between atoms: N1_8  and  C6_9 
REMARK    5  A    between atoms: C9_12  and  C10_13 
REMARK    6  A    between atoms: C10_13  and  O4_15 
REMARK    7  A    between atoms: O4_15  and  C11_16 
REMARK    8  A    between atoms: C11_16  and  C12_17 
REMARK    9  A    between atoms: C12_17  and  C13_19 
REMARK   10  A    between atoms: C19_25  and  C20_26 
REMARK   11  A    between atoms: C23_29  and  C24_30 
ROOT
HETATM    1  C4  UNL     1      -2.513   1.093  -0.155  1.00  0.00     0.067 C 
HETATM    2  C5  UNL     1      -1.881   2.229  -0.327  1.00  0.00     0.108 C 
HETATM    3  N1  UNL     1      -0.464   2.354  -0.280  1.00  0.00    -0.365 N 
HETATM    4  C8  UNL     1       0.254   1.164  -0.027  1.00  0.00     0.108 C 
HETATM    5  C9  UNL     1      -0.330  -0.009   0.148  1.00  0.00     0.067 C 
HETATM    6  C19 UNL     1      -1.759  -0.171  -0.027  1.00  0.00     0.009 C 
ENDROOT
BRANCH   5   7
HETATM    7  C10 UNL     1       0.566  -1.150   0.426  1.00  0.00     0.296 C 
HETATM    8  O3  UNL     1       0.090  -2.293   0.604  1.00  0.00    -0.259 OA
BRANCH   7   9
HETATM    9  O4  UNL     1       1.924  -0.979   0.505  1.00  0.00    -0.310 OA
BRANCH   9  10
HETATM   10  C11 UNL     1       2.812  -2.045   0.796  1.00  0.00     0.257 C 
BRANCH  10  11
HETATM   11  C12 UNL     1       4.197  -1.557   0.859  1.00  0.00     0.155 C 
HETATM   12  O5  UNL     1       5.056  -2.351   1.270  1.00  0.00    -0.295 OA
BRANCH  11  13
HETATM   13  C13 UNL     1       4.561  -0.190   0.456  1.00  0.00     0.057 C 
HETATM   14  C14 UNL     1       4.409  -0.083  -1.066  1.00  0.00     0.012 C 
HETATM   15  C15 UNL     1       5.673  -0.693  -1.680  1.00  0.00     0.001 C 
HETATM   16  C16 UNL     1       6.854   0.228  -1.504  1.00  0.00     0.000 C 
HETATM   17  C17 UNL     1       6.637   1.044  -0.246  1.00  0.00     0.001 C 
HETATM   18  C18 UNL     1       5.969   0.195   0.801  1.00  0.00     0.012 C 
ENDBRANCH  11  13
ENDBRANCH  10  11
ENDBRANCH   9  10
ENDBRANCH   7   9
ENDBRANCH   5   7
BRANCH   6  19
HETATM   19  C20 UNL     1      -2.431  -1.229   0.715  1.00  0.00    -0.024 A 
HETATM   20  C21 UNL     1      -2.681  -1.223   2.063  1.00  0.00     0.013 A 
HETATM   21  C22 UNL     1      -3.324  -2.259   2.692  1.00  0.00     0.012 A 
HETATM   22  C23 UNL     1      -3.757  -3.369   2.012  1.00  0.00    -0.005 A 
HETATM   23  C25 UNL     1      -3.519  -3.404   0.654  1.00  0.00     0.012 A 
HETATM   24  C26 UNL     1      -2.876  -2.360   0.032  1.00  0.00     0.013 A 
BRANCH  22  25
HETATM   25  C24 UNL     1      -4.461  -4.522   2.660  1.00  0.00     0.216 C 
HETATM   26 CL1  UNL     1      -4.784  -4.262   4.371  1.00  0.00    -0.078 Cl
HETATM   27 CL2  UNL     1      -3.395  -5.952   2.406  1.00  0.00    -0.078 Cl
HETATM   28 CL3  UNL     1      -5.976  -4.830   1.757  1.00  0.00    -0.078 Cl
ENDBRANCH  22  25
ENDBRANCH   6  19
BRANCH   3  29
HETATM   29  C6  UNL     1       0.179   3.646  -0.513  1.00  0.00     0.123 C 
HETATM   30  C7  UNL     1      -0.029   3.998  -2.006  1.00  0.00     0.027 C 
ENDBRANCH   3  29
BRANCH   1  31
HETATM   31  C3  UNL     1      -3.998   1.108  -0.215  1.00  0.00     0.295 C 
HETATM   32  O2  UNL     1      -4.663   0.058  -0.014  1.00  0.00    -0.259 OA
BRANCH  31  33
HETATM   33  O1  UNL     1      -4.679   2.262  -0.486  1.00  0.00    -0.318 OA
BRANCH  33  34
HETATM   34  C2  UNL     1      -6.056   2.437  -0.563  1.00  0.00     0.174 C 
HETATM   35  C1  UNL     1      -6.784   1.540  -1.515  1.00  0.00     0.034 C 
ENDBRANCH  33  34
ENDBRANCH  31  33
ENDBRANCH   1  31
TORSDOF 11
