REMARK  10 active torsions:
REMARK  status: ('A' for Active; 'I' for Inactive)
REMARK    1  A    between atoms: O1_2  and  C2_3 
REMARK    2  A    between atoms: C2_3  and  C3_5 
REMARK    3  A    between atoms: C3_5  and  C4_6 
REMARK    4  A    between atoms: C4_6  and  O3_7 
REMARK    5  A    between atoms: O3_7  and  C5_8 
REMARK    6  A    between atoms: C5_8  and  C6_10 
REMARK    7  A    between atoms: C6_10  and  C7_11 
REMARK    8  A    between atoms: C7_11  and  C8_12 
REMARK    9  A    between atoms: C8_12  and  C9_13 
REMARK   10  A    between atoms: N1_22  and  C17_23 
ROOT
HETATM    1  C4  UNL     1      -1.118  -0.660   0.052  1.00  0.00     0.090 C 
HETATM    2  C15 UNL     1      -1.925  -0.105   1.226  1.00  0.00     0.060 C 
HETATM    3  C16 UNL     1      -3.147   0.654   0.825  1.00  0.00     0.126 C 
HETATM    4  N1  UNL     1      -2.809   1.718  -0.062  1.00  0.00    -0.381 N 
HETATM    5  C23 UNL     1      -1.768   1.414  -1.050  1.00  0.00     0.126 C 
HETATM    6  C24 UNL     1      -1.837  -0.107  -1.182  1.00  0.00     0.060 C 
ENDROOT
BRANCH   1   7
HETATM    7  C3  UNL     1      -1.252  -2.149   0.120  1.00  0.00     0.080 C 
HETATM    8  C25 UNL     1      -0.557  -2.557   1.428  1.00  0.00     0.023 C 
HETATM    9  C26 UNL     1      -1.345  -3.533   2.227  1.00  0.00     0.001 C 
HETATM   10  C27 UNL     1      -1.903  -4.647   1.383  1.00  0.00     0.000 C 
HETATM   11  C28 UNL     1      -2.661  -4.132   0.205  1.00  0.00     0.001 C 
HETATM   12  C29 UNL     1      -2.694  -2.609   0.148  1.00  0.00     0.023 C 
BRANCH   7  13
HETATM   13  C2  UNL     1      -0.606  -2.941  -0.938  1.00  0.00     0.270 C 
HETATM   14  O2  UNL     1      -1.024  -2.894  -2.147  1.00  0.00    -0.264 OA
BRANCH  13  15
HETATM   15  O1  UNL     1       0.487  -3.792  -0.732  1.00  0.00    -0.326 OA
HETATM   16  C1  UNL     1       1.078  -4.539  -1.780  1.00  0.00     0.213 C 
ENDBRANCH  13  15
ENDBRANCH   7  13
ENDBRANCH   1   7
BRANCH   1  17
HETATM   17  O3  UNL     1       0.131  -0.161   0.202  1.00  0.00    -0.309 OA
BRANCH  17  18
HETATM   18  C5  UNL     1       1.308  -0.147  -0.379  1.00  0.00     0.259 C 
HETATM   19  O4  UNL     1       1.448  -0.748  -1.450  1.00  0.00    -0.265 OA
BRANCH  18  20
HETATM   20  C6  UNL     1       2.477   0.559   0.195  1.00  0.00     0.111 C 
BRANCH  20  21
HETATM   21  C7  UNL     1       2.654   1.852  -0.558  1.00  0.00     0.014 C 
BRANCH  21  22
HETATM   22  C8  UNL     1       3.824   2.669  -0.070  1.00  0.00     0.039 C 
BRANCH  22  23
HETATM   23  C9  UNL     1       5.115   1.960  -0.193  1.00  0.00    -0.058 A 
HETATM   24  C10 UNL     1       5.871   2.059  -1.329  1.00  0.00     0.009 A 
HETATM   25  C11 UNL     1       7.079   1.396  -1.445  1.00  0.00     0.024 A 
HETATM   26  C12 UNL     1       7.553   0.616  -0.416  1.00  0.00     0.034 A 
HETATM   27 CL1  UNL     1       9.098  -0.239  -0.549  1.00  0.00    -0.084 Cl
HETATM   28  C13 UNL     1       6.807   0.504   0.734  1.00  0.00     0.024 A 
HETATM   29  C14 UNL     1       5.586   1.180   0.838  1.00  0.00     0.009 A 
ENDBRANCH  22  23
ENDBRANCH  21  22
ENDBRANCH  20  21
ENDBRANCH  18  20
ENDBRANCH  17  18
ENDBRANCH   1  17
BRANCH   4  30
HETATM   30  C17 UNL     1      -3.422   2.981  -0.022  1.00  0.00     0.032 A 
HETATM   31  C18 UNL     1      -2.954   4.030  -0.804  1.00  0.00     0.032 A 
HETATM   32  C19 UNL     1      -3.518   5.277  -0.809  1.00  0.00     0.046 A 
HETATM   33  C20 UNL     1      -4.599   5.536  -0.014  1.00  0.00     0.138 A 
HETATM   34  F1  UNL     1      -5.140   6.776  -0.036  1.00  0.00    -0.204 F 
HETATM   35  C21 UNL     1      -5.101   4.536   0.777  1.00  0.00     0.074 A 
HETATM   36 CL2  UNL     1      -6.495   4.850   1.809  1.00  0.00    -0.081 Cl
HETATM   37  C22 UNL     1      -4.512   3.267   0.770  1.00  0.00     0.056 A 
ENDBRANCH   4  30
TORSDOF 10
