REMARK  11 active torsions:
REMARK  status: ('A' for Active; 'I' for Inactive)
REMARK    1  A    between atoms: C2_2  and  C3_3 
REMARK    2  A    between atoms: C3_3  and  C31_37 
REMARK    3  A    between atoms: C4_4  and  C6_6 
REMARK    4  A    between atoms: C6_6  and  C7_7 
REMARK    5  A    between atoms: C7_7  and  C8_8 
REMARK    6  A    between atoms: C17_17  and  C19_19 
REMARK    7  A    between atoms: C19_19  and  O1_20 
REMARK    8  A    between atoms: O1_20  and  C20_21 
REMARK    9  A    between atoms: C20_21  and  C21_23 
REMARK   10  A    between atoms: C23_25  and  C24_26 
REMARK   11  A    between atoms: C24_26  and  O4_28 
ROOT
HETATM    1  C8  UNL     1       3.216   0.466   1.432  1.00  0.00    -0.010 C 
HETATM    2  C9  UNL     1       2.209  -0.510   1.990  1.00  0.00     0.005 C 
HETATM    3  C10 UNL     1       0.780  -0.031   1.763  1.00  0.00     0.010 C 
HETATM    4  C11 UNL     1       0.609   0.562   0.384  1.00  0.00     0.025 C 
HETATM    5  C12 UNL     1       1.744   0.066  -0.438  1.00  0.00    -0.078 C 
HETATM    6  C13 UNL     1       1.650  -0.786  -1.444  1.00  0.00    -0.023 C 
HETATM    7  C14 UNL     1       0.273  -1.289  -1.775  1.00  0.00     0.032 C 
HETATM    8  C15 UNL     1      -0.608  -0.045  -1.640  1.00  0.00    -0.004 C 
HETATM    9  C16 UNL     1      -1.864  -0.283  -2.393  1.00  0.00     0.011 C 
HETATM   10  C17 UNL     1      -0.739   0.347  -0.212  1.00  0.00    -0.011 C 
HETATM   11  C18 UNL     1      -1.481   1.694  -0.206  1.00  0.00     0.018 C 
HETATM   12  C30 UNL     1       3.091   0.586  -0.081  1.00  0.00     0.039 C 
ENDROOT
BRANCH  10  13
HETATM   13  C19 UNL     1      -1.614  -0.579   0.603  1.00  0.00     0.189 C 
BRANCH  13  14
HETATM   14  O1  UNL     1      -2.862  -0.703  -0.058  1.00  0.00    -0.320 OA
BRANCH  14  15
HETATM   15  C20 UNL     1      -3.903  -1.450   0.388  1.00  0.00     0.268 C 
HETATM   16  O2  UNL     1      -3.823  -2.099   1.450  1.00  0.00    -0.264 OA
BRANCH  15  17
HETATM   17  C21 UNL     1      -5.165  -1.468  -0.449  1.00  0.00     0.135 A 
HETATM   18  C22 UNL     1      -5.694  -0.113  -0.611  1.00  0.00     0.067 A 
HETATM   19  C23 UNL     1      -7.111   0.077  -0.234  1.00  0.00     0.040 A 
HETATM   20  C26 UNL     1      -7.893  -0.865   0.224  1.00  0.00     0.017 A 
HETATM   21  C27 UNL     1      -9.336  -0.670   0.607  1.00  0.00     0.069 C 
HETATM   22  N1  UNL     1      -7.321  -2.184   0.367  1.00  0.00    -0.366 N 
HETATM   23  C28 UNL     1      -6.112  -2.457   0.070  1.00  0.00    -0.003 A 
ATOM     24  H1  UNL     1      -7.914  -2.934   0.723  1.00  0.00     0.165 HD
HETATM   25  C29 UNL     1      -5.651  -3.879   0.272  1.00  0.00     0.064 C 
BRANCH  19  26
HETATM   26  C24 UNL     1      -7.652   1.433  -0.398  1.00  0.00     0.290 C 
HETATM   27  O3  UNL     1      -8.820   1.708  -0.117  1.00  0.00    -0.260 OA
BRANCH  26  28
HETATM   28  O4  UNL     1      -6.847   2.449  -0.881  1.00  0.00    -0.323 OA
HETATM   29  C25 UNL     1      -7.349   3.761  -1.046  1.00  0.00     0.213 C 
ENDBRANCH  26  28
ENDBRANCH  19  26
ENDBRANCH  15  17
ENDBRANCH  14  15
ENDBRANCH  13  14
ENDBRANCH  10  13
BRANCH   1  30
HETATM   30  C7  UNL     1       4.606  -0.066   1.706  1.00  0.00     0.009 C 
BRANCH  30  31
HETATM   31  C6  UNL     1       5.639   0.870   1.173  1.00  0.00     0.034 C 
BRANCH  31  32
HETATM   32  C4  UNL     1       7.047   0.411   1.406  1.00  0.00    -0.073 C 
HETATM   33  C3  UNL     1       7.794   0.101   0.380  1.00  0.00     0.027 C 
HETATM   34  C5  UNL     1       7.546   0.381   2.819  1.00  0.00     0.044 C 
BRANCH  33  35
HETATM   35  C2  UNL     1       7.272   0.132  -1.040  1.00  0.00     0.039 C 
HETATM   36  C1  UNL     1       7.920   1.238  -1.817  1.00  0.00     0.010 C 
ENDBRANCH  33  35
BRANCH  33  37
HETATM   37  C31 UNL     1       9.206  -0.316   0.517  1.00  0.00     0.414 C 
HETATM   38  F1  UNL     1       9.321  -1.526  -0.214  1.00  0.00    -0.166 F 
HETATM   39  F2  UNL     1       9.683  -0.537   1.755  1.00  0.00    -0.166 F 
HETATM   40  F3  UNL     1       9.985   0.643  -0.144  1.00  0.00    -0.166 F 
ENDBRANCH  33  37
ENDBRANCH  31  32
ENDBRANCH  30  31
ENDBRANCH   1  30
TORSDOF 11
