REMARK  5 active torsions:
REMARK  status: ('A' for Active; 'I' for Inactive)
REMARK    1  A    between atoms: C2_2  and  C3_3 
REMARK    2  A    between atoms: C3_3  and  C4_4 
REMARK    3  A    between atoms: C4_4  and  N1_5 
REMARK    4  A    between atoms: N1_5  and  C5_6 
REMARK    5  A    between atoms: N1_5  and  C9_17 
ROOT
HETATM    1  C5  UNL     1      -1.219  -0.618  -0.483  1.00  0.00     0.679 C 
HETATM    2  N2  UNL     1      -2.032  -0.588  -1.454  1.00  0.00    -0.226 N 
ATOM      3  H2  UNL     1      -1.712  -0.088  -2.283  1.00  0.00     0.177 HD
HETATM    4  C6  UNL     1      -3.334  -1.160  -1.542  1.00  0.00     0.145 C 
HETATM    5  C7  UNL     1      -3.881  -1.671  -0.243  1.00  0.00     0.097 C 
HETATM    6  C8  UNL     1      -2.851  -1.913   0.772  1.00  0.00     0.092 C 
HETATM    7  N3  UNL     1      -3.125  -2.724   1.748  1.00  0.00    -0.388 N 
ATOM      8  H31 UNL     1      -2.408  -2.892   2.454  1.00  0.00     0.157 HD
ATOM      9  H32 UNL     1      -4.042  -3.169   1.784  1.00  0.00     0.157 HD
HETATM   10  N4  UNL     1      -1.583  -1.298   0.722  1.00  0.00    -0.181 N 
ATOM     11  H4  UNL     1      -0.947  -1.337   1.518  1.00  0.00     0.185 HD
ENDROOT
BRANCH   1  12
HETATM   12  N1  UNL     1       0.061   0.009  -0.553  1.00  0.00    -0.189 N 
BRANCH  12  13
HETATM   13  C4  UNL     1       1.239  -0.699  -1.010  1.00  0.00     0.144 C 
BRANCH  13  14
HETATM   14  C3  UNL     1       2.164  -0.866   0.174  1.00  0.00     0.020 C 
BRANCH  14  15
HETATM   15  C2  UNL     1       3.434  -1.606  -0.220  1.00  0.00    -0.003 C 
HETATM   16  C1  UNL     1       4.283  -1.719   1.027  1.00  0.00     0.005 C 
ENDBRANCH  14  15
ENDBRANCH  13  14
ENDBRANCH  12  13
BRANCH  12  17
HETATM   17  C9  UNL     1       0.160   1.385  -0.152  1.00  0.00     0.264 C 
HETATM   18  C10 UNL     1      -1.181   1.927   0.284  1.00  0.00     0.222 C 
HETATM   19  O1  UNL     1      -1.099   3.177   0.877  1.00  0.00    -0.385 OA
HETATM   20  C11 UNL     1       0.154   3.718   0.649  1.00  0.00     0.194 C 
HETATM   21  C12 UNL     1       0.602   3.509  -0.776  1.00  0.00     0.196 C 
HETATM   22  O2  UNL     1       0.607   2.201  -1.190  1.00  0.00    -0.362 OA
ENDBRANCH  12  17
ENDBRANCH   1  12
TORSDOF 5
