REMARK  5 active torsions:
REMARK  status: ('A' for Active; 'I' for Inactive)
REMARK    1  A    between atoms: C2_2  and  C3_3 
REMARK    2  A    between atoms: C6_6  and  C7_7 
REMARK    3  A    between atoms: C7_7  and  N1_8 
REMARK    4  A    between atoms: N1_8  and  C8_11 
REMARK    5  A    between atoms: C11_17  and  N3_18 
ROOT
HETATM    1  N1  UNL     1       1.458  -0.563   0.346  1.00  0.00    -0.062 N 
ATOM      2  H11 UNL     1       1.280  -1.007  -0.555  1.00  0.00     0.278 HD
ATOM      3  H12 UNL     1       1.364  -1.399   0.922  1.00  0.00     0.278 HD
ENDROOT
BRANCH   1   4
HETATM    4  C7  UNL     1       0.496   0.467   0.675  1.00  0.00     0.287 C 
BRANCH   4   5
HETATM    5  C6  UNL     1      -0.894  -0.008   0.630  1.00  0.00     0.038 C 
HETATM    6  C5  UNL     1      -1.652  -0.582  -0.534  1.00  0.00     0.096 C 
HETATM    7  C3  UNL     1      -3.054  -0.412  -0.049  1.00  0.00     0.090 C 
HETATM    8  C4  UNL     1      -3.970  -1.534  -0.476  1.00  0.00     0.049 C 
HETATM    9  O1  UNL     1      -2.908  -0.483   1.350  1.00  0.00    -0.269 OA
HETATM   10  N4  UNL     1      -1.676   0.012   1.648  1.00  0.00    -0.272 N 
ATOM     11  H4  UNL     1      -1.406   0.357   2.569  1.00  0.00     0.193 HD
BRANCH   7  12
HETATM   12  C2  UNL     1      -3.672   0.918  -0.408  1.00  0.00     0.036 C 
HETATM   13  C1  UNL     1      -5.005   1.001   0.334  1.00  0.00     0.008 C 
ENDBRANCH   7  12
ENDBRANCH   4   5
ENDBRANCH   1   4
BRANCH   1  14
HETATM   14  C8  UNL     1       2.771   0.047   0.433  1.00  0.00     0.236 C 
HETATM   15  C9  UNL     1       2.962   1.159  -0.554  1.00  0.00     0.267 C 
HETATM   16  N2  UNL     1       4.270   0.984  -1.157  1.00  0.00    -0.071 N 
HETATM   17  C10 UNL     1       4.980   0.039  -0.357  1.00  0.00     0.260 C 
ATOM     18  H22 UNL     1       4.224   0.720  -2.141  1.00  0.00     0.277 HD
ATOM     19  H21 UNL     1       4.774   1.862  -1.280  1.00  0.00     0.277 HD
HETATM   20  C11 UNL     1       3.872  -0.925   0.078  1.00  0.00     0.147 C 
BRANCH  20  21
HETATM   21  N3  UNL     1       4.309  -1.707   1.178  1.00  0.00    -0.346 N 
HETATM   22  S1  UNL     1       5.621  -2.237   1.100  1.00  0.00     0.037 SA
ATOM     23  H3  UNL     1       3.709  -1.879   1.985  1.00  0.00     0.169 HD
ENDBRANCH  20  21
ENDBRANCH   1  14
TORSDOF 5
