REMARK  4 active torsions:
REMARK  status: ('A' for Active; 'I' for Inactive)
REMARK    1  A    between atoms: N1_2  and  C2_5 
REMARK    2  A    between atoms: C7_10  and  N2_11 
REMARK    3  A    between atoms: N2_11  and  C8_13 
REMARK    4  A    between atoms: C11_19  and  N4_20 
ROOT
HETATM    1  N2  UNL     1       0.542   0.295   0.694  1.00  0.00    -0.360 N 
ATOM      2  H2  UNL     1       0.589   0.528   1.686  1.00  0.00     0.162 HD
ENDROOT
BRANCH   1   3
HETATM    3  C7  UNL     1      -0.765   0.190   0.023  1.00  0.00     0.114 C 
HETATM    4  C2  UNL     1      -1.826   0.547   0.996  1.00  0.00     0.207 C 
HETATM    5  C3  UNL     1      -2.943  -0.421   1.166  1.00  0.00     0.035 C 
HETATM    6  C4  UNL     1      -3.314  -1.150  -0.096  1.00  0.00     0.002 C 
HETATM    7  C5  UNL     1      -2.157  -1.780  -0.778  1.00  0.00     0.002 C 
HETATM    8  C6  UNL     1      -0.832  -1.158  -0.593  1.00  0.00     0.027 C 
BRANCH   4   9
HETATM    9  N1  UNL     1      -2.272   1.898   0.729  1.00  0.00    -0.073 N 
HETATM   10  C1  UNL     1      -3.002   2.038  -0.482  1.00  0.00     0.267 C 
ATOM     11  H12 UNL     1      -1.484   2.545   0.749  1.00  0.00     0.277 HD
ATOM     12  H11 UNL     1      -2.812   2.259   1.516  1.00  0.00     0.277 HD
ENDBRANCH   4   9
ENDBRANCH   1   3
BRANCH   1  13
HETATM   13  C8  UNL     1       1.625   0.093   0.029  1.00  0.00     0.202 A 
HETATM   14  O1  UNL     1       1.847  -0.209  -1.208  1.00  0.00    -0.217 OA
HETATM   15  N3  UNL     1       3.099  -0.329  -1.493  1.00  0.00    -0.261 N 
HETATM   16  C9  UNL     1       3.834  -0.095  -0.372  1.00  0.00     0.066 A 
ATOM     17  H3  UNL     1       3.477  -0.562  -2.411  1.00  0.00     0.194 HD
HETATM   18  C10 UNL     1       5.317  -0.129  -0.245  1.00  0.00     0.073 C 
HETATM   19  C11 UNL     1       2.904   0.175   0.606  1.00  0.00     0.179 A 
BRANCH  19  20
HETATM   20  N4  UNL     1       3.163   0.485   1.962  1.00  0.00    -0.109 N 
HETATM   21  O2  UNL     1       2.245   0.720   2.772  1.00  0.00    -0.532 OA
HETATM   22  O3  UNL     1       4.450   0.538   2.434  1.00  0.00    -0.532 OA
ENDBRANCH  19  20
ENDBRANCH   1  13
TORSDOF 4
