REMARK  5 active torsions:
REMARK  status: ('A' for Active; 'I' for Inactive)
REMARK    1  A    between atoms: C2_3  and  C3_4 
REMARK    2  A    between atoms: C6_7  and  O1_8 
REMARK    3  A    between atoms: C7_10  and  O2_11 
REMARK    4  A    between atoms: C9_14  and  C10_15 
REMARK    5  A    between atoms: C10_15  and  C11_16 
ROOT
HETATM    1  N1  UNL     1       4.501  -2.308  -1.322  1.00  0.00    -0.197 NA
HETATM    2  C1  UNL     1       3.938  -1.649  -0.550  1.00  0.00     0.062 C 
HETATM    3  C2  UNL     1       3.214  -0.832   0.443  1.00  0.00     0.151 C 
ENDROOT
BRANCH   3   4
HETATM    4  C3  UNL     1       1.735  -1.042   0.298  1.00  0.00    -0.010 C 
HETATM    5  C4  UNL     1       0.874  -0.070   0.033  1.00  0.00    -0.076 C 
HETATM    6  C5  UNL     1       1.442   1.293  -0.122  1.00  0.00     0.068 C 
HETATM    7  C9  UNL     1      -0.585  -0.372  -0.097  1.00  0.00     0.019 C 
HETATM    8  C6  UNL     1       0.458   2.394  -0.254  1.00  0.00     0.151 C 
HETATM    9  C7  UNL     1      -0.948   1.992  -0.438  1.00  0.00     0.147 C 
HETATM   10  C8  UNL     1      -1.347   0.778   0.436  1.00  0.00     0.043 C 
BRANCH   8  11
HETATM   11  O1  UNL     1       0.832   3.149  -1.392  1.00  0.00    -0.393 OA
ATOM     12  H1  UNL     1       0.201   3.855  -1.477  1.00  0.00     0.210 HD
ENDBRANCH   8  11
BRANCH   9  13
HETATM   13  O2  UNL     1      -1.796   3.061  -0.172  1.00  0.00    -0.393 OA
ATOM     14  H2  UNL     1      -2.702   2.802  -0.291  1.00  0.00     0.210 HD
ENDBRANCH   9  13
BRANCH   7  15
HETATM   15  C10 UNL     1      -0.863  -1.726   0.402  1.00  0.00     0.043 C 
BRANCH  15  16
HETATM   16  C11 UNL     1      -2.269  -2.219   0.398  1.00  0.00     0.200 C 
HETATM   17  C12 UNL     1      -2.919  -2.220  -0.895  1.00  0.00     0.078 C 
HETATM   18  N2  UNL     1      -3.434  -2.200  -1.930  1.00  0.00    -0.196 NA
HETATM   19  C13 UNL     1      -3.035  -1.603   1.460  1.00  0.00     0.078 C 
HETATM   20  N3  UNL     1      -3.662  -1.134   2.328  1.00  0.00    -0.196 NA
ENDBRANCH  15  16
ENDBRANCH   7  15
ENDBRANCH   3   4
TORSDOF 5
