REMARK  14 active torsions:
REMARK  status: ('A' for Active; 'I' for Inactive)
REMARK    1  A    between atoms: C2_2  and  C3_3 
REMARK    2  A    between atoms: C2_2  and  C11_13 
REMARK    3  A    between atoms: C4_4  and  C5_5 
REMARK    4  A    between atoms: C5_5  and  C7_7 
REMARK    5  A    between atoms: C8_8  and  C9_9 
REMARK    6  A    between atoms: C9_9  and  O2_11 
REMARK    7  A    between atoms: C19_21  and  O3_22 
REMARK    8  A    between atoms: C21_25  and  O4_26 
REMARK    9  A    between atoms: C22_28  and  C23_29 
REMARK   10  A    between atoms: C23_29  and  O5_30 
REMARK   11  A    between atoms: O5_30  and  C24_31 
REMARK   12  A    between atoms: C24_31  and  C25_33 
REMARK   13  A    between atoms: C30_38  and  O7_39 
REMARK   14  A    between atoms: O7_39  and  C31_40 
ROOT
HETATM    1  C11 UNL     1       1.154   0.585  -0.606  1.00  0.00     0.051 C 
HETATM    2  C12 UNL     1       1.965  -0.613  -0.521  1.00  0.00     0.016 C 
HETATM    3  C13 UNL     1       1.609  -1.933  -1.139  1.00  0.00     0.028 C 
HETATM    4  C14 UNL     1       0.464  -2.657  -0.542  1.00  0.00    -0.026 C 
HETATM    5  C15 UNL     1      -0.281  -3.679  -0.784  1.00  0.00    -0.001 C 
HETATM    6  C16 UNL     1      -1.448  -4.302  -0.063  1.00  0.00    -0.077 C 
HETATM    7  C17 UNL     1      -1.056  -5.423   0.865  1.00  0.00     0.044 C 
HETATM    8  C18 UNL     1      -2.541  -3.482   0.458  1.00  0.00     0.052 A 
HETATM    9  C19 UNL     1      -3.832  -3.302  -0.212  1.00  0.00     0.134 A 
HETATM   10  C20 UNL     1      -2.850  -2.180  -0.267  1.00  0.00     0.059 A 
HETATM   11  C21 UNL     1      -3.060  -1.046   0.625  1.00  0.00     0.156 C 
HETATM   12  C22 UNL     1      -2.183   0.153   0.604  1.00  0.00    -0.028 C 
HETATM   13  C29 UNL     1      -1.221   0.533  -0.133  1.00  0.00     0.013 C 
HETATM   14  C30 UNL     1      -0.243   0.479  -1.223  1.00  0.00     0.163 C 
ENDROOT
BRANCH   1  15
HETATM   15  C2  UNL     1       1.894   1.821  -1.162  1.00  0.00    -0.061 C 
HETATM   16  C1  UNL     1       1.397   2.520  -2.042  1.00  0.00     0.019 C 
BRANCH  15  17
HETATM   17  C3  UNL     1       3.197   2.160  -0.569  1.00  0.00     0.003 C 
HETATM   18  C4  UNL     1       3.904   1.643   0.344  1.00  0.00    -0.018 C 
BRANCH  18  19
HETATM   19  C5  UNL     1       5.227   2.263   0.714  1.00  0.00     0.027 C 
HETATM   20  C6  UNL     1       5.247   2.619   2.183  1.00  0.00     0.018 C 
BRANCH  19  21
HETATM   21  C7  UNL     1       6.321   1.335   0.444  1.00  0.00    -0.012 C 
HETATM   22  C8  UNL     1       7.210   0.851   1.291  1.00  0.00     0.079 C 
BRANCH  22  23
HETATM   23  C9  UNL     1       8.239  -0.082   0.814  1.00  0.00     0.282 C 
HETATM   24  O1  UNL     1       8.211  -0.360  -0.434  1.00  0.00    -0.260 OA
BRANCH  23  25
HETATM   25  O2  UNL     1       9.197  -0.672   1.563  1.00  0.00    -0.323 OA
HETATM   26  C10 UNL     1      10.152  -1.588   1.002  1.00  0.00     0.213 C 
ENDBRANCH  23  25
ENDBRANCH  22  23
ENDBRANCH  19  21
ENDBRANCH  18  19
ENDBRANCH  15  17
ENDBRANCH   1  15
BRANCH  14  27
HETATM   27  O7  UNL     1      -0.429  -0.439  -2.205  1.00  0.00    -0.312 OA
BRANCH  27  28
HETATM   28  C31 UNL     1      -0.768  -0.366  -3.517  1.00  0.00     0.255 C 
HETATM   29  C32 UNL     1      -0.911  -1.577  -4.396  1.00  0.00     0.126 C 
HETATM   30  O8  UNL     1      -0.971   0.769  -4.009  1.00  0.00    -0.266 OA
ENDBRANCH  27  28
ENDBRANCH  14  27
BRANCH  12  31
HETATM   31  C23 UNL     1      -2.595   1.027   1.795  1.00  0.00     0.215 C 
BRANCH  31  32
HETATM   32  O5  UNL     1      -3.874   1.526   1.803  1.00  0.00    -0.317 OA
BRANCH  32  33
HETATM   33  C24 UNL     1      -4.361   2.365   0.850  1.00  0.00     0.266 C 
HETATM   34  O6  UNL     1      -3.552   2.645  -0.082  1.00  0.00    -0.264 OA
BRANCH  33  35
HETATM   35  C25 UNL     1      -5.681   2.985   0.762  1.00  0.00     0.037 C 
HETATM   36  C26 UNL     1      -6.765   1.964   0.633  1.00  0.00     0.025 C 
HETATM   37  C27 UNL     1      -5.797   3.968  -0.393  1.00  0.00     0.025 C 
HETATM   38  C28 UNL     1      -5.970   3.750   2.064  1.00  0.00     0.025 C 
ENDBRANCH  33  35
ENDBRANCH  32  33
ENDBRANCH  31  32
ENDBRANCH  12  31
BRANCH  11  39
HETATM   39  O4  UNL     1      -4.403  -0.695   0.563  1.00  0.00    -0.391 OA
ATOM     40  H4  UNL     1      -4.540   0.044   1.144  1.00  0.00     0.210 HD
ENDBRANCH  11  39
BRANCH   9  41
HETATM   41  O3  UNL     1      -4.928  -3.167   0.647  1.00  0.00    -0.394 OA
ATOM     42  H3  UNL     1      -5.765  -3.050   0.213  1.00  0.00     0.210 HD
ENDBRANCH   9  41
TORSDOF 14
