REMARK  13 active torsions:
REMARK  status: ('A' for Active; 'I' for Inactive)
REMARK    1  A    between atoms: C5_5  and  C6_6 
REMARK    2  A    between atoms: C6_6  and  O1_7 
REMARK    3  A    between atoms: O1_7  and  C7_8 
REMARK    4  A    between atoms: C7_8  and  C8_9 
REMARK    5  A    between atoms: C8_9  and  C10_12 
REMARK    6  A    between atoms: C15_17  and  C16_18 
REMARK    7  A    between atoms: C19_21  and  C20_22 
REMARK    8  A    between atoms: C23_25  and  C24_26 
REMARK    9  A    between atoms: C24_26  and  C26_28 
REMARK   10  A    between atoms: C26_28  and  O2_29 
REMARK   11  A    between atoms: C26_28  and  C27_31 
REMARK   12  A    between atoms: C27_31  and  O3_33 
REMARK   13  A    between atoms: C29_37  and  O6_38 
ROOT
HETATM    1  C8  UNL     1       4.773  -1.825   1.083  1.00  0.00     0.121 C 
HETATM    2  C9  UNL     1       4.011  -1.424   2.321  1.00  0.00     0.066 C 
HETATM    3  N1  UNL     1       3.449  -1.105   3.307  1.00  0.00    -0.197 NA
ENDROOT
BRANCH   1   4
HETATM    4  C7  UNL     1       6.191  -1.325   1.346  1.00  0.00     0.187 C 
BRANCH   4   5
HETATM    5  O1  UNL     1       6.976  -1.661   0.281  1.00  0.00    -0.383 OA
BRANCH   5   6
HETATM    6  C6  UNL     1       8.292  -1.292   0.344  1.00  0.00     0.232 C 
BRANCH   6   7
HETATM    7  C5  UNL     1       8.480   0.184   0.463  1.00  0.00     0.076 A 
HETATM    8  C4  UNL     1       8.623   0.841   1.659  1.00  0.00     0.037 A 
HETATM    9  C3  UNL     1       8.771   2.173   1.337  1.00  0.00     0.035 A 
HETATM   10  C2  UNL     1       8.714   2.288  -0.036  1.00  0.00     0.049 A 
HETATM   11  C1  UNL     1       8.827   3.548  -0.847  1.00  0.00     0.076 C 
HETATM   12  O7  UNL     1       8.541   1.075  -0.492  1.00  0.00    -0.318 OA
ENDBRANCH   6   7
ENDBRANCH   5   6
ENDBRANCH   4   5
ENDBRANCH   1   4
BRANCH   1  13
HETATM   13  C10 UNL     1       4.104  -1.156  -0.057  1.00  0.00     0.018 C 
HETATM   14  C11 UNL     1       4.869  -1.285  -1.362  1.00  0.00     0.011 C 
HETATM   15  C12 UNL     1       3.817  -0.853  -2.391  1.00  0.00     0.035 C 
HETATM   16  C13 UNL     1       2.514  -1.001  -1.706  1.00  0.00    -0.074 C 
HETATM   17  C14 UNL     1       1.290  -0.579  -1.934  1.00  0.00    -0.013 C 
HETATM   18  C31 UNL     1       2.802  -1.834  -0.503  1.00  0.00    -0.014 C 
HETATM   19  C15 UNL     1       0.107  -0.846  -1.110  1.00  0.00     0.066 C 
HETATM   20  C29 UNL     1       0.373  -2.015  -0.198  1.00  0.00     0.129 C 
HETATM   21  C30 UNL     1       1.707  -1.774   0.495  1.00  0.00     0.046 C 
HETATM   22  C32 UNL     1       3.046  -3.235  -1.028  1.00  0.00     0.020 C 
BRANCH  19  23
HETATM   23  C16 UNL     1      -0.377   0.310  -0.297  1.00  0.00     0.132 C 
HETATM   24  C17 UNL     1      -0.765   1.498  -1.156  1.00  0.00     0.035 C 
HETATM   25  C18 UNL     1      -2.213   1.310  -1.470  1.00  0.00     0.037 C 
HETATM   26  C19 UNL     1      -2.582   0.100  -0.656  1.00  0.00     0.151 C 
HETATM   27  O5  UNL     1      -1.602  -0.069   0.295  1.00  0.00    -0.377 OA
BRANCH  26  28
HETATM   28  C20 UNL     1      -3.930   0.259   0.017  1.00  0.00     0.151 C 
HETATM   29  C21 UNL     1      -4.257  -1.089   0.643  1.00  0.00     0.037 C 
HETATM   30  C22 UNL     1      -5.773  -0.907   0.837  1.00  0.00     0.035 C 
HETATM   31  C23 UNL     1      -6.113  -0.001  -0.313  1.00  0.00     0.128 C 
HETATM   32  O4  UNL     1      -4.946   0.432  -0.891  1.00  0.00    -0.378 OA
BRANCH  31  33
HETATM   33  C24 UNL     1      -6.934   1.214   0.119  1.00  0.00     0.042 C 
HETATM   34  C25 UNL     1      -7.177   2.004  -1.141  1.00  0.00     0.015 C 
BRANCH  33  35
HETATM   35  C26 UNL     1      -8.185   0.800   0.816  1.00  0.00     0.152 C 
BRANCH  35  36
HETATM   36  O2  UNL     1      -9.058   0.035   0.062  1.00  0.00    -0.393 OA
ATOM     37  H2  UNL     1      -9.855  -0.229   0.506  1.00  0.00     0.210 HD
ENDBRANCH  35  36
BRANCH  35  38
HETATM   38  C27 UNL     1      -8.899   1.963   1.412  1.00  0.00     0.143 C 
HETATM   39  C28 UNL     1      -9.641   2.827   0.402  1.00  0.00     0.042 C 
BRANCH  38  40
HETATM   40  O3  UNL     1      -9.910   1.494   2.299  1.00  0.00    -0.393 OA
ATOM     41  H3  UNL     1     -10.365   2.236   2.679  1.00  0.00     0.210 HD
ENDBRANCH  38  40
ENDBRANCH  35  38
ENDBRANCH  33  35
ENDBRANCH  31  33
ENDBRANCH  26  28
ENDBRANCH  19  23
BRANCH  20  42
HETATM   42  O6  UNL     1      -0.585  -2.159   0.798  1.00  0.00    -0.395 OA
ATOM     43  H6  UNL     1      -0.417  -2.896   1.373  1.00  0.00     0.210 HD
ENDBRANCH  20  42
ENDBRANCH   1  13
TORSDOF 13
