REMARK  6 active torsions:
REMARK  status: ('A' for Active; 'I' for Inactive)
REMARK    1  A    between atoms: C2_3  and  N2_4 
REMARK    2  A    between atoms: C3_11  and  N5_12 
REMARK    3  A    between atoms: N5_12  and  C4_14 
REMARK    4  A    between atoms: C4_14  and  O1_15 
REMARK    5  A    between atoms: C4_14  and  N6_17 
REMARK    6  A    between atoms: N6_17  and  N7_19 
ROOT
HETATM    1  C1  UNL     1      -3.432   0.574   0.669  1.00  0.00     0.179 C 
HETATM    2  N1  UNL     1      -2.153   0.073   0.150  1.00  0.00    -0.148 N 
HETATM    3  C2  UNL     1      -2.105  -0.983  -0.669  1.00  0.00     0.695 A 
HETATM    4  N3  UNL     1      -0.883  -1.391  -1.111  1.00  0.00    -0.130 N 
ATOM      5  H3  UNL     1      -0.819  -2.194  -1.737  1.00  0.00     0.205 HD
HETATM    6  N4  UNL     1       0.211  -0.770  -0.746  1.00  0.00    -0.267 N 
ATOM      7  H4  UNL     1       1.105  -1.109  -1.101  1.00  0.00     0.189 HD
HETATM    8  C3  UNL     1       0.209   0.291   0.073  1.00  0.00     0.193 A 
HETATM    9  C5  UNL     1      -1.049   0.726   0.539  1.00  0.00     0.307 A 
HETATM   10  O2  UNL     1      -1.092   1.720   1.309  1.00  0.00    -0.263 OA
ENDROOT
BRANCH   8  11
HETATM   11  N5  UNL     1       1.324   1.011   0.511  1.00  0.00    -0.301 N 
ATOM     12  H5  UNL     1       1.137   1.796   1.134  1.00  0.00     0.171 HD
BRANCH  11  13
HETATM   13  C4  UNL     1       2.673   0.778   0.192  1.00  0.00     0.237 C 
BRANCH  13  14
HETATM   14  O1  UNL     1       3.589   1.554   0.694  1.00  0.00    -0.331 OA
ATOM     15  H1  UNL     1       4.501   1.397   0.478  1.00  0.00     0.221 HD
ENDBRANCH  13  14
BRANCH  13  16
HETATM   16  N6  UNL     1       3.100  -0.259  -0.652  1.00  0.00    -0.272 N 
ATOM     17  H6  UNL     1       2.436  -0.904  -1.080  1.00  0.00     0.190 HD
BRANCH  16  18
HETATM   18  N7  UNL     1       4.509  -0.372  -0.886  1.00  0.00    -0.342 N 
ATOM     19  H72 UNL     1       5.160   0.281  -0.450  1.00  0.00     0.176 HD
ATOM     20  H71 UNL     1       4.819  -1.126  -1.499  1.00  0.00     0.176 HD
ENDBRANCH  16  18
ENDBRANCH  13  16
ENDBRANCH  11  13
ENDBRANCH   8  11
BRANCH   3  21
HETATM   21  N2  UNL     1      -3.204  -1.566  -1.004  1.00  0.00    -0.233 N 
ATOM     22  H22 UNL     1      -4.119  -1.260  -0.673  1.00  0.00     0.174 HD
ATOM     23  H21 UNL     1      -3.167  -2.371  -1.629  1.00  0.00     0.174 HD
ENDBRANCH   3  21
TORSDOF 6
