REMARK  3 active torsions:
REMARK  status: ('A' for Active; 'I' for Inactive)
REMARK    1  A    between atoms: C3_5  and  N2_6 
REMARK    2  A    between atoms: N2_6  and  N3_8 
REMARK    3  A    between atoms: N3_8  and  C4_10 
ROOT
HETATM    1  N3  UNL     1       0.147  -0.926  -0.744  1.00  0.00    -0.117 N 
ATOM      2  H3  UNL     1      -0.041  -1.923  -0.846  1.00  0.00     0.206 HD
ENDROOT
BRANCH   1   3
HETATM    3  N2  UNL     1      -0.804  -0.001  -1.144  1.00  0.00    -0.118 N 
ATOM      4  H2  UNL     1      -0.595   0.689  -1.866  1.00  0.00     0.206 HD
BRANCH   3   5
HETATM    5  C3  UNL     1      -2.088  -0.042  -0.515  1.00  0.00     0.689 C 
HETATM    6  N1  UNL     1      -2.356   0.695   0.680  1.00  0.00    -0.224 N 
HETATM    7  C2  UNL     1      -3.796   0.806   0.736  1.00  0.00     0.158 C 
ATOM      8  H1  UNL     1      -1.678   1.063   1.348  1.00  0.00     0.177 HD
HETATM    9  C1  UNL     1      -4.230  -0.461   0.038  1.00  0.00     0.158 C 
HETATM   10  N7  UNL     1      -3.135  -0.691  -0.879  1.00  0.00    -0.224 N 
ATOM     11  H7  UNL     1      -3.187  -1.288  -1.704  1.00  0.00     0.177 HD
ENDBRANCH   3   5
ENDBRANCH   1   3
BRANCH   1  12
HETATM   12  C4  UNL     1       1.392  -0.489  -0.188  1.00  0.00     0.704 C 
HETATM   13  N4  UNL     1       1.625   0.756  -0.055  1.00  0.00    -0.223 N 
HETATM   14  C5  UNL     1       2.838   1.271   0.490  1.00  0.00     0.156 C 
ATOM     15  H4  UNL     1       0.908   1.418  -0.353  1.00  0.00     0.177 HD
HETATM   16  C6  UNL     1       3.732   0.270   1.137  1.00  0.00     0.155 C 
HETATM   17  N5  UNL     1       3.672  -1.003   0.449  1.00  0.00    -0.125 NA
HETATM   18  N6  UNL     1       2.370  -1.422   0.217  1.00  0.00    -0.135 N 
ATOM     19  H6  UNL     1       2.120  -2.403   0.339  1.00  0.00     0.201 HD
ENDBRANCH   1  12
TORSDOF 3
