REMARK  4 active torsions:
REMARK  status: ('A' for Active; 'I' for Inactive)
REMARK    1  A    between atoms: N1_1  and  N2_4 
REMARK       I    between atoms: N2_4  and  C1_6 
REMARK       I    between atoms: C1_6  and  N3_8 
REMARK    2  A    between atoms: N3_8  and  C2_9 
REMARK    3  A    between atoms: C3_16  and  N7_17 
REMARK    4  A    between atoms: N7_17  and  O2_19 
ROOT
HETATM    1  C2  UNL     1       0.985  -0.516   0.236  1.00  0.00     0.247 A 
HETATM    2  N4  UNL     1       2.144  -0.944   0.755  1.00  0.00    -0.256 N 
ATOM      3  H4  UNL     1       2.628  -0.481   1.524  1.00  0.00     0.191 HD
HETATM    4  N5  UNL     1       2.588  -2.033   0.157  1.00  0.00    -0.239 N 
ATOM      5  H5  UNL     1       3.445  -2.541   0.377  1.00  0.00     0.208 HD
HETATM    6  N6  UNL     1       1.720  -2.337  -0.771  1.00  0.00    -0.265 N 
ATOM      7  H6  UNL     1       1.806  -3.137  -1.398  1.00  0.00     0.190 HD
HETATM    8  C3  UNL     1       0.718  -1.478  -0.795  1.00  0.00     0.202 A 
ENDROOT
BRANCH   1   9
HETATM    9  N3  UNL     1       0.165   0.511   0.509  1.00  0.00    -0.327 NA
HETATM   10  C1  UNL     1      -0.664   1.549   0.784  1.00  0.00     0.413 C 
HETATM   11  N2  UNL     1      -1.937   1.621   0.062  1.00  0.00    -0.246 N 
HETATM   12  O1  UNL     1      -0.504   2.482   1.588  1.00  0.00    -0.228 OA
ATOM     13  H2  UNL     1      -2.185   0.906  -0.622  1.00  0.00     0.192 HD
BRANCH  11  14
HETATM   14  N1  UNL     1      -2.796   2.672   0.322  1.00  0.00    -0.340 N 
ATOM     15  H12 UNL     1      -2.533   3.379   1.009  1.00  0.00     0.177 HD
ATOM     16  H11 UNL     1      -3.682   2.722  -0.181  1.00  0.00     0.177 HD
ENDBRANCH  11  14
ENDBRANCH   1   9
BRANCH   8  17
HETATM   17  N7  UNL     1      -0.331  -1.415  -1.532  1.00  0.00    -0.248 N 
ATOM     18  H7  UNL     1      -1.032  -0.682  -1.427  1.00  0.00     0.196 HD
BRANCH  17  19
HETATM   19  O2  UNL     1      -0.438  -2.419  -2.481  1.00  0.00    -0.288 OA
ATOM     20  H2  UNL     1      -1.214  -2.372  -3.026  1.00  0.00     0.244 HD
ENDBRANCH  17  19
ENDBRANCH   8  17
TORSDOF 4
