REMARK  3 active torsions:
REMARK  status: ('A' for Active; 'I' for Inactive)
REMARK    1  A    between atoms: N1_1  and  C1_4 
REMARK    2  A    between atoms: C2_5  and  C3_6 
REMARK    3  A    between atoms: N4_14  and  N5_15 
ROOT
HETATM    1  C1  UNL     1       0.061  -0.327   0.372  1.00  0.00     0.142 A 
HETATM    2  C2  UNL     1      -0.762   0.299  -0.571  1.00  0.00     0.090 A 
HETATM    3  C4  UNL     1      -0.211   1.223  -1.411  1.00  0.00     0.113 A 
HETATM    4  N3  UNL     1       1.088   1.501  -1.311  1.00  0.00    -0.316 N 
ATOM      5  H3  UNL     1       1.498   2.191  -1.940  1.00  0.00     0.170 HD
HETATM    6  C5  UNL     1       1.867   0.900  -0.408  1.00  0.00     0.346 A 
HETATM    7  O2  UNL     1       3.105   1.144  -0.288  1.00  0.00    -0.245 OA
HETATM    8  N4  UNL     1       1.359  -0.018   0.439  1.00  0.00    -0.195 N 
ENDROOT
BRANCH   1   9
HETATM    9  N1  UNL     1      -0.480  -1.209   1.171  1.00  0.00    -0.383 N 
ATOM     10  H12 UNL     1      -1.471  -1.445   1.120  1.00  0.00     0.157 HD
ATOM     11  H11 UNL     1       0.120  -1.665   1.858  1.00  0.00     0.157 HD
ENDBRANCH   1   9
BRANCH   2  12
HETATM   12  C3  UNL     1      -2.172  -0.045  -0.634  1.00  0.00     0.270 C 
HETATM   13  N2  UNL     1      -2.771  -0.996   0.222  1.00  0.00    -0.057 NA
HETATM   14  O1  UNL     1      -2.892   0.524  -1.483  1.00  0.00    -0.271 OA
ENDBRANCH   2  12
BRANCH   8  15
HETATM   15  N5  UNL     1       2.158  -0.662   1.396  1.00  0.00    -0.333 N 
ATOM     16  H52 UNL     1       1.774  -1.356   2.037  1.00  0.00     0.177 HD
ATOM     17  H51 UNL     1       3.149  -0.426   1.447  1.00  0.00     0.177 HD
ENDBRANCH   8  15
TORSDOF 3
