REMARK  2 active torsions:
REMARK  status: ('A' for Active; 'I' for Inactive)
REMARK    1  A    between atoms: C3_3  and  C4_4 
REMARK    2  A    between atoms: C4_4  and  N1_5 
ROOT
HETATM    1  C1  UNL     1       4.035   0.690   0.324  1.00  0.00     0.012 C 
HETATM    2  C2  UNL     1       2.993   0.115   0.540  1.00  0.00    -0.116 C 
HETATM    3  C3  UNL     1       1.723  -0.575   0.820  1.00  0.00     0.123 C 
ENDROOT
BRANCH   3   4
HETATM    4  C4  UNL     1       0.698  -0.038  -0.110  1.00  0.00     0.287 C 
BRANCH   4   5
HETATM    5  N1  UNL     1      -0.607  -0.562  -0.019  1.00  0.00     0.114 N 
HETATM    6  C5  UNL     1      -1.457   0.069  -0.985  1.00  0.00     0.301 C 
HETATM    7  C6  UNL     1      -2.594   0.584  -0.146  1.00  0.00     0.200 C 
HETATM    8  O1  UNL     1      -2.444   0.142   1.128  1.00  0.00    -0.361 OA
HETATM    9  C7  UNL     1      -1.268  -0.620   1.196  1.00  0.00     0.440 C 
ENDBRANCH   4   5
ENDBRANCH   3   4
TORSDOF 2
