REMARK  2 active torsions:
REMARK  status: ('A' for Active; 'I' for Inactive)
REMARK    1  A    between atoms: N1_1  and  C1_5 
REMARK    2  A    between atoms: C1_5  and  C2_6 
ROOT
HETATM    1  C2  UNL     1       0.331   0.072  -0.138  1.00  0.00     0.013 C 
HETATM    2  C3  UNL     1       0.097  -1.365   0.182  1.00  0.00     0.043 C 
HETATM    3  C4  UNL     1      -1.419  -1.478  -0.024  1.00  0.00     0.273 C 
HETATM    4  N2  UNL     1      -1.859  -0.186  -0.515  1.00  0.00     0.089 N 
HETATM    5  C5  UNL     1      -1.784   0.829   0.547  1.00  0.00     0.273 C 
HETATM    6  C6  UNL     1      -0.298   0.939   0.900  1.00  0.00     0.043 C 
HETATM    7  C7  UNL     1      -0.674   0.231  -1.292  1.00  0.00     0.283 C 
ENDROOT
BRANCH   1   8
HETATM    8  C1  UNL     1       1.681   0.435  -0.572  1.00  0.00     0.240 C 
BRANCH   8   9
HETATM    9  N1  UNL     1       2.696   0.149   0.387  1.00  0.00    -0.079 N 
ATOM     10  H13 UNL     1       2.477   0.588   1.281  1.00  0.00     0.274 HD
ATOM     11  H12 UNL     1       2.661  -0.832   0.663  1.00  0.00     0.274 HD
ATOM     12  H11 UNL     1       3.637   0.402   0.085  1.00  0.00     0.274 HD
ENDBRANCH   8   9
ENDBRANCH   1   8
TORSDOF 2
