REMARK  11 active torsions:
REMARK  status: ('A' for Active; 'I' for Inactive)
REMARK    1  A    between atoms: C3_5  and  N2_6 
REMARK    2  A    between atoms: C5_15  and  C6_16 
REMARK    3  A    between atoms: C6_16  and  C7_17 
REMARK    4  A    between atoms: N6_21  and  C9_23 
REMARK    5  A    between atoms: C9_23  and  C10_24 
REMARK    6  A    between atoms: C10_24  and  C11_25 
REMARK    7  A    between atoms: C11_25  and  N7_26 
REMARK    8  A    between atoms: N7_26  and  C12_28 
REMARK    9  A    between atoms: C12_28  and  C13_29 
REMARK   10  A    between atoms: C18_34  and  O1_35 
REMARK   11  A    between atoms: N9_44  and  C24_46 
ROOT
HETATM    1  C7  UNL     1      -4.136  -0.517   0.158  1.00  0.00     0.137 A 
HETATM    2  N5  UNL     1      -2.818  -0.887  -0.216  1.00  0.00    -0.176 N 
ATOM      3  H5  UNL     1      -2.605  -1.877  -0.339  1.00  0.00     0.186 HD
HETATM    4  C8  UNL     1      -1.767   0.076  -0.429  1.00  0.00     0.694 A 
HETATM    5  N6  UNL     1      -0.609  -0.372  -0.767  1.00  0.00    -0.225 N 
ATOM      6  H6  UNL     1      -0.494  -1.381  -0.866  1.00  0.00     0.177 HD
HETATM    7  N8  UNL     1      -2.052   1.451  -0.262  1.00  0.00    -0.022 N 
ATOM      8  H8  UNL     1      -1.315   2.141  -0.410  1.00  0.00     0.203 HD
HETATM    9  C23 UNL     1      -3.384   1.892   0.119  1.00  0.00     0.694 A 
HETATM   10  N9  UNL     1      -3.590   3.157   0.262  1.00  0.00    -0.221 N 
ATOM     11  H9  UNL     1      -2.820   3.807   0.106  1.00  0.00     0.178 HD
HETATM   12  N10 UNL     1      -4.364   0.891   0.311  1.00  0.00    -0.176 N 
ATOM     13  H10 UNL     1      -5.301   1.192   0.578  1.00  0.00     0.186 HD
ENDROOT
BRANCH   5  14
HETATM   14  C9  UNL     1       0.518   0.457  -1.010  1.00  0.00     0.139 C 
BRANCH  14  15
HETATM   15  C10 UNL     1       1.405   0.482   0.220  1.00  0.00     0.039 C 
BRANCH  15  16
HETATM   16  C11 UNL     1       2.616   1.367  -0.019  1.00  0.00     0.115 C 
BRANCH  16  17
HETATM   17  N7  UNL     1       3.425   0.948  -1.111  1.00  0.00    -0.421 N 
ATOM     18  H7  UNL     1       3.497   1.501  -1.965  1.00  0.00     0.153 HD
BRANCH  17  19
HETATM   19  C12 UNL     1       4.129  -0.277  -0.956  1.00  0.00     0.118 C 
BRANCH  19  20
HETATM   20  C13 UNL     1       5.235  -0.136   0.097  1.00  0.00     0.007 C 
HETATM   21  C14 UNL     1       6.165   0.942  -0.376  1.00  0.00     0.011 C 
HETATM   22  C15 UNL     1       7.187   0.357  -1.335  1.00  0.00     0.039 C 
HETATM   23  C16 UNL     1       7.994  -0.578  -0.534  1.00  0.00    -0.049 A 
HETATM   24  C17 UNL     1       9.362  -0.547  -0.608  1.00  0.00     0.044 A 
HETATM   25  C21 UNL     1       7.349  -1.471   0.282  1.00  0.00    -0.051 A 
HETATM   26  C18 UNL     1      10.083  -1.459   0.180  1.00  0.00     0.066 A 
HETATM   27  C19 UNL     1       9.461  -2.366   1.009  1.00  0.00     0.037 A 
HETATM   28  C20 UNL     1       8.080  -2.379   1.067  1.00  0.00     0.010 A 
HETATM   29  C22 UNL     1       5.867  -1.464   0.314  1.00  0.00     0.045 C 
BRANCH  26  30
HETATM   30  O1  UNL     1      11.469  -1.471   0.145  1.00  0.00    -0.361 OA
ATOM     31  H1  UNL     1      11.957  -2.088   0.678  1.00  0.00     0.217 HD
ENDBRANCH  26  30
ENDBRANCH  19  20
ENDBRANCH  17  19
ENDBRANCH  16  17
ENDBRANCH  15  16
ENDBRANCH  14  15
ENDBRANCH   5  14
BRANCH   1  32
HETATM   32  C6  UNL     1      -5.107  -1.383   0.381  1.00  0.00     0.067 C 
BRANCH  32  33
HETATM   33  C5  UNL     1      -5.025  -2.815   0.302  1.00  0.00     0.034 A 
HETATM   34  C2  UNL     1      -5.780  -3.429  -0.693  1.00  0.00     0.036 A 
HETATM   35  C1  UNL     1      -6.593  -2.615  -1.635  1.00  0.00     0.070 C 
HETATM   36  N1  UNL     1      -5.765  -4.766  -0.791  1.00  0.00    -0.195 N 
HETATM   37  C3  UNL     1      -5.030  -5.498   0.063  1.00  0.00     0.677 A 
ATOM     38  H1  UNL     1      -6.313  -5.229  -1.516  1.00  0.00     0.184 HD
HETATM   39  N3  UNL     1      -4.297  -4.929   1.028  1.00  0.00    -0.176 N 
HETATM   40  C4  UNL     1      -4.275  -3.566   1.177  1.00  0.00     0.127 A 
ATOM     41  H3  UNL     1      -3.750  -5.515   1.658  1.00  0.00     0.186 HD
HETATM   42  N4  UNL     1      -3.598  -3.082   2.131  1.00  0.00    -0.384 N 
ATOM     43  H42 UNL     1      -3.042  -3.639   2.780  1.00  0.00     0.157 HD
ATOM     44  H41 UNL     1      -3.582  -2.068   2.242  1.00  0.00     0.157 HD
BRANCH  37  45
HETATM   45  N2  UNL     1      -5.004  -6.789  -0.018  1.00  0.00    -0.234 N 
ATOM     46  H22 UNL     1      -5.562  -7.223  -0.753  1.00  0.00     0.174 HD
ATOM     47  H21 UNL     1      -4.446  -7.345   0.630  1.00  0.00     0.174 HD
ENDBRANCH  37  45
ENDBRANCH  32  33
ENDBRANCH   1  32
BRANCH  10  48
HETATM   48  C24 UNL     1      -4.874   3.672   0.635  1.00  0.00     0.099 C 
HETATM   49  C25 UNL     1      -5.717   4.009  -0.580  1.00  0.00     0.026 C 
HETATM   50  C26 UNL     1      -6.083   5.456  -0.504  1.00  0.00     0.002 C 
HETATM   51  C27 UNL     1      -5.115   6.048   0.471  1.00  0.00     0.002 C 
HETATM   52  C28 UNL     1      -4.752   4.960   1.439  1.00  0.00     0.026 C 
ENDBRANCH  10  48
TORSDOF 11
