REMARK  12 active torsions:
REMARK  status: ('A' for Active; 'I' for Inactive)
REMARK    1  A    between atoms: C2_2  and  C3_3 
REMARK    2  A    between atoms: C3_3  and  C4_4 
REMARK    3  A    between atoms: C4_4  and  N1_5 
REMARK       I    between atoms: N1_5  and  C5_7 
REMARK       I    between atoms: C5_7  and  N3_11 
REMARK    4  A    between atoms: N3_11  and  C6_13 
REMARK    5  A    between atoms: C6_13  and  C7_14 
REMARK    6  A    between atoms: C7_14  and  C8_15 
REMARK    7  A    between atoms: N4_17  and  C10_18 
REMARK    8  A    between atoms: C10_18  and  C11_19 
REMARK    9  A    between atoms: C21_31  and  N6_32 
REMARK   10  A    between atoms: C22_37  and  N8_38 
REMARK   11  A    between atoms: C23_41  and  C24_42 
REMARK   12  A    between atoms: C24_42  and  O1_43 
ROOT
HETATM    1  C8  UNL     1       0.414  -0.153   0.265  1.00  0.00     0.117 C 
HETATM    2  C9  UNL     1      -0.633   0.678  -0.503  1.00  0.00     0.090 C 
HETATM    3  N4  UNL     1      -1.646   1.237   0.293  1.00  0.00    -0.345 N 
HETATM    4  C17 UNL     1      -2.240   0.422   1.256  1.00  0.00     0.198 C 
HETATM    5  C18 UNL     1      -3.560   0.827   1.811  1.00  0.00     0.092 C 
HETATM    6  C19 UNL     1      -4.477  -0.317   2.010  1.00  0.00     0.015 A 
HETATM    7  C20 UNL     1      -4.613  -1.313   1.028  1.00  0.00     0.061 A 
HETATM    8  N5  UNL     1      -5.439  -2.321   1.134  1.00  0.00    -0.193 N 
ATOM      9  H5  UNL     1      -5.505  -3.021   0.395  1.00  0.00     0.184 HD
HETATM   10  C21 UNL     1      -6.198  -2.413   2.238  1.00  0.00     0.677 A 
HETATM   11  N7  UNL     1      -6.110  -1.492   3.205  1.00  0.00    -0.177 N 
ATOM     12  H7  UNL     1      -6.706  -1.600   4.026  1.00  0.00     0.185 HD
HETATM   13  C22 UNL     1      -5.272  -0.418   3.159  1.00  0.00     0.123 A 
HETATM   14  C23 UNL     1      -3.668  -1.087  -0.097  1.00  0.00     0.164 C 
HETATM   15  N9  UNL     1      -2.436  -0.900   0.644  1.00  0.00    -0.316 N 
HETATM   16  C25 UNL     1      -1.756  -2.120   0.626  1.00  0.00     0.244 C 
HETATM   17  O2  UNL     1      -2.529  -3.129   0.669  1.00  0.00    -0.271 OA
HETATM   18  C26 UNL     1      -0.315  -2.440   0.570  1.00  0.00     0.166 C 
HETATM   19  C27 UNL     1      -0.036  -3.877   0.232  1.00  0.00     0.042 C 
HETATM   20  N10 UNL     1       0.410  -1.513  -0.222  1.00  0.00    -0.401 N 
ATOM     21  H10 UNL     1       0.895  -1.788  -1.076  1.00  0.00     0.154 HD
ENDROOT
BRANCH   1  22
HETATM   22  C7  UNL     1       1.788   0.425  -0.085  1.00  0.00     0.050 C 
BRANCH  22  23
HETATM   23  C6  UNL     1       2.920  -0.240   0.606  1.00  0.00     0.140 C 
BRANCH  23  24
HETATM   24  N3  UNL     1       4.166   0.409   0.164  1.00  0.00    -0.227 N 
HETATM   25  C5  UNL     1       4.647   0.248  -1.168  1.00  0.00     0.667 C 
HETATM   26  N1  UNL     1       5.603  -0.800  -1.354  1.00  0.00    -0.227 N 
HETATM   27  N2  UNL     1       4.273   0.973  -2.165  1.00  0.00    -0.235 N 
ATOM     28  H1  UNL     1       5.406  -1.539  -2.029  1.00  0.00     0.177 HD
ATOM     29  H22 UNL     1       4.617   0.858  -3.118  1.00  0.00     0.174 HD
ATOM     30  H21 UNL     1       3.591   1.720  -2.032  1.00  0.00     0.174 HD
ATOM     31  H3  UNL     1       4.693   0.983   0.822  1.00  0.00     0.177 HD
BRANCH  26  32
HETATM   32  C4  UNL     1       6.831  -0.838  -0.615  1.00  0.00     0.138 C 
BRANCH  32  33
HETATM   33  C3  UNL     1       7.776   0.271  -1.002  1.00  0.00     0.020 C 
BRANCH  33  34
HETATM   34  C2  UNL     1       9.039   0.172  -0.177  1.00  0.00    -0.003 C 
HETATM   35  C1  UNL     1       8.709   0.300   1.294  1.00  0.00     0.005 C 
ENDBRANCH  33  34
ENDBRANCH  32  33
ENDBRANCH  26  32
ENDBRANCH  23  24
ENDBRANCH  22  23
ENDBRANCH   1  22
BRANCH   3  36
HETATM   36  C10 UNL     1      -1.883   2.607   0.281  1.00  0.00     0.103 C 
BRANCH  36  37
HETATM   37  C11 UNL     1      -2.248   3.202  -1.054  1.00  0.00    -0.021 A 
HETATM   38  C12 UNL     1      -1.317   3.823  -1.842  1.00  0.00     0.013 A 
HETATM   39  C13 UNL     1      -1.695   4.352  -3.044  1.00  0.00     0.001 A 
HETATM   40  C14 UNL     1      -2.995   4.278  -3.490  1.00  0.00     0.000 A 
HETATM   41  C15 UNL     1      -3.954   3.656  -2.715  1.00  0.00     0.001 A 
HETATM   42  C16 UNL     1      -3.542   3.137  -1.516  1.00  0.00     0.013 A 
ENDBRANCH  36  37
ENDBRANCH   3  36
BRANCH  14  43
HETATM   43  C24 UNL     1      -3.736  -1.857  -1.299  1.00  0.00     0.196 C 
BRANCH  43  44
HETATM   44  O1  UNL     1      -5.086  -1.827  -1.790  1.00  0.00    -0.398 OA
ATOM     45  H1  UNL     1      -5.131  -2.339  -2.589  1.00  0.00     0.209 HD
ENDBRANCH  43  44
ENDBRANCH  14  43
BRANCH  13  46
HETATM   46  N8  UNL     1      -5.229   0.428   4.093  1.00  0.00    -0.385 N 
ATOM     47  H82 UNL     1      -4.602   1.232   4.059  1.00  0.00     0.157 HD
ATOM     48  H81 UNL     1      -5.808   0.354   4.930  1.00  0.00     0.157 HD
ENDBRANCH  13  46
BRANCH  10  49
HETATM   49  N6  UNL     1      -7.035  -3.412   2.373  1.00  0.00    -0.234 N 
ATOM     50  H62 UNL     1      -7.102  -4.114   1.636  1.00  0.00     0.174 HD
ATOM     51  H61 UNL     1      -7.612  -3.482   3.212  1.00  0.00     0.174 HD
ENDBRANCH  10  49
TORSDOF 12
