REMARK  10 active torsions:
REMARK  status: ('A' for Active; 'I' for Inactive)
REMARK    1  A    between atoms: C3_5  and  N2_6 
REMARK    2  A    between atoms: C4_11  and  N4_12 
REMARK    3  A    between atoms: C5_15  and  C6_16 
REMARK       I    between atoms: C6_16  and  N5_18 
REMARK    4  A    between atoms: N5_18  and  C7_20 
REMARK    5  A    between atoms: C12_25  and  C13_26 
REMARK    6  A    between atoms: C14_27  and  C15_28 
REMARK       I    between atoms: C15_28  and  N6_30 
REMARK    7  A    between atoms: N6_30  and  C16_32 
REMARK    8  A    between atoms: C18_34  and  C19_35 
REMARK    9  A    between atoms: C19_35  and  C20_36 
REMARK   10  A    between atoms: C20_36  and  N7_37 
REMARK       I    between atoms: N7_37  and  C21_39 
ROOT
HETATM    1  C7  UNL     1      -4.125   1.705  -0.231  1.00  0.00     0.092 C 
HETATM    2  C8  UNL     1      -4.096   3.115  -0.667  1.00  0.00     0.026 C 
HETATM    3  C9  UNL     1      -4.009   3.227  -2.183  1.00  0.00     0.002 C 
HETATM    4  C10 UNL     1      -3.272   2.075  -2.773  1.00  0.00     0.001 C 
HETATM    5  C11 UNL     1      -2.226   1.560  -1.786  1.00  0.00     0.010 C 
HETATM    6  C12 UNL     1      -2.850   0.903  -0.609  1.00  0.00     0.031 C 
ENDROOT
BRANCH   6   7
HETATM    7  C13 UNL     1      -1.976   0.848   0.597  1.00  0.00    -0.015 C 
HETATM    8  C14 UNL     1      -0.731   0.177   0.759  1.00  0.00     0.070 C 
BRANCH   8   9
HETATM    9  C15 UNL     1       0.507   0.377   0.062  1.00  0.00     0.241 C 
HETATM   10  O2  UNL     1       0.682   1.010  -0.974  1.00  0.00    -0.269 OA
HETATM   11  N6  UNL     1       1.733  -0.210   0.592  1.00  0.00    -0.351 N 
ATOM     12  H6  UNL     1       1.695  -0.747   1.459  1.00  0.00     0.163 HD
BRANCH  11  13
HETATM   13  C16 UNL     1       2.983  -0.050  -0.075  1.00  0.00     0.118 C 
HETATM   14  C17 UNL     1       3.964  -1.133   0.217  1.00  0.00     0.032 C 
HETATM   15  C18 UNL     1       5.265  -0.833  -0.473  1.00  0.00    -0.005 C 
HETATM   16  C22 UNL     1       5.744   0.574  -0.232  1.00  0.00     0.020 C 
HETATM   17  C23 UNL     1       4.685   1.469  -0.912  1.00  0.00     0.044 C 
HETATM   18  C26 UNL     1       5.655   1.076   1.159  1.00  0.00     0.277 C 
HETATM   19  C24 UNL     1       3.577   1.341   0.153  1.00  0.00     0.245 C 
HETATM   20  N10 UNL     1       4.295   1.511   1.341  1.00  0.00     0.091 N 
HETATM   21  C25 UNL     1       4.174   2.774   2.004  1.00  0.00     0.310 C 
BRANCH  15  22
HETATM   22  C19 UNL     1       6.296  -1.883  -0.366  1.00  0.00     0.025 C 
BRANCH  22  23
HETATM   23  C20 UNL     1       6.796  -2.286   0.959  1.00  0.00     0.122 C 
BRANCH  23  24
HETATM   24  N7  UNL     1       7.785  -3.350   0.826  1.00  0.00    -0.365 N 
HETATM   25  C21 UNL     1       9.058  -3.153   0.228  1.00  0.00     0.181 C 
HETATM   26  N8  UNL     1       9.618  -4.194  -0.343  1.00  0.00    -0.374 N 
HETATM   27  N9  UNL     1       9.778  -1.953   0.181  1.00  0.00    -0.064 NA
ATOM     28  H82 UNL     1       9.094  -5.068  -0.309  1.00  0.00     0.158 HD
ATOM     29  H81 UNL     1      10.532  -4.053  -0.772  1.00  0.00     0.158 HD
ATOM     30  H7  UNL     1       7.552  -4.278   1.179  1.00  0.00     0.162 HD
ENDBRANCH  23  24
ENDBRANCH  22  23
ENDBRANCH  15  22
ENDBRANCH  11  13
ENDBRANCH   8   9
ENDBRANCH   6   7
BRANCH   1  31
HETATM   31  N5  UNL     1      -5.328   1.035  -0.664  1.00  0.00    -0.351 N 
HETATM   32  C6  UNL     1      -6.024   0.156   0.223  1.00  0.00     0.257 C 
HETATM   33  O1  UNL     1      -5.544  -0.038   1.393  1.00  0.00    -0.267 OA
ATOM     34  H5  UNL     1      -5.683   1.189  -1.608  1.00  0.00     0.163 HD
BRANCH  32  35
HETATM   35  C5  UNL     1      -7.243  -0.561  -0.079  1.00  0.00     0.098 A 
HETATM   36  C2  UNL     1      -7.314  -1.885   0.347  1.00  0.00     0.042 A 
HETATM   37  C1  UNL     1      -6.142  -2.531   0.986  1.00  0.00     0.070 C 
HETATM   38  N1  UNL     1      -8.430  -2.573   0.148  1.00  0.00    -0.195 N 
HETATM   39  C3  UNL     1      -9.495  -2.025  -0.456  1.00  0.00     0.677 A 
ATOM     40  H1  UNL     1      -8.480  -3.542   0.462  1.00  0.00     0.184 HD
HETATM   41  N3  UNL     1      -9.430  -0.772  -0.860  1.00  0.00    -0.176 N 
HETATM   42  C4  UNL     1      -8.327   0.038  -0.707  1.00  0.00     0.132 A 
ATOM     43  H3  UNL     1     -10.252  -0.376  -1.316  1.00  0.00     0.186 HD
BRANCH  39  44
HETATM   44  N2  UNL     1     -10.539  -2.753  -0.609  1.00  0.00    -0.234 N 
ATOM     45  H22 UNL     1     -10.589  -3.723  -0.296  1.00  0.00     0.174 HD
ATOM     46  H21 UNL     1     -11.349  -2.336  -1.068  1.00  0.00     0.174 HD
ENDBRANCH  39  44
BRANCH  42  47
HETATM   47  N4  UNL     1      -8.367   1.243  -1.098  1.00  0.00    -0.384 N 
ATOM     48  H42 UNL     1      -9.163   1.683  -1.559  1.00  0.00     0.157 HD
ATOM     49  H41 UNL     1      -7.550   1.843  -0.985  1.00  0.00     0.157 HD
ENDBRANCH  42  47
ENDBRANCH  32  35
ENDBRANCH   1  31
TORSDOF 10
