REMARK  12 active torsions:
REMARK  status: ('A' for Active; 'I' for Inactive)
REMARK    1  A    between atoms: N1_2  and  C2_5 
REMARK    2  A    between atoms: C13_19  and  C14_20 
REMARK    3  A    between atoms: C14_20  and  C15_21 
REMARK    4  A    between atoms: C15_21  and  C16_22 
REMARK    5  A    between atoms: C16_22  and  N3_23 
REMARK       I    between atoms: N3_23  and  C17_25 
REMARK    6  A    between atoms: C20_34  and  O1_35 
REMARK    7  A    between atoms: C21_37  and  C22_38 
REMARK    8  A    between atoms: C22_38  and  C23_39 
REMARK    9  A    between atoms: C23_39  and  C24_40 
REMARK   10  A    between atoms: C24_40  and  C25_41 
REMARK   11  A    between atoms: C25_41  and  N7_42 
REMARK   12  A    between atoms: C26_48  and  O2_49 
ROOT
HETATM    1  C2  UNL     1      -4.140  -1.536   2.252  1.00  0.00     0.263 C 
HETATM    2  C3  UNL     1      -4.820  -2.354   1.193  1.00  0.00     0.080 C 
HETATM    3  C4  UNL     1      -3.939  -2.582  -0.037  1.00  0.00    -0.056 A 
HETATM    4  C5  UNL     1      -4.107  -1.875  -1.205  1.00  0.00     0.009 A 
HETATM    5  C6  UNL     1      -3.222  -1.910  -2.329  1.00  0.00     0.029 A 
HETATM    6  C7  UNL     1      -2.111  -2.704  -2.260  1.00  0.00     0.028 A 
HETATM    7  C8  UNL     1      -1.958  -3.420  -1.091  1.00  0.00     0.029 A 
HETATM    8  C9  UNL     1      -2.836  -3.391   0.031  1.00  0.00     0.009 A 
HETATM    9  N2  UNL     1      -1.061  -2.612  -3.281  1.00  0.00    -0.389 N 
ATOM     10  H2  UNL     1      -1.003  -3.251  -4.074  1.00  0.00     0.159 HD
HETATM   11  C10 UNL     1      -0.071  -1.490  -3.058  1.00  0.00     0.127 C 
HETATM   12  C11 UNL     1       1.105  -1.913  -2.284  1.00  0.00     0.035 C 
HETATM   13  C12 UNL     1       2.327  -1.665  -3.175  1.00  0.00     0.082 C 
HETATM   14  S1  UNL     1       3.137  -0.101  -2.725  1.00  0.00    -0.164 SA
HETATM   15  C13 UNL     1       3.430  -0.258  -0.913  1.00  0.00     0.049 C 
HETATM   16  C18 UNL     1       2.597  -1.398  -0.388  1.00  0.00     0.040 C 
HETATM   17  C19 UNL     1       1.166  -1.333  -0.929  1.00  0.00     0.090 C 
HETATM   18  N6  UNL     1       0.597  -0.026  -0.761  1.00  0.00    -0.368 N 
ATOM     19  H6  UNL     1       0.672   0.550  -1.600  1.00  0.00     0.161 HD
HETATM   20  C20 UNL     1      -0.028   0.624   0.282  1.00  0.00     0.135 C 
HETATM   21  C21 UNL     1      -1.418   0.531   0.855  1.00  0.00     0.157 C 
HETATM   22  N8  UNL     1      -1.740  -0.722   1.439  1.00  0.00    -0.361 N 
ATOM     23  H8  UNL     1      -1.016  -1.410   1.229  1.00  0.00     0.162 HD
HETATM   24  C26 UNL     1      -2.742  -1.293   2.209  1.00  0.00     0.143 C 
ENDROOT
BRANCH  15  25
HETATM   25  C14 UNL     1       4.892  -0.396  -0.718  1.00  0.00     0.017 C 
BRANCH  25  26
HETATM   26  C15 UNL     1       5.304  -0.528   0.729  1.00  0.00     0.021 C 
BRANCH  26  27
HETATM   27  C16 UNL     1       4.887   0.672   1.544  1.00  0.00     0.122 C 
BRANCH  27  28
HETATM   28  N3  UNL     1       5.462   1.895   1.084  1.00  0.00    -0.365 N 
HETATM   29  C17 UNL     1       6.848   2.196   1.183  1.00  0.00     0.181 C 
HETATM   30  N4  UNL     1       7.294   3.034   2.088  1.00  0.00    -0.374 N 
HETATM   31  N5  UNL     1       7.821   1.632   0.341  1.00  0.00    -0.064 NA
ATOM     32  H42 UNL     1       6.588   3.443   2.699  1.00  0.00     0.158 HD
ATOM     33  H41 UNL     1       8.288   3.250   2.159  1.00  0.00     0.158 HD
ATOM     34  H3  UNL     1       4.846   2.590   0.662  1.00  0.00     0.162 HD
ENDBRANCH  27  28
ENDBRANCH  26  27
ENDBRANCH  25  26
ENDBRANCH  15  25
BRANCH  20  35
HETATM   35  O1  UNL     1       0.700   1.502   0.926  1.00  0.00    -0.348 OA
ATOM     36  H1  UNL     1       0.269   1.950   1.645  1.00  0.00     0.219 HD
ENDBRANCH  20  35
BRANCH  21  37
HETATM   37  C22 UNL     1      -2.405   1.176  -0.066  1.00  0.00     0.033 C 
BRANCH  37  38
HETATM   38  C23 UNL     1      -2.166   2.633  -0.314  1.00  0.00     0.004 C 
BRANCH  38  39
HETATM   39  C24 UNL     1      -2.211   3.520   0.872  1.00  0.00     0.027 C 
BRANCH  39  40
HETATM   40  C25 UNL     1      -1.946   4.945   0.357  1.00  0.00     0.229 C 
BRANCH  40  41
HETATM   41  N7  UNL     1      -0.641   5.013  -0.283  1.00  0.00    -0.079 N 
ATOM     42  H73 UNL     1       0.103   4.686   0.333  1.00  0.00     0.274 HD
ATOM     43  H72 UNL     1      -0.542   4.316  -1.021  1.00  0.00     0.274 HD
ATOM     44  H71 UNL     1      -0.465   5.958  -0.625  1.00  0.00     0.274 HD
ENDBRANCH  40  41
ENDBRANCH  39  40
ENDBRANCH  38  39
ENDBRANCH  37  38
ENDBRANCH  21  37
BRANCH  24  45
HETATM   45  O2  UNL     1      -2.209  -1.817   3.335  1.00  0.00    -0.348 OA
ATOM     46  H2  UNL     1      -1.273  -1.654   3.306  1.00  0.00     0.219 HD
ENDBRANCH  24  45
BRANCH   1  47
HETATM   47  N1  UNL     1      -4.910  -0.325   2.468  1.00  0.00    -0.067 N 
HETATM   48  C1  UNL     1      -6.239  -0.643   2.992  1.00  0.00     0.267 C 
ATOM     49  H12 UNL     1      -4.963   0.245   1.624  1.00  0.00     0.277 HD
ATOM     50  H11 UNL     1      -4.415   0.335   3.068  1.00  0.00     0.277 HD
ENDBRANCH   1  47
TORSDOF 12
