REMARK  9 active torsions:
REMARK  status: ('A' for Active; 'I' for Inactive)
REMARK    1  A    between atoms: C13_23  and  C14_24 
REMARK    2  A    between atoms: C14_24  and  N5_25 
REMARK       I    between atoms: N5_25  and  C15_27 
REMARK       I    between atoms: C15_27  and  N7_31 
REMARK    3  A    between atoms: N7_31  and  C16_33 
REMARK    4  A    between atoms: C16_33  and  C17_34 
REMARK    5  A    between atoms: C17_34  and  S1_35 
REMARK    6  A    between atoms: S1_35  and  S2_36 
REMARK    7  A    between atoms: S2_36  and  C18_37 
REMARK    8  A    between atoms: C18_37  and  C19_38 
REMARK    9  A    between atoms: C19_38  and  N8_39 
ROOT
HETATM    1  C1  UNL     1      -7.463   1.277  -3.251  1.00  0.00     0.068 C 
HETATM    2  C2  UNL     1      -6.081   1.307  -2.622  1.00  0.00     0.012 A 
HETATM    3  N1  UNL     1      -4.938   1.083  -3.252  1.00  0.00    -0.359 N 
ATOM      4  H1  UNL     1      -4.849   0.866  -4.245  1.00  0.00     0.166 HD
HETATM    5  C3  UNL     1      -3.879   1.187  -2.359  1.00  0.00     0.032 A 
HETATM    6  C4  UNL     1      -4.397   1.489  -1.121  1.00  0.00     0.038 A 
HETATM    7  C5  UNL     1      -5.764   1.565  -1.279  1.00  0.00    -0.034 A 
HETATM    8  C6  UNL     1      -6.835   1.876  -0.252  1.00  0.00     0.042 C 
HETATM    9  C7  UNL     1      -7.226   0.627   0.509  1.00  0.00     0.024 C 
HETATM   10  C8  UNL     1      -6.222   0.166   1.514  1.00  0.00     0.125 C 
HETATM   11  N2  UNL     1      -6.657  -1.113   2.036  1.00  0.00    -0.343 N 
ATOM     12  H2  UNL     1      -7.317  -1.655   1.478  1.00  0.00     0.164 HD
HETATM   13  C9  UNL     1      -6.227  -1.664   3.272  1.00  0.00     0.316 C 
HETATM   14  O1  UNL     1      -7.048  -2.290   4.037  1.00  0.00    -0.247 OA
HETATM   15  N3  UNL     1      -4.868  -1.517   3.660  1.00  0.00    -0.343 N 
ATOM     16  H3  UNL     1      -4.682  -1.270   4.632  1.00  0.00     0.164 HD
HETATM   17  C10 UNL     1      -3.734  -1.688   2.792  1.00  0.00     0.126 C 
HETATM   18  C11 UNL     1      -2.667  -0.631   2.997  1.00  0.00     0.047 C 
HETATM   19  C12 UNL     1      -1.536  -0.861   2.005  1.00  0.00     0.234 C 
HETATM   20  N4  UNL     1      -1.469   0.276   1.135  1.00  0.00    -0.069 N 
ATOM     21  H41 UNL     1      -1.171   1.110   1.641  1.00  0.00     0.277 HD
ATOM     22  H42 UNL     1      -2.401   0.581   0.855  1.00  0.00     0.277 HD
HETATM   23  C13 UNL     1      -0.615   0.033  -0.038  1.00  0.00     0.207 C 
HETATM   24  C21 UNL     1      -1.478  -0.533  -1.159  1.00  0.00     0.062 C 
HETATM   25  C22 UNL     1      -1.503   0.302  -2.376  1.00  0.00    -0.022 C 
HETATM   26  C23 UNL     1      -2.510   1.000  -2.844  1.00  0.00     0.025 C 
ENDROOT
BRANCH  23  27
HETATM   27  C14 UNL     1       0.506  -0.893   0.320  1.00  0.00     0.171 C 
BRANCH  27  28
HETATM   28  N5  UNL     1       1.421  -1.164  -0.751  1.00  0.00    -0.225 N 
HETATM   29  C15 UNL     1       2.337  -0.200  -1.252  1.00  0.00     0.667 C 
HETATM   30  N6  UNL     1       2.402   0.095  -2.475  1.00  0.00    -0.235 N 
HETATM   31  N7  UNL     1       3.262   0.464  -0.357  1.00  0.00    -0.226 N 
ATOM     32  H62 UNL     1       1.751  -0.373  -3.105  1.00  0.00     0.174 HD
ATOM     33  H61 UNL     1       3.059   0.787  -2.835  1.00  0.00     0.174 HD
ATOM     34  H7  UNL     1       2.959   0.791   0.560  1.00  0.00     0.177 HD
ATOM     35  H5  UNL     1       1.414  -2.093  -1.173  1.00  0.00     0.177 HD
BRANCH  31  36
HETATM   36  C16 UNL     1       4.608   0.649  -0.791  1.00  0.00     0.149 C 
BRANCH  36  37
HETATM   37  C17 UNL     1       5.502   1.239   0.258  1.00  0.00     0.106 C 
BRANCH  37  38
HETATM   38  S1  UNL     1       5.547   0.151   1.721  1.00  0.00    -0.096 SA
BRANCH  38  39
HETATM   39  S2  UNL     1       6.371  -1.737   1.217  1.00  0.00    -0.096 SA
BRANCH  39  40
HETATM   40  C18 UNL     1       8.169  -1.796   1.418  1.00  0.00     0.105 C 
BRANCH  40  41
HETATM   41  C19 UNL     1       8.777  -0.848   0.404  1.00  0.00     0.133 C 
BRANCH  41  42
HETATM   42  N8  UNL     1      10.205  -0.833   0.448  1.00  0.00    -0.366 N 
HETATM   43  C20 UNL     1      10.943  -0.256  -0.418  1.00  0.00     0.196 C 
HETATM   44  N9  UNL     1      10.372   0.426  -1.508  1.00  0.00    -0.067 NA
HETATM   45  N10 UNL     1      12.351  -0.294  -0.293  1.00  0.00    -0.067 NA
ATOM     46  H8  UNL     1      10.664  -1.314   1.221  1.00  0.00     0.161 HD
ENDBRANCH  41  42
ENDBRANCH  40  41
ENDBRANCH  39  40
ENDBRANCH  38  39
ENDBRANCH  37  38
ENDBRANCH  36  37
ENDBRANCH  31  36
ENDBRANCH  27  28
ENDBRANCH  23  27
TORSDOF 9
