REMARK  3 active torsions:
REMARK  status: ('A' for Active; 'I' for Inactive)
REMARK    1  A    between atoms: C9_9  and  C10_10 
REMARK    2  A    between atoms: C10_10  and  N1_11 
REMARK    3  A    between atoms: N1_11  and  C11_14 
ROOT
HETATM    1  C1  UNL     1      -2.291  -2.175   0.033  1.00  0.00     0.015 C 
HETATM    2  C2  UNL     1      -1.514  -0.868   0.075  1.00  0.00    -0.043 C 
HETATM    3  C3  UNL     1      -1.966  -0.100   1.293  1.00  0.00     0.014 C 
HETATM    4  C4  UNL     1      -1.287   1.241   1.278  1.00  0.00    -0.013 C 
HETATM    5  C5  UNL     1      -1.550   2.025   0.033  1.00  0.00     0.009 C 
HETATM    6  C6  UNL     1      -1.087   1.202  -1.146  1.00  0.00    -0.013 C 
HETATM    7  C7  UNL     1      -1.894  -0.078  -1.140  1.00  0.00     0.014 C 
HETATM    8  C8  UNL     1       0.383   0.893  -1.102  1.00  0.00     0.015 C 
HETATM    9  C9  UNL     1       0.684   0.200   0.200  1.00  0.00    -0.015 C 
HETATM   10  C12 UNL     1       0.206   1.014   1.379  1.00  0.00     0.015 C 
HETATM   11  C13 UNL     1      -0.038  -1.129   0.187  1.00  0.00     0.020 C 
ENDROOT
BRANCH   9  12
HETATM   12  C10 UNL     1       2.175   0.034   0.330  1.00  0.00     0.248 C 
BRANCH  12  13
HETATM   13  N1  UNL     1       2.748  -0.753  -0.740  1.00  0.00    -0.016 N 
ATOM     14  H12 UNL     1       2.312  -1.668  -0.849  1.00  0.00     0.283 HD
ATOM     15  H11 UNL     1       2.525  -0.397  -1.670  1.00  0.00     0.283 HD
BRANCH  13  16
HETATM   16  C11 UNL     1       4.189  -0.821  -0.470  1.00  0.00     0.548 C 
HETATM   17  F1  UNL     1       4.754   0.442  -0.447  1.00  0.00    -0.183 F 
HETATM   18  F2  UNL     1       4.854  -1.574  -1.398  1.00  0.00    -0.183 F 
ENDBRANCH  13  16
ENDBRANCH  12  13
ENDBRANCH   9  12
TORSDOF 3
