REMARK  3 active torsions:
REMARK  status: ('A' for Active; 'I' for Inactive)
REMARK    1  A    between atoms: C4_5  and  N1_6 
REMARK    2  A    between atoms: N1_6  and  C5_8 
REMARK    3  A    between atoms: C5_8  and  C6_10 
ROOT
HETATM    1  C5  UNL     1       0.202  -1.255   0.367  1.00  0.00     0.183 C 
HETATM    2 CL1  UNL     1      -0.549  -2.920   0.285  1.00  0.00    -0.102 Cl
ENDROOT
BRANCH   1   3
HETATM    3  N1  UNL     1       1.219  -1.200  -0.532  1.00  0.00    -0.398 N 
ATOM      4  H1  UNL     1       1.167  -1.949  -1.223  1.00  0.00     0.155 HD
BRANCH   3   5
HETATM    5  C4  UNL     1       2.281  -0.392  -0.730  1.00  0.00     0.112 C 
HETATM    6  C1  UNL     1       3.419  -0.435   0.328  1.00  0.00     0.192 C 
HETATM    7  F1  UNL     1       4.212  -1.530   0.258  1.00  0.00    -0.247 F 
HETATM    8  C2  UNL     1       3.920   0.800  -0.464  1.00  0.00     0.041 C 
HETATM    9  C3  UNL     1       2.384   1.082  -0.573  1.00  0.00     0.030 C 
ENDBRANCH   3   5
ENDBRANCH   1   3
BRANCH   1  10
HETATM   10  C6  UNL     1      -0.902  -0.312   0.226  1.00  0.00    -0.006 C 
HETATM   11  C7  UNL     1      -1.624  -0.445  -1.124  1.00  0.00     0.013 C 
HETATM   12  C8  UNL     1      -3.059  -0.070  -0.861  1.00  0.00     0.005 C 
HETATM   13  C9  UNL     1      -3.084   0.234   0.594  1.00  0.00    -0.014 C 
HETATM   14  C10 UNL     1      -2.314   1.482   0.856  1.00  0.00     0.005 C 
HETATM   15  C12 UNL     1      -2.106  -0.790   1.123  1.00  0.00     0.017 C 
HETATM   16  C11 UNL     1      -0.843   1.095   0.573  1.00  0.00     0.013 C 
ENDBRANCH   1  10
TORSDOF 3
