REMARK  4 active torsions:
REMARK  status: ('A' for Active; 'I' for Inactive)
REMARK    1  A    between atoms: C2_2  and  C4_4 
REMARK    2  A    between atoms: C9_9  and  O1_10 
REMARK    3  A    between atoms: C17_20  and  C19_22 
REMARK    4  A    between atoms: C19_22  and  C20_23 
REMARK       I    between atoms: C20_23  and  N1_25 
ROOT
HETATM    1  C20 UNL     1       3.934  -1.549   0.887  1.00  0.00     0.321 C 
HETATM    2  O2  UNL     1       3.785  -0.906   1.948  1.00  0.00    -0.254 OA
HETATM    3  N1  UNL     1       4.952  -2.453   0.675  1.00  0.00    -0.244 NA
HETATM    4  O3  UNL     1       5.870  -3.268   0.483  1.00  0.00    -0.215 OA
ATOM      5  H3  UNL     1       6.572  -3.891   0.337  1.00  0.00     0.261 HD
ENDROOT
BRANCH   1   6
HETATM    6  C19 UNL     1       2.965  -1.343  -0.235  1.00  0.00     0.134 C 
BRANCH   6   7
HETATM    7  C17 UNL     1       1.815  -0.424   0.006  1.00  0.00     0.001 C 
HETATM    8  C16 UNL     1       2.189   0.966   0.367  1.00  0.00     0.002 C 
HETATM    9  C12 UNL     1       0.959   1.852   0.298  1.00  0.00     0.005 C 
HETATM   10  C15 UNL     1       3.182   1.649  -0.496  1.00  0.00     0.006 C 
HETATM   11  C11 UNL     1       0.245   1.766  -0.992  1.00  0.00     0.068 C 
HETATM   12  C13 UNL     1       1.621   3.223   0.375  1.00  0.00     0.006 C 
HETATM   13  C10 UNL     1      -0.113   0.412  -1.460  1.00  0.00     0.069 C 
HETATM   14  S1  UNL     1      -1.399   2.512  -0.795  1.00  0.00    -0.123 SA
HETATM   15  C7  UNL     1      -1.391  -0.048  -0.997  1.00  0.00    -0.031 A 
HETATM   16  C21 UNL     1       1.057  -0.460  -1.338  1.00  0.00     0.188 C 
HETATM   17  C6  UNL     1      -2.238   0.939  -0.598  1.00  0.00     0.008 A 
HETATM   18  C8  UNL     1      -1.924  -1.327  -0.897  1.00  0.00     0.046 A 
HETATM   19  C5  UNL     1      -3.501   0.756  -0.135  1.00  0.00     0.033 A 
HETATM   20  C4  UNL     1      -4.025  -0.529  -0.039  1.00  0.00     0.003 A 
HETATM   21  C9  UNL     1      -3.206  -1.549  -0.429  1.00  0.00     0.077 A 
HETATM   22  F1  UNL     1       0.952  -1.753  -1.731  1.00  0.00    -0.248 F 
HETATM   23  C14 UNL     1       2.747   3.109  -0.598  1.00  0.00     0.001 C 
HETATM   24  C18 UNL     1       0.943  -0.985   1.100  1.00  0.00     0.019 C 
BRANCH  20  25
HETATM   25  C2  UNL     1      -5.374  -0.655   0.484  1.00  0.00    -0.058 C 
HETATM   26  C1  UNL     1      -6.162  -1.639   0.173  1.00  0.00     0.019 C 
HETATM   27  C3  UNL     1      -5.876   0.373   1.445  1.00  0.00     0.048 C 
ENDBRANCH  20  25
BRANCH  21  28
HETATM   28  O1  UNL     1      -3.698  -2.856  -0.342  1.00  0.00    -0.360 OA
ATOM     29  H1  UNL     1      -3.128  -3.566  -0.613  1.00  0.00     0.217 HD
ENDBRANCH  21  28
ENDBRANCH   6   7
ENDBRANCH   1   6
TORSDOF 4
