REMARK  4 active torsions:
REMARK  status: ('A' for Active; 'I' for Inactive)
REMARK    1  A    between atoms: C4_5  and  C5_6 
REMARK    2  A    between atoms: C8_13  and  C9_14 
REMARK    3  A    between atoms: C9_14  and  C10_15 
REMARK    4  A    between atoms: C21_26  and  O3_27 
ROOT
HETATM    1  C5  UNL     1       3.375  -0.552  -0.044  1.00  0.00     0.073 A 
HETATM    2  C6  UNL     1       3.459  -1.883   0.255  1.00  0.00     0.122 A 
HETATM    3 CL1  UNL     1       4.909  -2.650   0.942  1.00  0.00    -0.063 Cl
HETATM    4  N1  UNL     1       2.353  -2.651   0.101  1.00  0.00    -0.313 N 
ATOM      5  H1  UNL     1       2.413  -3.645   0.321  1.00  0.00     0.170 HD
HETATM    6  C7  UNL     1       1.163  -2.147  -0.336  1.00  0.00     0.255 A 
HETATM    7  O2  UNL     1       0.257  -3.008  -0.421  1.00  0.00    -0.268 OA
HETATM    8  C8  UNL     1       1.007  -0.839  -0.645  1.00  0.00     0.045 A 
HETATM    9  C21 UNL     1       2.166  -0.020  -0.491  1.00  0.00     0.093 A 
ENDROOT
BRANCH   8  10
HETATM   10  C9  UNL     1      -0.206  -0.210  -1.101  1.00  0.00     0.056 C 
BRANCH  10  11
HETATM   11  C10 UNL     1      -1.276   0.166  -0.104  1.00  0.00    -0.038 C 
HETATM   12  C11 UNL     1      -0.582   1.101   0.889  1.00  0.00     0.015 C 
HETATM   13  C12 UNL     1      -1.886  -0.969   0.586  1.00  0.00     0.018 C 
HETATM   14  C13 UNL     1      -3.235  -0.734   1.240  1.00  0.00    -0.046 C 
HETATM   15  C14 UNL     1      -3.163  -0.084   2.594  1.00  0.00     0.015 C 
HETATM   16  C15 UNL     1      -3.754  -2.167   1.534  1.00  0.00     0.015 C 
HETATM   17  C16 UNL     1      -4.222  -0.075   0.355  1.00  0.00     0.017 C 
HETATM   18  C17 UNL     1      -3.673   0.562  -0.868  1.00  0.00    -0.046 C 
HETATM   19  C18 UNL     1      -3.908  -0.301  -2.102  1.00  0.00     0.015 C 
HETATM   20  C19 UNL     1      -4.570   1.796  -1.121  1.00  0.00     0.015 C 
HETATM   21  C20 UNL     1      -2.298   1.071  -0.791  1.00  0.00     0.018 C 
ENDBRANCH  10  11
ENDBRANCH   8  10
BRANCH   9  22
HETATM   22  O3  UNL     1       2.067   1.301  -0.799  1.00  0.00    -0.359 OA
ATOM     23  H3  UNL     1       1.243   1.663  -1.104  1.00  0.00     0.217 HD
ENDBRANCH   9  22
BRANCH   1  24
HETATM   24  C4  UNL     1       4.583   0.296   0.003  1.00  0.00     0.130 A 
HETATM   25  O1  UNL     1       4.590   1.577   0.381  1.00  0.00    -0.318 OA
HETATM   26  C3  UNL     1       5.781   2.094   0.324  1.00  0.00     0.152 A 
HETATM   27  C2  UNL     1       6.674   1.153  -0.114  1.00  0.00     0.002 A 
HETATM   28  C1  UNL     1       8.128   1.326  -0.320  1.00  0.00     0.053 C 
HETATM   29  C22 UNL     1       5.880   0.010  -0.314  1.00  0.00     0.159 A 
HETATM   30  F1  UNL     1       6.452  -1.123  -0.815  1.00  0.00    -0.203 F 
ENDBRANCH   1  24
TORSDOF 4
