REMARK  14 active torsions:
REMARK  status: ('A' for Active; 'I' for Inactive)
REMARK    1  A    between atoms: C4_4  and  C5_5 
REMARK    2  A    between atoms: C5_5  and  C7_7 
REMARK    3  A    between atoms: C7_7  and  O1_8 
REMARK    4  A    between atoms: C7_7  and  C8_10 
REMARK    5  A    between atoms: C8_10  and  C9_11 
REMARK    6  A    between atoms: C22_25  and  O3_26 
REMARK    7  A    between atoms: O3_26  and  C23_27 
REMARK    8  A    between atoms: C23_27  and  C24_29 
REMARK    9  A    between atoms: C25_32  and  C26_33 
REMARK   10  A    between atoms: C26_33  and  O7_34 
REMARK   11  A    between atoms: C26_33  and  C27_36 
REMARK   12  A    between atoms: C27_36  and  C29_38 
REMARK   13  A    between atoms: C29_38  and  C30_39 
REMARK   14  A    between atoms: C30_39  and  C31_41 
ROOT
HETATM    1  C9  UNL     1       1.698  -1.802  -0.658  1.00  0.00     0.021 C 
HETATM    2  C10 UNL     1       0.701  -2.586   0.133  1.00  0.00    -0.083 C 
HETATM    3  C11 UNL     1       1.010  -3.833   0.885  1.00  0.00     0.043 C 
HETATM    4  C12 UNL     1      -0.496  -2.009   0.068  1.00  0.00    -0.018 C 
HETATM    5  C13 UNL     1      -0.526  -0.804  -0.728  1.00  0.00     0.025 C 
HETATM    6  C14 UNL     1       0.987  -0.551  -0.937  1.00  0.00     0.006 C 
HETATM    7  C15 UNL     1       1.076  -0.035  -2.344  1.00  0.00    -0.013 C 
HETATM    8  C16 UNL     1       0.798  -1.196  -3.308  1.00  0.00     0.010 C 
HETATM    9  C17 UNL     1       0.016   1.040  -2.469  1.00  0.00     0.005 C 
HETATM   10  C18 UNL     1      -0.517   1.537  -1.188  1.00  0.00     0.014 C 
HETATM   11  C19 UNL     1      -1.028   0.461  -0.214  1.00  0.00     0.004 C 
HETATM   12  C20 UNL     1      -0.369   0.821   1.100  1.00  0.00     0.163 A 
HETATM   13  O2  UNL     1      -0.351  -0.020   2.176  1.00  0.00    -0.372 OA
HETATM   14  C21 UNL     1      -1.281   1.021   2.113  1.00  0.00     0.181 A 
HETATM   15  C22 UNL     1      -2.658   0.589   1.572  1.00  0.00     0.171 C 
HETATM   16  C25 UNL     1      -2.498   0.643   0.049  1.00  0.00     0.059 C 
ENDROOT
BRANCH  16  17
HETATM   17  C26 UNL     1      -3.400  -0.264  -0.655  1.00  0.00     0.129 C 
BRANCH  17  18
HETATM   18  O7  UNL     1      -3.161  -0.107  -2.062  1.00  0.00    -0.395 OA
ATOM     19  H7  UNL     1      -3.748  -0.697  -2.520  1.00  0.00     0.210 HD
ENDBRANCH  17  18
BRANCH  17  20
HETATM   20  C27 UNL     1      -4.853  -0.042  -0.530  1.00  0.00     0.018 C 
HETATM   21  C28 UNL     1      -5.560  -1.224  -1.331  1.00  0.00     0.013 C 
BRANCH  20  22
HETATM   22  C29 UNL     1      -5.486   1.147  -1.188  1.00  0.00     0.088 C 
BRANCH  22  23
HETATM   23  C30 UNL     1      -5.113   2.496  -0.828  1.00  0.00     0.166 C 
HETATM   24  O8  UNL     1      -4.508   3.222  -1.591  1.00  0.00    -0.295 OA
BRANCH  23  25
HETATM   25  C31 UNL     1      -5.457   3.064   0.501  1.00  0.00     0.300 A 
HETATM   26  O9  UNL     1      -5.900   4.446   0.498  1.00  0.00    -0.296 OA
HETATM   27  C32 UNL     1      -4.558   4.086   1.040  1.00  0.00     0.297 A 
HETATM   28  O10 UNL     1      -3.563   4.629   1.555  1.00  0.00    -0.262 OA
ENDBRANCH  23  25
ENDBRANCH  22  23
ENDBRANCH  20  22
ENDBRANCH  17  20
ENDBRANCH  16  17
BRANCH  15  29
HETATM   29  O3  UNL     1      -2.916  -0.687   2.037  1.00  0.00    -0.304 OA
BRANCH  29  30
HETATM   30  C23 UNL     1      -3.832  -1.105   2.955  1.00  0.00     0.360 C 
HETATM   31  O4  UNL     1      -4.563  -0.232   3.471  1.00  0.00    -0.252 OA
BRANCH  30  32
HETATM   32  C24 UNL     1      -3.920  -2.515   3.289  1.00  0.00     0.277 C 
HETATM   33  O5  UNL     1      -3.166  -3.363   2.749  1.00  0.00    -0.640 OA
HETATM   34  O6  UNL     1      -4.835  -3.016   4.219  1.00  0.00    -0.640 OA
ENDBRANCH  30  32
ENDBRANCH  29  30
ENDBRANCH  15  29
BRANCH   1  35
HETATM   35  C8  UNL     1       2.872  -1.565   0.309  1.00  0.00     0.042 C 
BRANCH  35  36
HETATM   36  C7  UNL     1       3.965  -0.791  -0.326  1.00  0.00     0.126 C 
BRANCH  36  37
HETATM   37  C5  UNL     1       5.102  -0.607   0.708  1.00  0.00     0.033 C 
HETATM   38  C6  UNL     1       4.539   0.004   1.941  1.00  0.00     0.017 C 
BRANCH  37  39
HETATM   39  C4  UNL     1       6.117   0.188   0.002  1.00  0.00    -0.018 C 
HETATM   40  C2  UNL     1       6.662   1.336   0.179  1.00  0.00    -0.091 C 
HETATM   41  C1  UNL     1       7.713   1.791  -0.832  1.00  0.00     0.042 C 
HETATM   42  C3  UNL     1       6.380   2.283   1.262  1.00  0.00     0.042 C 
ENDBRANCH  37  39
ENDBRANCH  36  37
BRANCH  36  43
HETATM   43  O1  UNL     1       4.513  -1.462  -1.423  1.00  0.00    -0.395 OA
ATOM     44  H1  UNL     1       3.815  -1.575  -2.058  1.00  0.00     0.210 HD
ENDBRANCH  36  43
ENDBRANCH  35  36
ENDBRANCH   1  35
TORSDOF 14
