REMARK  13 active torsions:
REMARK  status: ('A' for Active; 'I' for Inactive)
REMARK    1  A    between atoms: C7_9  and  C8_10 
REMARK    2  A    between atoms: C9_12  and  C10_13 
REMARK    3  A    between atoms: C10_13  and  C11_14 
REMARK    4  A    between atoms: C12_15  and  C14_17 
REMARK    5  A    between atoms: C14_17  and  O5_19 
REMARK    6  A    between atoms: O5_19  and  C15_20 
REMARK    7  A    between atoms: C19_24  and  O6_25 
REMARK    8  A    between atoms: C23_31  and  C24_32 
REMARK    9  A    between atoms: C25_35  and  C26_36 
REMARK   10  A    between atoms: C26_36  and  C28_38 
REMARK   11  A    between atoms: C28_38  and  C30_40 
REMARK   12  A    between atoms: C30_40  and  C32_42 
REMARK   13  A    between atoms: C32_42  and  O10_43 
ROOT
HETATM    1  C1  UNL     1      -4.231  -1.855  -4.169  1.00  0.00     0.030 C 
HETATM    2  C2  UNL     1      -3.406  -0.974  -3.700  1.00  0.00     0.035 C 
HETATM    3  C3  UNL     1      -3.092   0.379  -4.092  1.00  0.00     0.294 C 
HETATM    4  O1  UNL     1      -3.250   0.845  -5.245  1.00  0.00    -0.259 OA
HETATM    5  O2  UNL     1      -2.608   1.017  -3.002  1.00  0.00    -0.294 OA
HETATM    6  C4  UNL     1      -1.981   0.098  -2.053  1.00  0.00     0.149 C 
HETATM    7  C5  UNL     1      -2.475  -1.173  -2.505  1.00  0.00    -0.026 C 
HETATM    8  C6  UNL     1      -2.817  -2.320  -1.683  1.00  0.00     0.048 C 
HETATM    9  C7  UNL     1      -0.487   0.220  -2.456  1.00  0.00     0.197 C 
HETATM   10  O7  UNL     1       0.036   1.446  -2.266  1.00  0.00    -0.372 OA
HETATM   11  C20 UNL     1      -0.848   2.450  -2.021  1.00  0.00     0.151 A 
HETATM   12  C21 UNL     1      -0.663   3.022  -0.600  1.00  0.00     0.038 A 
HETATM   13  C22 UNL     1       0.579   2.652   0.118  1.00  0.00     0.014 C 
HETATM   14  C23 UNL     1      -1.843   2.258  -0.915  1.00  0.00     0.107 A 
HETATM   15  C25 UNL     1      -2.141   0.783  -0.764  1.00  0.00    -0.010 C 
ENDROOT
BRANCH   9  16
HETATM   16  C8  UNL     1       0.407  -0.856  -2.020  1.00  0.00     0.183 C 
HETATM   17  O3  UNL     1       0.850  -0.843  -0.720  1.00  0.00    -0.374 OA
HETATM   18  C9  UNL     1       2.199  -1.264  -0.666  1.00  0.00     0.132 C 
HETATM   19  C17 UNL     1       2.423  -1.958  -1.916  1.00  0.00     0.042 C 
HETATM   20  C18 UNL     1       3.742  -2.193  -2.498  1.00  0.00     0.015 C 
HETATM   21  C19 UNL     1       1.647  -1.022  -2.888  1.00  0.00     0.156 C 
BRANCH  18  22
HETATM   22  C10 UNL     1       3.082  -0.190  -0.181  1.00  0.00     0.060 C 
BRANCH  22  23
HETATM   23  C11 UNL     1       4.494  -0.486  -0.054  1.00  0.00    -0.011 C 
HETATM   24  C12 UNL     1       5.250  -0.622   1.008  1.00  0.00     0.009 C 
HETATM   25  C13 UNL     1       6.732  -0.935   0.840  1.00  0.00     0.054 C 
BRANCH  24  26
HETATM   26  C14 UNL     1       4.781  -0.532   2.367  1.00  0.00     0.288 C 
HETATM   27  O4  UNL     1       3.609  -0.326   2.746  1.00  0.00    -0.260 OA
BRANCH  26  28
HETATM   28  O5  UNL     1       5.709  -0.683   3.414  1.00  0.00    -0.318 OA
BRANCH  28  29
HETATM   29  C15 UNL     1       5.261  -0.598   4.744  1.00  0.00     0.174 C 
HETATM   30  C16 UNL     1       4.260  -1.625   5.150  1.00  0.00     0.034 C 
ENDBRANCH  28  29
ENDBRANCH  26  28
ENDBRANCH  24  26
ENDBRANCH  22  23
ENDBRANCH  18  22
BRANCH  21  31
HETATM   31  O6  UNL     1       2.317   0.126  -3.162  1.00  0.00    -0.392 OA
ATOM     32  H6  UNL     1       3.091   0.022  -3.704  1.00  0.00     0.210 HD
ENDBRANCH  21  31
ENDBRANCH   9  16
BRANCH  15  33
HETATM   33  C26 UNL     1      -3.232   0.497   0.153  1.00  0.00    -0.056 C 
HETATM   34  C27 UNL     1      -4.473   0.152  -0.354  1.00  0.00     0.020 C 
BRANCH  33  35
HETATM   35  C28 UNL     1      -3.301   0.314   1.614  1.00  0.00     0.020 C 
HETATM   36  C29 UNL     1      -2.286  -0.776   2.050  1.00  0.00     0.015 C 
BRANCH  35  37
HETATM   37  C30 UNL     1      -3.224   1.365   2.604  1.00  0.00     0.013 C 
HETATM   38  C31 UNL     1      -1.993   2.175   2.735  1.00  0.00     0.012 C 
BRANCH  37  39
HETATM   39  C32 UNL     1      -3.581   0.888   4.025  1.00  0.00     0.168 C 
BRANCH  39  40
HETATM   40  O10 UNL     1      -4.847   0.374   4.117  1.00  0.00    -0.400 OA
ATOM     41  H10 UNL     1      -5.067   0.080   4.993  1.00  0.00     0.209 HD
ENDBRANCH  39  40
ENDBRANCH  37  39
ENDBRANCH  35  37
ENDBRANCH  33  35
ENDBRANCH  15  33
BRANCH  14  42
HETATM   42  C24 UNL     1      -3.067   3.131  -1.211  1.00  0.00     0.189 C 
HETATM   43  O8  UNL     1      -3.157   3.794  -2.253  1.00  0.00    -0.647 OA
HETATM   44  O9  UNL     1      -4.068   3.166  -0.297  1.00  0.00    -0.647 OA
ENDBRANCH  14  42
TORSDOF 13
