REMARK  14 active torsions:
REMARK  status: ('A' for Active; 'I' for Inactive)
REMARK    1  A    between atoms: C2_2  and  O2_4 
REMARK    2  A    between atoms: O2_4  and  C3_5 
REMARK    3  A    between atoms: C10_14  and  C11_15 
REMARK    4  A    between atoms: C12_16  and  C13_17 
REMARK    5  A    between atoms: C13_17  and  C16_20 
REMARK    6  A    between atoms: C16_20  and  O5_21 
REMARK    7  A    between atoms: C20_27  and  C21_28 
REMARK    8  A    between atoms: C21_28  and  C22_29 
REMARK    9  A    between atoms: C22_29  and  O7_30 
REMARK   10  A    between atoms: C22_29  and  C23_32 
REMARK   11  A    between atoms: C23_32  and  C24_33 
REMARK   12  A    between atoms: C27_38  and  S1_39 
REMARK   13  A    between atoms: S1_39  and  C28_40 
REMARK   14  A    between atoms: C28_40  and  C29_41 
ROOT
HETATM    1  C3  UNL     1       2.414   0.672  -1.483  1.00  0.00     0.145 C 
HETATM    2  C4  UNL     1       1.182   1.419  -1.543  1.00  0.00     0.168 C 
HETATM    3  O3  UNL     1       1.377   2.340  -2.382  1.00  0.00    -0.294 OA
HETATM    4  C5  UNL     1      -0.209   1.672  -1.127  1.00  0.00     0.074 C 
HETATM    5  C6  UNL     1      -1.103   1.756  -2.315  1.00  0.00     0.025 C 
HETATM    6  C7  UNL     1      -2.143   0.697  -2.451  1.00  0.00     0.053 C 
HETATM    7  C8  UNL     1      -2.312   0.305  -3.903  1.00  0.00     0.018 C 
HETATM    8  C9  UNL     1      -1.902  -0.510  -1.662  1.00  0.00     0.144 C 
HETATM    9  O4  UNL     1      -2.290  -1.580  -2.085  1.00  0.00    -0.296 OA
HETATM   10  C10 UNL     1      -1.197  -0.515  -0.345  1.00  0.00     0.058 C 
HETATM   11  C17 UNL     1      -0.100  -1.509  -0.444  1.00  0.00     0.101 C 
HETATM   12  C18 UNL     1       1.252  -1.030  -0.050  1.00  0.00     0.136 C 
HETATM   13  O6  UNL     1       1.278  -0.956   1.166  1.00  0.00    -0.297 OA
HETATM   14  C19 UNL     1       2.427  -0.675  -0.824  1.00  0.00     0.103 C 
HETATM   15  C20 UNL     1       3.722  -0.334  -0.241  1.00  0.00     0.009 C 
HETATM   16  C25 UNL     1       3.439   1.127  -0.431  1.00  0.00     0.030 C 
HETATM   17  C26 UNL     1       2.893   1.915   0.697  1.00  0.00     0.014 C 
HETATM   18  C27 UNL     1      -0.745   0.855   0.002  1.00  0.00     0.078 C 
ENDROOT
BRANCH  10  19
HETATM   19  C11 UNL     1      -2.250  -0.932   0.655  1.00  0.00    -0.011 C 
HETATM   20  C12 UNL     1      -2.734  -2.164   0.688  1.00  0.00    -0.019 C 
BRANCH  20  21
HETATM   21  C13 UNL     1      -3.757  -2.626   1.635  1.00  0.00    -0.009 C 
HETATM   22  C14 UNL     1      -4.789  -1.549   1.959  1.00  0.00     0.021 C 
HETATM   23  C15 UNL     1      -3.190  -3.100   2.946  1.00  0.00     0.021 C 
BRANCH  21  24
HETATM   24  C16 UNL     1      -4.553  -3.804   1.061  1.00  0.00     0.176 C 
BRANCH  24  25
HETATM   25  O5  UNL     1      -3.724  -4.883   0.778  1.00  0.00    -0.400 OA
ATOM     26  H5  UNL     1      -4.217  -5.613   0.422  1.00  0.00     0.209 HD
ENDBRANCH  24  25
ENDBRANCH  21  24
ENDBRANCH  20  21
ENDBRANCH  10  19
BRANCH  18  27
HETATM   27  S1  UNL     1      -2.281   1.763   0.517  1.00  0.00    -0.162 SA
BRANCH  27  28
HETATM   28  C28 UNL     1      -1.815   3.375   1.204  1.00  0.00     0.078 C 
BRANCH  28  29
HETATM   29  C29 UNL     1      -3.106   4.065   1.605  1.00  0.00    -0.013 C 
HETATM   30  C30 UNL     1      -4.012   4.246   0.389  1.00  0.00     0.010 C 
HETATM   31  C31 UNL     1      -2.742   5.453   2.088  1.00  0.00     0.010 C 
ENDBRANCH  28  29
ENDBRANCH  27  28
ENDBRANCH  18  27
BRANCH   1  32
HETATM   32  O2  UNL     1       3.108   0.636  -2.743  1.00  0.00    -0.301 OA
BRANCH  32  33
HETATM   33  C2  UNL     1       2.578   0.107  -3.886  1.00  0.00     0.256 C 
HETATM   34  C1  UNL     1       3.407   0.137  -5.121  1.00  0.00     0.126 C 
HETATM   35  O1  UNL     1       1.428  -0.376  -3.842  1.00  0.00    -0.266 OA
ENDBRANCH  32  33
ENDBRANCH   1  32
BRANCH  15  36
HETATM   36  C21 UNL     1       4.225  -0.724   1.062  1.00  0.00     0.038 C 
BRANCH  36  37
HETATM   37  C22 UNL     1       4.333  -2.242   1.171  1.00  0.00     0.128 C 
BRANCH  37  38
HETATM   38  O7  UNL     1       5.246  -2.595   0.143  1.00  0.00    -0.395 OA
ATOM     39  H7  UNL     1       5.313  -3.540   0.211  1.00  0.00     0.210 HD
ENDBRANCH  37  38
BRANCH  37  40
HETATM   40  C23 UNL     1       4.853  -2.703   2.490  1.00  0.00     0.144 C 
BRANCH  40  41
HETATM   41  C24 UNL     1       6.201  -2.146   2.713  1.00  0.00     0.175 C 
HETATM   42  O8  UNL     1       6.322  -1.016   3.243  1.00  0.00    -0.648 OA
HETATM   43  O9  UNL     1       7.370  -2.815   2.363  1.00  0.00    -0.648 OA
ENDBRANCH  40  41
ENDBRANCH  37  40
ENDBRANCH  36  37
ENDBRANCH  15  36
TORSDOF 14
