REMARK  8 active torsions:
REMARK  status: ('A' for Active; 'I' for Inactive)
REMARK    1  A    between atoms: C4_5  and  N1_6 
REMARK    2  A    between atoms: C4_5  and  C13_23 
REMARK    3  A    between atoms: C8_13  and  S1_14 
REMARK    4  A    between atoms: S1_14  and  C9_15 
REMARK    5  A    between atoms: C9_15  and  C10_16 
REMARK    6  A    between atoms: C10_16  and  O2_18 
REMARK    7  A    between atoms: O2_18  and  C11_19 
REMARK       I    between atoms: C13_23  and  N4_25 
REMARK    8  A    between atoms: N4_25  and  C14_27 
ROOT
HETATM    1  C1  UNL     1      -0.600  -0.542   3.316  1.00  0.00     0.019 C 
HETATM    2  C2  UNL     1       0.499  -0.448   2.834  1.00  0.00    -0.063 C 
HETATM    3  C3  UNL     1       1.833  -0.339   2.223  1.00  0.00     0.118 C 
HETATM    4 CL1  UNL     1       3.033   0.504   3.166  1.00  0.00    -0.072 Cl
HETATM    5  C4  UNL     1       1.992  -0.875   1.045  1.00  0.00     0.132 C 
ENDROOT
BRANCH   5   6
HETATM    6  N1  UNL     1       0.796  -1.515   0.505  1.00  0.00    -0.340 N 
HETATM    7  C5  UNL     1       0.080  -0.817  -0.306  1.00  0.00     0.085 C 
HETATM    8  C6  UNL     1       0.443   0.571  -0.681  1.00  0.00     0.096 C 
HETATM    9  N3  UNL     1      -1.102  -1.360  -0.879  1.00  0.00    -0.327 N 
HETATM   10  C7  UNL     1      -0.791   1.454  -0.587  1.00  0.00     0.129 C 
HETATM   11  N2  UNL     1      -1.926   0.794  -1.145  1.00  0.00    -0.370 N 
HETATM   12  C8  UNL     1      -2.107  -0.453  -1.294  1.00  0.00     0.141 C 
ATOM     13  H2  UNL     1      -2.684   1.398  -1.463  1.00  0.00     0.161 HD
ATOM     14  H3  UNL     1      -1.222  -2.367  -0.987  1.00  0.00     0.169 HD
ATOM     15  H1  UNL     1       0.540  -2.469   0.758  1.00  0.00     0.167 HD
BRANCH  12  16
HETATM   16  S1  UNL     1      -3.615  -1.127  -2.026  1.00  0.00    -0.084 SA
BRANCH  16  17
HETATM   17  C9  UNL     1      -4.743   0.220  -2.476  1.00  0.00     0.193 C 
BRANCH  17  18
HETATM   18  C10 UNL     1      -5.193   0.881  -1.224  1.00  0.00     0.268 C 
HETATM   19  O1  UNL     1      -5.984   1.853  -1.310  1.00  0.00    -0.264 OA
BRANCH  18  20
HETATM   20  O2  UNL     1      -4.772   0.462   0.029  1.00  0.00    -0.321 OA
BRANCH  20  21
HETATM   21  C11 UNL     1      -5.234   1.128   1.175  1.00  0.00     0.174 C 
HETATM   22  C12 UNL     1      -6.731   1.049   1.264  1.00  0.00     0.034 C 
ENDBRANCH  20  21
ENDBRANCH  18  20
ENDBRANCH  17  18
ENDBRANCH  16  17
ENDBRANCH  12  16
ENDBRANCH   5   6
BRANCH   5  23
HETATM   23  C13 UNL     1       3.152  -0.932   0.209  1.00  0.00     0.271 C 
HETATM   24  O3  UNL     1       3.011  -1.540  -0.926  1.00  0.00    -0.266 OA
HETATM   25  N4  UNL     1       4.445  -0.427   0.421  1.00  0.00    -0.352 N 
ATOM     26  H4  UNL     1       4.646   0.067   1.290  1.00  0.00     0.163 HD
BRANCH  25  27
HETATM   27  C14 UNL     1       5.511  -0.587  -0.565  1.00  0.00     0.076 C 
HETATM   28  C15 UNL     1       5.952   0.770  -1.050  1.00  0.00     0.032 C 
HETATM   29  C16 UNL     1       6.651  -1.409  -0.012  1.00  0.00     0.032 C 
ENDBRANCH  25  27
ENDBRANCH   5  23
TORSDOF 8
