REMARK  6 active torsions:
REMARK  status: ('A' for Active; 'I' for Inactive)
REMARK    1  A    between atoms: C2_2  and  C3_3 
REMARK       I    between atoms: C3_3  and  N1_5 
REMARK    2  A    between atoms: N1_5  and  C4_7 
REMARK    3  A    between atoms: C5_10  and  C6_11 
REMARK    4  A    between atoms: C6_11  and  C7_12 
REMARK    5  A    between atoms: C8_13  and  S1_15 
REMARK    6  A    between atoms: S1_15  and  N3_16 
ROOT
HETATM    1  C4  UNL     1      -0.655   0.381   0.131  1.00  0.00     0.151 A 
HETATM    2  N2  UNL     1       0.500   0.068   0.692  1.00  0.00    -0.339 N 
ATOM      3  H2  UNL     1       0.514  -0.436   1.579  1.00  0.00     0.168 HD
HETATM    4  C5  UNL     1       1.614   0.399   0.120  1.00  0.00     0.021 A 
HETATM    5  C9  UNL     1       1.537   1.076  -1.071  1.00  0.00     0.078 A 
HETATM    6  S2  UNL     1      -0.158   1.191  -1.289  1.00  0.00    -0.064 SA
ENDROOT
BRANCH   4   7
HETATM    7  C6  UNL     1       2.961   0.054   0.734  1.00  0.00     0.086 C 
BRANCH   7   8
HETATM    8  C7  UNL     1       3.345  -1.275   0.196  1.00  0.00     0.012 C 
HETATM    9  C8  UNL     1       4.411  -1.574  -0.490  1.00  0.00     0.122 C 
HETATM   10 BR1  UNL     1       4.620  -3.416  -1.049  1.00  0.00    -0.037 Br
BRANCH   9  11
HETATM   11  S1  UNL     1       5.654  -0.467  -0.930  1.00  0.00     0.263 S 
HETATM   12  O2  UNL     1       6.412  -1.013  -2.142  1.00  0.00    -0.200 OA
HETATM   13  O3  UNL     1       5.176   0.884  -1.365  1.00  0.00    -0.200 OA
BRANCH  11  14
HETATM   14  N3  UNL     1       6.876  -0.356   0.314  1.00  0.00    -0.324 N 
ATOM     15  H32 UNL     1       6.843  -0.886   1.185  1.00  0.00     0.169 HD
ATOM     16  H31 UNL     1       7.612   0.300   0.053  1.00  0.00     0.169 HD
ENDBRANCH  11  14
ENDBRANCH   9  11
ENDBRANCH   7   8
ENDBRANCH   4   7
BRANCH   1  17
HETATM   17  N1  UNL     1      -1.988   0.124   0.570  1.00  0.00    -0.306 N 
HETATM   18  C3  UNL     1      -3.076   0.566  -0.217  1.00  0.00     0.232 C 
HETATM   19  O1  UNL     1      -2.879   1.184  -1.304  1.00  0.00    -0.272 OA
ATOM     20  H1  UNL     1      -2.155  -0.374   1.444  1.00  0.00     0.171 HD
BRANCH  18  21
HETATM   21  C2  UNL     1      -4.484   0.335   0.176  1.00  0.00     0.038 A 
HETATM   22  C1  UNL     1      -4.731  -0.407   1.478  1.00  0.00     0.025 C 
HETATM   23  C10 UNL     1      -5.527   1.282  -0.277  1.00  0.00     0.020 A 
HETATM   24  C11 UNL     1      -5.447  -0.041  -0.943  1.00  0.00     0.020 A 
ENDBRANCH  18  21
ENDBRANCH   1  17
TORSDOF 6
