REMARK  6 active torsions:
REMARK  status: ('A' for Active; 'I' for Inactive)
REMARK       I    between atoms: C2_2  and  N1_4 
REMARK    1  A    between atoms: C3_6  and  C4_7 
REMARK    2  A    between atoms: C3_6  and  C8_11 
REMARK    3  A    between atoms: C4_7  and  C5_8 
REMARK    4  A    between atoms: C9_12  and  C10_13 
REMARK    5  A    between atoms: N3_21  and  C14_22 
REMARK    6  A    between atoms: C14_22  and  C15_23 
ROOT
HETATM    1  C8  UNL     1      -0.504  -0.062   0.054  1.00  0.00     0.079 A 
HETATM    2  C9  UNL     1      -1.645  -0.790   0.086  1.00  0.00     0.054 A 
HETATM    3  N2  UNL     1      -2.863  -0.101   0.134  1.00  0.00    -0.309 N 
ATOM      4  H2  UNL     1      -3.723  -0.649   0.155  1.00  0.00     0.170 HD
HETATM    5  C13 UNL     1      -2.965   1.223   0.154  1.00  0.00     0.330 A 
HETATM    6  O2  UNL     1      -4.120   1.769   0.197  1.00  0.00    -0.246 OA
HETATM    7  N3  UNL     1      -1.866   1.965   0.130  1.00  0.00    -0.257 N 
HETATM    8  C16 UNL     1      -0.676   1.336   0.083  1.00  0.00     0.266 A 
HETATM    9  O4  UNL     1       0.293   2.163   0.081  1.00  0.00    -0.267 OA
ENDROOT
BRANCH   1  10
HETATM   10  C3  UNL     1       0.817  -0.605   0.015  1.00  0.00     0.030 C 
HETATM   11  N1  UNL     1       1.071  -1.839   0.072  1.00  0.00    -0.330 N 
HETATM   12  C2  UNL     1       2.181  -2.644  -0.013  1.00  0.00     0.217 C 
ATOM     13  H1  UNL     1       0.224  -2.387   0.222  1.00  0.00     0.168 HD
HETATM   14  C1  UNL     1       3.114  -2.719   1.180  1.00  0.00     0.117 C 
HETATM   15  O1  UNL     1       2.562  -3.371  -0.975  1.00  0.00    -0.274 OA
BRANCH  10  16
HETATM   16  C4  UNL     1       2.088   0.171  -0.216  1.00  0.00     0.062 C 
BRANCH  16  17
HETATM   17  C5  UNL     1       2.283   0.761  -1.554  1.00  0.00    -0.017 C 
HETATM   18  C6  UNL     1       2.269  -0.327  -2.642  1.00  0.00     0.010 C 
HETATM   19  C7  UNL     1       3.771   1.247  -1.635  1.00  0.00     0.010 C 
ENDBRANCH  16  17
ENDBRANCH  10  16
ENDBRANCH   1  10
BRANCH   2  20
HETATM   20  C10 UNL     1      -1.758  -2.230   0.181  1.00  0.00     0.073 C 
HETATM   21  C11 UNL     1      -1.275  -2.949   1.387  1.00  0.00     0.039 C 
HETATM   22  C12 UNL     1      -3.281  -2.617   0.170  1.00  0.00     0.039 C 
HETATM   23 CL1  UNL     1      -1.287  -3.066  -1.374  1.00  0.00    -0.113 Cl
ENDBRANCH   2  20
BRANCH   7  24
HETATM   24  C14 UNL     1      -1.958   3.425   0.154  1.00  0.00     0.236 C 
BRANCH  24  25
HETATM   25  C15 UNL     1      -1.947   3.919   1.543  1.00  0.00     0.249 C 
HETATM   26  N4  UNL     1      -2.027   5.300   1.799  1.00  0.00    -0.061 NA
HETATM   27  O3  UNL     1      -1.867   3.110   2.485  1.00  0.00    -0.275 OA
ENDBRANCH  24  25
ENDBRANCH   7  24
TORSDOF 6
