REMARK  6 active torsions:
REMARK  status: ('A' for Active; 'I' for Inactive)
REMARK    1  A    between atoms: C2_2  and  O2_4 
REMARK    2  A    between atoms: O2_4  and  C3_5 
REMARK    3  A    between atoms: C7_10  and  C8_11 
REMARK    4  A    between atoms: C8_11  and  N1_12 
REMARK    5  A    between atoms: N1_12  and  C9_14 
REMARK    6  A    between atoms: C13_20  and  C14_21 
ROOT
HETATM    1  C3  UNL     1       3.636  -0.165  -0.185  1.00  0.00     0.151 C 
HETATM    2  C4  UNL     1       2.375  -0.247   0.186  1.00  0.00    -0.022 C 
HETATM    3  C5  UNL     1       1.674   0.950   0.719  1.00  0.00     0.114 C 
HETATM    4  S1  UNL     1       0.040   1.137  -0.101  1.00  0.00    -0.138 SA
HETATM    5  C6  UNL     1      -0.247  -0.471  -0.926  1.00  0.00     0.165 C 
HETATM    6  C7  UNL     1      -1.603  -1.034  -0.749  1.00  0.00     0.128 C 
HETATM    7  C12 UNL     1      -1.067  -1.706   0.424  1.00  0.00     0.230 C 
HETATM    8  O3  UNL     1      -1.581  -2.300   1.422  1.00  0.00    -0.273 OA
HETATM    9  N2  UNL     1       0.271  -1.450   0.040  1.00  0.00    -0.325 N 
HETATM   10  C13 UNL     1       1.710  -1.570   0.040  1.00  0.00     0.144 C 
ENDROOT
BRANCH   6  11
HETATM   11  C8  UNL     1      -2.618   0.079  -0.508  1.00  0.00     0.131 C 
BRANCH  11  12
HETATM   12  N1  UNL     1      -3.930  -0.456  -0.337  1.00  0.00    -0.417 N 
ATOM     13  H1  UNL     1      -4.120  -1.458  -0.372  1.00  0.00     0.153 HD
BRANCH  12  14
HETATM   14  C9  UNL     1      -4.952   0.502  -0.115  1.00  0.00     0.068 C 
HETATM   15  C10 UNL     1      -5.175   1.472  -1.243  1.00  0.00     0.031 C 
HETATM   16  C11 UNL     1      -4.765   1.308   1.149  1.00  0.00     0.031 C 
ENDBRANCH  12  14
ENDBRANCH  11  12
ENDBRANCH   6  11
BRANCH  10  17
HETATM   17  C14 UNL     1       2.242  -2.572   0.966  1.00  0.00     0.010 C 
HETATM   18  C15 UNL     1       2.266  -3.844   0.600  1.00  0.00     0.054 C 
HETATM   19 BR1  UNL     1       1.629  -4.427  -1.099  1.00  0.00    -0.064 Br
ENDBRANCH  10  17
BRANCH   1  20
HETATM   20  O2  UNL     1       4.277   1.058  -0.064  1.00  0.00    -0.291 OA
BRANCH  20  21
HETATM   21  C2  UNL     1       5.596   1.281  -0.417  1.00  0.00     0.259 C 
HETATM   22  C1  UNL     1       6.251   2.606  -0.275  1.00  0.00     0.126 C 
HETATM   23  O1  UNL     1       6.273   0.331  -0.877  1.00  0.00    -0.265 OA
ENDBRANCH  20  21
ENDBRANCH   1  20
TORSDOF 6
