REMARK  9 active torsions:
REMARK  status: ('A' for Active; 'I' for Inactive)
REMARK    1  A    between atoms: O1_2  and  N1_3 
REMARK    2  A    between atoms: N1_3  and  C2_5 
REMARK    3  A    between atoms: C2_5  and  N2_7 
REMARK    4  A    between atoms: N2_7  and  N3_9 
REMARK    5  A    between atoms: N3_9  and  C3_11 
REMARK    6  A    between atoms: C4_12  and  N4_13 
REMARK    7  A    between atoms: C6_18  and  N5_19 
REMARK    8  A    between atoms: C7_23  and  N6_24 
REMARK    9  A    between atoms: N6_24  and  N7_25 
ROOT
HETATM    1  C3  UNL     1      -0.184  -0.626   0.113  1.00  0.00     0.152 C 
HETATM    2  C4  UNL     1      -0.248   0.452   1.154  1.00  0.00     0.211 C 
HETATM    3  C5  UNL     1      -1.715   0.731   1.411  1.00  0.00     0.069 C 
HETATM    4  C6  UNL     1      -2.430  -0.353   0.647  1.00  0.00     0.208 C 
HETATM    5  C7  UNL     1      -1.525  -0.488  -0.575  1.00  0.00     0.155 C 
ENDROOT
BRANCH   1   6
HETATM    6  N3  UNL     1       0.928  -0.582  -0.745  1.00  0.00    -0.326 N 
ATOM      7  H3  UNL     1       1.583  -1.362  -0.792  1.00  0.00     0.180 HD
BRANCH   6   8
HETATM    8  N2  UNL     1       1.108   0.522  -1.507  1.00  0.00    -0.279 N 
ATOM      9  H2  UNL     1       0.311   0.941  -1.985  1.00  0.00     0.189 HD
BRANCH   8  10
HETATM   10  C2  UNL     1       2.389   1.099  -1.646  1.00  0.00     0.210 C 
HETATM   11  S1  UNL     1       2.577   2.425  -2.567  1.00  0.00    -0.037 SA
BRANCH  10  12
HETATM   12  N1  UNL     1       3.527   0.551  -0.999  1.00  0.00    -0.240 N 
ATOM     13  H1  UNL     1       4.434   0.999  -1.126  1.00  0.00     0.197 HD
BRANCH  12  14
HETATM   14  O1  UNL     1       3.439  -0.553  -0.217  1.00  0.00    -0.283 OA
HETATM   15  C1  UNL     1       4.418  -0.510   0.789  1.00  0.00     0.237 C 
ENDBRANCH  12  14
ENDBRANCH  10  12
ENDBRANCH   8  10
ENDBRANCH   6   8
ENDBRANCH   1   6
BRANCH   2  16
HETATM   16  N4  UNL     1       0.380  -0.005   2.383  1.00  0.00    -0.073 N 
ATOM     17  H43 UNL     1      -0.023  -0.881   2.715  1.00  0.00     0.274 HD
ATOM     18  H42 UNL     1       1.334  -0.329   2.227  1.00  0.00     0.274 HD
ATOM     19  H41 UNL     1       0.336   0.728   3.091  1.00  0.00     0.274 HD
ENDBRANCH   2  16
BRANCH   5  20
HETATM   20  N6  UNL     1      -1.850  -1.660  -1.358  1.00  0.00    -0.139 NA
BRANCH  20  21
HETATM   21  N7  UNL     1      -3.096  -1.452  -1.961  1.00  0.00    -0.348 N 
ATOM     22  H72 UNL     1      -3.665  -0.612  -1.856  1.00  0.00     0.172 HD
ATOM     23  H71 UNL     1      -3.325  -2.278  -2.513  1.00  0.00     0.172 HD
ENDBRANCH  20  21
ENDBRANCH   5  20
BRANCH   4  24
HETATM   24  N5  UNL     1      -3.775  -0.036   0.321  1.00  0.00    -0.073 N 
ATOM     25  H53 UNL     1      -4.298   0.216   1.160  1.00  0.00     0.274 HD
ATOM     26  H52 UNL     1      -3.823   0.849  -0.183  1.00  0.00     0.274 HD
ATOM     27  H51 UNL     1      -4.259  -0.770  -0.196  1.00  0.00     0.274 HD
ENDBRANCH   4  24
TORSDOF 9
