REMARK  7 active torsions:
REMARK  status: ('A' for Active; 'I' for Inactive)
REMARK    1  A    between atoms: N1_1  and  C1_5 
REMARK    2  A    between atoms: C1_5  and  C2_6 
REMARK    3  A    between atoms: C1_5  and  C5_11 
REMARK    4  A    between atoms: C2_6  and  S1_7 
REMARK    5  A    between atoms: S1_7  and  C3_8 
REMARK    6  A    between atoms: C3_8  and  C4_9 
REMARK    7  A    between atoms: C6_17  and  O1_18 
ROOT
HETATM    1  C5  UNL     1      -1.416   0.640   0.793  1.00  0.00     0.335 C 
HETATM    2  N2  UNL     1      -1.586   1.260  -0.473  1.00  0.00    -0.292 N 
ATOM      3  H2  UNL     1      -0.781   1.596  -1.002  1.00  0.00     0.183 HD
HETATM    4  N3  UNL     1      -2.837   1.394  -0.959  1.00  0.00    -0.245 N 
ATOM      5  H3  UNL     1      -3.019   1.907  -1.822  1.00  0.00     0.203 HD
HETATM    6  N4  UNL     1      -3.862   0.809  -0.241  1.00  0.00    -0.064 NA
HETATM    7  C6  UNL     1      -3.394  -0.535   0.136  1.00  0.00     0.439 C 
HETATM    8  N5  UNL     1      -2.408  -0.295   1.178  1.00  0.00    -0.009 N 
ATOM      9  H51 UNL     1      -2.858  -0.011   2.048  1.00  0.00     0.284 HD
ATOM     10  H52 UNL     1      -1.984  -1.170   1.488  1.00  0.00     0.284 HD
ENDROOT
BRANCH   1  11
HETATM   11  C1  UNL     1      -0.047  -0.022   0.824  1.00  0.00     0.244 C 
BRANCH  11  12
HETATM   12  N1  UNL     1       0.107  -1.018  -0.193  1.00  0.00    -0.071 N 
ATOM     13  H13 UNL     1       0.122  -0.612  -1.129  1.00  0.00     0.274 HD
ATOM     14  H12 UNL     1       1.042  -1.425  -0.194  1.00  0.00     0.274 HD
ATOM     15  H11 UNL     1      -0.620  -1.727  -0.094  1.00  0.00     0.274 HD
ENDBRANCH  11  12
BRANCH  11  16
HETATM   16  C2  UNL     1       1.016   1.015   0.679  1.00  0.00     0.110 C 
BRANCH  16  17
HETATM   17  S1  UNL     1       2.693   0.418   0.822  1.00  0.00    -0.166 SA
BRANCH  17  18
HETATM   18  C3  UNL     1       3.215  -0.677  -0.491  1.00  0.00     0.085 C 
BRANCH  18  19
HETATM   19  C4  UNL     1       4.644  -1.147  -0.323  1.00  0.00     0.096 C 
HETATM   20  S2  UNL     1       5.824   0.198  -0.306  1.00  0.00    -0.097 SA
ENDBRANCH  18  19
ENDBRANCH  17  18
ENDBRANCH  16  17
ENDBRANCH  11  16
ENDBRANCH   1  11
BRANCH   7  21
HETATM   21  O1  UNL     1      -4.436  -1.311   0.599  1.00  0.00    -0.356 OA
ATOM     22  H1  UNL     1      -4.134  -2.178   0.842  1.00  0.00     0.213 HD
ENDBRANCH   7  21
TORSDOF 7
