REMARK  8 active torsions:
REMARK  status: ('A' for Active; 'I' for Inactive)
REMARK    1  A    between atoms: N1_1  and  C1_4 
REMARK    2  A    between atoms: C4_9  and  N3_10 
REMARK    3  A    between atoms: N7_18  and  O1_19 
REMARK    4  A    between atoms: O1_19  and  C5_20 
REMARK    5  A    between atoms: C5_20  and  O2_21 
REMARK    6  A    between atoms: O2_21  and  C6_22 
REMARK    7  A    between atoms: C6_22  and  O3_23 
REMARK    8  A    between atoms: O3_23  and  N8_24 
ROOT
HETATM    1  C1  UNL     1       3.050   1.208  -0.793  1.00  0.00     0.679 A 
HETATM    2  N2  UNL     1       1.708   1.182  -0.613  1.00  0.00    -0.171 N 
ATOM      3  H2  UNL     1       1.115   1.836  -1.124  1.00  0.00     0.186 HD
HETATM    4  C2  UNL     1       1.161   0.313   0.223  1.00  0.00     0.196 A 
HETATM    5  C3  UNL     1       2.005  -0.557   0.898  1.00  0.00     0.139 A 
HETATM    6  C4  UNL     1       3.372  -0.536   0.721  1.00  0.00     0.146 A 
HETATM    7  N4  UNL     1       3.888   0.360  -0.136  1.00  0.00    -0.175 N 
ATOM      8  H4  UNL     1       4.895   0.405  -0.293  1.00  0.00     0.186 HD
HETATM    9  N5  UNL     1       1.137  -1.346   1.707  1.00  0.00    -0.275 N 
ATOM     10  H5  UNL     1       1.437  -1.995   2.434  1.00  0.00     0.184 HD
HETATM   11  N6  UNL     1      -0.188  -1.092   1.350  1.00  0.00     0.009 NA
HETATM   12  N7  UNL     1      -0.209   0.073   0.593  1.00  0.00    -0.123 N 
ENDROOT
BRANCH  12  13
HETATM   13  O1  UNL     1      -1.279   0.801   0.293  1.00  0.00    -0.232 OA
BRANCH  13  14
HETATM   14  C5  UNL     1      -1.800   0.670  -0.965  1.00  0.00     0.375 C 
BRANCH  14  15
HETATM   15  O2  UNL     1      -2.273  -0.517  -1.365  1.00  0.00    -0.338 OA
BRANCH  15  16
HETATM   16  C6  UNL     1      -3.282  -1.125  -0.726  1.00  0.00     0.372 C 
BRANCH  16  17
HETATM   17  O3  UNL     1      -4.503  -0.524  -0.621  1.00  0.00    -0.261 OA
BRANCH  17  18
HETATM   18  N8  UNL     1      -4.557   0.617   0.027  1.00  0.00    -0.309 N 
ATOM     19  H82 UNL     1      -3.713   1.024   0.429  1.00  0.00     0.184 HD
ATOM     20  H81 UNL     1      -5.469   1.066   0.105  1.00  0.00     0.184 HD
ENDBRANCH  17  18
ENDBRANCH  16  17
ENDBRANCH  15  16
ENDBRANCH  14  15
ENDBRANCH  13  14
ENDBRANCH  12  13
BRANCH   1  21
HETATM   21  N1  UNL     1       3.547   2.056  -1.603  1.00  0.00    -0.234 N 
ATOM     22  H12 UNL     1       2.919   2.691  -2.095  1.00  0.00     0.174 HD
ATOM     23  H11 UNL     1       4.558   2.076  -1.739  1.00  0.00     0.174 HD
ENDBRANCH   1  21
BRANCH   6  24
HETATM   24  N3  UNL     1       4.137  -1.350   1.355  1.00  0.00    -0.383 N 
ATOM     25  H32 UNL     1       3.745  -2.031   2.006  1.00  0.00     0.157 HD
ATOM     26  H31 UNL     1       5.148  -1.334   1.224  1.00  0.00     0.157 HD
ENDBRANCH   6  24
TORSDOF 8
