REMARK  7 active torsions:
REMARK  status: ('A' for Active; 'I' for Inactive)
REMARK    1  A    between atoms: N1_1  and  C1_4 
REMARK    2  A    between atoms: N3_8  and  C3_9 
REMARK    3  A    between atoms: C4_12  and  C5_13 
REMARK    4  A    between atoms: C5_13  and  N6_14 
REMARK    5  A    between atoms: N6_14  and  C6_16 
REMARK    6  A    between atoms: C6_16  and  C7_17 
REMARK    7  A    between atoms: C7_17  and  O1_18 
ROOT
HETATM    1  C3  UNL     1      -1.657  -0.062   0.411  1.00  0.00     0.377 C 
HETATM    2  N4  UNL     1      -0.972  -1.190  -0.185  1.00  0.00    -0.089 NA
HETATM    3  N5  UNL     1       0.345  -0.979   0.235  1.00  0.00    -0.106 NA
HETATM    4  C4  UNL     1       0.457   0.426   0.571  1.00  0.00     0.273 C 
HETATM    5  O2  UNL     1      -0.776   0.974   0.100  1.00  0.00    -0.321 OA
ENDROOT
BRANCH   1   6
HETATM    6  N3  UNL     1      -2.963   0.199  -0.163  1.00  0.00    -0.184 N 
HETATM    7  N2  UNL     1      -3.220   1.110  -1.091  1.00  0.00    -0.288 N 
HETATM    8  C2  UNL     1      -4.517   1.087  -1.370  1.00  0.00     0.158 A 
ATOM      9  H2  UNL     1      -2.532   1.728  -1.521  1.00  0.00     0.188 HD
HETATM   10  C1  UNL     1      -5.092   0.119  -0.580  1.00  0.00     0.132 A 
HETATM   11  N7  UNL     1      -4.073  -0.414   0.162  1.00  0.00    -0.264 N 
ATOM     12  H7  UNL     1      -4.163  -1.161   0.851  1.00  0.00     0.190 HD
BRANCH  10  13
HETATM   13  N1  UNL     1      -6.350  -0.202  -0.567  1.00  0.00    -0.383 N 
ATOM     14  H12 UNL     1      -7.109   0.195  -1.120  1.00  0.00     0.157 HD
ATOM     15  H11 UNL     1      -6.776  -0.920   0.019  1.00  0.00     0.157 HD
ENDBRANCH  10  13
ENDBRANCH   1   6
BRANCH   4  16
HETATM   16  C5  UNL     1       1.599   1.107  -0.132  1.00  0.00     0.106 C 
BRANCH  16  17
HETATM   17  N6  UNL     1       2.858   0.699   0.286  1.00  0.00    -0.397 N 
ATOM     18  H6  UNL     1       3.434   1.358   0.810  1.00  0.00     0.158 HD
BRANCH  17  19
HETATM   19  C6  UNL     1       3.376  -0.580   0.020  1.00  0.00     0.145 C 
BRANCH  19  20
HETATM   20  C7  UNL     1       4.821  -0.701   0.543  1.00  0.00     0.183 C 
BRANCH  20  21
HETATM   21  O1  UNL     1       5.570   0.271  -0.126  1.00  0.00    -0.399 OA
ATOM     22  H1  UNL     1       6.461   0.196   0.196  1.00  0.00     0.209 HD
ENDBRANCH  20  21
ENDBRANCH  19  20
ENDBRANCH  17  19
ENDBRANCH  16  17
ENDBRANCH   4  16
TORSDOF 7
