REMARK  8 active torsions:
REMARK  status: ('A' for Active; 'I' for Inactive)
REMARK    1  A    between atoms: N1_1  and  C1_4 
REMARK    2  A    between atoms: C2_7  and  N3_8 
REMARK    3  A    between atoms: N3_8  and  C3_10 
REMARK    4  A    between atoms: C3_10  and  N4_11 
REMARK    5  A    between atoms: C4_17  and  N6_18 
REMARK    6  A    between atoms: N6_18  and  C5_20 
REMARK    7  A    between atoms: C7_22  and  O1_23 
REMARK    8  A    between atoms: C8_25  and  O2_26 
ROOT
HETATM    1  C1  UNL     1       2.203   0.436   2.230  1.00  0.00     0.705 A 
HETATM    2  N2  UNL     1       2.960   0.098   1.191  1.00  0.00    -0.022 N 
ATOM      3  H2  UNL     1       3.955  -0.087   1.317  1.00  0.00     0.203 HD
HETATM    4  C2  UNL     1       2.406   0.003  -0.018  1.00  0.00     0.708 A 
HETATM    5  N5  UNL     1       1.101   0.249  -0.152  1.00  0.00    -0.021 N 
ATOM      6  H5  UNL     1       0.689   0.172  -1.082  1.00  0.00     0.203 HD
HETATM    7  C4  UNL     1       0.299   0.593   0.872  1.00  0.00     0.707 A 
HETATM    8  N7  UNL     1       0.902   0.678   2.073  1.00  0.00    -0.022 N 
ATOM      9  H7  UNL     1       0.346   0.936   2.888  1.00  0.00     0.203 HD
ENDROOT
BRANCH   7  10
HETATM   10  N6  UNL     1      -1.090   0.859   0.747  1.00  0.00    -0.220 N 
ATOM     11  H6  UNL     1      -1.601   1.114   1.592  1.00  0.00     0.178 HD
BRANCH  10  12
HETATM   12  C5  UNL     1      -1.825   0.795  -0.479  1.00  0.00     0.104 C 
HETATM   13  C6  UNL     1      -1.842  -0.572  -1.093  1.00  0.00     0.060 C 
HETATM   14  C7  UNL     1      -3.097  -1.271  -0.613  1.00  0.00     0.148 C 
HETATM   15  C8  UNL     1      -4.063  -0.142  -0.454  1.00  0.00     0.148 C 
HETATM   16  C9  UNL     1      -3.275   1.115  -0.276  1.00  0.00     0.060 C 
BRANCH  14  17
HETATM   17  O1  UNL     1      -2.896  -1.998   0.547  1.00  0.00    -0.393 OA
ATOM     18  H1  UNL     1      -3.683  -2.436   0.848  1.00  0.00     0.210 HD
ENDBRANCH  14  17
BRANCH  15  19
HETATM   19  O2  UNL     1      -4.867  -0.027  -1.596  1.00  0.00    -0.393 OA
ATOM     20  H2  UNL     1      -5.481   0.691  -1.495  1.00  0.00     0.210 HD
ENDBRANCH  15  19
ENDBRANCH  10  12
ENDBRANCH   7  10
BRANCH   4  21
HETATM   21  N3  UNL     1       3.170  -0.352  -1.148  1.00  0.00    -0.201 N 
ATOM     22  H3  UNL     1       2.686  -0.408  -2.044  1.00  0.00     0.179 HD
BRANCH  21  23
HETATM   23  C3  UNL     1       4.568  -0.639  -1.136  1.00  0.00     0.368 C 
BRANCH  23  24
HETATM   24  N4  UNL     1       5.387   0.454  -0.679  1.00  0.00    -0.063 N 
ATOM     25  H43 UNL     1       5.199   1.295  -1.225  1.00  0.00     0.276 HD
ATOM     26  H42 UNL     1       5.079   0.772   0.240  1.00  0.00     0.276 HD
ATOM     27  H41 UNL     1       6.386   0.249  -0.670  1.00  0.00     0.276 HD
ENDBRANCH  23  24
ENDBRANCH  21  23
ENDBRANCH   4  21
BRANCH   1  28
HETATM   28  N1  UNL     1       2.728   0.531   3.398  1.00  0.00    -0.234 N 
ATOM     29  H12 UNL     1       3.724   0.346   3.518  1.00  0.00     0.174 HD
ATOM     30  H11 UNL     1       2.147   0.790   4.195  1.00  0.00     0.174 HD
ENDBRANCH   1  28
TORSDOF 8
