REMARK  7 active torsions:
REMARK  status: ('A' for Active; 'I' for Inactive)
REMARK    1  A    between atoms: N1_1  and  C1_4 
REMARK    2  A    between atoms: C2_7  and  N3_8 
REMARK    3  A    between atoms: N6_16  and  C4_17 
REMARK    4  A    between atoms: C4_17  and  O1_18 
REMARK    5  A    between atoms: O1_18  and  C5_19 
REMARK    6  A    between atoms: C5_19  and  C6_20 
REMARK    7  A    between atoms: C6_20  and  N7_21 
ROOT
HETATM    1  C1  UNL     1      -2.189   1.542   0.497  1.00  0.00     0.679 A 
HETATM    2  N2  UNL     1      -3.348   1.173  -0.118  1.00  0.00    -0.175 N 
ATOM      3  H2  UNL     1      -4.146   1.808  -0.092  1.00  0.00     0.186 HD
HETATM    4  C2  UNL     1      -3.470   0.008  -0.752  1.00  0.00     0.147 A 
HETATM    5  C3  UNL     1      -2.382  -0.871  -0.795  1.00  0.00     0.140 A 
HETATM    6  N4  UNL     1      -2.206  -2.086  -1.345  1.00  0.00    -0.279 N 
ATOM      7  H4  UNL     1      -2.894  -2.625  -1.871  1.00  0.00     0.189 HD
HETATM    8  N5  UNL     1      -0.965  -2.441  -1.067  1.00  0.00    -0.236 N 
ATOM      9  H5  UNL     1      -0.534  -3.320  -1.353  1.00  0.00     0.208 HD
HETATM   10  N6  UNL     1      -0.363  -1.504  -0.371  1.00  0.00    -0.235 N 
HETATM   11  C7  UNL     1      -1.216  -0.492  -0.173  1.00  0.00     0.173 A 
HETATM   12  N8  UNL     1      -1.148   0.694   0.452  1.00  0.00    -0.173 N 
ATOM     13  H8  UNL     1      -0.276   0.961   0.909  1.00  0.00     0.186 HD
ENDROOT
BRANCH  10  14
HETATM   14  C4  UNL     1       1.023  -1.492   0.147  1.00  0.00     0.319 C 
BRANCH  14  15
HETATM   15  O1  UNL     1       1.774  -0.917  -0.855  1.00  0.00    -0.369 OA
BRANCH  15  16
HETATM   16  C5  UNL     1       3.118  -0.844  -0.577  1.00  0.00     0.197 C 
BRANCH  16  17
HETATM   17  C6  UNL     1       3.357  -0.006   0.648  1.00  0.00     0.255 C 
BRANCH  17  18
HETATM   18  N7  UNL     1       2.830   1.320   0.392  1.00  0.00    -0.077 N 
ATOM     19  H73 UNL     1       3.213   1.740  -0.455  1.00  0.00     0.274 HD
ATOM     20  H72 UNL     1       1.851   1.307   0.107  1.00  0.00     0.274 HD
ATOM     21  H71 UNL     1       2.992   1.889   1.223  1.00  0.00     0.274 HD
ENDBRANCH  17  18
ENDBRANCH  16  17
ENDBRANCH  15  16
ENDBRANCH  14  15
ENDBRANCH  10  14
BRANCH   4  22
HETATM   22  N3  UNL     1      -4.556  -0.347  -1.332  1.00  0.00    -0.383 N 
ATOM     23  H32 UNL     1      -5.349   0.294  -1.301  1.00  0.00     0.157 HD
ATOM     24  H31 UNL     1      -4.649  -1.239  -1.818  1.00  0.00     0.157 HD
ENDBRANCH   4  22
BRANCH   1  25
HETATM   25  N1  UNL     1      -2.097   2.673   1.102  1.00  0.00    -0.234 N 
ATOM     26  H12 UNL     1      -2.887   3.317   1.136  1.00  0.00     0.174 HD
ATOM     27  H11 UNL     1      -1.230   2.949   1.562  1.00  0.00     0.174 HD
ENDBRANCH   1  25
TORSDOF 7
