REMARK  6 active torsions:
REMARK  status: ('A' for Active; 'I' for Inactive)
REMARK    1  A    between atoms: N1_1  and  C1_4 
REMARK    2  A    between atoms: N6_17  and  N7_18 
REMARK    3  A    between atoms: N7_18  and  C5_20 
REMARK    4  A    between atoms: C5_20  and  C6_21 
REMARK    5  A    between atoms: C6_21  and  C7_22 
REMARK    6  A    between atoms: C7_22  and  O1_23 
ROOT
HETATM    1  C1  UNL     1      -1.946   0.523  -1.132  1.00  0.00     0.133 A 
HETATM    2  N2  UNL     1      -3.182   0.766  -1.630  1.00  0.00    -0.337 N 
ATOM      3  H2  UNL     1      -3.300   1.277  -2.505  1.00  0.00     0.168 HD
HETATM    4  C2  UNL     1      -4.241   0.323  -0.952  1.00  0.00     0.183 A 
HETATM    5  N3  UNL     1      -4.096  -0.349   0.200  1.00  0.00    -0.336 N 
ATOM      6  H3  UNL     1      -4.932  -0.670   0.689  1.00  0.00     0.168 HD
HETATM    7  C3  UNL     1      -2.891  -0.616   0.736  1.00  0.00     0.155 A 
HETATM    8  N4  UNL     1      -2.519  -1.254   1.847  1.00  0.00    -0.173 N 
ATOM      9  H4  UNL     1      -3.135  -1.685   2.536  1.00  0.00     0.186 HD
HETATM   10  C4  UNL     1      -1.196  -1.220   1.883  1.00  0.00     0.699 A 
HETATM   11  N5  UNL     1      -0.521  -1.757   2.844  1.00  0.00    -0.233 N 
ATOM     12  H51 UNL     1       0.498  -1.731   2.872  1.00  0.00     0.174 HD
ATOM     13  H52 UNL     1      -0.883  -2.251   3.660  1.00  0.00     0.174 HD
HETATM   14  N6  UNL     1      -0.703  -0.546   0.771  1.00  0.00    -0.084 N 
HETATM   15  C8  UNL     1      -1.768  -0.165   0.049  1.00  0.00     0.162 A 
ENDROOT
BRANCH  14  16
HETATM   16  N7  UNL     1       0.635  -0.373   0.576  1.00  0.00    -0.315 N 
ATOM     17  H7  UNL     1       1.161  -0.788   1.345  1.00  0.00     0.181 HD
BRANCH  16  18
HETATM   18  C5  UNL     1       1.511   0.202  -0.359  1.00  0.00     0.142 C 
BRANCH  18  19
HETATM   19  C6  UNL     1       3.003   0.009   0.121  1.00  0.00     0.047 C 
BRANCH  19  20
HETATM   20  C7  UNL     1       3.848   0.660  -0.951  1.00  0.00     0.165 C 
BRANCH  20  21
HETATM   21  O1  UNL     1       5.190   0.537  -0.608  1.00  0.00    -0.401 OA
ATOM     22  H1  UNL     1       5.721   0.946  -1.281  1.00  0.00     0.209 HD
ENDBRANCH  20  21
ENDBRANCH  19  20
ENDBRANCH  18  19
ENDBRANCH  16  18
ENDBRANCH  14  16
BRANCH   1  23
HETATM   23  N1  UNL     1      -0.965   0.953  -1.788  1.00  0.00    -0.383 N 
ATOM     24  H12 UNL     1      -1.097   1.462  -2.662  1.00  0.00     0.157 HD
ATOM     25  H11 UNL     1      -0.034   0.770  -1.413  1.00  0.00     0.157 HD
ENDBRANCH   1  23
TORSDOF 6
