REMARK  9 active torsions:
REMARK  status: ('A' for Active; 'I' for Inactive)
REMARK    1  A    between atoms: N1_1  and  C1_4 
REMARK    2  A    between atoms: C2_7  and  S1_8 
REMARK    3  A    between atoms: S1_8  and  C3_9 
REMARK    4  A    between atoms: C3_9  and  C4_10 
REMARK    5  A    between atoms: C4_10  and  O1_11 
REMARK    6  A    between atoms: O1_11  and  N3_12 
REMARK    7  A    between atoms: N3_12  and  N4_13 
REMARK    8  A    between atoms: N3_12  and  N5_16 
REMARK    9  A    between atoms: C5_21  and  N7_22 
ROOT
HETATM    1  C1  UNL     1       3.898   1.361  -0.032  1.00  0.00     0.692 A 
HETATM    2  N2  UNL     1       2.656   1.121  -0.498  1.00  0.00    -0.170 N 
ATOM      3  H2  UNL     1       2.168   1.853  -1.015  1.00  0.00     0.186 HD
HETATM    4  C2  UNL     1       2.050  -0.052  -0.299  1.00  0.00     0.174 A 
HETATM    5  N6  UNL     1       2.708  -0.997   0.383  1.00  0.00    -0.170 N 
ATOM      6  H6  UNL     1       2.264  -1.900   0.548  1.00  0.00     0.186 HD
HETATM    7  C5  UNL     1       3.936  -0.773   0.849  1.00  0.00     0.692 A 
HETATM    8  N8  UNL     1       4.537   0.413   0.642  1.00  0.00    -0.023 N 
ATOM      9  H8  UNL     1       5.477   0.582   1.000  1.00  0.00     0.203 HD
ENDROOT
BRANCH   4  10
HETATM   10  S1  UNL     1       0.417  -0.352  -0.919  1.00  0.00    -0.091 SA
BRANCH  10  11
HETATM   11  C3  UNL     1      -0.793   0.139   0.335  1.00  0.00     0.111 C 
BRANCH  11  12
HETATM   12  C4  UNL     1      -2.207  -0.110  -0.174  1.00  0.00     0.216 C 
BRANCH  12  13
HETATM   13  O1  UNL     1      -3.152   0.261   0.773  1.00  0.00    -0.244 OA
BRANCH  13  14
HETATM   14  N3  UNL     1      -4.405   0.071   0.396  1.00  0.00    -0.106 N 
BRANCH  14  15
HETATM   15  N4  UNL     1      -4.849   0.855  -0.642  1.00  0.00    -0.304 N 
ATOM     16  H42 UNL     1      -4.537   1.826  -0.626  1.00  0.00     0.180 HD
ATOM     17  H41 UNL     1      -5.816   0.708  -0.933  1.00  0.00     0.180 HD
ENDBRANCH  14  15
BRANCH  14  18
HETATM   18  N5  UNL     1      -4.826  -1.237   0.374  1.00  0.00    -0.304 N 
ATOM     19  H52 UNL     1      -4.497  -1.819   1.144  1.00  0.00     0.180 HD
ATOM     20  H51 UNL     1      -5.793  -1.384   0.083  1.00  0.00     0.180 HD
ENDBRANCH  14  18
ENDBRANCH  13  14
ENDBRANCH  12  13
ENDBRANCH  11  12
ENDBRANCH  10  11
ENDBRANCH   4  10
BRANCH   1  21
HETATM   21  N1  UNL     1       4.458   2.495  -0.236  1.00  0.00    -0.234 N 
ATOM     22  H12 UNL     1       3.967   3.224  -0.754  1.00  0.00     0.174 HD
ATOM     23  H11 UNL     1       5.398   2.677   0.117  1.00  0.00     0.174 HD
ENDBRANCH   1  21
BRANCH   7  24
HETATM   24  N7  UNL     1       4.583  -1.675   1.508  1.00  0.00    -0.234 N 
ATOM     25  H72 UNL     1       4.127  -2.574   1.665  1.00  0.00     0.174 HD
ATOM     26  H71 UNL     1       5.523  -1.504   1.865  1.00  0.00     0.174 HD
ENDBRANCH   7  24
TORSDOF 9
