REMARK  16 active torsions:
REMARK  status: ('A' for Active; 'I' for Inactive)
REMARK    1  A    between atoms: N1_1  and  C1_4 
REMARK    2  A    between atoms: C3_9  and  N4_10 
REMARK    3  A    between atoms: N6_15  and  C4_16 
REMARK    4  A    between atoms: C5_19  and  C6_20 
REMARK    5  A    between atoms: C6_20  and  O1_21 
REMARK    6  A    between atoms: C6_20  and  O2_23 
REMARK    7  A    between atoms: C7_26  and  C8_27 
REMARK    8  A    between atoms: N12_37  and  C11_38 
REMARK    9  A    between atoms: C11_38  and  C12_39 
REMARK   10  A    between atoms: C12_39  and  C13_40 
REMARK   11  A    between atoms: C13_40  and  O3_41 
REMARK   12  A    between atoms: C13_40  and  C14_43 
REMARK   13  A    between atoms: C14_43  and  N13_44 
REMARK   14  A    between atoms: C16_46  and  O4_47 
REMARK   15  A    between atoms: N14_49  and  N15_50 
REMARK   16  A    between atoms: N16_54  and  N17_56 
ROOT
HETATM    1  C1  UNL     1       1.963  -0.448   2.438  1.00  0.00     0.705 A 
HETATM    2  N2  UNL     1       0.755  -0.846   2.050  1.00  0.00    -0.020 N 
ATOM      3  H2  UNL     1      -0.014  -0.864   2.719  1.00  0.00     0.203 HD
HETATM    4  C2  UNL     1       0.546  -1.224   0.779  1.00  0.00     0.731 A 
HETATM    5  N3  UNL     1       1.591  -1.199  -0.120  1.00  0.00     0.094 N 
HETATM    6  C3  UNL     1       2.790  -0.801   0.277  1.00  0.00     0.727 A 
HETATM    7  N5  UNL     1       2.983  -0.420   1.569  1.00  0.00    -0.020 N 
ATOM      8  H5  UNL     1       3.906  -0.113   1.877  1.00  0.00     0.203 HD
HETATM    9  N6  UNL     1       1.431  -1.612  -1.431  1.00  0.00    -0.238 N 
HETATM   10  C9  UNL     1       0.027  -1.671  -1.906  1.00  0.00     0.173 C 
HETATM   11  C10 UNL     1      -0.741  -2.501  -0.844  1.00  0.00     0.163 C 
HETATM   12  N12 UNL     1      -0.744  -1.627   0.344  1.00  0.00    -0.213 N 
ENDROOT
BRANCH  12  13
HETATM   13  C11 UNL     1      -1.976  -1.237   0.943  1.00  0.00     0.144 C 
BRANCH  13  14
HETATM   14  C12 UNL     1      -1.852  -0.350   2.104  1.00  0.00     0.054 C 
BRANCH  14  15
HETATM   15  C13 UNL     1      -3.230   0.069   2.657  1.00  0.00     0.138 C 
BRANCH  15  16
HETATM   16  O3  UNL     1      -3.900  -1.065   3.034  1.00  0.00    -0.394 OA
ATOM     17  H3  UNL     1      -4.749  -0.807   3.375  1.00  0.00     0.210 HD
ENDBRANCH  15  16
BRANCH  15  18
HETATM   18  C14 UNL     1      -3.995   0.917   1.684  1.00  0.00     0.178 C 
BRANCH  18  19
HETATM   19  N13 UNL     1      -3.326   2.147   1.332  1.00  0.00    -0.184 N 
HETATM   20  C15 UNL     1      -2.472   2.382   0.324  1.00  0.00     0.167 A 
HETATM   21  C16 UNL     1      -2.081   3.693   0.351  1.00  0.00     0.195 A 
HETATM   22  N14 UNL     1      -2.708   4.285   1.400  1.00  0.00    -0.067 N 
HETATM   23  C17 UNL     1      -3.450   3.340   1.975  1.00  0.00     0.721 A 
HETATM   24  N16 UNL     1      -4.202   3.480   3.002  1.00  0.00    -0.137 N 
ATOM     25  H16 UNL     1      -4.722   2.673   3.346  1.00  0.00     0.205 HD
BRANCH  21  26
HETATM   26  O4  UNL     1      -1.223   4.330  -0.500  1.00  0.00    -0.343 OA
ATOM     27  H4  UNL     1      -0.952   5.240  -0.481  1.00  0.00     0.219 HD
ENDBRANCH  21  26
BRANCH  22  28
HETATM   28  N15 UNL     1      -2.589   5.637   1.781  1.00  0.00    -0.322 N 
ATOM     29 2H15 UNL     1      -2.021   6.361   1.341  1.00  0.00     0.178 HD
ATOM     30 1H15 UNL     1      -3.060   6.082   2.569  1.00  0.00     0.178 HD
ENDBRANCH  22  28
BRANCH  24  31
HETATM   31  N17 UNL     1      -4.332   4.681   3.657  1.00  0.00    -0.331 N 
ATOM     32 2H17 UNL     1      -3.805   5.478   3.300  1.00  0.00     0.177 HD
ATOM     33 1H17 UNL     1      -4.931   4.793   4.475  1.00  0.00     0.177 HD
ENDBRANCH  24  31
ENDBRANCH  18  19
ENDBRANCH  15  18
ENDBRANCH  14  15
ENDBRANCH  13  14
ENDBRANCH  12  13
BRANCH   1  34
HETATM   34  N1  UNL     1       2.183  -0.073   3.675  1.00  0.00    -0.234 N 
ATOM     35  H12 UNL     1       1.407  -0.094   4.336  1.00  0.00     0.174 HD
ATOM     36  H11 UNL     1       3.110   0.232   3.973  1.00  0.00     0.174 HD
ENDBRANCH   1  34
BRANCH   6  37
HETATM   37  N4  UNL     1       3.782  -0.753  -0.550  1.00  0.00    -0.232 N 
ATOM     38  H42 UNL     1       3.637  -1.039  -1.518  1.00  0.00     0.174 HD
ATOM     39  H41 UNL     1       4.706  -0.446  -0.244  1.00  0.00     0.174 HD
ENDBRANCH   6  37
BRANCH   9  40
HETATM   40  C4  UNL     1       2.455  -2.005  -2.342  1.00  0.00     0.145 A 
HETATM   41  N7  UNL     1       3.057  -3.168  -2.166  1.00  0.00    -0.334 N 
HETATM   42  C5  UNL     1       3.948  -3.587  -3.016  1.00  0.00     0.108 A 
ATOM     43  H7  UNL     1       2.821  -3.742  -1.357  1.00  0.00     0.168 HD
HETATM   44  S1  UNL     1       3.998  -2.325  -4.159  1.00  0.00    -0.064 SA
HETATM   45  C7  UNL     1       2.811  -1.285  -3.439  1.00  0.00     0.099 A 
BRANCH  42  46
HETATM   46  C6  UNL     1       4.719  -4.862  -2.967  1.00  0.00     0.312 C 
BRANCH  46  47
HETATM   47  O1  UNL     1       3.856  -5.924  -2.640  1.00  0.00    -0.365 OA
ATOM     48  H1  UNL     1       4.347  -6.736  -2.609  1.00  0.00     0.213 HD
ENDBRANCH  46  47
BRANCH  46  49
HETATM   49  O2  UNL     1       5.817  -4.811  -2.149  1.00  0.00    -0.365 OA
ATOM     50  H2  UNL     1       6.308  -5.623  -2.118  1.00  0.00     0.213 HD
ENDBRANCH  46  49
ENDBRANCH  42  46
BRANCH  45  51
HETATM   51  C8  UNL     1       2.369   0.033  -3.940  1.00  0.00     0.155 A 
HETATM   52  N8  UNL     1       1.498   0.900  -3.467  1.00  0.00    -0.266 N 
HETATM   53  N9  UNL     1       1.487   1.930  -4.298  1.00  0.00    -0.005 NA
ATOM     54  H8  UNL     1       0.938   0.797  -2.621  1.00  0.00     0.186 HD
HETATM   55  N10 UNL     1       2.346   1.724  -5.301  1.00  0.00    -0.225 N 
HETATM   56  N11 UNL     1       2.887   0.560  -5.081  1.00  0.00    -0.270 N 
ATOM     57  H10 UNL     1       2.539   2.352  -6.081  1.00  0.00     0.205 HD
ATOM     58  H11 UNL     1       3.589   0.114  -5.672  1.00  0.00     0.190 HD
ENDBRANCH  45  51
ENDBRANCH   9  40
TORSDOF 16
