REMARK  16 active torsions:
REMARK  status: ('A' for Active; 'I' for Inactive)
REMARK    1  A    between atoms: C2_2  and  O1_4 
REMARK    2  A    between atoms: C2_2  and  C4_6 
REMARK    3  A    between atoms: C4_6  and  O2_7 
REMARK    4  A    between atoms: C7_13  and  N2_14 
REMARK    5  A    between atoms: N2_14  and  N3_16 
REMARK    6  A    between atoms: N3_16  and  C8_18 
REMARK    7  A    between atoms: C8_18  and  C9_19 
REMARK    8  A    between atoms: C8_18  and  C11_25 
REMARK    9  A    between atoms: C9_19  and  O3_20 
REMARK   10  A    between atoms: C9_19  and  C10_22 
REMARK   11  A    between atoms: C10_22  and  O4_23 
REMARK   12  A    between atoms: C11_25  and  O5_26 
REMARK   13  A    between atoms: C11_25  and  C12_28 
REMARK   14  A    between atoms: C12_28  and  N4_29 
REMARK   15  A    between atoms: C14_35  and  C15_36 
REMARK   16  A    between atoms: C17_39  and  N7_40 
ROOT
HETATM    1  C8  UNL     1      -1.815  -0.085  -0.933  1.00  0.00     0.160 C 
ENDROOT
BRANCH   1   2
HETATM    2  N3  UNL     1      -0.499   0.182  -0.455  1.00  0.00    -0.324 N 
ATOM      3  H3  UNL     1       0.059   0.955  -0.817  1.00  0.00     0.180 HD
BRANCH   2   4
HETATM    4  N2  UNL     1      -0.024  -0.661   0.522  1.00  0.00    -0.274 N 
ATOM      5  H2  UNL     1      -0.670  -1.208   1.091  1.00  0.00     0.189 HD
BRANCH   4   6
HETATM    6  C7  UNL     1       1.378  -0.759   0.728  1.00  0.00     0.218 C 
HETATM    7  N1  UNL     1       2.272  -1.493   0.166  1.00  0.00    -0.302 N 
HETATM    8  C6  UNL     1       3.531  -1.182   0.763  1.00  0.00     0.287 C 
ATOM      9  H1  UNL     1       2.110  -2.176  -0.574  1.00  0.00     0.168 HD
HETATM   10  C5  UNL     1       4.664  -1.043  -0.215  1.00  0.00     0.168 C 
HETATM   11  O6  UNL     1       3.378   0.075   1.388  1.00  0.00    -0.215 OA
HETATM   12  O7  UNL     1       3.872  -2.090   1.822  1.00  0.00    -0.238 OA
HETATM   13  C4  UNL     1       5.966  -0.888   0.499  1.00  0.00     0.210 C 
HETATM   14  O9  UNL     1       5.849  -0.800   1.903  1.00  0.00    -0.257 OA
HETATM   15  C18 UNL     1       5.028  -1.721   2.539  1.00  0.00     0.413 C 
HETATM   16  O8  UNL     1       5.279  -2.209   3.682  1.00  0.00    -0.229 OA
HETATM   17  N9  UNL     1       2.066   0.039   1.704  1.00  0.00    -0.230 N 
ATOM     18  H9  UNL     1       1.635   0.502   2.504  1.00  0.00     0.197 HD
BRANCH  13  19
HETATM   19  C2  UNL     1       6.749   0.298  -0.016  1.00  0.00     0.107 C 
HETATM   20  C1  UNL     1       6.020   1.593   0.252  1.00  0.00     0.051 C 
HETATM   21  C3  UNL     1       8.070   0.375   0.719  1.00  0.00     0.051 C 
BRANCH  19  22
HETATM   22  O1  UNL     1       6.968   0.139  -1.378  1.00  0.00    -0.385 OA
ATOM     23  H1  UNL     1       7.427  -0.676  -1.547  1.00  0.00     0.210 HD
ENDBRANCH  19  22
ENDBRANCH  13  19
BRANCH  13  24
HETATM   24  O2  UNL     1       6.757  -2.031   0.239  1.00  0.00    -0.362 OA
ATOM     25  H2  UNL     1       6.265  -2.776   0.563  1.00  0.00     0.213 HD
ENDBRANCH  13  24
ENDBRANCH   4   6
ENDBRANCH   2   4
ENDBRANCH   1   2
BRANCH   1  26
HETATM   26  C9  UNL     1      -1.958  -1.450  -1.556  1.00  0.00     0.168 C 
BRANCH  26  27
HETATM   27  O3  UNL     1      -1.679  -2.491  -0.706  1.00  0.00    -0.391 OA
ATOM     28  H3  UNL     1      -1.769  -3.351  -1.099  1.00  0.00     0.210 HD
ENDBRANCH  26  27
BRANCH  26  29
HETATM   29  C10 UNL     1      -1.030  -1.575  -2.748  1.00  0.00     0.198 C 
BRANCH  29  30
HETATM   30  O4  UNL     1      -1.295  -2.811  -3.343  1.00  0.00    -0.398 OA
ATOM     31  H4  UNL     1      -0.713  -2.889  -4.090  1.00  0.00     0.209 HD
ENDBRANCH  29  30
ENDBRANCH  26  29
ENDBRANCH   1  26
BRANCH   1  32
HETATM   32  C11 UNL     1      -2.886   0.179   0.105  1.00  0.00     0.164 C 
BRANCH  32  33
HETATM   33  O5  UNL     1      -2.943   1.458   0.557  1.00  0.00    -0.392 OA
ATOM     34  H5  UNL     1      -3.615   1.624   1.208  1.00  0.00     0.210 HD
ENDBRANCH  32  33
BRANCH  32  35
HETATM   35  C12 UNL     1      -4.210  -0.424  -0.288  1.00  0.00     0.184 C 
BRANCH  35  36
HETATM   36  N4  UNL     1      -5.227  -0.153   0.687  1.00  0.00    -0.272 N 
HETATM   37  N5  UNL     1      -5.300  -0.935   1.798  1.00  0.00    -0.240 N 
HETATM   38  N6  UNL     1      -6.263  -0.523   2.580  1.00  0.00    -0.295 N 
ATOM     39  H5  UNL     1      -4.690  -1.729   1.993  1.00  0.00     0.208 HD
HETATM   40  C13 UNL     1      -6.812   0.530   1.965  1.00  0.00     0.142 A 
ATOM     41  H6  UNL     1      -6.539  -0.923   3.477  1.00  0.00     0.187 HD
HETATM   42  C14 UNL     1      -6.156   0.779   0.746  1.00  0.00     0.096 A 
BRANCH  42  43
HETATM   43  C15 UNL     1      -6.517   1.824  -0.249  1.00  0.00     0.070 A 
HETATM   44  C16 UNL     1      -5.770   2.133  -1.340  1.00  0.00     0.085 A 
HETATM   45  S1  UNL     1      -6.681   3.401  -2.084  1.00  0.00    -0.064 SA
HETATM   46  C17 UNL     1      -7.943   3.459  -0.968  1.00  0.00     0.142 A 
HETATM   47  N8  UNL     1      -7.638   2.529  -0.082  1.00  0.00    -0.335 N 
ATOM     48  H8  UNL     1      -8.248   2.352   0.716  1.00  0.00     0.168 HD
BRANCH  46  49
HETATM   49  N7  UNL     1      -8.985   4.248  -0.985  1.00  0.00    -0.380 N 
ATOM     50  H72 UNL     1      -9.221   4.967  -1.670  1.00  0.00     0.158 HD
ATOM     51  H71 UNL     1      -9.749   4.283  -0.310  1.00  0.00     0.158 HD
ENDBRANCH  46  49
ENDBRANCH  42  43
ENDBRANCH  35  36
ENDBRANCH  32  35
ENDBRANCH   1  32
TORSDOF 16
