REMARK  16 active torsions:
REMARK  status: ('A' for Active; 'I' for Inactive)
REMARK    1  A    between atoms: N1_2  and  O1_3 
REMARK    2  A    between atoms: N1_2  and  C2_5 
REMARK    3  A    between atoms: N5_11  and  C3_12 
REMARK    4  A    between atoms: C4_15  and  C5_16 
REMARK    5  A    between atoms: C5_16  and  C6_17 
REMARK    6  A    between atoms: C6_17  and  N7_18 
REMARK    7  A    between atoms: N7_18  and  O2_19 
REMARK       I    between atoms: N7_18  and  C7_24 
REMARK    8  A    between atoms: O2_19  and  S1_20 
REMARK    9  A    between atoms: C7_24  and  C8_26 
REMARK   10  A    between atoms: C10_35  and  N11_36 
REMARK   11  A    between atoms: C11_41  and  C12_42 
REMARK   12  A    between atoms: C12_42  and  O7_43 
REMARK   13  A    between atoms: C12_42  and  C13_45 
REMARK   14  A    between atoms: C13_45  and  O8_46 
REMARK   15  A    between atoms: C13_45  and  O9_48 
REMARK   16  A    between atoms: C15_51  and  O10_52 
ROOT
HETATM    1  C3  UNL     1      -3.339   0.231  -1.256  1.00  0.00     0.178 A 
HETATM    2  N6  UNL     1      -2.014   0.262  -1.127  1.00  0.00    -0.341 N 
ATOM      3  H6  UNL     1      -1.529   1.078  -1.500  1.00  0.00     0.167 HD
HETATM    4  C4  UNL     1      -1.250  -0.699  -0.541  1.00  0.00     0.021 A 
HETATM    5  C11 UNL     1      -1.902  -1.804  -0.033  1.00  0.00     0.001 A 
HETATM    6  C14 UNL     1      -3.296  -1.918  -0.126  1.00  0.00     0.052 A 
HETATM    7  C15 UNL     1      -3.982  -0.897  -0.737  1.00  0.00     0.112 A 
ENDROOT
BRANCH   4   8
HETATM    8  C5  UNL     1       0.205  -0.539  -0.439  1.00  0.00     0.080 C 
BRANCH   8   9
HETATM    9  C6  UNL     1       0.751   0.224   0.704  1.00  0.00     0.167 C 
BRANCH   9  10
HETATM   10  N7  UNL     1       2.225   0.321   0.642  1.00  0.00    -0.199 N 
HETATM   11  C7  UNL     1       2.680   1.433  -0.138  1.00  0.00     0.313 C 
HETATM   12  O6  UNL     1       1.845   2.236  -0.675  1.00  0.00    -0.262 OA
BRANCH  10  13
HETATM   13  O2  UNL     1       3.058  -0.437   1.281  1.00  0.00    -0.126 OA
BRANCH  13  14
HETATM   14  S1  UNL     1       3.453  -1.951   0.910  1.00  0.00     0.274 S 
HETATM   15  O3  UNL     1       2.691  -3.010   1.713  1.00  0.00    -0.571 OA
HETATM   16  O4  UNL     1       4.917  -2.296   1.278  1.00  0.00    -0.571 OA
HETATM   17  O5  UNL     1       3.336  -2.253  -0.724  1.00  0.00    -0.571 OA
ENDBRANCH  13  14
ENDBRANCH  10  13
BRANCH  11  18
HETATM   18  C8  UNL     1       4.099   1.716  -0.370  1.00  0.00     0.206 A 
HETATM   19  N8  UNL     1       5.083   0.950   0.054  1.00  0.00    -0.170 N 
HETATM   20  C9  UNL     1       6.353   1.187  -0.180  1.00  0.00     0.692 A 
ATOM     21  H8  UNL     1       4.843   0.121   0.598  1.00  0.00     0.186 HD
HETATM   22  N9  UNL     1       7.347   0.430   0.224  1.00  0.00    -0.234 N 
HETATM   23  N10 UNL     1       6.687   2.299  -0.915  1.00  0.00    -0.023 N 
ATOM     24  H92 UNL     1       7.099  -0.395   0.770  1.00  0.00     0.174 HD
ATOM     25  H91 UNL     1       8.334   0.614   0.042  1.00  0.00     0.174 HD
HETATM   26  C10 UNL     1       5.729   3.110  -1.373  1.00  0.00     0.692 A 
ATOM     27  H10 UNL     1       7.666   2.505  -1.111  1.00  0.00     0.203 HD
HETATM   28  N12 UNL     1       4.450   2.823  -1.103  1.00  0.00    -0.170 N 
ATOM     29  H12 UNL     1       3.718   3.442  -1.450  1.00  0.00     0.186 HD
BRANCH  26  30
HETATM   30  N11 UNL     1       6.038   4.185  -2.077  1.00  0.00    -0.234 N 
ATOM     31 2H11 UNL     1       7.013   4.404  -2.283  1.00  0.00     0.174 HD
ATOM     32 1H11 UNL     1       5.307   4.804  -2.427  1.00  0.00     0.174 HD
ENDBRANCH  26  30
ENDBRANCH  11  18
ENDBRANCH   9  10
ENDBRANCH   8   9
ENDBRANCH   4   8
BRANCH   5  33
HETATM   33  C12 UNL     1      -1.188  -2.926   0.584  1.00  0.00     0.208 C 
BRANCH  33  34
HETATM   34  O7  UNL     1      -0.597  -2.636   1.792  1.00  0.00    -0.386 OA
ATOM     35  H7  UNL     1      -0.134  -3.363   2.192  1.00  0.00     0.210 HD
ENDBRANCH  33  34
BRANCH  33  36
HETATM   36  C13 UNL     1      -2.059  -4.166   0.804  1.00  0.00     0.287 C 
BRANCH  36  37
HETATM   37  O8  UNL     1      -1.152  -5.216   1.145  1.00  0.00    -0.369 OA
ATOM     38  H8  UNL     1      -1.692  -5.985   1.281  1.00  0.00     0.212 HD
ENDBRANCH  36  37
BRANCH  36  39
HETATM   39  O9  UNL     1      -2.842  -4.024   1.965  1.00  0.00    -0.369 OA
ATOM     40  H9  UNL     1      -3.382  -4.793   2.101  1.00  0.00     0.212 HD
ENDBRANCH  36  39
ENDBRANCH  33  36
ENDBRANCH   5  33
BRANCH   1  41
HETATM   41  N5  UNL     1      -4.124   1.248  -1.860  1.00  0.00    -0.047 N 
HETATM   42  C2  UNL     1      -4.743   2.243  -1.263  1.00  0.00     0.740 A 
HETATM   43  N2  UNL     1      -5.385   2.971  -2.216  1.00  0.00    -0.116 N 
HETATM   44  N3  UNL     1      -5.151   2.415  -3.372  1.00  0.00    -0.211 N 
ATOM     45  H2  UNL     1      -5.950   3.805  -2.055  1.00  0.00     0.207 HD
HETATM   46  N4  UNL     1      -4.380   1.365  -3.157  1.00  0.00     0.018 NA
ATOM     47  H3  UNL     1      -5.500   2.733  -4.276  1.00  0.00     0.206 HD
BRANCH  42  48
HETATM   48  N1  UNL     1      -4.811   2.587   0.096  1.00  0.00    -0.092 N 
HETATM   49  C1  UNL     1      -4.175   3.804   0.568  1.00  0.00     0.205 C 
BRANCH  48  50
HETATM   50  O1  UNL     1      -5.447   1.812   0.976  1.00  0.00    -0.274 OA
ATOM     51  H1  UNL     1      -5.863   1.016   0.667  1.00  0.00     0.245 HD
ENDBRANCH  48  50
ENDBRANCH  42  48
ENDBRANCH   1  41
BRANCH   7  52
HETATM   52  O10 UNL     1      -5.351  -0.956  -0.862  1.00  0.00    -0.357 OA
ATOM     53  H10 UNL     1      -5.788  -1.722  -0.509  1.00  0.00     0.218 HD
ENDBRANCH   7  52
TORSDOF 16
