REMARK  18 active torsions:
REMARK  status: ('A' for Active; 'I' for Inactive)
REMARK    1  A    between atoms: N1_1  and  C1_4 
REMARK    2  A    between atoms: C2_7  and  C3_8 
REMARK    3  A    between atoms: C4_10  and  C5_11 
REMARK    4  A    between atoms: C6_20  and  C7_21 
REMARK    5  A    between atoms: N8_22  and  C8_24 
REMARK    6  A    between atoms: C9_25  and  C10_26 
REMARK    7  A    between atoms: C10_26  and  C11_27 
REMARK    8  A    between atoms: C11_27  and  O1_28 
REMARK    9  A    between atoms: C11_27  and  C12_30 
REMARK   10  A    between atoms: C12_30  and  O2_31 
REMARK   11  A    between atoms: N11_37  and  C13_38 
REMARK   12  A    between atoms: C13_38  and  C14_39 
REMARK   13  A    between atoms: C13_38  and  C15_44 
REMARK   14  A    between atoms: C14_39  and  O3_40 
REMARK   15  A    between atoms: C14_39  and  O4_42 
REMARK   16  A    between atoms: C15_44  and  O5_45 
REMARK   17  A    between atoms: C15_44  and  O6_47 
REMARK   18  A    between atoms: C16_49  and  O7_50 
ROOT
HETATM    1  C7  UNL     1       0.657   0.168  -0.246  1.00  0.00     0.120 C 
HETATM    2  N8  UNL     1      -0.431   0.103   0.369  1.00  0.00    -0.347 N 
ATOM      3  H8  UNL     1      -0.295  -0.025   1.372  1.00  0.00     0.167 HD
ENDROOT
BRANCH   1   4
HETATM    4  C6  UNL     1       1.966   0.058   0.483  1.00  0.00     0.068 A 
HETATM    5  C3  UNL     1       3.164   0.146  -0.147  1.00  0.00     0.065 A 
HETATM    6  S1  UNL     1       4.237  -0.261   1.203  1.00  0.00    -0.064 SA
HETATM    7  C4  UNL     1       3.058  -0.487   2.396  1.00  0.00     0.122 A 
HETATM    8  N7  UNL     1       1.955  -0.257   1.748  1.00  0.00    -0.345 N 
ATOM      9  H7  UNL     1       1.063  -0.324   2.239  1.00  0.00     0.167 HD
BRANCH   5  10
HETATM   10  C2  UNL     1       3.638   0.565  -1.449  1.00  0.00     0.107 A 
HETATM   11  N2  UNL     1       4.692  -0.191  -1.921  1.00  0.00    -0.188 N 
HETATM   12  C1  UNL     1       5.312   0.069  -3.077  1.00  0.00     0.679 A 
ATOM     13  H2  UNL     1       5.012  -0.983  -1.363  1.00  0.00     0.184 HD
HETATM   14  N12 UNL     1       4.950   1.094  -3.868  1.00  0.00    -0.154 N 
HETATM   15  C17 UNL     1       3.938   1.852  -3.449  1.00  0.00     0.295 A 
ATOM     16  H12 UNL     1       5.428   1.283  -4.749  1.00  0.00     0.187 HD
HETATM   17  C16 UNL     1       3.266   1.599  -2.228  1.00  0.00     0.164 A 
HETATM   18  O8  UNL     1       3.573   2.820  -4.165  1.00  0.00    -0.265 OA
BRANCH  12  19
HETATM   19  N1  UNL     1       6.300  -0.655  -3.494  1.00  0.00    -0.234 N 
ATOM     20  H12 UNL     1       6.575  -1.433  -2.894  1.00  0.00     0.174 HD
ATOM     21  H11 UNL     1       6.773  -0.457  -4.376  1.00  0.00     0.174 HD
ENDBRANCH  12  19
BRANCH  17  22
HETATM   22  O7  UNL     1       2.279   2.473  -1.947  1.00  0.00    -0.354 OA
ATOM     23  H7  UNL     1       2.017   3.202  -2.496  1.00  0.00     0.218 HD
ENDBRANCH  17  22
ENDBRANCH   5  10
BRANCH   7  24
HETATM   24  C5  UNL     1       3.147  -0.852   3.813  1.00  0.00     0.165 A 
HETATM   25  N3  UNL     1       2.145  -1.013   4.689  1.00  0.00    -0.268 N 
HETATM   26  N4  UNL     1       2.633  -1.349   5.879  1.00  0.00    -0.007 NA
ATOM     27  H3  UNL     1       1.155  -0.895   4.474  1.00  0.00     0.185 HD
HETATM   28  N5  UNL     1       3.947  -1.403   5.765  1.00  0.00    -0.007 NA
HETATM   29  N6  UNL     1       4.263  -1.101   4.511  1.00  0.00    -0.268 N 
ATOM     30  H6  UNL     1       5.211  -1.064   4.136  1.00  0.00     0.185 HD
ENDBRANCH   7  24
ENDBRANCH   1   4
BRANCH   2  31
HETATM   31  C8  UNL     1      -1.749   0.160   0.039  1.00  0.00     0.148 A 
HETATM   32  C9  UNL     1      -2.546   1.247  -0.205  1.00  0.00     0.075 A 
HETATM   33  N9  UNL     1      -3.815   0.811  -0.491  1.00  0.00    -0.286 N 
HETATM   34  N10 UNL     1      -3.773  -0.488  -0.420  1.00  0.00    -0.238 N 
ATOM     35  H9  UNL     1      -4.626   1.388  -0.714  1.00  0.00     0.188 HD
HETATM   36  N11 UNL     1      -2.567  -0.909  -0.109  1.00  0.00    -0.246 N 
ATOM     37  H10 UNL     1      -4.572  -1.100  -0.584  1.00  0.00     0.208 HD
BRANCH  32  38
HETATM   38  C10 UNL     1      -2.151   2.662  -0.180  1.00  0.00     0.096 C 
BRANCH  38  39
HETATM   39  C11 UNL     1      -3.334   3.600  -0.183  1.00  0.00     0.147 C 
BRANCH  39  40
HETATM   40  O1  UNL     1      -4.152   3.469  -1.276  1.00  0.00    -0.393 OA
ATOM     41  H1  UNL     1      -4.896   4.059  -1.278  1.00  0.00     0.210 HD
ENDBRANCH  39  40
BRANCH  39  42
HETATM   42  C12 UNL     1      -4.054   3.513   1.146  1.00  0.00     0.196 C 
BRANCH  42  43
HETATM   43  O2  UNL     1      -3.063   3.669   2.129  1.00  0.00    -0.398 OA
ATOM     44  H2  UNL     1      -3.515   3.614   2.963  1.00  0.00     0.209 HD
ENDBRANCH  42  43
ENDBRANCH  39  42
ENDBRANCH  38  39
ENDBRANCH  32  38
BRANCH  36  45
HETATM   45  C13 UNL     1      -2.168  -2.268   0.055  1.00  0.00     0.220 C 
BRANCH  45  46
HETATM   46  C14 UNL     1      -3.183  -2.983   0.920  1.00  0.00     0.283 C 
BRANCH  46  47
HETATM   47  O3  UNL     1      -4.452  -2.991   0.399  1.00  0.00    -0.369 OA
ATOM     48  H3  UNL     1      -5.089  -3.440   0.942  1.00  0.00     0.212 HD
ENDBRANCH  46  47
BRANCH  46  49
HETATM   49  O4  UNL     1      -2.801  -4.323   1.137  1.00  0.00    -0.369 OA
ATOM     50  H4  UNL     1      -3.438  -4.772   1.680  1.00  0.00     0.212 HD
ENDBRANCH  46  49
ENDBRANCH  45  46
BRANCH  45  51
HETATM   51  C15 UNL     1      -2.112  -2.905  -1.324  1.00  0.00     0.283 C 
BRANCH  51  52
HETATM   52  O5  UNL     1      -1.733  -4.221  -1.298  1.00  0.00    -0.369 OA
ATOM     53  H5  UNL     1      -1.698  -4.619  -2.160  1.00  0.00     0.212 HD
ENDBRANCH  51  52
BRANCH  51  54
HETATM   54  O6  UNL     1      -3.288  -2.711  -2.027  1.00  0.00    -0.369 OA
ATOM     55  H6  UNL     1      -3.253  -3.109  -2.889  1.00  0.00     0.212 HD
ENDBRANCH  51  54
ENDBRANCH  45  51
ENDBRANCH  36  45
ENDBRANCH   2  31
TORSDOF 18
