REMARK  10 active torsions:
REMARK  status: ('A' for Active; 'I' for Inactive)
REMARK    1  A    between atoms: C2_5  and  C3_6 
REMARK    2  A    between atoms: N3_8  and  C5_9 
REMARK    3  A    between atoms: C6_10  and  C7_11 
REMARK    4  A    between atoms: C7_11  and  O1_12 
REMARK    5  A    between atoms: C7_11  and  O2_14 
REMARK    6  A    between atoms: C8_16  and  C9_17 
REMARK       I    between atoms: C9_17  and  N4_19 
REMARK    7  A    between atoms: C12_27  and  N8_28 
REMARK    8  A    between atoms: C14_39  and  C15_40 
REMARK    9  A    between atoms: C15_40  and  N12_41 
REMARK   10  A    between atoms: C15_40  and  O4_45 
ROOT
HETATM    1  C9  UNL     1      -5.535  -1.156   0.097  1.00  0.00     0.283 C 
HETATM    2  O3  UNL     1      -6.541  -1.467  -0.653  1.00  0.00    -0.265 OA
HETATM    3  N4  UNL     1      -5.786  -1.297   1.475  1.00  0.00    -0.258 N 
ATOM      4  H4  UNL     1      -5.044  -1.085   2.142  1.00  0.00     0.181 HD
HETATM    5  C10 UNL     1      -7.037  -1.723   1.949  1.00  0.00     0.184 C 
HETATM    6  N5  UNL     1      -8.083  -2.069   2.360  1.00  0.00    -0.172 NA
ENDROOT
BRANCH   1   7
HETATM    7  C8  UNL     1      -4.309  -0.722  -0.507  1.00  0.00     0.132 A 
HETATM    8  C6  UNL     1      -3.273   0.002  -0.024  1.00  0.00     0.076 A 
HETATM    9  C5  UNL     1      -2.286   0.062  -1.011  1.00  0.00     0.158 A 
HETATM   10  N7  UNL     1      -2.757  -0.626  -2.065  1.00  0.00    -0.279 N 
HETATM   11  N6  UNL     1      -3.955  -1.093  -1.774  1.00  0.00    -0.291 N 
HETATM   12  C11 UNL     1      -2.007  -0.799  -3.315  1.00  0.00     0.179 C 
ATOM     13  H6  UNL     1      -4.534  -1.650  -2.403  1.00  0.00     0.187 HD
BRANCH   8  14
HETATM   14  C7  UNL     1      -3.122   0.671   1.284  1.00  0.00     0.294 C 
BRANCH  14  15
HETATM   15  O1  UNL     1      -4.242   1.416   1.664  1.00  0.00    -0.367 OA
ATOM     16  H1  UNL     1      -4.145   1.846   2.505  1.00  0.00     0.213 HD
ENDBRANCH  14  15
BRANCH  14  17
HETATM   17  O2  UNL     1      -2.026   1.510   1.363  1.00  0.00    -0.367 OA
ATOM     18  H2  UNL     1      -1.929   1.940   2.204  1.00  0.00     0.213 HD
ENDBRANCH  14  17
ENDBRANCH   8  14
BRANCH   9  19
HETATM   19  N3  UNL     1      -1.024   0.710  -0.946  1.00  0.00    -0.140 N 
HETATM   20  C4  UNL     1       0.054   0.148  -0.404  1.00  0.00     0.136 A 
HETATM   21  C3  UNL     1       1.270   0.831  -0.380  1.00  0.00     0.070 A 
HETATM   22  C13 UNL     1       1.334   2.093  -0.925  1.00  0.00     0.130 A 
HETATM   23  N9  UNL     1       0.211   2.657  -1.480  1.00  0.00    -0.176 N 
HETATM   24  N10 UNL     1       2.381   2.778  -0.948  1.00  0.00    -0.384 N 
HETATM   25  C12 UNL     1      -0.915   1.958  -1.473  1.00  0.00     0.685 A 
ATOM     26  H9  UNL     1       0.243   3.591  -1.888  1.00  0.00     0.186 HD
ATOM     27 2H10 UNL     1       3.215   2.359  -0.536  1.00  0.00     0.157 HD
ATOM     28 1H10 UNL     1       2.428   3.713  -1.352  1.00  0.00     0.157 HD
BRANCH  21  29
HETATM   29  C2  UNL     1       2.415   0.148   0.235  1.00  0.00     0.137 A 
HETATM   30  N2  UNL     1       2.414  -1.086   0.787  1.00  0.00    -0.281 N 
HETATM   31  N1  UNL     1       3.631  -1.379   1.246  1.00  0.00    -0.279 N 
ATOM     32  H2  UNL     1       1.603  -1.702   0.844  1.00  0.00     0.189 HD
HETATM   33  C1  UNL     1       4.032  -2.621   1.911  1.00  0.00     0.179 C 
HETATM   34  C14 UNL     1       4.421  -0.339   0.992  1.00  0.00     0.156 A 
HETATM   35  N11 UNL     1       3.666   0.575   0.380  1.00  0.00    -0.325 N 
ATOM     36  H11 UNL     1       4.005   1.484   0.064  1.00  0.00     0.169 HD
BRANCH  34  37
HETATM   37  C15 UNL     1       5.882  -0.186   1.315  1.00  0.00     0.386 C 
BRANCH  37  38
HETATM   38  N12 UNL     1       6.521   0.373   0.114  1.00  0.00    -0.046 N 
ATOM     39 3H12 UNL     1       6.349  -0.177  -0.727  1.00  0.00     0.277 HD
ATOM     40 2H12 UNL     1       6.087   1.238  -0.209  1.00  0.00     0.277 HD
ATOM     41 1H12 UNL     1       7.512   0.477   0.333  1.00  0.00     0.277 HD
ENDBRANCH  37  38
BRANCH  37  42
HETATM   42  O4  UNL     1       6.381  -1.460   1.546  1.00  0.00    -0.364 OA
ATOM     43  H4  UNL     1       7.304  -1.363   1.750  1.00  0.00     0.212 HD
ENDBRANCH  37  42
ENDBRANCH  34  37
ENDBRANCH  21  29
BRANCH  25  44
HETATM   44  N8  UNL     1      -1.988   2.503  -2.011  1.00  0.00    -0.234 N 
ATOM     45  H82 UNL     1      -2.855   1.965  -2.006  1.00  0.00     0.174 HD
ATOM     46  H81 UNL     1      -1.906   3.440  -2.407  1.00  0.00     0.174 HD
ENDBRANCH  25  44
ENDBRANCH   9  19
ENDBRANCH   1   7
TORSDOF 10
