REMARK  11 active torsions:
REMARK  status: ('A' for Active; 'I' for Inactive)
REMARK    1  A    between atoms: N1_2  and  C2_4 
REMARK    2  A    between atoms: C3_7  and  N3_8 
REMARK    3  A    between atoms: C4_13  and  O1_14 
REMARK    4  A    between atoms: C6_16  and  C7_17 
REMARK    5  A    between atoms: C8_22  and  C9_23 
REMARK    6  A    between atoms: C9_23  and  N7_24 
REMARK    7  A    between atoms: C9_23  and  N8_28 
REMARK    8  A    between atoms: N8_28  and  N9_29 
REMARK    9  A    between atoms: C12_36  and  N11_37 
REMARK   10  A    between atoms: C13_44  and  N15_45 
REMARK   11  A    between atoms: N15_45  and  O2_47 
ROOT
HETATM    1  C7  UNL     1      -1.094   0.623   0.170  1.00  0.00     0.096 A 
HETATM    2  N5  UNL     1      -1.235   1.955   0.190  1.00  0.00    -0.297 N 
ATOM      3  H5  UNL     1      -2.164   2.375   0.161  1.00  0.00     0.187 HD
HETATM    4  N6  UNL     1      -0.180   2.704   0.247  1.00  0.00    -0.299 N 
ATOM      5  H6  UNL     1      -0.327   3.713   0.261  1.00  0.00     0.186 HD
HETATM    6  C8  UNL     1       1.099   2.266   0.289  1.00  0.00     0.103 A 
HETATM    7  C10 UNL     1       1.260   0.899   0.269  1.00  0.00     0.108 A 
HETATM    8  C11 UNL     1       0.148   0.054   0.208  1.00  0.00     0.108 A 
HETATM    9  N10 UNL     1       0.596  -1.229   0.206  1.00  0.00    -0.184 N 
ATOM     10  H10 UNL     1       0.021  -2.070   0.168  1.00  0.00     0.184 HD
HETATM   11  C12 UNL     1       1.935  -1.183   0.264  1.00  0.00     0.723 A 
HETATM   12  N16 UNL     1       2.352   0.114   0.304  1.00  0.00    -0.181 N 
HETATM   13  C14 UNL     1       3.693   0.586   0.379  1.00  0.00     0.176 C 
ENDROOT
BRANCH   1  14
HETATM   14  C6  UNL     1      -2.244  -0.283   0.107  1.00  0.00     0.090 A 
HETATM   15  C2  UNL     1      -2.745  -0.661  -1.121  1.00  0.00     0.133 A 
HETATM   16  N2  UNL     1      -3.802  -1.498  -1.171  1.00  0.00    -0.176 N 
HETATM   17  C3  UNL     1      -4.313  -1.923  -0.001  1.00  0.00     0.679 A 
ATOM     18  H2  UNL     1      -4.199  -1.797  -2.062  1.00  0.00     0.186 HD
HETATM   19  N4  UNL     1      -3.834  -1.563   1.201  1.00  0.00    -0.170 N 
HETATM   20  C4  UNL     1      -2.771  -0.721   1.303  1.00  0.00     0.173 A 
ATOM     21  H4  UNL     1      -4.273  -1.925   2.047  1.00  0.00     0.186 HD
BRANCH  15  22
HETATM   22  N1  UNL     1      -2.227  -0.230  -2.225  1.00  0.00    -0.379 N 
HETATM   23  C1  UNL     1      -2.762  -0.634  -3.495  1.00  0.00     0.147 C 
ATOM     24  H1  UNL     1      -1.429   0.404  -2.193  1.00  0.00     0.160 HD
ENDBRANCH  15  22
BRANCH  17  25
HETATM   25  N3  UNL     1      -5.331  -2.730  -0.046  1.00  0.00    -0.234 N 
ATOM     26  H32 UNL     1      -5.695  -3.003  -0.959  1.00  0.00     0.174 HD
ATOM     27  H31 UNL     1      -5.718  -3.052   0.841  1.00  0.00     0.174 HD
ENDBRANCH  17  25
BRANCH  20  28
HETATM   28  O1  UNL     1      -2.282  -0.354   2.549  1.00  0.00    -0.340 OA
HETATM   29  C5  UNL     1      -2.883   0.713   3.231  1.00  0.00     0.211 C 
ENDBRANCH  20  28
ENDBRANCH   1  14
BRANCH   6  30
HETATM   30  C9  UNL     1       2.143   3.264   0.331  1.00  0.00     0.348 C 
BRANCH  30  31
HETATM   31  N7  UNL     1       1.726   4.308  -0.661  1.00  0.00    -0.054 N 
ATOM     32  H73 UNL     1       1.544   3.940  -1.595  1.00  0.00     0.276 HD
ATOM     33  H72 UNL     1       0.791   4.682  -0.498  1.00  0.00     0.276 HD
ATOM     34  H71 UNL     1       2.463   5.013  -0.631  1.00  0.00     0.276 HD
ENDBRANCH  30  31
BRANCH  30  35
HETATM   35  N8  UNL     1       2.039   3.967   1.603  1.00  0.00    -0.108 NA
BRANCH  35  36
HETATM   36  N9  UNL     1       3.025   4.953   1.708  1.00  0.00    -0.346 N 
ATOM     37  H92 UNL     1       3.717   5.142   0.983  1.00  0.00     0.172 HD
ATOM     38  H91 UNL     1       2.952   5.445   2.598  1.00  0.00     0.172 HD
ENDBRANCH  35  36
ENDBRANCH  30  35
ENDBRANCH   6  30
BRANCH  11  39
HETATM   39  N11 UNL     1       2.858  -2.281   0.284  1.00  0.00     0.109 N 
HETATM   40  N12 UNL     1       3.583  -2.678   1.312  1.00  0.00    -0.191 N 
HETATM   41  N13 UNL     1       4.319  -3.718   0.970  1.00  0.00    -0.212 N 
ATOM     42  H12 UNL     1       3.576  -2.245   2.235  1.00  0.00     0.211 HD
HETATM   43  N14 UNL     1       4.084  -4.008  -0.277  1.00  0.00    -0.112 N 
ATOM     44  H13 UNL     1       4.966  -4.214   1.583  1.00  0.00     0.210 HD
HETATM   45  C13 UNL     1       3.173  -3.120  -0.720  1.00  0.00     0.755 A 
ATOM     46  H14 UNL     1       4.508  -4.763  -0.816  1.00  0.00     0.207 HD
BRANCH  45  47
HETATM   47  N15 UNL     1       2.645  -3.089  -2.029  1.00  0.00    -0.095 N 
ATOM     48  H15 UNL     1       3.118  -2.530  -2.739  1.00  0.00     0.213 HD
BRANCH  47  49
HETATM   49  O2  UNL     1       1.523  -3.782  -2.375  1.00  0.00    -0.276 OA
ATOM     50  H2  UNL     1       1.168  -3.761  -3.256  1.00  0.00     0.245 HD
ENDBRANCH  47  49
ENDBRANCH  45  47
ENDBRANCH  11  39
TORSDOF 11
