REMARK  13 active torsions:
REMARK  status: ('A' for Active; 'I' for Inactive)
REMARK       I    between atoms: N1_2  and  C2_4 
REMARK    1  A    between atoms: C2_4  and  C3_6 
REMARK    2  A    between atoms: C4_9  and  C5_10 
REMARK    3  A    between atoms: C8_15  and  N4_16 
REMARK    4  A    between atoms: N6_21  and  N7_22 
REMARK    5  A    between atoms: N7_22  and  O2_24 
REMARK    6  A    between atoms: N8_26  and  C10_27 
REMARK    7  A    between atoms: C10_27  and  C11_28 
REMARK    8  A    between atoms: C10_27  and  C12_31 
REMARK    9  A    between atoms: C11_28  and  O3_29 
REMARK   10  A    between atoms: C12_31  and  O4_32 
REMARK   11  A    between atoms: C12_31  and  O5_34 
REMARK   12  A    between atoms: C13_36  and  O6_37 
REMARK   13  A    between atoms: C14_41  and  N10_42 
ROOT
HETATM    1  C5  UNL     1       0.429   0.111   1.661  1.00  0.00     0.142 A 
HETATM    2  N3  UNL     1      -0.483  -0.045   0.605  1.00  0.00    -0.323 N 
ATOM      3  H3  UNL     1      -0.196   0.273  -0.321  1.00  0.00     0.169 HD
HETATM    4  C6  UNL     1      -1.679  -0.571   0.726  1.00  0.00     0.161 A 
HETATM    5  C7  UNL     1      -2.083  -1.000   1.945  1.00  0.00     0.166 A 
HETATM    6  C8  UNL     1      -1.189  -0.862   3.018  1.00  0.00     0.137 A 
HETATM    7  N5  UNL     1       0.060  -0.310   2.843  1.00  0.00    -0.320 N 
HETATM    8  C9  UNL     1       0.976  -0.527   3.953  1.00  0.00     0.159 C 
HETATM    9  N6  UNL     1      -3.236  -1.357   1.387  1.00  0.00    -0.165 N 
HETATM   10  N8  UNL     1      -2.874  -0.952   0.199  1.00  0.00    -0.239 N 
ENDROOT
BRANCH   1  11
HETATM   11  C4  UNL     1       1.697   0.676   1.238  1.00  0.00     0.129 A 
HETATM   12  N2  UNL     1       1.807   0.845  -0.121  1.00  0.00    -0.342 N 
HETATM   13  C3  UNL     1       2.785   1.462  -0.779  1.00  0.00     0.145 A 
ATOM     14  H2  UNL     1       1.055   0.454  -0.689  1.00  0.00     0.166 HD
HETATM   15  C14 UNL     1       3.789   1.986   0.002  1.00  0.00     0.133 A 
HETATM   16  N9  UNL     1       3.731   1.852   1.340  1.00  0.00    -0.320 N 
HETATM   17  C13 UNL     1       2.699   1.207   1.965  1.00  0.00     0.173 A 
ATOM     18  H9  UNL     1       4.482   2.245   1.907  1.00  0.00     0.169 HD
BRANCH  13  19
HETATM   19  C2  UNL     1       2.715   1.532  -2.235  1.00  0.00     0.271 C 
HETATM   20  N1  UNL     1       3.796   1.445  -3.101  1.00  0.00    -0.360 N 
HETATM   21  C1  UNL     1       3.531   1.541  -4.552  1.00  0.00     0.149 C 
ATOM     22  H1  UNL     1       4.744   1.319  -2.747  1.00  0.00     0.162 HD
HETATM   23  O1  UNL     1       1.548   1.676  -2.716  1.00  0.00    -0.266 OA
ENDBRANCH  13  19
BRANCH  15  24
HETATM   24  N10 UNL     1       4.736   2.669  -0.519  1.00  0.00    -0.383 N 
ATOM     25 2H10 UNL     1       4.780   2.771  -1.533  1.00  0.00     0.157 HD
ATOM     26 1H10 UNL     1       5.480   3.058   0.060  1.00  0.00     0.157 HD
ENDBRANCH  15  24
BRANCH  17  27
HETATM   27  O6  UNL     1       2.776   1.181   3.336  1.00  0.00    -0.344 OA
ATOM     28  H6  UNL     1       3.483   1.555   3.849  1.00  0.00     0.219 HD
ENDBRANCH  17  27
ENDBRANCH   1  11
BRANCH   6  29
HETATM   29  N4  UNL     1      -1.607  -1.234   4.151  1.00  0.00    -0.383 N 
ATOM     30  H42 UNL     1      -2.532  -1.643   4.281  1.00  0.00     0.157 HD
ATOM     31  H41 UNL     1      -0.957  -1.134   4.931  1.00  0.00     0.157 HD
ENDBRANCH   6  29
BRANCH  10  32
HETATM   32  C10 UNL     1      -3.402  -0.876  -1.153  1.00  0.00     0.190 C 
BRANCH  32  33
HETATM   33  C11 UNL     1      -2.434  -0.205  -2.083  1.00  0.00     0.196 C 
BRANCH  33  34
HETATM   34  O3  UNL     1      -1.218  -0.833  -2.198  1.00  0.00    -0.399 OA
ATOM     35  H3  UNL     1      -0.605  -0.408  -2.787  1.00  0.00     0.209 HD
ENDBRANCH  33  34
ENDBRANCH  32  33
BRANCH  32  36
HETATM   36  C12 UNL     1      -3.846  -2.224  -1.677  1.00  0.00     0.280 C 
BRANCH  36  37
HETATM   37  O4  UNL     1      -4.332  -2.017  -2.984  1.00  0.00    -0.369 OA
ATOM     38  H4  UNL     1      -4.611  -2.863  -3.313  1.00  0.00     0.212 HD
ENDBRANCH  36  37
BRANCH  36  39
HETATM   39  O5  UNL     1      -4.909  -2.688  -0.938  1.00  0.00    -0.369 OA
ATOM     40  H5  UNL     1      -5.188  -3.534  -1.267  1.00  0.00     0.212 HD
ENDBRANCH  36  39
ENDBRANCH  32  36
ENDBRANCH  10  32
BRANCH   9  41
HETATM   41  N7  UNL     1      -4.382  -1.947   1.928  1.00  0.00    -0.188 N 
ATOM     42  H7  UNL     1      -4.401  -2.959   2.052  1.00  0.00     0.218 HD
BRANCH  41  43
HETATM   43  O2  UNL     1      -5.385  -1.280   2.266  1.00  0.00    -0.273 OA
ATOM     44  H2  UNL     1      -6.164  -1.681   2.634  1.00  0.00     0.246 HD
ENDBRANCH  41  43
ENDBRANCH   9  41
TORSDOF 13
