REMARK  5 active torsions:
REMARK  status: ('A' for Active; 'I' for Inactive)
REMARK    1  A    between atoms: C2_5  and  C3_6 
REMARK    2  A    between atoms: C3_6  and  C4_7 
REMARK    3  A    between atoms: C4_7  and  C5_8 
REMARK    4  A    between atoms: C6_10  and  N2_11 
REMARK    5  A    between atoms: N2_11  and  N3_13 
ROOT
HETATM    1  O1  UNL     1       3.098   3.991   1.706  1.00  0.00    -0.238 OA
HETATM    2  C1  UNL     1       2.850   2.888   1.154  1.00  0.00     0.372 A 
HETATM    3  N1  UNL     1       3.715   1.890   1.052  1.00  0.00    -0.291 N 
ATOM      4  H1  UNL     1       4.674   1.882   1.398  1.00  0.00     0.172 HD
HETATM    5  C2  UNL     1       3.095   0.896   0.411  1.00  0.00     0.144 A 
HETATM    6  C6  UNL     1       1.798   1.306   0.110  1.00  0.00     0.203 A 
HETATM    7  O2  UNL     1       1.729   2.539   0.600  1.00  0.00    -0.239 OA
ENDROOT
BRANCH   6   8
HETATM    8  N2  UNL     1       0.791   0.575  -0.561  1.00  0.00    -0.277 N 
ATOM      9  H2  UNL     1       0.972  -0.373  -0.891  1.00  0.00     0.189 HD
BRANCH   8  10
HETATM   10  N3  UNL     1      -0.440   1.163  -0.763  1.00  0.00    -0.307 N 
HETATM   11  C7  UNL     1      -1.570   0.643  -0.487  1.00  0.00     0.004 C 
HETATM   12  C8  UNL     1      -2.830   1.363  -0.745  1.00  0.00     0.054 C 
HETATM   13  C12 UNL     1      -1.608  -0.706   0.102  1.00  0.00     0.054 C 
HETATM   14  C9  UNL     1      -3.878   0.754   0.180  1.00  0.00     0.006 C 
HETATM   15  C10 UNL     1      -4.098  -0.663  -0.297  1.00  0.00     0.001 C 
HETATM   16  C11 UNL     1      -2.851  -1.473  -0.178  1.00  0.00     0.006 C 
ATOM     17  H3  UNL     1      -0.446   2.098  -1.170  1.00  0.00     0.186 HD
ENDBRANCH   8  10
ENDBRANCH   6   8
BRANCH   5  18
HETATM   18  C3  UNL     1       3.589  -0.401   0.048  1.00  0.00    -0.042 C 
BRANCH  18  19
HETATM   19  C4  UNL     1       4.005  -1.493  -0.235  1.00  0.00    -0.068 C 
BRANCH  19  20
HETATM   20  C5  UNL     1       4.525  -2.835  -0.567  1.00  0.00     0.316 C 
HETATM   21  F1  UNL     1       4.013  -3.749   0.333  1.00  0.00    -0.242 F 
ENDBRANCH  19  20
ENDBRANCH  18  19
ENDBRANCH   5  18
TORSDOF 5
