REMARK  9 active torsions:
REMARK  status: ('A' for Active; 'I' for Inactive)
REMARK       I    between atoms: C1_4  and  N3_6 
REMARK    1  A    between atoms: N3_6  and  C2_8 
REMARK    2  A    between atoms: C2_8  and  C3_9 
REMARK    3  A    between atoms: C3_9  and  C4_10 
REMARK    4  A    between atoms: C4_10  and  S1_11 
REMARK    5  A    between atoms: S1_11  and  C5_12 
REMARK    6  A    between atoms: C5_12  and  C6_13 
REMARK    7  A    between atoms: C8_16  and  O1_17 
REMARK    8  A    between atoms: C9_19  and  O2_20 
REMARK    9  A    between atoms: C10_22  and  O3_23 
ROOT
HETATM    1  C6  UNL     1       1.932   1.381   0.742  1.00  0.00     0.087 C 
HETATM    2  S2  UNL     1       3.206   2.395  -0.122  1.00  0.00    -0.151 SA
HETATM    3  C7  UNL     1       3.997   1.188   0.933  1.00  0.00     0.109 C 
HETATM    4  C8  UNL     1       5.344   0.699   0.463  1.00  0.00     0.168 C 
HETATM    5  C9  UNL     1       5.282   0.182  -0.930  1.00  0.00     0.203 C 
HETATM    6  C10 UNL     1       4.070  -0.621  -1.255  1.00  0.00     0.288 C 
HETATM    7  O4  UNL     1       2.895  -0.199  -0.714  1.00  0.00    -0.351 OA
HETATM    8  C11 UNL     1       2.899   0.225   0.583  1.00  0.00     0.155 C 
ENDROOT
BRANCH   1   9
HETATM    9  C5  UNL     1       0.705   1.193  -0.087  1.00  0.00     0.091 C 
BRANCH   9  10
HETATM   10  S1  UNL     1      -0.595   0.225   0.716  1.00  0.00    -0.168 SA
BRANCH  10  11
HETATM   11  C4  UNL     1      -2.105   0.248  -0.295  1.00  0.00     0.075 C 
BRANCH  11  12
HETATM   12  C3  UNL     1      -3.250  -0.453   0.394  1.00  0.00     0.030 C 
BRANCH  12  13
HETATM   13  C2  UNL     1      -4.512  -0.355  -0.443  1.00  0.00     0.123 C 
BRANCH  13  14
HETATM   14  N3  UNL     1      -5.615  -1.001   0.233  1.00  0.00    -0.365 N 
HETATM   15  C1  UNL     1      -6.958  -0.906  -0.249  1.00  0.00     0.181 C 
HETATM   16  N1  UNL     1      -7.308  -1.576  -1.263  1.00  0.00    -0.374 N 
HETATM   17  N2  UNL     1      -7.810  -0.041   0.448  1.00  0.00    -0.064 NA
ATOM     18  H12 UNL     1      -8.266  -1.508  -1.607  1.00  0.00     0.158 HD
ATOM     19  H11 UNL     1      -6.687  -2.206  -1.771  1.00  0.00     0.158 HD
ATOM     20  H3  UNL     1      -5.430  -1.540   1.079  1.00  0.00     0.162 HD
ENDBRANCH  13  14
ENDBRANCH  12  13
ENDBRANCH  11  12
ENDBRANCH  10  11
ENDBRANCH   9  10
ENDBRANCH   1   9
BRANCH   4  21
HETATM   21  O1  UNL     1       5.789  -0.258   1.357  1.00  0.00    -0.392 OA
ATOM     22  H1  UNL     1       6.638  -0.566   1.061  1.00  0.00     0.210 HD
ENDBRANCH   4  21
BRANCH   6  23
HETATM   23  O3  UNL     1       4.296  -2.002  -1.044  1.00  0.00    -0.369 OA
ATOM     24  H3  UNL     1       3.523  -2.514  -1.251  1.00  0.00     0.212 HD
ENDBRANCH   6  23
BRANCH   5  25
HETATM   25  O2  UNL     1       6.403  -0.659  -1.116  1.00  0.00    -0.388 OA
ATOM     26  H2  UNL     1       6.363  -0.989  -2.006  1.00  0.00     0.210 HD
ENDBRANCH   5  25
TORSDOF 9
