REMARK  12 active torsions:
REMARK  status: ('A' for Active; 'I' for Inactive)
REMARK    1  A    between atoms: C2_2  and  C3_3 
REMARK    2  A    between atoms: C3_3  and  C4_4 
REMARK    3  A    between atoms: C4_4  and  C5_5 
REMARK    4  A    between atoms: C5_5  and  C6_6 
REMARK    5  A    between atoms: C6_6  and  N1_7 
REMARK    6  A    between atoms: C6_6  and  C7_11 
REMARK    7  A    between atoms: C8_13  and  O2_14 
REMARK    8  A    between atoms: O2_14  and  C9_15 
REMARK    9  A    between atoms: C10_16  and  N2_17 
REMARK   10  A    between atoms: C12_22  and  N3_23 
REMARK   11  A    between atoms: C14_28  and  N4_29 
REMARK   12  A    between atoms: C15_33  and  O3_34 
ROOT
HETATM    1  C9  UNL     1      -2.640   0.472   0.122  1.00  0.00     0.185 C 
HETATM    2  C10 UNL     1      -3.545   1.232  -0.809  1.00  0.00     0.216 C 
HETATM    3  C11 UNL     1      -4.823   1.673  -0.137  1.00  0.00     0.068 C 
HETATM    4  C12 UNL     1      -5.555   0.552   0.536  1.00  0.00     0.187 C 
HETATM    5  C13 UNL     1      -4.787  -0.728   0.576  1.00  0.00     0.068 C 
HETATM    6  C14 UNL     1      -3.392  -0.424   1.070  1.00  0.00     0.216 C 
ENDROOT
BRANCH   1   7
HETATM    7  O2  UNL     1      -1.753  -0.298  -0.601  1.00  0.00    -0.349 OA
BRANCH   7   8
HETATM    8  C8  UNL     1      -0.432   0.042  -0.436  1.00  0.00     0.292 A 
HETATM    9  O1  UNL     1       0.241   0.275  -1.655  1.00  0.00    -0.348 OA
HETATM   10  C7  UNL     1       1.098  -0.780  -1.491  1.00  0.00     0.188 A 
HETATM   11  C15 UNL     1       0.438  -1.180  -0.237  1.00  0.00     0.204 A 
BRANCH  10  12
HETATM   12  C6  UNL     1       2.556  -0.365  -1.427  1.00  0.00     0.215 C 
BRANCH  12  13
HETATM   13  C5  UNL     1       2.793   0.829  -0.600  1.00  0.00     0.035 C 
BRANCH  13  14
HETATM   14  C4  UNL     1       4.136   1.435  -0.802  1.00  0.00     0.002 C 
BRANCH  14  15
HETATM   15  C3  UNL     1       5.319   0.600  -0.423  1.00  0.00    -0.000 C 
BRANCH  15  16
HETATM   16  C2  UNL     1       5.284   0.244   1.063  1.00  0.00    -0.005 C 
HETATM   17  C1  UNL     1       6.506  -0.609   1.372  1.00  0.00     0.005 C 
ENDBRANCH  15  16
ENDBRANCH  14  15
ENDBRANCH  13  14
ENDBRANCH  12  13
BRANCH  12  18
HETATM   18  N1  UNL     1       3.405  -1.503  -1.254  1.00  0.00    -0.072 N 
ATOM     19  H13 UNL     1       4.375  -1.210  -1.368  1.00  0.00     0.274 HD
ATOM     20  H12 UNL     1       3.395  -1.776  -0.271  1.00  0.00     0.274 HD
ATOM     21  H11 UNL     1       3.241  -2.331  -1.827  1.00  0.00     0.274 HD
ENDBRANCH  12  18
ENDBRANCH  10  12
BRANCH  11  22
HETATM   22  O3  UNL     1       1.161  -1.235   0.921  1.00  0.00    -0.388 OA
ATOM     23  H3  UNL     1       0.735  -1.493   1.730  1.00  0.00     0.210 HD
ENDBRANCH  11  22
ENDBRANCH   7   8
ENDBRANCH   1   7
BRANCH   2  24
HETATM   24  N2  UNL     1      -3.808   0.493  -2.042  1.00  0.00    -0.072 N 
ATOM     25  H23 UNL     1      -2.940   0.226  -2.506  1.00  0.00     0.274 HD
ATOM     26  H22 UNL     1      -4.177  -0.437  -1.844  1.00  0.00     0.274 HD
ATOM     27  H21 UNL     1      -4.422   1.008  -2.673  1.00  0.00     0.274 HD
ENDBRANCH   2  24
BRANCH   6  28
HETATM   28  N4  UNL     1      -2.723  -1.699   1.268  1.00  0.00    -0.072 N 
ATOM     29  H43 UNL     1      -2.549  -2.166   0.378  1.00  0.00     0.274 HD
ATOM     30  H42 UNL     1      -1.759  -1.566   1.573  1.00  0.00     0.274 HD
ATOM     31  H41 UNL     1      -3.232  -2.306   1.910  1.00  0.00     0.274 HD
ENDBRANCH   6  28
BRANCH   4  32
HETATM   32  N3  UNL     1      -5.861   0.982   1.895  1.00  0.00    -0.075 N 
ATOM     33  H33 UNL     1      -5.035   1.285   2.412  1.00  0.00     0.274 HD
ATOM     34  H32 UNL     1      -6.370   1.865   1.928  1.00  0.00     0.274 HD
ATOM     35  H31 UNL     1      -6.359   0.219   2.353  1.00  0.00     0.274 HD
ENDBRANCH   4  32
TORSDOF 12
