REMARK  11 active torsions:
REMARK  status: ('A' for Active; 'I' for Inactive)
REMARK    1  A    between atoms: O1_1  and  C1_3 
REMARK    2  A    between atoms: C2_6  and  C3_7 
REMARK    3  A    between atoms: C3_7  and  N2_8 
REMARK    4  A    between atoms: N2_8  and  C4_10 
REMARK    5  A    between atoms: C4_10  and  C5_11 
REMARK    6  A    between atoms: C5_11  and  C6_12 
REMARK    7  A    between atoms: C6_12  and  C7_13 
REMARK    8  A    between atoms: C7_13  and  N3_14 
REMARK    9  A    between atoms: C13_20  and  O2_21 
REMARK   10  A    between atoms: C14_23  and  O3_24 
REMARK   11  A    between atoms: C15_26  and  O4_27 
ROOT
HETATM    1  C1  UNL     1       4.802   1.227  -1.266  1.00  0.00     0.245 C 
HETATM    2  N1  UNL     1       3.857   0.205  -1.618  1.00  0.00    -0.386 N 
ATOM      3  H1  UNL     1       3.653  -0.031  -2.589  1.00  0.00     0.156 HD
HETATM    4  C2  UNL     1       3.222  -0.459  -0.529  1.00  0.00     0.128 C 
HETATM    5  C13 UNL     1       4.000  -0.529   0.734  1.00  0.00     0.173 C 
HETATM    6  C14 UNL     1       5.431  -0.162   0.687  1.00  0.00     0.181 C 
HETATM    7  C15 UNL     1       5.920   0.589  -0.499  1.00  0.00     0.197 C 
ENDROOT
BRANCH   4   8
HETATM    8  C3  UNL     1       1.878   0.218  -0.227  1.00  0.00     0.146 C 
BRANCH   8   9
HETATM    9  N2  UNL     1       1.193  -0.408   0.848  1.00  0.00    -0.400 N 
ATOM     10  H2  UNL     1       1.574  -1.237   1.303  1.00  0.00     0.158 HD
BRANCH   9  11
HETATM   11  C4  UNL     1      -0.015   0.146   1.261  1.00  0.00     0.055 C 
BRANCH  11  12
HETATM   12  C5  UNL     1      -1.188   0.095   0.364  1.00  0.00     0.046 C 
BRANCH  12  13
HETATM   13  C6  UNL     1      -1.665  -1.261  -0.041  1.00  0.00     0.025 C 
BRANCH  13  14
HETATM   14  C7  UNL     1      -2.879  -1.085  -0.968  1.00  0.00     0.127 C 
BRANCH  14  15
HETATM   15  N3  UNL     1      -3.947  -0.410  -0.387  1.00  0.00    -0.374 N 
HETATM   16  C8  UNL     1      -4.678  -0.995   0.655  1.00  0.00     0.063 C 
HETATM   17  C9  UNL     1      -6.177  -0.898   0.517  1.00  0.00     0.045 C 
HETATM   18  C10 UNL     1      -6.660   0.303  -0.218  1.00  0.00     0.010 C 
HETATM   19  C11 UNL     1      -5.610   1.375  -0.257  1.00  0.00     0.045 C 
HETATM   20  C12 UNL     1      -4.308   0.866  -0.851  1.00  0.00     0.063 C 
ENDBRANCH  14  15
ENDBRANCH  13  14
ENDBRANCH  12  13
ENDBRANCH  11  12
ENDBRANCH   9  11
ENDBRANCH   8   9
ENDBRANCH   4   8
BRANCH   5  21
HETATM   21  O2  UNL     1       3.925  -1.871   1.195  1.00  0.00    -0.391 OA
ATOM     22  H2  UNL     1       4.423  -1.916   2.003  1.00  0.00     0.210 HD
ENDBRANCH   5  21
BRANCH   1  23
HETATM   23  O1  UNL     1       4.227   2.277  -0.541  1.00  0.00    -0.374 OA
ATOM     24  H1  UNL     1       4.852   2.953  -0.308  1.00  0.00     0.212 HD
ENDBRANCH   1  23
BRANCH   6  25
HETATM   25  O3  UNL     1       6.258  -1.289   0.900  1.00  0.00    -0.390 OA
ATOM     26  H3  UNL     1       7.178  -1.053   0.870  1.00  0.00     0.210 HD
ENDBRANCH   6  25
BRANCH   7  27
HETATM   27  O4  UNL     1       6.857   1.585  -0.141  1.00  0.00    -0.389 OA
ATOM     28  H4  UNL     1       7.566   1.181   0.345  1.00  0.00     0.210 HD
ENDBRANCH   7  27
TORSDOF 11
