REMARK  11 active torsions:
REMARK  status: ('A' for Active; 'I' for Inactive)
REMARK    1  A    between atoms: C2_2  and  C3_3 
REMARK    2  A    between atoms: C3_3  and  C4_4 
REMARK    3  A    between atoms: C4_4  and  N1_5 
REMARK    4  A    between atoms: N1_5  and  C5_7 
REMARK    5  A    between atoms: C7_9  and  N2_10 
REMARK    6  A    between atoms: C8_14  and  C9_15 
REMARK    7  A    between atoms: C9_15  and  O1_16 
REMARK    8  A    between atoms: O1_16  and  C10_17 
REMARK    9  A    between atoms: C14_23  and  N4_24 
REMARK   10  A    between atoms: C15_28  and  O2_29 
REMARK   11  A    between atoms: C16_31  and  O3_32 
ROOT
HETATM    1  C5  UNL     1      -1.864   1.443   0.126  1.00  0.00     0.110 C 
HETATM    2  C6  UNL     1      -1.220   0.780  -1.024  1.00  0.00     0.065 C 
HETATM    3  C7  UNL     1      -0.524  -0.504  -0.851  1.00  0.00     0.219 C 
HETATM    4  C8  UNL     1      -0.018  -0.839   0.501  1.00  0.00     0.003 C 
HETATM    5  C15 UNL     1      -0.296   0.238   1.531  1.00  0.00     0.181 C 
HETATM    6  C16 UNL     1      -1.762   0.536   1.389  1.00  0.00     0.173 C 
ENDROOT
BRANCH   4   7
HETATM    7  C9  UNL     1       1.364  -1.438   0.588  1.00  0.00     0.145 C 
BRANCH   7   8
HETATM    8  O1  UNL     1       2.411  -0.903   0.231  1.00  0.00    -0.335 OA
BRANCH   8   9
HETATM    9  C10 UNL     1       3.490  -0.350  -0.139  1.00  0.00     0.256 C 
HETATM   10  N3  UNL     1       3.972   0.756   0.619  1.00  0.00    -0.375 N 
HETATM   11  C11 UNL     1       5.034   1.447   0.049  1.00  0.00     0.058 C 
ATOM     12  H3  UNL     1       3.566   1.022   1.516  1.00  0.00     0.161 HD
HETATM   13  C12 UNL     1       6.230   0.587  -0.297  1.00  0.00     0.046 C 
HETATM   14  C13 UNL     1       5.799  -0.701  -0.933  1.00  0.00     0.042 C 
HETATM   15  C14 UNL     1       4.660  -1.358  -0.273  1.00  0.00     0.232 C 
BRANCH  15  16
HETATM   16  N4  UNL     1       5.023  -1.947   0.978  1.00  0.00    -0.071 N 
ATOM     17  H43 UNL     1       5.234  -1.231   1.673  1.00  0.00     0.274 HD
ATOM     18  H42 UNL     1       4.216  -2.380   1.427  1.00  0.00     0.274 HD
ATOM     19  H41 UNL     1       5.793  -2.610   0.890  1.00  0.00     0.274 HD
ENDBRANCH  15  16
ENDBRANCH   8   9
ENDBRANCH   7   8
ENDBRANCH   4   7
BRANCH   3  20
HETATM   20  N2  UNL     1       0.520  -0.599  -1.900  1.00  0.00    -0.071 N 
ATOM     21  H23 UNL     1       0.148  -0.474  -2.841  1.00  0.00     0.275 HD
ATOM     22  H22 UNL     1       1.155   0.199  -1.899  1.00  0.00     0.275 HD
ATOM     23  H21 UNL     1       1.003  -1.490  -1.780  1.00  0.00     0.275 HD
ENDBRANCH   3  20
BRANCH   5  24
HETATM   24  O2  UNL     1       0.392   1.407   1.361  1.00  0.00    -0.388 OA
ATOM     25  H2  UNL     1       0.218   2.082   2.006  1.00  0.00     0.210 HD
ENDBRANCH   5  24
BRANCH   6  26
HETATM   26  O3  UNL     1      -2.180   1.223   2.496  1.00  0.00    -0.391 OA
ATOM     27  H3  UNL     1      -2.118   0.670   3.266  1.00  0.00     0.210 HD
ENDBRANCH   6  26
BRANCH   1  28
HETATM   28  N1  UNL     1      -3.275   1.763  -0.036  1.00  0.00    -0.414 N 
ATOM     29  H1  UNL     1      -3.601   2.717  -0.188  1.00  0.00     0.153 HD
BRANCH  28  30
HETATM   30  C4  UNL     1      -4.162   0.667   0.031  1.00  0.00     0.114 C 
BRANCH  30  31
HETATM   31  C3  UNL     1      -5.563   1.153  -0.327  1.00  0.00     0.019 C 
BRANCH  31  32
HETATM   32  C2  UNL     1      -6.623   0.112  -0.122  1.00  0.00    -0.003 C 
HETATM   33  C1  UNL     1      -6.444  -1.164  -0.854  1.00  0.00     0.005 C 
ENDBRANCH  31  32
ENDBRANCH  30  31
ENDBRANCH  28  30
ENDBRANCH   1  28
TORSDOF 11
