REMARK  7 active torsions:
REMARK  status: ('A' for Active; 'I' for Inactive)
REMARK       I    between atoms: C1_2  and  N1_3 
REMARK    1  A    between atoms: C1_2  and  C10_18 
REMARK    2  A    between atoms: N1_3  and  C2_5 
REMARK    3  A    between atoms: C2_5  and  C3_6 
REMARK    4  A    between atoms: C3_6  and  C4_7 
REMARK    5  A    between atoms: C4_7  and  C5_8 
REMARK    6  A    between atoms: C5_8  and  C6_9 
REMARK    7  A    between atoms: C6_9  and  N2_10 
ROOT
HETATM    1  O1  UNL     1      -2.125   2.018   0.021  1.00  0.00    -0.271 OA
HETATM    2  C1  UNL     1      -2.578   0.840   0.075  1.00  0.00     0.248 C 
HETATM    3  N1  UNL     1      -1.715  -0.214   0.340  1.00  0.00    -0.359 N 
ATOM      4  H1  UNL     1      -2.197  -1.109   0.416  1.00  0.00     0.162 HD
ENDROOT
BRANCH   3   5
HETATM    5  C2  UNL     1      -0.318  -0.327   0.528  1.00  0.00     0.122 C 
BRANCH   5   6
HETATM    6  C3  UNL     1       0.545  -0.102  -0.700  1.00  0.00     0.020 C 
BRANCH   6   7
HETATM    7  C4  UNL     1       1.942  -0.395  -0.329  1.00  0.00     0.003 C 
BRANCH   7   8
HETATM    8  C5  UNL     1       2.684   0.472   0.620  1.00  0.00     0.022 C 
BRANCH   8   9
HETATM    9  C6  UNL     1       4.031  -0.230   0.875  1.00  0.00     0.147 C 
BRANCH   9  10
HETATM   10  N2  UNL     1       4.690  -0.546  -0.314  1.00  0.00    -0.275 N 
HETATM   11  C7  UNL     1       5.209   0.417  -1.177  1.00  0.00     0.193 C 
HETATM   12  N3  UNL     1       6.201   1.288  -0.638  1.00  0.00    -0.384 N 
HETATM   13  C8  UNL     1       7.287   0.673   0.058  1.00  0.00     0.138 C 
ATOM     14  H3  UNL     1       6.138   2.301  -0.744  1.00  0.00     0.160 HD
HETATM   15  C9  UNL     1       7.474  -0.798  -0.252  1.00  0.00     0.151 C 
HETATM   16  N4  UNL     1       6.538  -1.614   0.481  1.00  0.00    -0.124 NA
HETATM   17  N5  UNL     1       5.375  -1.767  -0.284  1.00  0.00    -0.028 NA
ENDBRANCH   9  10
ENDBRANCH   8   9
ENDBRANCH   7   8
ENDBRANCH   6   7
ENDBRANCH   5   6
ENDBRANCH   3   5
BRANCH   2  18
HETATM   18  C10 UNL     1      -4.019   0.510  -0.133  1.00  0.00     0.277 C 
HETATM   19  C11 UNL     1      -4.771   1.819  -0.472  1.00  0.00     0.044 C 
HETATM   20  C12 UNL     1      -6.204   1.769   0.046  1.00  0.00     0.030 C 
HETATM   21  C13 UNL     1      -6.900   0.505  -0.403  1.00  0.00     0.232 C 
HETATM   22  N6  UNL     1      -7.174  -0.271   0.796  1.00  0.00    -0.074 N 
HETATM   23  C14 UNL     1      -6.437  -1.491   0.887  1.00  0.00     0.259 C 
ATOM     24  H62 UNL     1      -7.027   0.298   1.630  1.00  0.00     0.277 HD
ATOM     25  H61 UNL     1      -8.174  -0.451   0.883  1.00  0.00     0.277 HD
HETATM   26  C15 UNL     1      -4.946  -1.311   1.053  1.00  0.00     0.260 C 
HETATM   27  N7  UNL     1      -4.659   0.122   1.139  1.00  0.00    -0.061 N 
ATOM     28  H72 UNL     1      -4.106   0.372   1.959  1.00  0.00     0.278 HD
ATOM     29  H71 UNL     1      -5.481   0.683   1.362  1.00  0.00     0.278 HD
ENDBRANCH   2  18
TORSDOF 7
