REMARK  7 active torsions:
REMARK  status: ('A' for Active; 'I' for Inactive)
REMARK    1  A    between atoms: N1_1  and  C1_5 
REMARK    2  A    between atoms: C1_5  and  C2_6 
REMARK    3  A    between atoms: C2_6  and  N2_7 
REMARK    4  A    between atoms: N2_7  and  C3_10 
REMARK    5  A    between atoms: C3_10  and  C4_11 
REMARK    6  A    between atoms: C5_12  and  N3_13 
REMARK    7  A    between atoms: C6_17  and  C7_18 
ROOT
HETATM    1  C4  UNL     1       0.047  -0.827   0.084  1.00  0.00     0.054 A 
HETATM    2  C5  UNL     1       0.527   0.103   1.115  1.00  0.00     0.200 A 
HETATM    3  C6  UNL     1       1.402  -1.025   0.564  1.00  0.00     0.075 A 
ENDROOT
BRANCH   1   4
HETATM    4  C3  UNL     1      -0.384  -0.282  -1.226  1.00  0.00     0.239 C 
BRANCH   4   5
HETATM    5  N2  UNL     1      -1.507   0.633  -1.016  1.00  0.00    -0.073 N 
ATOM      6  H22 UNL     1      -1.692   1.198  -1.845  1.00  0.00     0.277 HD
ATOM      7  H21 UNL     1      -1.266   1.383  -0.368  1.00  0.00     0.277 HD
BRANCH   5   8
HETATM    8  C2  UNL     1      -2.690  -0.089  -0.584  1.00  0.00     0.259 C 
BRANCH   8   9
HETATM    9  C1  UNL     1      -3.795   0.918  -0.391  1.00  0.00     0.257 C 
BRANCH   9  10
HETATM   10  N1  UNL     1      -5.027   0.326   0.039  1.00  0.00    -0.078 N 
ATOM     11  H13 UNL     1      -5.317  -0.414  -0.600  1.00  0.00     0.274 HD
ATOM     12  H12 UNL     1      -4.888  -0.228   0.884  1.00  0.00     0.274 HD
ATOM     13  H11 UNL     1      -5.775   1.007   0.170  1.00  0.00     0.274 HD
ENDBRANCH   9  10
ENDBRANCH   8   9
ENDBRANCH   5   8
ENDBRANCH   4   5
ENDBRANCH   1   4
BRANCH   2  14
HETATM   14  N3  UNL     1       1.032   1.417   0.870  1.00  0.00    -0.074 N 
ATOM     15  H33 UNL     1       1.787   1.318   0.192  1.00  0.00     0.274 HD
ATOM     16  H32 UNL     1       0.314   1.912   0.342  1.00  0.00     0.274 HD
ATOM     17  H31 UNL     1       1.365   2.063   1.586  1.00  0.00     0.274 HD
ENDBRANCH   2  14
BRANCH   3  18
HETATM   18  C7  UNL     1       2.636  -0.637  -0.130  1.00  0.00     0.033 A 
HETATM   19  C8  UNL     1       3.890  -1.158   0.182  1.00  0.00     0.045 A 
HETATM   20  C9  UNL     1       4.815  -0.577  -0.665  1.00  0.00     0.109 A 
HETATM   21  N4  UNL     1       4.137   0.265  -1.460  1.00  0.00    -0.312 N 
HETATM   22  N5  UNL     1       2.867   0.210  -1.125  1.00  0.00    -0.305 N 
ATOM     23  H4  UNL     1       4.537   0.847  -2.196  1.00  0.00     0.186 HD
ATOM     24  H5  UNL     1       2.138   0.759  -1.581  1.00  0.00     0.186 HD
ENDBRANCH   3  18
TORSDOF 7
