REMARK  6 active torsions:
REMARK  status: ('A' for Active; 'I' for Inactive)
REMARK    1  A    between atoms: C2_2  and  N1_3 
REMARK    2  A    between atoms: C2_2  and  C3_7 
REMARK    3  A    between atoms: C3_7  and  N2_8 
REMARK    4  A    between atoms: C3_7  and  C4_12 
REMARK    5  A    between atoms: C4_12  and  C5_13 
REMARK    6  A    between atoms: C5_13  and  N3_14 
ROOT
HETATM    1  C3  UNL     1      -2.012  -1.009  -0.034  1.00  0.00     0.214 C 
ENDROOT
BRANCH   1   2
HETATM    2  C2  UNL     1      -3.364  -0.416  -0.279  1.00  0.00     0.209 C 
HETATM    3  C1  UNL     1      -3.855   0.405   0.903  1.00  0.00     0.042 C 
BRANCH   2   4
HETATM    4  N1  UNL     1      -3.408   0.451  -1.438  1.00  0.00    -0.073 N 
ATOM      5  H13 UNL     1      -4.325   0.869  -1.592  1.00  0.00     0.274 HD
ATOM      6  H12 UNL     1      -2.890   1.320  -1.310  1.00  0.00     0.274 HD
ATOM      7  H11 UNL     1      -3.079  -0.100  -2.231  1.00  0.00     0.274 HD
ENDBRANCH   2   4
ENDBRANCH   1   2
BRANCH   1   8
HETATM    8  N2  UNL     1      -2.042  -1.867   1.102  1.00  0.00    -0.073 N 
ATOM      9  H23 UNL     1      -2.402  -1.390   1.928  1.00  0.00     0.274 HD
ATOM     10  H22 UNL     1      -2.761  -2.585   1.016  1.00  0.00     0.274 HD
ATOM     11  H21 UNL     1      -1.121  -2.271   1.269  1.00  0.00     0.274 HD
ENDBRANCH   1   8
BRANCH   1  12
HETATM   12  C4  UNL     1      -0.920   0.013  -0.016  1.00  0.00     0.054 C 
BRANCH  12  13
HETATM   13  C5  UNL     1       0.441  -0.608   0.243  1.00  0.00     0.124 C 
BRANCH  13  14
HETATM   14  N3  UNL     1       1.467   0.378   0.246  1.00  0.00    -0.390 N 
HETATM   15  C6  UNL     1       1.784   1.008  -0.976  1.00  0.00     0.149 C 
HETATM   16  C7  UNL     1       3.226   1.470  -0.942  1.00  0.00     0.252 C 
HETATM   17  N4  UNL     1       4.162   0.395  -0.784  1.00  0.00    -0.069 N 
HETATM   18  C8  UNL     1       3.796  -0.463   0.306  1.00  0.00     0.276 C 
ATOM     19  H42 UNL     1       4.277  -0.130  -1.651  1.00  0.00     0.277 HD
ATOM     20  H41 UNL     1       5.116   0.742  -0.682  1.00  0.00     0.277 HD
HETATM   21  C9  UNL     1       2.599   0.067   1.025  1.00  0.00     0.085 C 
ENDBRANCH  13  14
ENDBRANCH  12  13
ENDBRANCH   1  12
TORSDOF 6
