REMARK  5 active torsions:
REMARK  status: ('A' for Active; 'I' for Inactive)
REMARK    1  A    between atoms: N1_1  and  C1_5 
REMARK    2  A    between atoms: N2_8  and  C4_9 
REMARK    3  A    between atoms: C4_9  and  C5_10 
REMARK    4  A    between atoms: C5_10  and  C6_11 
REMARK    5  A    between atoms: C6_11  and  N3_12 
REMARK       I    between atoms: N3_12  and  C7_15 
REMARK       I    between atoms: C7_15  and  N4_16 
REMARK       I    between atoms: C7_15  and  N5_20 
ROOT
HETATM    1  C6  UNL     1       1.923  -0.287  -0.137  1.00  0.00     0.238 C 
ENDROOT
BRANCH   1   2
HETATM    2  C5  UNL     1       0.604  -0.877  -0.592  1.00  0.00     0.058 C 
BRANCH   2   3
HETATM    3  C4  UNL     1      -0.420   0.217  -0.500  1.00  0.00     0.274 C 
BRANCH   3   4
HETATM    4  N2  UNL     1      -1.738  -0.140  -0.890  1.00  0.00     0.090 N 
HETATM    5  C3  UNL     1      -2.423  -1.058  -0.055  1.00  0.00     0.274 C 
HETATM    6  C2  UNL     1      -3.818  -0.467   0.194  1.00  0.00     0.064 C 
HETATM    7  C1  UNL     1      -3.443   1.018   0.283  1.00  0.00     0.213 C 
HETATM    8  C8  UNL     1      -2.517   1.105  -0.934  1.00  0.00     0.305 C 
BRANCH   7   9
HETATM    9  N1  UNL     1      -4.569   1.883   0.171  1.00  0.00    -0.073 N 
ATOM     10  H13 UNL     1      -5.093   1.690  -0.682  1.00  0.00     0.274 HD
ATOM     11  H12 UNL     1      -5.281   1.645   0.861  1.00  0.00     0.274 HD
ATOM     12  H11 UNL     1      -4.320   2.870   0.230  1.00  0.00     0.274 HD
ENDBRANCH   7   9
ENDBRANCH   3   4
ENDBRANCH   2   3
ENDBRANCH   1   2
BRANCH   1  13
HETATM   13  N3  UNL     1       2.986  -1.257  -0.184  1.00  0.00    -0.022 N 
HETATM   14  C7  UNL     1       4.243  -0.691   0.250  1.00  0.00     0.575 C 
HETATM   15  N4  UNL     1       4.636   0.429  -0.597  1.00  0.00    -0.026 N 
HETATM   16  N5  UNL     1       4.174  -0.179   1.606  1.00  0.00    -0.026 N 
ATOM     17  H43 UNL     1       4.664   0.163  -1.581  1.00  0.00     0.278 HD
ATOM     18  H42 UNL     1       3.903   1.137  -0.647  1.00  0.00     0.278 HD
ATOM     19  H41 UNL     1       5.523   0.828  -0.291  1.00  0.00     0.278 HD
ATOM     20  H53 UNL     1       3.412   0.491   1.709  1.00  0.00     0.278 HD
ATOM     21  H52 UNL     1       3.848  -0.895   2.255  1.00  0.00     0.278 HD
ATOM     22  H51 UNL     1       5.061   0.220   1.912  1.00  0.00     0.278 HD
ATOM     23  H32 UNL     1       2.750  -2.094   0.349  1.00  0.00     0.281 HD
ATOM     24  H31 UNL     1       3.067  -1.677  -1.110  1.00  0.00     0.281 HD
ENDBRANCH   1  13
TORSDOF 5
