REMARK  8 active torsions:
REMARK  status: ('A' for Active; 'I' for Inactive)
REMARK    1  A    between atoms: C2_2  and  O1_5 
REMARK    2  A    between atoms: O1_5  and  C5_6 
REMARK       I    between atoms: C5_6  and  N1_8 
REMARK    3  A    between atoms: N1_8  and  C6_10 
REMARK    4  A    between atoms: C6_10  and  C8_12 
REMARK    5  A    between atoms: C6_10  and  C13_20 
REMARK       I    between atoms: C8_12  and  N2_14 
REMARK    6  A    between atoms: C13_20  and  N3_28 
REMARK    7  A    between atoms: C14_21  and  C15_22 
REMARK       I    between atoms: N3_28  and  C21_30 
REMARK    8  A    between atoms: C21_30  and  C22_32 
ROOT
HETATM    1  C6  UNL     1       0.520   0.910  -0.438  1.00  0.00     0.154 C 
HETATM    2  C7  UNL     1      -0.162   1.617  -1.601  1.00  0.00     0.056 C 
ENDROOT
BRANCH   1   3
HETATM    3  N1  UNL     1       1.580   0.100  -1.118  1.00  0.00    -0.314 N 
HETATM    4  C5  UNL     1       2.479  -0.771  -0.546  1.00  0.00     0.362 C 
HETATM    5  O2  UNL     1       2.652  -1.116   0.640  1.00  0.00    -0.238 OA
ATOM      6  H1  UNL     1       1.644   0.207  -2.130  1.00  0.00     0.166 HD
BRANCH   4   7
HETATM    7  O1  UNL     1       3.397  -1.420  -1.425  1.00  0.00    -0.294 OA
BRANCH   7   8
HETATM    8  C2  UNL     1       4.356  -2.328  -0.926  1.00  0.00     0.061 C 
HETATM    9  C1  UNL     1       5.285  -1.659   0.076  1.00  0.00     0.046 C 
HETATM   10  C3  UNL     1       5.198  -2.802  -2.079  1.00  0.00     0.046 C 
HETATM   11  C4  UNL     1       3.722  -3.504  -0.230  1.00  0.00     0.046 C 
ENDBRANCH   7   8
ENDBRANCH   4   7
ENDBRANCH   1   3
BRANCH   1  12
HETATM   12  C8  UNL     1       1.305   1.921   0.299  1.00  0.00     0.254 C 
HETATM   13  O3  UNL     1       2.459   1.566   0.768  1.00  0.00    -0.270 OA
HETATM   14  N2  UNL     1       1.023   3.249   0.595  1.00  0.00    -0.346 N 
HETATM   15  C9  UNL     1       1.997   4.020   1.389  1.00  0.00     0.152 C 
HETATM   16  C12 UNL     1      -0.107   4.030   0.212  1.00  0.00     0.152 C 
HETATM   17  C10 UNL     1       2.361   5.211   0.530  1.00  0.00     0.187 C 
HETATM   18  O4  UNL     1       1.268   6.032   0.378  1.00  0.00    -0.388 OA
HETATM   19  C11 UNL     1       0.115   5.447   0.797  1.00  0.00     0.187 C 
ENDBRANCH   1  12
BRANCH   1  20
HETATM   20  C13 UNL     1      -0.331  -0.000   0.337  1.00  0.00     0.046 C 
HETATM   21  C14 UNL     1      -1.468   0.378   1.149  1.00  0.00     0.006 C 
BRANCH  21  22
HETATM   22  C15 UNL     1      -2.696   1.031   0.690  1.00  0.00     0.010 C 
HETATM   23  C16 UNL     1      -3.591   1.215   1.983  1.00  0.00     0.008 C 
HETATM   24  C17 UNL     1      -5.036   1.379   1.581  1.00  0.00     0.001 C 
HETATM   25  C18 UNL     1      -5.556  -0.045   1.346  1.00  0.00     0.000 C 
HETATM   26  C19 UNL     1      -4.421  -0.766   0.636  1.00  0.00     0.001 C 
HETATM   27  C20 UNL     1      -3.612   0.222  -0.205  1.00  0.00     0.008 C 
ENDBRANCH  21  22
BRANCH  20  28
HETATM   28  N3  UNL     1      -0.688  -1.213  -0.432  1.00  0.00    -0.326 N 
HETATM   29  C21 UNL     1      -0.637  -2.516   0.130  1.00  0.00     0.245 C 
HETATM   30  O5  UNL     1      -0.271  -2.628   1.339  1.00  0.00    -0.271 OA
ATOM     31  H3  UNL     1      -0.982  -1.109  -1.403  1.00  0.00     0.168 HD
BRANCH  29  32
HETATM   32  C22 UNL     1      -0.984  -3.735  -0.605  1.00  0.00     0.110 C 
HETATM   33  C23 UNL     1      -2.442  -3.726  -1.071  1.00  0.00     0.042 C 
HETATM   34  C24 UNL     1      -0.096  -3.987  -1.819  1.00  0.00     0.042 C 
HETATM   35 CL1  UNL     1      -0.817  -5.156   0.447  1.00  0.00    -0.110 Cl
ENDBRANCH  29  32
ENDBRANCH  20  28
ENDBRANCH   1  20
TORSDOF 8
