REMARK  6 active torsions:
REMARK  status: ('A' for Active; 'I' for Inactive)
REMARK    1  A    between atoms: C2_2  and  C3_3 
REMARK    2  A    between atoms: C3_3  and  C5_6 
REMARK    3  A    between atoms: C3_3  and  N2_8 
REMARK    4  A    between atoms: N2_8  and  C7_10 
REMARK    5  A    between atoms: C11_14  and  C12_15 
REMARK    6  A    between atoms: C21_25  and  C22_26 
ROOT
HETATM    1  C3  UNL     1      -3.421   0.184  -0.506  1.00  0.00     0.119 C 
HETATM    2  C4  UNL     1      -3.031   1.551  -0.819  1.00  0.00     0.090 C 
HETATM    3  N1  UNL     1      -2.729   2.633  -1.090  1.00  0.00    -0.195 NA
ENDROOT
BRANCH   1   4
HETATM    4  C2  UNL     1      -4.750   0.311   0.229  1.00  0.00     0.042 C 
HETATM    5  C1  UNL     1      -4.701   1.099   1.481  1.00  0.00     0.009 C 
ENDBRANCH   1   4
BRANCH   1   6
HETATM    6  C5  UNL     1      -3.827  -0.552  -1.800  1.00  0.00     0.042 C 
HETATM    7  C6  UNL     1      -4.830   0.291  -2.553  1.00  0.00     0.009 C 
ENDBRANCH   1   6
BRANCH   1   8
HETATM    8  N2  UNL     1      -2.595  -0.594   0.222  1.00  0.00    -0.375 N 
ATOM      9  H2  UNL     1      -3.047  -1.447   0.550  1.00  0.00     0.161 HD
BRANCH   8  10
HETATM   10  C7  UNL     1      -1.290  -0.503   0.622  1.00  0.00    -0.012 C 
HETATM   11  C8  UNL     1      -0.805   0.607   1.487  1.00  0.00     0.057 C 
HETATM   12  C9  UNL     1       0.607   0.464   1.957  1.00  0.00    -0.007 C 
HETATM   13  C10 UNL     1       1.507   1.236   1.030  1.00  0.00     0.019 C 
HETATM   14  C23 UNL     1       1.113  -0.900   2.180  1.00  0.00     0.022 C 
HETATM   15  C11 UNL     1       1.859   0.480  -0.240  1.00  0.00    -0.011 C 
HETATM   16  C18 UNL     1       0.577   0.200  -0.960  1.00  0.00     0.025 C 
HETATM   17  C24 UNL     1       2.590  -0.773   0.165  1.00  0.00     0.032 C 
HETATM   18  C19 UNL     1      -0.236  -0.895  -0.407  1.00  0.00     0.033 C 
HETATM   19  C20 UNL     1       0.585  -2.094   0.038  1.00  0.00     0.028 C 
HETATM   20  C21 UNL     1       1.652  -1.609   0.982  1.00  0.00     0.023 C 
BRANCH  15  21
HETATM   21  C12 UNL     1       2.789   1.328  -0.986  1.00  0.00    -0.049 A 
HETATM   22  C13 UNL     1       3.982   1.678  -0.332  1.00  0.00     0.009 A 
HETATM   23  C14 UNL     1       4.938   2.476  -0.953  1.00  0.00     0.019 A 
HETATM   24  C15 UNL     1       4.724   2.934  -2.218  1.00  0.00     0.011 A 
HETATM   25 BR1  UNL     1       6.006   4.024  -3.084  1.00  0.00    -0.051 Br
HETATM   26  C16 UNL     1       3.543   2.591  -2.873  1.00  0.00     0.019 A 
HETATM   27  C17 UNL     1       2.597   1.797  -2.251  1.00  0.00     0.009 A 
ENDBRANCH  15  21
BRANCH  20  28
HETATM   28  C22 UNL     1       2.385  -2.825   1.446  1.00  0.00     0.121 A 
HETATM   29  N3  UNL     1       3.076  -3.652   0.644  1.00  0.00    -0.272 N 
HETATM   30  N4  UNL     1       3.589  -4.611   1.392  1.00  0.00    -0.227 N 
ATOM     31  H3  UNL     1       3.185  -3.556  -0.366  1.00  0.00     0.190 HD
HETATM   32  N5  UNL     1       3.239  -4.418   2.672  1.00  0.00    -0.227 N 
ATOM     33  H4  UNL     1       4.164  -5.381   1.049  1.00  0.00     0.210 HD
HETATM   34  N6  UNL     1       2.509  -3.328   2.686  1.00  0.00    -0.272 N 
ATOM     35  H5  UNL     1       3.489  -5.000   3.472  1.00  0.00     0.210 HD
ATOM     36  H6  UNL     1       2.093  -2.919   3.523  1.00  0.00     0.190 HD
ENDBRANCH  20  28
ENDBRANCH   8  10
ENDBRANCH   1   8
TORSDOF 6
