REMARK  10 active torsions:
REMARK  status: ('A' for Active; 'I' for Inactive)
REMARK    1  A    between atoms: C2_2  and  C3_3 
REMARK    2  A    between atoms: C3_3  and  N1_4 
REMARK    3  A    between atoms: N2_7  and  C6_8 
REMARK    4  A    between atoms: C10_12  and  N3_13 
REMARK    5  A    between atoms: N3_13  and  C11_15 
REMARK    6  A    between atoms: C12_18  and  C13_19 
REMARK    7  A    between atoms: C16_24  and  C17_25 
REMARK    8  A    between atoms: C18_28  and  C19_29 
REMARK    9  A    between atoms: C20_30  and  C21_31 
REMARK   10  A    between atoms: C21_31  and  C22_32 
ROOT
HETATM    1  C11 UNL     1      -2.338  -0.780   0.103  1.00  0.00     0.124 A 
HETATM    2  N4  UNL     1      -2.291  -1.948  -0.552  1.00  0.00    -0.331 N 
ATOM      3  H4  UNL     1      -1.564  -2.073  -1.256  1.00  0.00     0.168 HD
HETATM    4  C12 UNL     1      -3.143  -2.963  -0.338  1.00  0.00     0.086 A 
HETATM    5  N5  UNL     1      -4.091  -2.790   0.584  1.00  0.00    -0.339 N 
ATOM      6  H5  UNL     1      -4.749  -3.549   0.763  1.00  0.00     0.167 HD
HETATM    7  C16 UNL     1      -4.211  -1.630   1.298  1.00  0.00     0.133 A 
HETATM    8  C18 UNL     1      -3.335  -0.601   1.071  1.00  0.00     0.095 A 
ENDROOT
BRANCH   1   9
HETATM    9  N3  UNL     1      -1.550   0.193  -0.077  1.00  0.00    -0.370 N 
ATOM     10  H3  UNL     1      -1.731   1.008   0.509  1.00  0.00     0.161 HD
BRANCH   9  11
HETATM   11  C10 UNL     1      -0.450   0.327  -0.971  1.00  0.00     0.085 C 
HETATM   12  C9  UNL     1      -0.712  -0.279  -2.350  1.00  0.00     0.025 C 
HETATM   13  C8  UNL     1       0.460   0.272  -3.182  1.00  0.00     0.004 C 
HETATM   14  C7  UNL     1       1.653  -0.554  -2.731  1.00  0.00     0.036 C 
HETATM   15  C6  UNL     1       1.954  -0.451  -1.268  1.00  0.00     0.225 C 
HETATM   16  C25 UNL     1       0.826  -0.157  -0.367  1.00  0.00     0.061 C 
BRANCH  15  17
HETATM   17  N2  UNL     1       3.127   0.342  -0.990  1.00  0.00     0.096 N 
HETATM   18  C5  UNL     1       3.095   1.689  -1.364  1.00  0.00     0.303 C 
HETATM   19  C4  UNL     1       4.020   2.449  -0.395  1.00  0.00     0.302 C 
HETATM   20  N1  UNL     1       5.220   1.644  -0.193  1.00  0.00     0.091 N 
HETATM   21  C27 UNL     1       5.463   0.758  -1.272  1.00  0.00     0.302 C 
HETATM   22  C26 UNL     1       4.344  -0.269  -1.453  1.00  0.00     0.303 C 
BRANCH  20  23
HETATM   23  C3  UNL     1       5.311   1.113   1.119  1.00  0.00     0.272 C 
BRANCH  23  24
HETATM   24  C2  UNL     1       6.556   0.280   1.258  1.00  0.00     0.026 C 
HETATM   25  C1  UNL     1       6.696  -0.277   2.669  1.00  0.00     0.007 C 
ENDBRANCH  23  24
ENDBRANCH  20  23
ENDBRANCH  15  17
ENDBRANCH   9  11
ENDBRANCH   1   9
BRANCH   8  26
HETATM   26  C19 UNL     1      -3.401   0.663   1.791  1.00  0.00    -0.060 C 
HETATM   27  C20 UNL     1      -3.434   1.726   2.375  1.00  0.00    -0.097 C 
BRANCH  27  28
HETATM   28  C21 UNL     1      -3.485   2.998   3.098  1.00  0.00     0.124 C 
BRANCH  28  29
HETATM   29  C22 UNL     1      -3.244   4.072   2.090  1.00  0.00     0.022 C 
HETATM   30  C23 UNL     1      -4.206   4.972   1.928  1.00  0.00     0.087 C 
HETATM   31  C24 UNL     1      -3.994   6.053   0.931  1.00  0.00     0.082 C 
HETATM   32  F1  UNL     1      -5.364   4.945   2.627  1.00  0.00    -0.212 F 
ENDBRANCH  28  29
ENDBRANCH  27  28
ENDBRANCH   8  26
BRANCH   4  33
HETATM   33  C13 UNL     1      -3.025  -4.247  -1.116  1.00  0.00     0.045 C 
HETATM   34  C14 UNL     1      -4.272  -4.494  -1.952  1.00  0.00     0.017 C 
HETATM   35  C15 UNL     1      -2.914  -5.372  -0.119  1.00  0.00     0.017 C 
ENDBRANCH   4  33
BRANCH   7  36
HETATM   36  C17 UNL     1      -5.264  -1.504   2.290  1.00  0.00     0.228 C 
HETATM   37  O1  UNL     1      -5.393  -0.464   2.949  1.00  0.00    -0.643 OA
HETATM   38  O2  UNL     1      -6.137  -2.544   2.515  1.00  0.00    -0.643 OA
ENDBRANCH   7  36
TORSDOF 10
