REMARK  1 active torsions:
REMARK  status: ('A' for Active; 'I' for Inactive)
REMARK    1  A    between atoms: C1_2  and  C2_4 
ROOT
HETATM    1  C2  UNL     1      -0.986  -0.033   0.026  1.00  0.00     0.174 A 
HETATM    2  N2  UNL     1      -0.155   0.547   0.909  1.00  0.00    -0.304 N 
ATOM      3  H2  UNL     1      -0.570   1.019   1.713  1.00  0.00     0.171 HD
HETATM    4  C3  UNL     1       1.185   0.548   0.806  1.00  0.00     0.272 A 
HETATM    5  O2  UNL     1       1.924   1.109   1.667  1.00  0.00    -0.266 OA
HETATM    6  C4  UNL     1       1.766  -0.084  -0.273  1.00  0.00     0.129 A 
HETATM    7  N3  UNL     1       3.173  -0.109  -0.424  1.00  0.00    -0.095 NA
HETATM    8  C5  UNL     1       0.903  -0.678  -1.178  1.00  0.00     0.122 A 
HETATM    9  N4  UNL     1      -0.431  -0.652  -1.031  1.00  0.00    -0.346 N 
ATOM     10  H4  UNL     1      -1.027  -1.104  -1.725  1.00  0.00     0.167 HD
ENDROOT
BRANCH   1  11
HETATM   11  C1  UNL     1      -2.438   0.008   0.206  1.00  0.00     0.298 C 
HETATM   12  N1  UNL     1      -3.041   0.652   1.307  1.00  0.00    -0.054 NA
HETATM   13  O1  UNL     1      -3.177  -0.546  -0.642  1.00  0.00    -0.268 OA
ENDBRANCH   1  11
TORSDOF 1
