REMARK  2 active torsions:
REMARK  status: ('A' for Active; 'I' for Inactive)
REMARK    1  A    between atoms: C1_2  and  C2_4 
REMARK    2  A    between atoms: N3_7  and  N4_8 
ROOT
HETATM    1  C2  UNL     1      -0.772   0.025   0.077  1.00  0.00     0.122 A 
HETATM    2  C3  UNL     1       0.460  -0.585  -0.046  1.00  0.00     0.156 A 
HETATM    3  N2  UNL     1       0.504  -2.022  -0.044  1.00  0.00    -0.080 NA
HETATM    4  N3  UNL     1       1.612   0.120  -0.166  1.00  0.00    -0.259 N 
HETATM    5  C4  UNL     1       1.639   1.466  -0.175  1.00  0.00     0.121 A 
HETATM    6  C5  UNL     1       0.426   2.117  -0.054  1.00  0.00     0.075 A 
HETATM    7  C6  UNL     1      -0.755   1.411   0.070  1.00  0.00     0.192 A 
HETATM    8  O2  UNL     1      -1.878   1.989   0.182  1.00  0.00    -0.287 OA
ENDROOT
BRANCH   1   9
HETATM    9  C1  UNL     1      -2.001  -0.742   0.206  1.00  0.00     0.272 C 
HETATM   10  N1  UNL     1      -3.257  -0.107   0.332  1.00  0.00    -0.057 NA
HETATM   11  O1  UNL     1      -1.947  -1.991   0.206  1.00  0.00    -0.271 OA
ENDBRANCH   1   9
BRANCH   4  12
HETATM   12  N4  UNL     1       2.843  -0.529  -0.289  1.00  0.00    -0.338 N 
ATOM     13  H42 UNL     1       2.823  -1.549  -0.282  1.00  0.00     0.177 HD
ATOM     14  H41 UNL     1       3.710   0.001  -0.379  1.00  0.00     0.177 HD
ENDBRANCH   4  12
TORSDOF 2
