REMARK  1 active torsions:
REMARK  status: ('A' for Active; 'I' for Inactive)
REMARK    1  A    between atoms: C3_3  and  N1_4 
ROOT
HETATM    1  C1  UNL     1      -2.699  -0.866   1.884  1.00  0.00     0.014 C 
HETATM    2  C2  UNL     1      -2.221  -0.586   0.811  1.00  0.00    -0.097 C 
HETATM    3  C3  UNL     1      -1.611  -0.243  -0.494  1.00  0.00     0.227 C 
ENDROOT
BRANCH   3   4
HETATM    4  N1  UNL     1      -0.190   0.000  -0.354  1.00  0.00    -0.273 N 
HETATM    5  C4  UNL     1       0.276   1.237  -0.091  1.00  0.00     0.213 A 
HETATM    6  N2  UNL     1      -0.686   2.277   0.041  1.00  0.00    -0.062 NA
HETATM    7  N3  UNL     1       1.603   1.473   0.042  1.00  0.00    -0.272 N 
HETATM    8  N4  UNL     1       2.478   0.483  -0.086  1.00  0.00    -0.279 N 
ATOM      9  H3  UNL     1       1.932   2.418   0.242  1.00  0.00     0.189 HD
HETATM   10  C5  UNL     1       2.058  -0.776  -0.351  1.00  0.00     0.183 A 
ATOM     11  H4  UNL     1       3.475   0.673   0.016  1.00  0.00     0.189 HD
HETATM   12  N5  UNL     1       2.937  -1.701  -0.466  1.00  0.00    -0.380 N 
HETATM   13  C6  UNL     1       0.707  -0.990  -0.481  1.00  0.00     0.295 A 
ATOM     14  H52 UNL     1       3.940  -1.542  -0.369  1.00  0.00     0.158 HD
ATOM     15  H51 UNL     1       2.620  -2.650  -0.666  1.00  0.00     0.158 HD
HETATM   16  O1  UNL     1       0.331  -2.159  -0.725  1.00  0.00    -0.264 OA
ENDBRANCH   3   4
TORSDOF 1
