REMARK  4 active torsions:
REMARK  status: ('A' for Active; 'I' for Inactive)
REMARK    1  A    between atoms: C3_3  and  N1_4 
REMARK    2  A    between atoms: C5_6  and  C6_7 
REMARK    3  A    between atoms: C6_7  and  N3_11 
REMARK    4  A    between atoms: N3_11  and  N4_13 
ROOT
HETATM    1  C1  UNL     1      -3.502   1.996   1.357  1.00  0.00     0.014 C 
HETATM    2  C2  UNL     1      -3.174   1.134   0.585  1.00  0.00    -0.096 C 
HETATM    3  C3  UNL     1      -2.751   0.090  -0.366  1.00  0.00     0.238 C 
ENDROOT
BRANCH   3   4
HETATM    4  N1  UNL     1      -1.515  -0.531   0.059  1.00  0.00    -0.274 N 
HETATM    5  C4  UNL     1      -0.251  -0.185  -0.232  1.00  0.00     0.143 A 
HETATM    6  C5  UNL     1       0.629  -1.048   0.381  1.00  0.00     0.107 A 
HETATM    7  N5  UNL     1      -0.144  -1.922   1.048  1.00  0.00    -0.279 N 
HETATM    8  N6  UNL     1      -1.433  -1.605   0.849  1.00  0.00    -0.019 NA
ATOM      9  H5  UNL     1       0.194  -2.700   1.614  1.00  0.00     0.184 HD
BRANCH   6  10
HETATM   10  C6  UNL     1       2.082  -1.050   0.343  1.00  0.00     0.142 C 
HETATM   11  N2  UNL     1       2.784  -1.929   0.972  1.00  0.00    -0.383 N 
ATOM     12  H22 UNL     1       2.291  -2.641   1.511  1.00  0.00     0.157 HD
ATOM     13  H21 UNL     1       3.804  -1.930   0.945  1.00  0.00     0.157 HD
BRANCH  10  14
HETATM   14  N3  UNL     1       2.777  -0.047  -0.417  1.00  0.00    -0.291 N 
ATOM     15  H3  UNL     1       3.182  -0.312  -1.315  1.00  0.00     0.188 HD
BRANCH  14  16
HETATM   16  N4  UNL     1       2.924   1.264   0.012  1.00  0.00    -0.344 N 
ATOM     17  H42 UNL     1       2.513   1.512   0.912  1.00  0.00     0.176 HD
ATOM     18  H41 UNL     1       3.417   1.976  -0.527  1.00  0.00     0.176 HD
ENDBRANCH  14  16
ENDBRANCH  10  14
ENDBRANCH   6  10
ENDBRANCH   3   4
TORSDOF 4
