REMARK  9 active torsions:
REMARK  status: ('A' for Active; 'I' for Inactive)
REMARK    1  A    between atoms: C5_6  and  O1_7 
REMARK    2  A    between atoms: N2_11  and  C8_12 
REMARK    3  A    between atoms: C8_12  and  C9_13 
REMARK    4  A    between atoms: C9_13  and  C10_14 
REMARK    5  A    between atoms: N3_17  and  C13_18 
REMARK    6  A    between atoms: C13_18  and  C14_19 
REMARK    7  A    between atoms: C14_19  and  C15_20 
REMARK    8  A    between atoms: C15_20  and  C16_21 
REMARK    9  A    between atoms: C18_26  and  O2_27 
ROOT
HETATM    1  C10 UNL     1       1.011  -1.077  -0.080  1.00  0.00    -0.054 A 
HETATM    2  C11 UNL     1       0.311  -2.262  -0.123  1.00  0.00     0.024 A 
HETATM    3  C12 UNL     1      -0.807  -2.417   0.692  1.00  0.00     0.091 A 
HETATM    4  N3  UNL     1      -1.233  -1.443   1.528  1.00  0.00    -0.366 N 
HETATM    5  C20 UNL     1      -0.535  -0.299   1.550  1.00  0.00     0.091 A 
HETATM    6  C21 UNL     1       0.594  -0.082   0.758  1.00  0.00     0.024 A 
ENDROOT
BRANCH   1   7
HETATM    7  C9  UNL     1       2.204  -0.890  -0.939  1.00  0.00     0.058 C 
BRANCH   7   8
HETATM    8  C8  UNL     1       3.442  -1.359  -0.180  1.00  0.00     0.133 C 
BRANCH   8   9
HETATM    9  N2  UNL     1       4.639  -1.203  -0.963  1.00  0.00    -0.355 N 
HETATM   10  C7  UNL     1       5.066  -2.225  -1.724  1.00  0.00     0.094 A 
HETATM   11  C6  UNL     1       6.213  -2.086  -2.460  1.00  0.00     0.054 A 
HETATM   12  C5  UNL     1       6.920  -0.908  -2.418  1.00  0.00     0.079 A 
HETATM   13  C4  UNL     1       6.490   0.134  -1.646  1.00  0.00     0.027 A 
HETATM   14  C3  UNL     1       7.178   1.335  -1.587  1.00  0.00     0.034 A 
HETATM   15  C22 UNL     1       5.317  -0.033  -0.906  1.00  0.00     0.063 A 
HETATM   16  C2  UNL     1       6.655   2.323  -0.781  1.00  0.00     0.091 A 
HETATM   17  N1  UNL     1       5.522   2.136  -0.079  1.00  0.00    -0.368 N 
HETATM   18  C1  UNL     1       5.043   3.224   0.742  1.00  0.00     0.154 C 
HETATM   19  C23 UNL     1       4.826   0.978  -0.113  1.00  0.00     0.120 A 
BRANCH  12  20
HETATM   20  O1  UNL     1       8.091  -0.715  -3.145  1.00  0.00    -0.360 OA
ATOM     21  H1  UNL     1       8.390  -1.440  -3.682  1.00  0.00     0.217 HD
ENDBRANCH  12  20
ENDBRANCH   8   9
ENDBRANCH   7   8
ENDBRANCH   1   7
BRANCH   4  22
HETATM   22  C13 UNL     1      -2.371  -1.571   2.378  1.00  0.00     0.128 C 
BRANCH  22  23
HETATM   23  C14 UNL     1      -3.676  -1.147   1.801  1.00  0.00     0.027 C 
BRANCH  23  24
HETATM   24  C15 UNL     1      -3.708   0.307   1.384  1.00  0.00     0.080 C 
BRANCH  24  25
HETATM   25  C16 UNL     1      -5.047   0.656   0.821  1.00  0.00     0.101 A 
HETATM   26  N4  UNL     1      -6.145   1.121   1.442  1.00  0.00    -0.284 N 
HETATM   27  N5  UNL     1      -7.122   1.297   0.551  1.00  0.00    -0.259 N 
ATOM     28  H4  UNL     1      -6.220   1.310   2.442  1.00  0.00     0.188 HD
HETATM   29  C17 UNL     1      -8.449   1.780   0.823  1.00  0.00     0.181 C 
HETATM   30  C18 UNL     1      -6.619   0.932  -0.661  1.00  0.00     0.241 A 
HETATM   31  N6  UNL     1      -5.341   0.539  -0.484  1.00  0.00    -0.305 N 
HETATM   32  C19 UNL     1      -4.452   0.075  -1.523  1.00  0.00     0.161 C 
BRANCH  30  33
HETATM   33  O2  UNL     1      -7.351   0.980  -1.840  1.00  0.00    -0.331 OA
ATOM     34  H2  UNL     1      -7.000   0.725  -2.685  1.00  0.00     0.221 HD
ENDBRANCH  30  33
ENDBRANCH  24  25
ENDBRANCH  23  24
ENDBRANCH  22  23
ENDBRANCH   4  22
TORSDOF 9
