REMARK  8 active torsions:
REMARK  status: ('A' for Active; 'I' for Inactive)
REMARK    1  A    between atoms: N1_2  and  C2_3 
REMARK    2  A    between atoms: C2_3  and  C3_4 
REMARK    3  A    between atoms: C3_4  and  N2_5 
REMARK       I    between atoms: N2_5  and  C4_7 
REMARK       I    between atoms: C4_7  and  N3_9 
REMARK    4  A    between atoms: C7_12  and  C8_13 
REMARK    5  A    between atoms: C8_13  and  C9_14 
REMARK    6  A    between atoms: C9_14  and  N4_15 
REMARK    7  A    between atoms: N5_25  and  S1_26 
REMARK    8  A    between atoms: S1_26  and  N6_27 
ROOT
HETATM    1  N2  UNL     1      -1.649   0.026   2.018  1.00  0.00    -0.341 N 
ATOM      2  H2  UNL     1      -1.417  -0.963   1.924  1.00  0.00     0.164 HD
HETATM    3  C4  UNL     1      -0.621   0.980   1.817  1.00  0.00     0.326 C 
HETATM    4  O1  UNL     1      -0.871   2.227   1.931  1.00  0.00    -0.246 OA
HETATM    5  N3  UNL     1       0.721   0.628   1.485  1.00  0.00    -0.286 N 
HETATM    6  C5  UNL     1       1.150  -0.628   1.329  1.00  0.00     0.101 A 
HETATM    7  C6  UNL     1       2.469  -0.960   1.003  1.00  0.00     0.025 A 
HETATM    8  C7  UNL     1       3.402   0.035   0.827  1.00  0.00    -0.054 A 
HETATM    9  C15 UNL     1       2.953   1.328   0.989  1.00  0.00     0.025 A 
HETATM   10  C16 UNL     1       1.642   1.611   1.311  1.00  0.00     0.101 A 
ENDROOT
BRANCH   1  11
HETATM   11  C3  UNL     1      -3.007   0.382   2.349  1.00  0.00     0.152 C 
BRANCH  11  12
HETATM   12  C2  UNL     1      -3.725   1.205   1.350  1.00  0.00     0.258 C 
BRANCH  12  13
HETATM   13  N1  UNL     1      -3.923   0.687   0.057  1.00  0.00    -0.056 N 
HETATM   14  C1  UNL     1      -2.973   1.298  -0.856  1.00  0.00     0.274 C 
HETATM   15  C17 UNL     1      -3.856  -0.723  -0.109  1.00  0.00     0.254 C 
HETATM   16  C18 UNL     1      -5.239  -1.231  -0.408  1.00  0.00     0.139 C 
HETATM   17  N5  UNL     1      -6.068  -0.079  -0.447  1.00  0.00    -0.166 NA
HETATM   18  C19 UNL     1      -5.241   1.091  -0.438  1.00  0.00     0.345 C 
BRANCH  17  19
HETATM   19  S1  UNL     1      -7.190  -0.091  -1.754  1.00  0.00     0.298 S 
HETATM   20  O2  UNL     1      -6.513  -0.240  -3.077  1.00  0.00    -0.189 OA
HETATM   21  O3  UNL     1      -8.041   1.126  -1.772  1.00  0.00    -0.189 OA
BRANCH  19  22
HETATM   22  N6  UNL     1      -8.225  -1.468  -1.536  1.00  0.00    -0.316 N 
ATOM     23  H62 UNL     1      -8.167  -2.138  -0.769  1.00  0.00     0.170 HD
ATOM     24  H61 UNL     1      -8.889  -1.475  -2.310  1.00  0.00     0.170 HD
ENDBRANCH  19  22
ENDBRANCH  17  19
ENDBRANCH  12  13
ENDBRANCH  11  12
ENDBRANCH   1  11
BRANCH   8  25
HETATM   25  C8  UNL     1       4.818  -0.225   0.481  1.00  0.00     0.058 C 
BRANCH  25  26
HETATM   26  C9  UNL     1       4.944  -0.248  -1.037  1.00  0.00     0.132 C 
BRANCH  26  27
HETATM   27  N4  UNL     1       6.326  -0.501  -1.372  1.00  0.00    -0.366 N 
HETATM   28  C10 UNL     1       7.171   0.520  -1.527  1.00  0.00     0.090 A 
HETATM   29  C11 UNL     1       8.508   0.321  -1.850  1.00  0.00     0.017 A 
HETATM   30  C12 UNL     1       8.933  -0.963  -2.005  1.00  0.00     0.003 A 
HETATM   31  C13 UNL     1       8.047  -1.999  -1.841  1.00  0.00     0.017 A 
HETATM   32  C14 UNL     1       6.722  -1.777  -1.520  1.00  0.00     0.090 A 
ENDBRANCH  26  27
ENDBRANCH  25  26
ENDBRANCH   8  25
TORSDOF 8
