REMARK  8 active torsions:
REMARK  status: ('A' for Active; 'I' for Inactive)
REMARK    1  A    between atoms: N2_8  and  C7_9 
REMARK    2  A    between atoms: C7_9  and  C8_10 
REMARK    3  A    between atoms: C8_10  and  C9_11 
REMARK    4  A    between atoms: C9_11  and  N3_12 
REMARK    5  A    between atoms: C9_11  and  C10_16 
REMARK    6  A    between atoms: C9_11  and  C11_19 
REMARK    7  A    between atoms: C10_16  and  O1_17 
REMARK    8  A    between atoms: C11_19  and  N4_20 
ROOT
HETATM    1  C9  UNL     1      -0.104  -0.418   1.150  1.00  0.00     0.173 C 
ENDROOT
BRANCH   1   2
HETATM    2  C8  UNL     1      -1.525   0.120   0.719  1.00  0.00     0.064 C 
BRANCH   2   3
HETATM    3  C7  UNL     1      -2.361  -0.988   0.163  1.00  0.00     0.151 C 
BRANCH   3   4
HETATM    4  N2  UNL     1      -3.670  -0.428  -0.190  1.00  0.00    -0.295 N 
HETATM    5  C2  UNL     1      -3.824   0.108  -1.411  1.00  0.00     0.025 A 
HETATM    6  C1  UNL     1      -2.736   0.170  -2.440  1.00  0.00     0.070 C 
HETATM    7  C3  UNL     1      -5.074   0.637  -1.756  1.00  0.00     0.035 A 
HETATM    8  C4  UNL     1      -6.146   0.631  -0.897  1.00  0.00    -0.032 A 
HETATM    9  C5  UNL     1      -5.919   0.066   0.340  1.00  0.00     0.034 A 
HETATM   10  C23 UNL     1      -7.551   1.110  -0.988  1.00  0.00     0.041 C 
HETATM   11  N1  UNL     1      -4.703  -0.437   0.642  1.00  0.00    -0.298 N 
HETATM   12  C21 UNL     1      -7.179   0.147   1.123  1.00  0.00     0.059 C 
HETATM   13  C6  UNL     1      -4.551  -1.039   1.961  1.00  0.00     0.178 C 
HETATM   14  C22 UNL     1      -8.227   0.185   0.002  1.00  0.00     0.011 C 
ENDBRANCH   3   4
ENDBRANCH   2   3
ENDBRANCH   1   2
BRANCH   1  15
HETATM   15  N3  UNL     1      -0.397  -1.406   2.104  1.00  0.00    -0.067 N 
ATOM     16  H33 UNL     1      -0.978  -1.085   2.878  1.00  0.00     0.275 HD
ATOM     17  H32 UNL     1      -1.040  -2.128   1.779  1.00  0.00     0.275 HD
ATOM     18  H31 UNL     1       0.521  -1.753   2.382  1.00  0.00     0.275 HD
ENDBRANCH   1  15
BRANCH   1  19
HETATM   19  C10 UNL     1       0.426   0.808   1.896  1.00  0.00     0.204 C 
BRANCH  19  20
HETATM   20  O1  UNL     1       1.509   0.621   2.672  1.00  0.00    -0.398 OA
ATOM     21  H1  UNL     1       1.838   1.382   3.135  1.00  0.00     0.209 HD
ENDBRANCH  19  20
ENDBRANCH   1  19
BRANCH   1  22
HETATM   22  C11 UNL     1       0.603  -0.665  -0.071  1.00  0.00     0.321 C 
BRANCH  22  23
HETATM   23  N4  UNL     1       1.916  -1.196  -0.184  1.00  0.00     0.072 N 
HETATM   24  C12 UNL     1       1.703  -2.421  -1.047  1.00  0.00     0.320 C 
HETATM   25  C13 UNL     1       2.826  -0.378  -0.839  1.00  0.00     0.091 C 
HETATM   26  C14 UNL     1       3.955   0.370  -1.221  1.00  0.00     0.357 C 
HETATM   27  N5  UNL     1       5.106   0.096  -0.355  1.00  0.00    -0.031 N 
HETATM   28  C15 UNL     1       5.958  -0.839  -1.108  1.00  0.00     0.244 C 
HETATM   29  C18 UNL     1       5.902   1.300  -0.185  1.00  0.00     0.244 C 
HETATM   30  C19 UNL     1       4.886  -0.432   0.921  1.00  0.00     0.279 C 
HETATM   31  C16 UNL     1       6.978   0.021  -1.825  1.00  0.00     0.030 C 
HETATM   32  C17 UNL     1       7.253   1.066  -0.768  1.00  0.00     0.030 C 
HETATM   33  C20 UNL     1       3.930  -1.458   1.292  1.00  0.00     0.289 C 
HETATM   34  O2  UNL     1       4.363  -2.405   2.017  1.00  0.00    -0.265 OA
HETATM   35  N6  UNL     1       2.526  -1.654   1.010  1.00  0.00    -0.169 N 
ATOM     36  H6  UNL     1       1.952  -2.141   1.698  1.00  0.00     0.198 HD
ENDBRANCH  22  23
ENDBRANCH   1  22
TORSDOF 8
