REMARK  10 active torsions:
REMARK  status: ('A' for Active; 'I' for Inactive)
REMARK    1  A    between atoms: C2_2  and  C3_3 
REMARK    2  A    between atoms: N1_7  and  C7_8 
REMARK    3  A    between atoms: C7_8  and  C8_9 
REMARK    4  A    between atoms: C8_9  and  C9_10 
REMARK    5  A    between atoms: C9_10  and  N2_11 
REMARK    6  A    between atoms: C11_13  and  C12_14 
REMARK    7  A    between atoms: C12_14  and  N3_15 
REMARK    8  A    between atoms: C15_18  and  O1_19 
REMARK    9  A    between atoms: C23_31  and  N6_32 
REMARK   10  A    between atoms: N7_35  and  O2_36 
ROOT
HETATM    1  N2  UNL     1      -0.288   2.058  -1.199  1.00  0.00    -0.193 N 
HETATM    2  C10 UNL     1       0.749   1.403  -1.730  1.00  0.00     0.119 A 
HETATM    3  C11 UNL     1       2.070   1.731  -1.408  1.00  0.00    -0.008 A 
HETATM    4  C22 UNL     1       2.213   2.759  -0.521  1.00  0.00     0.116 A 
HETATM    5  N5  UNL     1       1.147   3.416   0.011  1.00  0.00    -0.201 N 
ATOM      6  H5  UNL     1       1.294   4.180   0.671  1.00  0.00     0.183 HD
HETATM    7  C23 UNL     1      -0.092   3.058  -0.334  1.00  0.00     0.677 A 
ENDROOT
BRANCH   3   8
HETATM    8  C12 UNL     1       3.199   0.999  -2.015  1.00  0.00     0.170 C 
BRANCH   8   9
HETATM    9  N3  UNL     1       3.556  -0.221  -1.351  1.00  0.00    -0.352 N 
HETATM   10  C13 UNL     1       2.842  -1.346  -1.676  1.00  0.00     0.094 A 
HETATM   11  C14 UNL     1       3.096  -2.547  -1.055  1.00  0.00     0.054 A 
HETATM   12  C15 UNL     1       4.065  -2.671  -0.095  1.00  0.00     0.080 A 
HETATM   13  C16 UNL     1       4.796  -1.543   0.243  1.00  0.00     0.040 A 
HETATM   14  C17 UNL     1       5.801  -1.626   1.208  1.00  0.00     0.106 A 
HETATM   15  C21 UNL     1       4.500  -0.369  -0.410  1.00  0.00     0.050 A 
HETATM   16  N4  UNL     1       6.527  -0.552   1.541  1.00  0.00    -0.370 N 
HETATM   17  C18 UNL     1       7.588  -0.633   2.558  1.00  0.00     0.154 C 
HETATM   18  C19 UNL     1       6.258   0.605   0.917  1.00  0.00     0.092 A 
HETATM   19  C20 UNL     1       5.262   0.730  -0.053  1.00  0.00     0.048 A 
BRANCH  12  20
HETATM   20  O1  UNL     1       4.346  -3.869   0.551  1.00  0.00    -0.360 OA
ATOM     21  H1  UNL     1       5.018  -3.955   1.217  1.00  0.00     0.217 HD
ENDBRANCH  12  20
ENDBRANCH   8   9
ENDBRANCH   3   8
BRANCH   1  22
HETATM   22  C9  UNL     1      -1.627   1.684  -1.561  1.00  0.00     0.148 C 
BRANCH  22  23
HETATM   23  C8  UNL     1      -2.213   0.624  -0.657  1.00  0.00     0.043 C 
BRANCH  23  24
HETATM   24  C7  UNL     1      -3.628   0.351  -1.184  1.00  0.00     0.152 C 
BRANCH  24  25
HETATM   25  N1  UNL     1      -4.298  -0.654  -0.395  1.00  0.00    -0.277 N 
HETATM   26  C6  UNL     1      -4.184  -1.948  -0.734  1.00  0.00     0.112 A 
HETATM   27  C5  UNL     1      -4.825  -2.942   0.015  1.00  0.00     0.021 A 
HETATM   28  C4  UNL     1      -5.576  -2.570   1.110  1.00  0.00     0.030 A 
HETATM   29  C3  UNL     1      -5.660  -1.238   1.413  1.00  0.00     0.059 A 
HETATM   30  N7  UNL     1      -5.012  -0.336   0.641  1.00  0.00    -0.166 N 
BRANCH  29  31
HETATM   31  C2  UNL     1      -6.451  -0.770   2.578  1.00  0.00     0.057 C 
HETATM   32  C1  UNL     1      -7.857  -0.509   2.094  1.00  0.00     0.011 C 
ENDBRANCH  29  31
BRANCH  30  33
HETATM   33  O2  UNL     1      -5.131   0.986   0.991  1.00  0.00    -0.268 OA
ATOM     34  H2  UNL     1      -4.676   1.620   0.449  1.00  0.00     0.247 HD
ENDBRANCH  30  33
ENDBRANCH  24  25
ENDBRANCH  23  24
ENDBRANCH  22  23
ENDBRANCH   1  22
BRANCH   7  35
HETATM   35  N6  UNL     1      -1.104   3.707   0.193  1.00  0.00    -0.234 N 
ATOM     36  H62 UNL     1      -2.051   3.433  -0.071  1.00  0.00     0.174 HD
ATOM     37  H61 UNL     1      -0.954   4.470   0.853  1.00  0.00     0.174 HD
ENDBRANCH   7  35
TORSDOF 10
