REMARK  4 active torsions:
REMARK  status: ('A' for Active; 'I' for Inactive)
REMARK    1  A    between atoms: C4_4  and  C5_5 
REMARK    2  A    between atoms: C7_7  and  C8_8 
REMARK    3  A    between atoms: C13_13  and  C14_14 
REMARK    4  A    between atoms: C14_14  and  C15_16 
REMARK       I    between atoms: C15_16  and  N2_18 
ROOT
HETATM    1  C8  UNL     1       0.399  -1.592   0.141  1.00  0.00    -0.032 C 
HETATM    2  C9  UNL     1      -0.220  -2.482  -0.920  1.00  0.00     0.016 C 
HETATM    3  C10 UNL     1       1.035  -2.690   1.078  1.00  0.00     0.010 C 
HETATM    4  C11 UNL     1       0.198  -2.833   2.270  1.00  0.00     0.002 C 
HETATM    5  C12 UNL     1      -1.111  -2.180   1.859  1.00  0.00     0.011 C 
HETATM    6  C13 UNL     1      -0.505  -0.986   1.100  1.00  0.00     0.047 C 
ENDROOT
BRANCH   6   7
HETATM    7  C14 UNL     1      -1.519   0.011   0.893  1.00  0.00     0.096 C 
HETATM    8  N1  UNL     1      -1.136   1.310   0.401  1.00  0.00    -0.101 NA
BRANCH   7   9
HETATM    9  C15 UNL     1      -2.780  -0.336   0.207  1.00  0.00     0.264 C 
HETATM   10  O1  UNL     1      -3.056  -1.571  -0.044  1.00  0.00    -0.267 OA
HETATM   11  N2  UNL     1      -3.780   0.546  -0.231  1.00  0.00    -0.343 N 
HETATM   12  C16 UNL     1      -3.726   1.962  -0.019  1.00  0.00     0.152 C 
HETATM   13  C19 UNL     1      -4.943   0.048  -0.935  1.00  0.00     0.152 C 
HETATM   14  C17 UNL     1      -5.156   2.556  -0.156  1.00  0.00     0.187 C 
HETATM   15  O2  UNL     1      -5.589   2.334  -1.449  1.00  0.00    -0.388 OA
HETATM   16  C18 UNL     1      -5.514   1.045  -1.892  1.00  0.00     0.187 C 
ENDBRANCH   7   9
ENDBRANCH   6   7
BRANCH   1  17
HETATM   17  C7  UNL     1       1.599  -0.875  -0.361  1.00  0.00    -0.004 C 
HETATM   18  C6  UNL     1       2.297   0.123   0.513  1.00  0.00     0.014 C 
HETATM   19  C5  UNL     1       2.494   1.051  -0.607  1.00  0.00     0.009 C 
HETATM   20  C20 UNL     1       1.623   0.081  -1.454  1.00  0.00     0.014 C 
BRANCH  19  21
HETATM   21  C4  UNL     1       3.771   1.366  -1.211  1.00  0.00    -0.020 C 
HETATM   22  C2  UNL     1       5.005   1.264  -0.893  1.00  0.00    -0.091 C 
HETATM   23  C1  UNL     1       6.052   1.740  -1.878  1.00  0.00     0.042 C 
HETATM   24  C3  UNL     1       5.520   0.735   0.371  1.00  0.00     0.042 C 
ENDBRANCH  19  21
ENDBRANCH   1  17
TORSDOF 4
