REMARK  5 active torsions:
REMARK  status: ('A' for Active; 'I' for Inactive)
REMARK       I    between atoms: C1_2  and  N1_3 
REMARK    1  A    between atoms: C1_2  and  O2_9 
REMARK    2  A    between atoms: N1_3  and  C2_5 
REMARK    3  A    between atoms: C2_5  and  C3_6 
REMARK    4  A    between atoms: O2_9  and  C6_10 
REMARK    5  A    between atoms: C15_19  and  C16_20 
REMARK       I    between atoms: C16_20  and  N2_22 
ROOT
HETATM    1  C6  UNL     1       1.057   0.403   0.014  1.00  0.00     0.142 C 
HETATM    2  C7  UNL     1       0.137  -0.137  -1.064  1.00  0.00     0.016 C 
HETATM    3  C8  UNL     1      -0.331  -1.532  -0.727  1.00  0.00     0.012 C 
HETATM    4  C9  UNL     1      -1.113  -1.508   0.538  1.00  0.00    -0.000 C 
HETATM    5  C10 UNL     1      -0.154  -1.076   1.648  1.00  0.00     0.012 C 
HETATM    6  C11 UNL     1       0.356   0.303   1.354  1.00  0.00     0.016 C 
HETATM    7  C12 UNL     1      -0.804   1.276   1.313  1.00  0.00     0.012 C 
HETATM    8  C13 UNL     1      -1.745   0.859   0.199  1.00  0.00    -0.000 C 
HETATM    9  C14 UNL     1      -1.048   0.799  -1.144  1.00  0.00     0.012 C 
HETATM   10  C15 UNL     1      -2.261  -0.530   0.562  1.00  0.00     0.086 C 
ENDROOT
BRANCH   1  11
HETATM   11  O2  UNL     1       2.313  -0.199   0.014  1.00  0.00    -0.298 OA
BRANCH  11  12
HETATM   12  C1  UNL     1       3.469   0.534  -0.222  1.00  0.00     0.360 C 
HETATM   13  O1  UNL     1       3.300   1.767  -0.434  1.00  0.00    -0.239 OA
HETATM   14  N1  UNL     1       4.763  -0.040  -0.231  1.00  0.00    -0.337 N 
ATOM     15  H1  UNL     1       4.892  -1.037  -0.060  1.00  0.00     0.164 HD
BRANCH  14  16
HETATM   16  C2  UNL     1       5.894   0.815  -0.487  1.00  0.00     0.129 C 
BRANCH  16  17
HETATM   17  C3  UNL     1       7.200   0.079  -0.467  1.00  0.00     0.003 A 
HETATM   18  C4  UNL     1       7.652  -0.641   0.752  1.00  0.00     0.007 A 
HETATM   19  C5  UNL     1       8.344   0.613   0.383  1.00  0.00     0.007 A 
ENDBRANCH  16  17
ENDBRANCH  14  16
ENDBRANCH  11  12
ENDBRANCH   1  11
BRANCH  10  20
HETATM   20  C16 UNL     1      -3.381  -0.961  -0.298  1.00  0.00     0.224 C 
HETATM   21  O3  UNL     1      -3.201  -1.960  -1.077  1.00  0.00    -0.273 OA
HETATM   22  N2  UNL     1      -4.649  -0.349  -0.330  1.00  0.00    -0.352 N 
HETATM   23  C17 UNL     1      -5.773  -0.706  -1.170  1.00  0.00     0.126 C 
HETATM   24  C20 UNL     1      -5.099   0.760   0.480  1.00  0.00     0.126 C 
HETATM   25  C18 UNL     1      -7.014  -0.280  -0.411  1.00  0.00     0.021 C 
HETATM   26  C19 UNL     1      -6.500   0.283   0.897  1.00  0.00     0.021 C 
ENDBRANCH  10  20
TORSDOF 5
