REMARK  5 active torsions:
REMARK  status: ('A' for Active; 'I' for Inactive)
REMARK    1  A    between atoms: C1_2  and  O2_3 
REMARK    2  A    between atoms: C1_2  and  C13_15 
REMARK    3  A    between atoms: O2_3  and  C2_4 
REMARK    4  A    between atoms: C2_4  and  C3_5 
REMARK    5  A    between atoms: C19_22  and  C20_23 
ROOT
HETATM    1  O1  UNL     1       1.113  -1.076   0.336  1.00  0.00    -0.265 OA
HETATM    2  C1  UNL     1       1.274   0.148   0.175  1.00  0.00     0.266 C 
ENDROOT
BRANCH   2   3
HETATM    3  O2  UNL     1       0.371   0.842  -0.546  1.00  0.00    -0.320 OA
BRANCH   3   4
HETATM    4  C2  UNL     1      -0.765   0.494  -1.171  1.00  0.00     0.188 C 
BRANCH   4   5
HETATM    5  C3  UNL     1      -1.996   0.071  -0.461  1.00  0.00    -0.017 C 
HETATM    6  C4  UNL     1      -2.991  -0.207  -1.614  1.00  0.00     0.016 C 
HETATM    7  C5  UNL     1      -4.342  -0.593  -1.142  1.00  0.00    -0.013 C 
HETATM    8  C6  UNL     1      -4.938   0.540  -0.362  1.00  0.00     0.009 C 
HETATM    9  C10 UNL     1      -4.195  -1.861  -0.329  1.00  0.00     0.009 C 
HETATM   10  C7  UNL     1      -3.996   0.834   0.779  1.00  0.00    -0.013 C 
HETATM   11  C8  UNL     1      -3.996  -0.410   1.666  1.00  0.00     0.009 C 
HETATM   12  C12 UNL     1      -2.626   1.209   0.327  1.00  0.00     0.016 C 
HETATM   13  C9  UNL     1      -3.353  -1.505   0.865  1.00  0.00    -0.013 C 
HETATM   14  C11 UNL     1      -1.949  -1.113   0.416  1.00  0.00     0.016 C 
ENDBRANCH   4   5
ENDBRANCH   3   4
ENDBRANCH   2   3
BRANCH   2  15
HETATM   15  C13 UNL     1       2.432   0.893   0.748  1.00  0.00     0.134 C 
HETATM   16  C14 UNL     1       3.226   1.501  -0.421  1.00  0.00     0.005 C 
HETATM   17  C15 UNL     1       3.452   0.362  -1.383  1.00  0.00     0.036 C 
HETATM   18  C18 UNL     1       4.554   1.940   0.134  1.00  0.00     0.036 C 
HETATM   19  C16 UNL     1       4.188  -0.723  -0.633  1.00  0.00     0.274 C 
HETATM   20  N1  UNL     1       4.532  -0.372   0.716  1.00  0.00     0.104 N 
HETATM   21  C17 UNL     1       5.417   0.800   0.600  1.00  0.00     0.274 C 
HETATM   22  C19 UNL     1       3.397   0.072   1.515  1.00  0.00     0.336 C 
BRANCH  22  23
HETATM   23  C20 UNL     1       2.858  -1.056   2.275  1.00  0.00     0.208 C 
HETATM   24  O3  UNL     1       1.901  -0.962   3.088  1.00  0.00    -0.646 OA
HETATM   25  O4  UNL     1       3.396  -2.351   2.139  1.00  0.00    -0.646 OA
ENDBRANCH  22  23
ENDBRANCH   2  15
TORSDOF 5
