REMARK  4 active torsions:
REMARK  status: ('A' for Active; 'I' for Inactive)
REMARK    1  A    between atoms: N2_8  and  C6_9 
REMARK    2  A    between atoms: C6_9  and  C7_10 
REMARK    3  A    between atoms: C7_10  and  C8_11 
REMARK    4  A    between atoms: C8_11  and  N3_12 
ROOT
HETATM    1  C1  UNL     1      -2.419  -3.553   2.757  1.00  0.00     0.068 C 
HETATM    2  C2  UNL     1      -2.446  -2.297   1.952  1.00  0.00     0.007 A 
HETATM    3  C3  UNL     1      -3.476  -1.914   1.119  1.00  0.00     0.036 A 
HETATM    4  C4  UNL     1      -3.137  -0.713   0.553  1.00  0.00    -0.004 A 
HETATM    5  C5  UNL     1      -1.891  -0.347   1.034  1.00  0.00     0.111 A 
HETATM    6  N1  UNL     1      -1.520  -1.331   1.870  1.00  0.00    -0.346 N 
ATOM      7  H1  UNL     1      -0.638  -1.342   2.382  1.00  0.00     0.167 HD
HETATM    8  N2  UNL     1      -1.289   0.870   0.593  1.00  0.00    -0.358 N 
HETATM    9  C14 UNL     1      -1.658   1.254  -0.757  1.00  0.00     0.028 C 
HETATM   10  C15 UNL     1      -1.126   2.575  -1.191  1.00  0.00     0.038 C 
HETATM   11  C16 UNL     1      -1.127   0.199  -1.709  1.00  0.00     0.038 C 
HETATM   12  C17 UNL     1      -3.156   1.288  -0.941  1.00  0.00     0.044 C 
HETATM   13  C18 UNL     1      -3.902   0.129  -0.395  1.00  0.00    -0.015 C 
HETATM   14  C19 UNL     1      -5.058   0.718   0.437  1.00  0.00     0.020 C 
HETATM   15  C20 UNL     1      -4.570  -0.687  -1.482  1.00  0.00     0.020 C 
ENDROOT
BRANCH   8  16
HETATM   16  C6  UNL     1      -0.417   1.596   1.454  1.00  0.00     0.127 C 
BRANCH  16  17
HETATM   17  C7  UNL     1       1.031   1.632   1.042  1.00  0.00     0.050 C 
BRANCH  17  18
HETATM   18  C8  UNL     1       1.672   0.292   1.004  1.00  0.00     0.274 C 
BRANCH  18  19
HETATM   19  N3  UNL     1       3.080   0.320   0.597  1.00  0.00     0.091 N 
HETATM   20  C9  UNL     1       3.578  -1.052   0.762  1.00  0.00     0.302 C 
HETATM   21  C10 UNL     1       4.900  -1.230   0.094  1.00  0.00     0.302 C 
HETATM   22  N4  UNL     1       5.509   0.048  -0.206  1.00  0.00     0.087 N 
HETATM   23  C11 UNL     1       6.814  -0.261  -0.794  1.00  0.00     0.310 C 
HETATM   24  C12 UNL     1       4.699   0.823  -1.099  1.00  0.00     0.302 C 
HETATM   25  C13 UNL     1       3.230   0.721  -0.792  1.00  0.00     0.302 C 
ENDBRANCH  18  19
ENDBRANCH  17  18
ENDBRANCH  16  17
ENDBRANCH   8  16
TORSDOF 4
