REMARK  12 active torsions:
REMARK  status: ('A' for Active; 'I' for Inactive)
REMARK    1  A    between atoms: C2_2  and  C3_3 
REMARK    2  A    between atoms: C3_3  and  C5_5 
REMARK    3  A    between atoms: C7_10  and  C8_11 
REMARK    4  A    between atoms: C12_16  and  O2_17 
REMARK    5  A    between atoms: C13_19  and  C14_20 
REMARK    6  A    between atoms: C14_20  and  C16_22 
REMARK    7  A    between atoms: C19_28  and  N4_29 
REMARK    8  A    between atoms: N4_29  and  C20_30 
REMARK       I    between atoms: N4_29  and  C22_32 
REMARK    9  A    between atoms: C25_37  and  C26_38 
REMARK   10  A    between atoms: C26_38  and  C27_39 
REMARK   11  A    between atoms: C27_39  and  C28_40 
REMARK   12  A    between atoms: C28_40  and  N5_41 
ROOT
HETATM    1  C5  UNL     1      -0.730  -2.592  -0.422  1.00  0.00     0.180 C 
HETATM    2  N1  UNL     1      -1.764  -3.123   0.419  1.00  0.00    -0.342 N 
ATOM      3  H1  UNL     1      -2.108  -4.038   0.127  1.00  0.00     0.163 HD
HETATM    4  C6  UNL     1      -2.384  -2.623   1.557  1.00  0.00     0.265 C 
HETATM    5  O1  UNL     1      -2.477  -3.406   2.542  1.00  0.00    -0.266 OA
HETATM    6  C7  UNL     1      -2.971  -1.262   1.785  1.00  0.00     0.084 C 
HETATM    7  N2  UNL     1      -3.223  -0.523   0.616  1.00  0.00    -0.333 N 
HETATM    8  C11 UNL     1      -4.045  -1.333  -0.368  1.00  0.00     0.158 C 
HETATM    9  C12 UNL     1      -2.920   0.748   0.133  1.00  0.00     0.141 C 
HETATM   10  C13 UNL     1      -2.695   2.058   0.728  1.00  0.00     0.163 C 
HETATM   11  N3  UNL     1      -1.467   2.265   1.445  1.00  0.00    -0.347 N 
ATOM     12  H3  UNL     1      -1.593   2.445   2.441  1.00  0.00     0.163 HD
HETATM   13  C18 UNL     1      -0.149   2.266   1.036  1.00  0.00     0.248 C 
HETATM   14  O3  UNL     1       0.645   2.974   1.773  1.00  0.00    -0.271 OA
HETATM   15  C19 UNL     1       0.522   1.610  -0.080  1.00  0.00     0.251 C 
HETATM   16  C24 UNL     1       1.678   0.782   0.463  1.00  0.00     0.181 C 
HETATM   17  O5  UNL     1       2.258   1.266   1.410  1.00  0.00    -0.293 OA
HETATM   18  C25 UNL     1       2.044  -0.541  -0.161  1.00  0.00     0.157 C 
HETATM   19  N8  UNL     1       1.487  -1.661   0.558  1.00  0.00    -0.348 N 
ATOM     20  H8  UNL     1       1.750  -1.718   1.542  1.00  0.00     0.163 HD
HETATM   21  C30 UNL     1       0.641  -2.681   0.109  1.00  0.00     0.241 C 
HETATM   22  O6  UNL     1       1.120  -3.872   0.166  1.00  0.00    -0.271 OA
ENDROOT
BRANCH  18  23
HETATM   23  C26 UNL     1       3.560  -0.691   0.072  1.00  0.00     0.034 C 
BRANCH  23  24
HETATM   24  C27 UNL     1       4.360   0.401  -0.549  1.00  0.00     0.022 C 
BRANCH  24  25
HETATM   25  C28 UNL     1       5.842   0.130  -0.249  1.00  0.00     0.122 C 
BRANCH  25  26
HETATM   26  N5  UNL     1       6.238  -1.138  -0.797  1.00  0.00    -0.367 N 
HETATM   27  C29 UNL     1       7.010  -1.973  -0.203  1.00  0.00     0.196 C 
HETATM   28  N6  UNL     1       7.327  -3.196  -0.855  1.00  0.00    -0.067 NA
HETATM   29  N7  UNL     1       7.565  -1.728   1.082  1.00  0.00    -0.067 NA
ATOM     30  H5  UNL     1       5.882  -1.391  -1.719  1.00  0.00     0.161 HD
ENDBRANCH  25  26
ENDBRANCH  24  25
ENDBRANCH  23  24
ENDBRANCH  18  23
BRANCH  15  31
HETATM   31  N4  UNL     1       1.057   2.439  -1.109  1.00  0.00    -0.333 N 
HETATM   32  C22 UNL     1       0.828   2.201  -2.479  1.00  0.00     0.216 C 
HETATM   33  C23 UNL     1       1.353   3.022  -3.582  1.00  0.00     0.117 C 
HETATM   34  O4  UNL     1       0.120   1.213  -2.798  1.00  0.00    -0.274 OA
BRANCH  31  35
HETATM   35  C20 UNL     1       1.871   3.563  -0.746  1.00  0.00     0.122 C 
HETATM   36  C21 UNL     1       1.096   4.848  -0.587  1.00  0.00     0.026 C 
ENDBRANCH  31  35
ENDBRANCH  15  31
BRANCH   1  37
HETATM   37  C3  UNL     1      -0.723  -3.307  -1.774  1.00  0.00     0.013 C 
HETATM   38  C4  UNL     1      -0.583  -4.785  -1.679  1.00  0.00     0.012 C 
BRANCH  37  39
HETATM   39  C2  UNL     1       0.345  -2.777  -2.700  1.00  0.00     0.002 C 
HETATM   40  C1  UNL     1       0.242  -3.346  -4.073  1.00  0.00     0.005 C 
ENDBRANCH  37  39
ENDBRANCH   1  37
BRANCH  10  41
HETATM   41  C14 UNL     1      -3.899   2.609   1.473  1.00  0.00     0.012 C 
HETATM   42  C15 UNL     1      -3.649   3.943   2.081  1.00  0.00     0.012 C 
BRANCH  41  43
HETATM   43  C16 UNL     1      -5.108   2.742   0.578  1.00  0.00     0.002 C 
HETATM   44  C17 UNL     1      -4.858   3.674  -0.579  1.00  0.00     0.005 C 
ENDBRANCH  41  43
ENDBRANCH  10  41
BRANCH   9  45
HETATM   45  O2  UNL     1      -2.816   0.769  -1.170  1.00  0.00    -0.348 OA
ATOM     46  H2  UNL     1      -2.609   1.636  -1.499  1.00  0.00     0.219 HD
ENDBRANCH   9  45
BRANCH   6  47
HETATM   47  C8  UNL     1      -2.548  -0.736   3.074  1.00  0.00     0.033 C 
HETATM   48  C9  UNL     1      -3.047  -1.573   4.273  1.00  0.00     0.016 C 
HETATM   49  C10 UNL     1      -1.013  -0.883   3.296  1.00  0.00     0.016 C 
ENDBRANCH   6  47
TORSDOF 12
