REMARK  12 active torsions:
REMARK  status: ('A' for Active; 'I' for Inactive)
REMARK    1  A    between atoms: C2_2  and  C3_3 
REMARK    2  A    between atoms: C3_3  and  C4_4 
REMARK    3  A    between atoms: C4_4  and  C5_5 
REMARK    4  A    between atoms: C5_5  and  C6_6 
REMARK    5  A    between atoms: C6_6  and  C7_7 
REMARK    6  A    between atoms: C11_18  and  C12_19 
REMARK    7  A    between atoms: C12_19  and  C13_20 
REMARK    8  A    between atoms: C17_27  and  C18_28 
REMARK    9  A    between atoms: C18_28  and  C19_29 
REMARK   10  A    between atoms: C19_29  and  C21_31 
REMARK   11  A    between atoms: C24_35  and  O4_36 
REMARK   12  A    between atoms: C27_43  and  C28_44 
ROOT
HETATM    1  C7  UNL     1       1.977  -0.614  -0.088  1.00  0.00     0.207 C 
HETATM    2  N1  UNL     1       1.134  -0.910  -1.261  1.00  0.00    -0.112 NA
HETATM    3  N2  UNL     1       0.884  -2.278  -1.384  1.00  0.00    -0.271 N 
ATOM      4  H2  UNL     1       1.694  -2.877  -1.543  1.00  0.00     0.185 HD
HETATM    5  C8  UNL     1      -0.357  -2.912  -1.312  1.00  0.00     0.250 C 
HETATM    6  O1  UNL     1      -0.426  -4.001  -0.643  1.00  0.00    -0.270 OA
HETATM    7  C9  UNL     1      -1.627  -2.435  -1.950  1.00  0.00     0.226 C 
HETATM    8  N3  UNL     1      -2.760  -3.143  -1.392  1.00  0.00    -0.350 N 
ATOM      9  H3  UNL     1      -3.098  -3.930  -1.946  1.00  0.00     0.163 HD
HETATM   10  C10 UNL     1      -3.452  -2.908  -0.215  1.00  0.00     0.240 C 
HETATM   11  O2  UNL     1      -3.486  -3.902   0.622  1.00  0.00    -0.271 OA
HETATM   12  C11 UNL     1      -4.164  -1.732   0.279  1.00  0.00     0.177 C 
HETATM   13  N4  UNL     1      -3.717  -1.243   1.552  1.00  0.00    -0.342 N 
ATOM     14  H4  UNL     1      -3.855  -1.935   2.289  1.00  0.00     0.163 HD
HETATM   15  C16 UNL     1      -3.145  -0.076   2.048  1.00  0.00     0.268 C 
HETATM   16  O3  UNL     1      -3.747   0.389   3.102  1.00  0.00    -0.266 OA
HETATM   17  C17 UNL     1      -1.971   0.697   1.572  1.00  0.00     0.101 C 
HETATM   18  N5  UNL     1      -0.726   0.085   2.054  1.00  0.00    -0.326 N 
HETATM   19  C23 UNL     1      -0.916  -1.323   2.464  1.00  0.00     0.159 C 
HETATM   20  C24 UNL     1       0.554   0.586   2.236  1.00  0.00     0.176 C 
HETATM   21  C25 UNL     1       1.491   1.359   1.394  1.00  0.00     0.158 C 
HETATM   22  C26 UNL     1       1.197   2.816   1.347  1.00  0.00     0.273 C 
HETATM   23  O5  UNL     1       0.419   3.268   2.216  1.00  0.00    -0.266 OA
HETATM   24  N6  UNL     1       1.756   3.672   0.383  1.00  0.00    -0.342 N 
ATOM     25  H6  UNL     1       1.770   4.681   0.533  1.00  0.00     0.163 HD
HETATM   26  C27 UNL     1       2.307   3.108  -0.815  1.00  0.00     0.180 C 
HETATM   27  C31 UNL     1       2.125   1.661  -0.949  1.00  0.00     0.249 C 
HETATM   28  O6  UNL     1       2.217   1.197  -2.138  1.00  0.00    -0.271 OA
HETATM   29  N7  UNL     1       1.863   0.783   0.140  1.00  0.00    -0.287 N 
ENDROOT
BRANCH   1  30
HETATM   30  C6  UNL     1       3.410  -1.009  -0.383  1.00  0.00     0.045 C 
BRANCH  30  31
HETATM   31  C5  UNL     1       4.344  -0.740   0.773  1.00  0.00     0.003 C 
BRANCH  31  32
HETATM   32  C4  UNL     1       5.717  -1.207   0.329  1.00  0.00     0.000 C 
BRANCH  32  33
HETATM   33  C3  UNL     1       6.645  -0.925   1.505  1.00  0.00    -0.000 C 
BRANCH  33  34
HETATM   34  C2  UNL     1       8.051  -1.368   1.152  1.00  0.00    -0.005 C 
HETATM   35  C1  UNL     1       7.988  -2.860   0.865  1.00  0.00     0.005 C 
ENDBRANCH  33  34
ENDBRANCH  32  33
ENDBRANCH  31  32
ENDBRANCH  30  31
ENDBRANCH   1  30
BRANCH  20  36
HETATM   36  O4  UNL     1       1.114   0.347   3.417  1.00  0.00    -0.344 OA
ATOM     37  H4  UNL     1       1.991   0.690   3.542  1.00  0.00     0.219 HD
ENDBRANCH  20  36
BRANCH  26  38
HETATM   38  C28 UNL     1       3.746   3.544  -0.934  1.00  0.00     0.009 C 
HETATM   39  C29 UNL     1       4.414   2.991  -2.176  1.00  0.00     0.012 C 
HETATM   40  C30 UNL     1       3.840   5.053  -1.018  1.00  0.00     0.012 C 
ENDBRANCH  26  38
BRANCH  17  41
HETATM   41  C18 UNL     1      -2.000   1.247   0.232  1.00  0.00     0.013 C 
BRANCH  41  42
HETATM   42  C19 UNL     1      -2.835   2.264  -0.345  1.00  0.00     0.006 C 
HETATM   43  C20 UNL     1      -2.701   3.640   0.369  1.00  0.00     0.014 C 
BRANCH  42  44
HETATM   44  C21 UNL     1      -4.275   2.171  -0.665  1.00  0.00     0.003 C 
HETATM   45  C22 UNL     1      -5.253   1.982   0.440  1.00  0.00     0.006 C 
ENDBRANCH  42  44
ENDBRANCH  41  42
ENDBRANCH  17  41
BRANCH  12  46
HETATM   46  C12 UNL     1      -5.646  -2.125   0.364  1.00  0.00     0.038 C 
BRANCH  46  47
HETATM   47  C13 UNL     1      -6.334  -2.508  -0.859  1.00  0.00    -0.020 C 
HETATM   48  C14 UNL     1      -6.339  -1.467  -1.957  1.00  0.00     0.009 C 
HETATM   49  C15 UNL     1      -6.152  -3.897  -1.359  1.00  0.00     0.009 C 
ENDBRANCH  46  47
ENDBRANCH  12  46
TORSDOF 12
