REMARK  6 active torsions:
REMARK  status: ('A' for Active; 'I' for Inactive)
REMARK    1  A    between atoms: C3_3  and  N1_4 
REMARK       I    between atoms: N1_4  and  C4_6 
REMARK    2  A    between atoms: C4_6  and  C5_8 
REMARK    3  A    between atoms: C12_15  and  C13_16 
REMARK       I    between atoms: C13_16  and  N2_18 
REMARK    4  A    between atoms: N2_18  and  C14_20 
REMARK    5  A    between atoms: C14_20  and  C15_21 
REMARK    6  A    between atoms: C15_21  and  N3_22 
ROOT
HETATM    1  C1  UNL     1       4.728   2.125  -2.334  1.00  0.00     0.015 C 
HETATM    2  C2  UNL     1       4.610   1.811  -1.183  1.00  0.00    -0.086 C 
HETATM    3  C3  UNL     1       4.484   1.411   0.239  1.00  0.00     0.095 C 
HETATM    4  C21 UNL     1       5.628   0.536   0.629  1.00  0.00     0.044 C 
HETATM    5  C22 UNL     1       6.122   1.149   1.921  1.00  0.00     0.004 C 
HETATM    6  C23 UNL     1       5.927   2.628   1.660  1.00  0.00     0.004 C 
HETATM    7  C24 UNL     1       4.485   2.620   1.133  1.00  0.00     0.044 C 
ENDROOT
BRANCH   3   8
HETATM    8  N1  UNL     1       3.253   0.660   0.385  1.00  0.00    -0.341 N 
HETATM    9  C4  UNL     1       3.009  -0.530  -0.320  1.00  0.00     0.224 C 
HETATM   10  O1  UNL     1       3.899  -0.948  -1.104  1.00  0.00    -0.273 OA
ATOM     11  H1  UNL     1       2.538   1.008   1.023  1.00  0.00     0.164 HD
BRANCH   9  12
HETATM   12  C5  UNL     1       1.749  -1.301  -0.170  1.00  0.00     0.095 C 
HETATM   13  C6  UNL     1       1.785  -2.528  -1.064  1.00  0.00    -0.001 C 
HETATM   14  C7  UNL     1       1.543  -2.114  -2.486  1.00  0.00     0.006 C 
HETATM   15  C11 UNL     1       0.673  -3.464  -0.649  1.00  0.00     0.006 C 
HETATM   16  C8  UNL     1       0.097  -1.651  -2.683  1.00  0.00     0.006 C 
HETATM   17  C9  UNL     1      -0.448  -1.376  -1.302  1.00  0.00    -0.001 C 
HETATM   18  C10 UNL     1      -0.636  -2.727  -0.628  1.00  0.00     0.006 C 
HETATM   19  C12 UNL     1       0.519  -0.516  -0.480  1.00  0.00     0.095 C 
BRANCH  19  20
HETATM   20  C13 UNL     1      -0.235  -0.134   0.747  1.00  0.00     0.223 C 
HETATM   21  O2  UNL     1       0.190  -0.480   1.881  1.00  0.00    -0.273 OA
HETATM   22  N2  UNL     1      -1.438   0.618   0.701  1.00  0.00    -0.359 N 
ATOM     23  H2  UNL     1      -1.788   0.901  -0.214  1.00  0.00     0.162 HD
BRANCH  22  24
HETATM   24  C14 UNL     1      -2.189   1.004   1.851  1.00  0.00     0.152 C 
BRANCH  24  25
HETATM   25  C15 UNL     1      -3.401   1.789   1.415  1.00  0.00     0.292 C 
BRANCH  25  26
HETATM   26  N3  UNL     1      -4.226   0.952   0.544  1.00  0.00     0.090 N 
HETATM   27  C16 UNL     1      -5.402   1.677   0.103  1.00  0.00     0.272 C 
HETATM   28  C17 UNL     1      -5.997   0.896  -1.049  1.00  0.00     0.030 C 
HETATM   29  C18 UNL     1      -6.300  -0.534  -0.634  1.00  0.00     0.003 C 
HETATM   30  C19 UNL     1      -5.961  -0.775   0.809  1.00  0.00     0.030 C 
HETATM   31  C20 UNL     1      -4.581  -0.300   1.185  1.00  0.00     0.272 C 
ENDBRANCH  25  26
ENDBRANCH  24  25
ENDBRANCH  22  24
ENDBRANCH  19  20
ENDBRANCH   9  12
ENDBRANCH   3   8
TORSDOF 6
