REMARK  6 active torsions:
REMARK  status: ('A' for Active; 'I' for Inactive)
REMARK    1  A    between atoms: C2_2  and  C3_3 
REMARK    2  A    between atoms: C9_9  and  N1_10 
REMARK    3  A    between atoms: N1_10  and  S1_12 
REMARK    4  A    between atoms: S1_12  and  C10_15 
REMARK    5  A    between atoms: C10_15  and  C11_16 
REMARK    6  A    between atoms: C20_25  and  C21_26 
ROOT
HETATM    1  C3  UNL     1      -3.730  -0.183  -0.432  1.00  0.00    -0.024 C 
HETATM    2  C4  UNL     1      -4.593   0.976   0.137  1.00  0.00     0.015 C 
HETATM    3  C5  UNL     1      -3.977   1.096   1.513  1.00  0.00    -0.012 C 
HETATM    4  C6  UNL     1      -2.536   1.526   1.453  1.00  0.00     0.011 C 
HETATM    5  C7  UNL     1      -1.723   0.914   0.377  1.00  0.00     0.010 C 
HETATM    6  C8  UNL     1      -2.473   0.598  -0.900  1.00  0.00     0.017 C 
HETATM    7  C9  UNL     1      -1.053  -0.406   0.773  1.00  0.00     0.098 C 
HETATM    8  C19 UNL     1      -2.077  -1.411   1.060  1.00  0.00     0.045 C 
HETATM    9  C20 UNL     1      -3.513  -1.052   0.709  1.00  0.00     0.048 C 
HETATM   10  C22 UNL     1      -4.042  -0.343   1.955  1.00  0.00     0.024 C 
ENDROOT
BRANCH   7  11
HETATM   11  N1  UNL     1      -0.048  -0.111   1.690  1.00  0.00    -0.314 N 
ATOM     12  H1  UNL     1      -0.282   0.192   2.635  1.00  0.00     0.172 HD
BRANCH  11  13
HETATM   13  S1  UNL     1       1.569  -0.264   1.211  1.00  0.00     0.227 S 
HETATM   14  O1  UNL     1       2.380   0.131   2.439  1.00  0.00    -0.206 OA
HETATM   15  O2  UNL     1       1.903  -1.706   0.959  1.00  0.00    -0.206 OA
BRANCH  13  16
HETATM   16  C10 UNL     1       2.062   0.762  -0.101  1.00  0.00     0.167 C 
BRANCH  16  17
HETATM   17  C11 UNL     1       3.483   0.647  -0.540  1.00  0.00     0.001 C 
HETATM   18  C12 UNL     1       4.474   0.965   0.551  1.00  0.00     0.006 C 
HETATM   19  C13 UNL     1       5.751   1.552   0.018  1.00  0.00     0.005 C 
HETATM   20  C14 UNL     1       6.467   0.693  -0.957  1.00  0.00    -0.014 C 
HETATM   21  C15 UNL     1       5.775   0.592  -2.308  1.00  0.00     0.009 C 
HETATM   22  C17 UNL     1       6.204  -0.785  -0.786  1.00  0.00     0.009 C 
HETATM   23  C16 UNL     1       5.156  -0.672  -1.858  1.00  0.00    -0.013 C 
HETATM   24  C18 UNL     1       3.765  -0.583  -1.314  1.00  0.00     0.010 C 
ENDBRANCH  16  17
ENDBRANCH  13  16
ENDBRANCH  11  13
ENDBRANCH   7  11
BRANCH   9  25
HETATM   25  C21 UNL     1      -4.216  -2.362   0.645  1.00  0.00     0.240 C 
HETATM   26  N2  UNL     1      -4.179  -3.226   1.812  1.00  0.00    -0.061 NA
HETATM   27  O3  UNL     1      -4.851  -2.830  -0.311  1.00  0.00    -0.276 OA
ENDBRANCH   9  25
BRANCH   1  28
HETATM   28  C2  UNL     1      -4.376  -0.713  -1.668  1.00  0.00     0.006 C 
HETATM   29  C1  UNL     1      -4.420   0.439  -2.681  1.00  0.00     0.006 C 
ENDBRANCH   1  28
TORSDOF 6
