REMARK  6 active torsions:
REMARK  status: ('A' for Active; 'I' for Inactive)
REMARK       I    between atoms: C1_2  and  N1_3 
REMARK    1  A    between atoms: C1_2  and  C10_16 
REMARK    2  A    between atoms: N1_3  and  C2_5 
REMARK    3  A    between atoms: C2_5  and  C3_6 
REMARK       I    between atoms: C3_6  and  N2_8 
REMARK    4  A    between atoms: N2_8  and  C4_10 
REMARK    5  A    between atoms: C4_10  and  C5_11 
REMARK       I    between atoms: N3_23  and  C17_24 
REMARK    6  A    between atoms: C17_24  and  C18_26 
ROOT
HETATM    1  C10 UNL     1      -0.087  -0.460  -0.016  1.00  0.00     0.082 C 
HETATM    2  C11 UNL     1      -0.127  -0.454   1.496  1.00  0.00     0.039 C 
HETATM    3  C12 UNL     1      -1.428  -1.018   2.027  1.00  0.00     0.088 C 
HETATM    4  C13 UNL     1      -1.320  -2.511   2.015  1.00  0.00     0.027 C 
HETATM    5  C14 UNL     1      -2.237  -2.965   0.900  1.00  0.00     0.027 C 
HETATM    6  C15 UNL     1      -2.257  -1.708   0.013  1.00  0.00     0.088 C 
HETATM    7  C16 UNL     1      -0.871  -1.618  -0.593  1.00  0.00     0.039 C 
HETATM    8  N3  UNL     1      -2.452  -0.684   1.024  1.00  0.00    -0.342 N 
HETATM    9  C17 UNL     1      -3.362   0.383   1.112  1.00  0.00     0.224 C 
HETATM   10  O3  UNL     1      -3.312   1.124   2.150  1.00  0.00    -0.273 OA
ENDROOT
BRANCH   1  11
HETATM   11  C1  UNL     1       1.313  -0.596  -0.487  1.00  0.00     0.223 C 
HETATM   12  O1  UNL     1       1.787   0.321  -1.200  1.00  0.00    -0.273 OA
HETATM   13  N1  UNL     1       2.099  -1.714  -0.152  1.00  0.00    -0.343 N 
ATOM     14  H1  UNL     1       1.656  -2.429   0.425  1.00  0.00     0.163 HD
BRANCH  13  15
HETATM   15  C2  UNL     1       3.460  -1.952  -0.539  1.00  0.00     0.114 A 
HETATM   16  C8  UNL     1       3.763  -2.482  -1.906  1.00  0.00     0.044 A 
HETATM   17  C9  UNL     1       3.880  -3.388  -0.735  1.00  0.00     0.044 A 
BRANCH  15  18
HETATM   18  C3  UNL     1       4.458  -1.004  -0.013  1.00  0.00     0.246 C 
HETATM   19  O2  UNL     1       5.658  -1.135  -0.422  1.00  0.00    -0.271 OA
HETATM   20  N2  UNL     1       4.128   0.006   0.901  1.00  0.00    -0.359 N 
ATOM     21  H2  UNL     1       3.166   0.098   1.228  1.00  0.00     0.162 HD
BRANCH  20  22
HETATM   22  C4  UNL     1       5.140   0.920   1.385  1.00  0.00     0.127 C 
BRANCH  22  23
HETATM   23  C5  UNL     1       5.715   1.686   0.216  1.00  0.00     0.003 A 
HETATM   24  C6  UNL     1       6.783   2.692   0.458  1.00  0.00     0.007 A 
HETATM   25  C7  UNL     1       5.402   3.207   0.273  1.00  0.00     0.007 A 
ENDBRANCH  22  23
ENDBRANCH  20  22
ENDBRANCH  15  18
ENDBRANCH  13  15
ENDBRANCH   1  11
BRANCH   9  26
HETATM   26  C18 UNL     1      -4.371   0.718   0.103  1.00  0.00     0.078 C 
HETATM   27  C19 UNL     1      -3.668   1.160  -1.159  1.00  0.00     0.014 C 
HETATM   28  C20 UNL     1      -4.634   1.661  -2.216  1.00  0.00     0.001 C 
HETATM   29  C21 UNL     1      -5.424   2.837  -1.690  1.00  0.00     0.000 C 
HETATM   30  C22 UNL     1      -6.210   2.309  -0.485  1.00  0.00     0.001 C 
HETATM   31  C23 UNL     1      -5.239   1.859   0.556  1.00  0.00     0.014 C 
ENDBRANCH   9  26
TORSDOF 6
