REMARK  6 active torsions:
REMARK  status: ('A' for Active; 'I' for Inactive)
REMARK       I    between atoms: C1_2  and  N1_3 
REMARK    1  A    between atoms: C1_2  and  C8_14 
REMARK    2  A    between atoms: N1_3  and  C2_5 
REMARK    3  A    between atoms: C2_5  and  C3_6 
REMARK       I    between atoms: N3_17  and  C11_18 
REMARK    4  A    between atoms: C11_18  and  C12_20 
REMARK    5  A    between atoms: C12_20  and  C13_21 
REMARK    6  A    between atoms: C13_21  and  C14_22 
ROOT
HETATM    1  C8  UNL     1       2.165   2.989   0.577  1.00  0.00     0.097 C 
HETATM    2  C9  UNL     1       0.985   3.271  -0.303  1.00  0.00     0.035 C 
HETATM    3  C10 UNL     1      -0.181   2.763   0.512  1.00  0.00     0.127 C 
HETATM    4  N3  UNL     1       0.402   1.563   1.133  1.00  0.00    -0.351 N 
HETATM    5  C11 UNL     1      -0.323   0.399   1.411  1.00  0.00     0.219 C 
HETATM    6  O2  UNL     1       0.256  -0.585   1.957  1.00  0.00    -0.273 OA
HETATM    7  C24 UNL     1       1.786   1.786   1.382  1.00  0.00     0.139 C 
ENDROOT
BRANCH   5   8
HETATM    8  C12 UNL     1      -1.780   0.321   1.062  1.00  0.00     0.103 C 
BRANCH   8   9
HETATM    9  C13 UNL     1      -2.328  -1.032   1.454  1.00  0.00     0.018 C 
BRANCH   9  10
HETATM   10  C14 UNL     1      -3.780  -1.186   1.126  1.00  0.00    -0.039 C 
HETATM   11  C15 UNL     1      -3.980  -1.017  -0.376  1.00  0.00     0.014 C 
HETATM   12  C16 UNL     1      -5.385  -1.361  -0.771  1.00  0.00    -0.013 C 
HETATM   13  C17 UNL     1      -6.307  -0.387  -0.083  1.00  0.00     0.009 C 
HETATM   14  C21 UNL     1      -5.672  -2.791  -0.379  1.00  0.00     0.009 C 
HETATM   15  C18 UNL     1      -6.110  -0.550   1.408  1.00  0.00    -0.013 C 
HETATM   16  C19 UNL     1      -6.518  -1.945   1.803  1.00  0.00     0.009 C 
HETATM   17  C23 UNL     1      -4.687  -0.226   1.818  1.00  0.00     0.014 C 
HETATM   18  C20 UNL     1      -5.593  -2.912   1.119  1.00  0.00    -0.013 C 
HETATM   19  C22 UNL     1      -4.177  -2.604   1.535  1.00  0.00     0.014 C 
ENDBRANCH   9  10
ENDBRANCH   8   9
ENDBRANCH   5   8
BRANCH   1  20
HETATM   20  C1  UNL     1       3.272   2.562  -0.366  1.00  0.00     0.223 C 
HETATM   21  O1  UNL     1       4.284   3.281  -0.348  1.00  0.00    -0.273 OA
HETATM   22  N1  UNL     1       3.112   1.439  -1.171  1.00  0.00    -0.359 N 
ATOM     23  H1  UNL     1       2.205   0.988  -1.054  1.00  0.00     0.162 HD
BRANCH  22  24
HETATM   24  C2  UNL     1       3.938   0.788  -2.118  1.00  0.00     0.155 C 
BRANCH  24  25
HETATM   25  C3  UNL     1       5.203   0.137  -1.700  1.00  0.00     0.203 C 
HETATM   26  C4  UNL     1       6.224   0.986  -1.111  1.00  0.00     0.035 C 
HETATM   27  C5  UNL     1       7.632   0.388  -1.137  1.00  0.00     0.004 C 
HETATM   28  C6  UNL     1       7.935  -0.297  -2.427  1.00  0.00     0.027 C 
HETATM   29  C7  UNL     1       6.850  -1.368  -2.606  1.00  0.00     0.233 C 
HETATM   30  N2  UNL     1       5.630  -0.682  -2.818  1.00  0.00    -0.069 N 
ATOM     31  H22 UNL     1       4.894  -1.337  -3.081  1.00  0.00     0.277 HD
ATOM     32  H21 UNL     1       5.679  -0.124  -3.670  1.00  0.00     0.277 HD
ENDBRANCH  24  25
ENDBRANCH  22  24
ENDBRANCH   1  20
TORSDOF 6
