REMARK  17 active torsions:
REMARK  status: ('A' for Active; 'I' for Inactive)
REMARK    1  A    between atoms: C2_2  and  C3_3 
REMARK    2  A    between atoms: C3_3  and  C4_4 
REMARK    3  A    between atoms: C4_4  and  C5_5 
REMARK    4  A    between atoms: C7_10  and  C8_11 
REMARK    5  A    between atoms: C8_11  and  C10_13 
REMARK    6  A    between atoms: C12_17  and  O2_18 
REMARK    7  A    between atoms: C13_20  and  C14_21 
REMARK    8  A    between atoms: C14_21  and  C15_22 
REMARK    9  A    between atoms: C18_27  and  O3_28 
REMARK   10  A    between atoms: C19_30  and  O4_31 
REMARK   11  A    between atoms: C20_33  and  C21_34 
REMARK   12  A    between atoms: C21_34  and  C22_35 
REMARK   13  A    between atoms: C22_35  and  C23_36 
REMARK   14  A    between atoms: C23_36  and  C24_37 
REMARK   15  A    between atoms: C24_37  and  N4_38 
REMARK   16  A    between atoms: C25_44  and  O5_45 
REMARK   17  A    between atoms: C26_47  and  C27_48 
ROOT
HETATM    1  C5  UNL     1      -2.381  -1.913   0.477  1.00  0.00     0.177 C 
HETATM    2  N1  UNL     1      -2.888  -0.802   1.235  1.00  0.00    -0.346 N 
ATOM      3  H1  UNL     1      -3.189  -1.057   2.176  1.00  0.00     0.163 HD
HETATM    4  C6  UNL     1      -3.053   0.550   0.949  1.00  0.00     0.241 C 
HETATM    5  O1  UNL     1      -4.250   1.011   1.064  1.00  0.00    -0.271 OA
HETATM    6  C7  UNL     1      -2.029   1.547   0.533  1.00  0.00     0.179 C 
HETATM    7  N2  UNL     1      -0.722   1.176   0.969  1.00  0.00    -0.359 N 
ATOM      8  H2  UNL     1      -0.572   0.167   0.973  1.00  0.00     0.162 HD
HETATM    9  C12 UNL     1       0.396   1.899   1.392  1.00  0.00     0.135 C 
HETATM   10  C13 UNL     1       1.120   2.896   0.644  1.00  0.00     0.158 C 
HETATM   11  N3  UNL     1       2.171   2.474  -0.228  1.00  0.00    -0.357 N 
ATOM     12  H3  UNL     1       3.086   2.798   0.086  1.00  0.00     0.162 HD
HETATM   13  C18 UNL     1       2.252   1.724  -1.409  1.00  0.00     0.168 C 
HETATM   14  C19 UNL     1       1.979   0.371  -1.802  1.00  0.00     0.116 C 
HETATM   15  C20 UNL     1       2.316  -0.954  -1.243  1.00  0.00     0.145 C 
HETATM   16  N5  UNL     1       2.178  -1.089   0.175  1.00  0.00    -0.359 N 
ATOM     17  H5  UNL     1       2.522  -0.270   0.677  1.00  0.00     0.162 HD
HETATM   18  C25 UNL     1       1.700  -2.043   1.014  1.00  0.00     0.160 C 
HETATM   19  C26 UNL     1       0.820  -3.216   0.965  1.00  0.00     0.066 C 
HETATM   20  N6  UNL     1      -0.380  -2.981   1.764  1.00  0.00    -0.325 N 
ATOM     21  H6  UNL     1      -0.199  -2.854   2.760  1.00  0.00     0.169 HD
HETATM   22  C30 UNL     1      -1.720  -2.899   1.416  1.00  0.00     0.244 C 
HETATM   23  O6  UNL     1      -2.520  -3.724   1.922  1.00  0.00    -0.271 OA
ENDROOT
BRANCH  15  24
HETATM   24  C21 UNL     1       3.755  -1.363  -1.665  1.00  0.00     0.032 C 
BRANCH  24  25
HETATM   25  C22 UNL     1       4.780  -0.395  -1.171  1.00  0.00     0.004 C 
BRANCH  25  26
HETATM   26  C23 UNL     1       6.192  -0.833  -1.587  1.00  0.00     0.027 C 
BRANCH  26  27
HETATM   27  C24 UNL     1       7.132   0.210  -1.041  1.00  0.00     0.229 C 
BRANCH  27  28
HETATM   28  N4  UNL     1       6.879   1.525  -1.546  1.00  0.00    -0.079 N 
ATOM     29  H43 UNL     1       6.888   1.528  -2.566  1.00  0.00     0.274 HD
ATOM     30  H42 UNL     1       5.908   1.793  -1.385  1.00  0.00     0.274 HD
ATOM     31  H41 UNL     1       7.515   2.231  -1.176  1.00  0.00     0.274 HD
ENDBRANCH  27  28
ENDBRANCH  26  27
ENDBRANCH  25  26
ENDBRANCH  24  25
ENDBRANCH  15  24
BRANCH  14  32
HETATM   32  O4  UNL     1       1.284   0.133  -2.885  1.00  0.00    -0.359 OA
ATOM     33  H4  UNL     1       1.103  -0.763  -3.145  1.00  0.00     0.217 HD
ENDBRANCH  14  32
BRANCH  13  34
HETATM   34  O3  UNL     1       2.696   2.452  -2.407  1.00  0.00    -0.344 OA
ATOM     35  H3  UNL     1       2.751   1.944  -3.208  1.00  0.00     0.219 HD
ENDBRANCH  13  34
BRANCH  18  36
HETATM   36  O5  UNL     1       2.146  -1.888   2.252  1.00  0.00    -0.345 OA
ATOM     37  H5  UNL     1       1.811  -2.556   2.839  1.00  0.00     0.219 HD
ENDBRANCH  18  36
BRANCH  19  38
HETATM   38  C27 UNL     1       0.607  -3.938  -0.302  1.00  0.00     0.032 C 
HETATM   39  C28 UNL     1      -0.334  -5.118   0.056  1.00  0.00     0.016 C 
HETATM   40  C29 UNL     1       1.923  -4.649  -0.659  1.00  0.00     0.016 C 
ENDBRANCH  19  38
BRANCH  10  41
HETATM   41  C14 UNL     1       1.594   3.983   1.638  1.00  0.00     0.037 C 
BRANCH  41  42
HETATM   42  C15 UNL     1       0.375   4.598   2.278  1.00  0.00    -0.020 C 
HETATM   43  C16 UNL     1       0.861   5.657   3.254  1.00  0.00     0.009 C 
HETATM   44  C17 UNL     1      -0.408   5.252   1.138  1.00  0.00     0.009 C 
ENDBRANCH  41  42
ENDBRANCH  10  41
BRANCH   9  45
HETATM   45  O2  UNL     1       0.887   1.689   2.589  1.00  0.00    -0.348 OA
ATOM     46  H2  UNL     1       1.647   2.181   2.877  1.00  0.00     0.219 HD
ENDBRANCH   9  45
BRANCH   1  47
HETATM   47  C4  UNL     1      -3.331  -2.564  -0.444  1.00  0.00     0.035 C 
BRANCH  47  48
HETATM   48  C3  UNL     1      -4.566  -3.197   0.001  1.00  0.00     0.002 C 
BRANCH  48  49
HETATM   49  C2  UNL     1      -5.593  -2.339   0.689  1.00  0.00    -0.004 C 
HETATM   50  C1  UNL     1      -6.821  -3.196   1.059  1.00  0.00     0.005 C 
ENDBRANCH  48  49
ENDBRANCH  47  48
ENDBRANCH   1  47
BRANCH   6  51
HETATM   51  C8  UNL     1      -2.195   1.962  -0.871  1.00  0.00     0.013 C 
HETATM   52  C9  UNL     1      -2.138   0.895  -1.924  1.00  0.00     0.012 C 
BRANCH  51  53
HETATM   53  C10 UNL     1      -3.471   2.741  -1.086  1.00  0.00     0.002 C 
HETATM   54  C11 UNL     1      -3.563   3.177  -2.564  1.00  0.00     0.005 C 
ENDBRANCH  51  53
ENDBRANCH   6  51
TORSDOF 17
