REMARK  14 active torsions:
REMARK  status: ('A' for Active; 'I' for Inactive)
REMARK    1  A    between atoms: C5_7  and  C6_8 
REMARK    2  A    between atoms: C6_8  and  O1_9 
REMARK    3  A    between atoms: C6_8  and  N2_11 
REMARK    4  A    between atoms: C12_17  and  C13_18 
REMARK       I    between atoms: C13_18  and  N3_20 
REMARK    5  A    between atoms: N3_20  and  C14_22 
REMARK    6  A    between atoms: C14_22  and  C15_23 
REMARK    7  A    between atoms: C14_22  and  C19_31 
REMARK    8  A    between atoms: C15_23  and  C16_24 
REMARK    9  A    between atoms: C16_24  and  C17_25 
REMARK   10  A    between atoms: C17_25  and  N4_26 
REMARK   11  A    between atoms: N7_34  and  C20_35 
REMARK   12  A    between atoms: C20_35  and  C21_36 
REMARK   13  A    between atoms: C21_36  and  C22_37 
REMARK   14  A    between atoms: C26_41  and  C27_42 
ROOT
HETATM    1  C27 UNL     1      -5.005  -3.547   1.161  1.00  0.00     0.133 C 
HETATM    2  C28 UNL     1      -5.870  -3.373   2.309  1.00  0.00     0.059 C 
HETATM    3  N8  UNL     1      -6.542  -3.245   3.241  1.00  0.00    -0.197 NA
ENDROOT
BRANCH   1   4
HETATM    4  C26 UNL     1      -5.547  -2.981  -0.136  1.00  0.00     0.035 C 
HETATM    5  C4  UNL     1      -5.801  -1.540  -0.125  1.00  0.00    -0.014 A 
HETATM    6  C3  UNL     1      -7.042  -1.002   0.047  1.00  0.00     0.017 A 
HETATM    7  C5  UNL     1      -4.917  -0.403  -0.233  1.00  0.00     0.045 A 
HETATM    8  N1  UNL     1      -6.991   0.325   0.055  1.00  0.00    -0.362 N 
HETATM    9  C31 UNL     1      -8.225  -1.903   0.162  1.00  0.00     0.057 C 
HETATM   10  C2  UNL     1      -5.708   0.716  -0.116  1.00  0.00     0.020 A 
ATOM     11  H1  UNL     1      -7.790   0.948   0.171  1.00  0.00     0.165 HD
HETATM   12  C1  UNL     1      -5.342   2.175  -0.256  1.00  0.00     0.069 C 
HETATM   13  C30 UNL     1      -8.005  -3.042  -0.772  1.00  0.00     0.007 C 
HETATM   14  C29 UNL     1      -6.758  -3.798  -0.553  1.00  0.00     0.011 C 
BRANCH   7  15
HETATM   15  C6  UNL     1      -3.491  -0.521  -0.282  1.00  0.00     0.151 C 
BRANCH  15  16
HETATM   16  O1  UNL     1      -3.107  -1.729  -0.742  1.00  0.00    -0.345 OA
ATOM     17  H1  UNL     1      -2.161  -1.807  -0.775  1.00  0.00     0.219 HD
ENDBRANCH  15  16
BRANCH  15  18
HETATM   18  N2  UNL     1      -2.359   0.222   0.008  1.00  0.00    -0.360 N 
HETATM   19  C7  UNL     1      -2.120   1.512   0.578  1.00  0.00     0.131 C 
HETATM   20  C8  UNL     1      -1.554   2.434  -0.462  1.00  0.00     0.022 C 
HETATM   21  C9  UNL     1      -1.145   1.643  -1.719  1.00  0.00     0.016 C 
HETATM   22  C25 UNL     1      -0.228   2.996   0.081  1.00  0.00     0.129 C 
HETATM   23  C10 UNL     1      -0.272   0.500  -1.279  1.00  0.00     0.036 C 
HETATM   24  C11 UNL     1      -1.004  -0.416  -0.341  1.00  0.00     0.132 C 
HETATM   25  C12 UNL     1       0.981   1.124  -0.614  1.00  0.00     0.181 C 
HETATM   26  N7  UNL     1       0.569   1.881   0.475  1.00  0.00    -0.379 N 
BRANCH  25  27
HETATM   27  C13 UNL     1       1.979   0.047  -0.403  1.00  0.00     0.241 C 
HETATM   28  O2  UNL     1       2.267  -0.467   0.700  1.00  0.00    -0.271 OA
HETATM   29  N3  UNL     1       2.691  -0.471  -1.534  1.00  0.00    -0.345 N 
ATOM     30  H3  UNL     1       2.509  -0.094  -2.464  1.00  0.00     0.163 HD
BRANCH  29  31
HETATM   31  C14 UNL     1       3.678  -1.537  -1.361  1.00  0.00     0.185 C 
BRANCH  31  32
HETATM   32  C15 UNL     1       5.038  -0.906  -1.453  1.00  0.00     0.038 C 
BRANCH  32  33
HETATM   33  C16 UNL     1       6.115  -1.909  -1.289  1.00  0.00     0.022 C 
BRANCH  33  34
HETATM   34  C17 UNL     1       7.500  -1.265  -1.311  1.00  0.00     0.122 C 
BRANCH  34  35
HETATM   35  N4  UNL     1       7.670  -0.311  -0.242  1.00  0.00    -0.367 N 
HETATM   36  C18 UNL     1       7.860  -0.645   0.992  1.00  0.00     0.196 C 
HETATM   37  N5  UNL     1       7.925  -1.993   1.449  1.00  0.00    -0.067 NA
HETATM   38  N6  UNL     1       8.009   0.409   1.934  1.00  0.00    -0.067 NA
ATOM     39  H4  UNL     1       7.638   0.682  -0.473  1.00  0.00     0.161 HD
ENDBRANCH  34  35
ENDBRANCH  33  34
ENDBRANCH  32  33
ENDBRANCH  31  32
BRANCH  31  40
HETATM   40  C19 UNL     1       3.489  -2.578  -2.359  1.00  0.00     0.196 C 
HETATM   41  O3  UNL     1       2.579  -2.377  -3.248  1.00  0.00    -0.646 OA
HETATM   42  O4  UNL     1       4.154  -3.766  -2.486  1.00  0.00    -0.646 OA
ENDBRANCH  31  40
ENDBRANCH  29  31
ENDBRANCH  25  27
BRANCH  26  43
HETATM   43  C20 UNL     1       1.273   1.957   1.676  1.00  0.00     0.059 C 
BRANCH  43  44
HETATM   44  C21 UNL     1       2.598   2.624   1.725  1.00  0.00     0.049 C 
BRANCH  44  45
HETATM   45  C22 UNL     1       2.613   4.089   1.373  1.00  0.00    -0.010 A 
HETATM   46  C23 UNL     1       3.984   4.708   1.446  1.00  0.00     0.005 A 
HETATM   47  C24 UNL     1       2.906   5.103   2.427  1.00  0.00     0.005 A 
ENDBRANCH  44  45
ENDBRANCH  43  44
ENDBRANCH  26  43
ENDBRANCH  15  18
ENDBRANCH   7  15
ENDBRANCH   1   4
TORSDOF 14
