REMARK  0 active torsions:
REMARK  status: ('A' for Active; 'I' for Inactive)
ROOT
HETATM    1  C1  UNL     1       1.076  -0.656  -0.203  1.00  0.00     0.204 A 
HETATM    2  N1  UNL     1       0.129  -1.364   0.230  1.00  0.00    -0.296 N 
ATOM      3  H1  UNL     1       0.324  -2.356   0.365  1.00  0.00     0.187 HD
HETATM    4  N2  UNL     1      -1.107  -0.948   0.531  1.00  0.00    -0.303 N 
ATOM      5  H2  UNL     1      -1.728  -1.683   0.869  1.00  0.00     0.186 HD
HETATM    6  C2  UNL     1      -1.637   0.190   0.470  1.00  0.00     0.174 A 
HETATM    7  S1  UNL     1      -0.596   1.518  -0.116  1.00  0.00    -0.007 SA
HETATM    8  N3  UNL     1       0.939   0.726  -0.434  1.00  0.00    -0.321 N 
ATOM      9  H3  UNL     1       1.730   1.266  -0.785  1.00  0.00     0.175 HD
ENDROOT
TORSDOF 0
