REMARK  2 active torsions:
REMARK  status: ('A' for Active; 'I' for Inactive)
REMARK    1  A    between atoms: N1_2  and  C3_4 
REMARK    2  A    between atoms: C3_4  and  O1_5 
ROOT
HETATM    1  C3  UNL     1       0.662  -0.446   0.733  1.00  0.00     0.325 C 
HETATM    2  C4  UNL     1       1.523  -1.192  -0.182  1.00  0.00     0.113 C 
HETATM    3  N2  UNL     1       2.203  -1.807  -0.900  1.00  0.00    -0.193 NA
ENDROOT
BRANCH   1   4
HETATM    4  N1  UNL     1      -0.439   0.125   0.090  1.00  0.00    -0.385 N 
HETATM    5  C1  UNL     1      -1.399  -0.704  -0.511  1.00  0.00     0.146 C 
HETATM    6  C2  UNL     1      -0.392   1.480  -0.265  1.00  0.00     0.146 C 
ENDBRANCH   1   4
BRANCH   1   7
HETATM    7  O1  UNL     1       1.369   0.412   1.573  1.00  0.00    -0.364 OA
ATOM      8  H1  UNL     1       2.118   0.024   2.010  1.00  0.00     0.213 HD
ENDBRANCH   1   7
TORSDOF 2
