REMARK  3 active torsions:
REMARK  status: ('A' for Active; 'I' for Inactive)
REMARK    1  A    between atoms: C2_4  and  N3_5 
REMARK    2  A    between atoms: N3_5  and  N4_7 
REMARK    3  A    between atoms: N4_7  and  N5_8 
ROOT
HETATM    1  N3  UNL     1       1.831  -0.322   0.742  1.00  0.00    -0.216 N 
ATOM      2  H3  UNL     1       1.991  -1.232   1.174  1.00  0.00     0.200 HD
ENDROOT
BRANCH   1   3
HETATM    3  C2  UNL     1       0.525  -0.072   0.196  1.00  0.00     0.313 A 
HETATM    4  N1  UNL     1      -0.637  -0.280   0.940  1.00  0.00    -0.195 NA
HETATM    5  C1  UNL     1      -1.872   0.331   0.481  1.00  0.00     0.136 C 
HETATM    6  N2  UNL     1      -0.229  -1.309  -0.059  1.00  0.00    -0.117 NA
ENDBRANCH   1   3
BRANCH   1   7
HETATM    7  N4  UNL     1       2.754   0.456   0.732  1.00  0.00    -0.246 NA
BRANCH   7   8
HETATM    8  N5  UNL     1       3.728   1.186   0.740  1.00  0.00    -0.261 N 
ATOM      9  H52 UNL     1       4.057   0.252   0.983  1.00  0.00     0.193 HD
ATOM     10  H51 UNL     1       4.508   1.843   0.732  1.00  0.00     0.193 HD
ENDBRANCH   7   8
ENDBRANCH   1   7
TORSDOF 3
