REMARK  6 active torsions:
REMARK  status: ('A' for Active; 'I' for Inactive)
REMARK    1  A    between atoms: C3_5  and  S1_6 
REMARK    2  A    between atoms: S1_6  and  C4_7 
REMARK    3  A    between atoms: C4_7  and  C5_8 
REMARK    4  A    between atoms: N2_18  and  N3_19 
REMARK    5  A    between atoms: C15_22  and  N4_23 
REMARK    6  A    between atoms: N4_23  and  C16_25 
ROOT
HETATM    1  C1  UNL     1       4.161   2.928   1.653  1.00  0.00     0.072 C 
HETATM    2  C2  UNL     1       3.251   1.838   1.226  1.00  0.00     0.053 A 
HETATM    3  N1  UNL     1       1.958   1.693   1.552  1.00  0.00    -0.336 N 
ATOM      4  H1  UNL     1       1.433   2.333   2.148  1.00  0.00     0.168 HD
HETATM    5  C3  UNL     1       1.453   0.589   0.984  1.00  0.00     0.167 A 
HETATM    6  N2  UNL     1       2.450  -0.009   0.261  1.00  0.00    -0.222 N 
HETATM    7  C15 UNL     1       3.555   0.747   0.404  1.00  0.00     0.147 A 
ENDROOT
BRANCH   5   8
HETATM    8  S1  UNL     1      -0.210  -0.057   1.098  1.00  0.00    -0.091 SA
BRANCH   8   9
HETATM    9  C4  UNL     1      -1.174   0.676  -0.248  1.00  0.00     0.092 C 
BRANCH   9  10
HETATM   10  C5  UNL     1      -2.604   0.196  -0.246  1.00  0.00    -0.030 C 
HETATM   11  C6  UNL     1      -3.311   0.868  -1.404  1.00  0.00     0.015 C 
HETATM   12  C7  UNL     1      -4.746   0.400  -1.457  1.00  0.00    -0.013 C 
HETATM   13  C8  UNL     1      -4.713  -1.098  -1.731  1.00  0.00     0.009 C 
HETATM   14  C12 UNL     1      -5.450   0.704  -0.169  1.00  0.00     0.009 C 
HETATM   15  C9  UNL     1      -4.000  -1.789  -0.606  1.00  0.00    -0.013 C 
HETATM   16  C10 UNL     1      -4.751  -1.484   0.675  1.00  0.00     0.009 C 
HETATM   17  C14 UNL     1      -2.589  -1.285  -0.520  1.00  0.00     0.015 C 
HETATM   18  C11 UNL     1      -4.719  -0.020   0.965  1.00  0.00    -0.013 C 
HETATM   19  C13 UNL     1      -3.327   0.558   1.008  1.00  0.00     0.015 C 
ENDBRANCH   9  10
ENDBRANCH   8   9
ENDBRANCH   5   8
BRANCH   6  20
HETATM   20  N3  UNL     1       2.290  -1.181  -0.483  1.00  0.00    -0.335 N 
ATOM     21  H32 UNL     1       1.453  -1.754  -0.591  1.00  0.00     0.177 HD
ATOM     22  H31 UNL     1       3.033  -1.627  -1.022  1.00  0.00     0.177 HD
ENDBRANCH   6  20
BRANCH   7  23
HETATM   23  N4  UNL     1       4.829   0.553  -0.167  1.00  0.00    -0.369 N 
ATOM     24  H4  UNL     1       5.517   1.286   0.007  1.00  0.00     0.161 HD
BRANCH  23  25
HETATM   25  C16 UNL     1       5.270  -0.549  -0.960  1.00  0.00     0.075 C 
HETATM   26  C17 UNL     1       5.406  -1.783  -0.076  1.00  0.00     0.031 C 
HETATM   27  C18 UNL     1       6.634  -0.287  -1.567  1.00  0.00     0.031 C 
ENDBRANCH  23  25
ENDBRANCH   7  23
TORSDOF 6
