REMARK  7 active torsions:
REMARK  status: ('A' for Active; 'I' for Inactive)
REMARK    1  A    between atoms: C9_9  and  O1_10 
REMARK    2  A    between atoms: C12_14  and  O2_15 
REMARK    3  A    between atoms: C13_17  and  C14_18 
REMARK    4  A    between atoms: C14_18  and  C15_19 
REMARK    5  A    between atoms: C15_19  and  C16_20 
REMARK    6  A    between atoms: C16_20  and  C18_22 
REMARK    7  A    between atoms: C18_22  and  C19_23 
ROOT
HETATM    1  C1  UNL     1       1.020  -1.656   2.042  1.00  0.00     0.015 C 
HETATM    2  C2  UNL     1       0.450  -0.675   1.390  1.00  0.00    -0.082 C 
HETATM    3  C3  UNL     1      -0.294   0.373   2.117  1.00  0.00     0.034 C 
HETATM    4  C4  UNL     1      -1.708   0.347   1.607  1.00  0.00     0.013 C 
HETATM    5  C5  UNL     1      -1.985  -0.481   0.410  1.00  0.00     0.031 C 
HETATM    6  C6  UNL     1      -3.341  -0.122  -0.118  1.00  0.00    -0.015 C 
HETATM    7  C7  UNL     1      -4.356  -0.842   0.738  1.00  0.00     0.018 C 
HETATM    8  C8  UNL     1      -3.646   1.362   0.019  1.00  0.00     0.018 C 
HETATM    9  C9  UNL     1      -3.473  -0.436  -1.581  1.00  0.00     0.126 C 
HETATM   10  C10 UNL     1      -2.483   0.419  -2.339  1.00  0.00     0.035 C 
HETATM   11  C11 UNL     1      -1.126   0.480  -1.752  1.00  0.00     0.041 C 
HETATM   12  C12 UNL     1      -0.929  -0.541  -0.652  1.00  0.00     0.070 C 
HETATM   13  C13 UNL     1       0.471  -0.515  -0.085  1.00  0.00     0.048 C 
ENDROOT
BRANCH  13  14
HETATM   14  C14 UNL     1       1.199   0.735  -0.432  1.00  0.00     0.012 C 
BRANCH  14  15
HETATM   15  C15 UNL     1       2.617   0.814   0.004  1.00  0.00     0.005 C 
BRANCH  15  16
HETATM   16  C16 UNL     1       3.524  -0.218  -0.528  1.00  0.00    -0.009 C 
HETATM   17  C17 UNL     1       3.587  -0.223  -2.053  1.00  0.00     0.010 C 
BRANCH  16  18
HETATM   18  C18 UNL     1       4.937   0.028  -0.084  1.00  0.00     0.117 C 
BRANCH  18  19
HETATM   19  C19 UNL     1       5.216   0.005   1.341  1.00  0.00     0.172 C 
HETATM   20  O3  UNL     1       4.357  -0.298   2.192  1.00  0.00    -0.648 OA
HETATM   21  O4  UNL     1       6.484   0.325   1.857  1.00  0.00    -0.648 OA
ENDBRANCH  18  19
ENDBRANCH  16  18
ENDBRANCH  15  16
ENDBRANCH  14  15
ENDBRANCH  13  14
BRANCH  12  22
HETATM   22  O2  UNL     1      -1.032  -1.768  -1.317  1.00  0.00    -0.389 OA
ATOM     23  H2  UNL     1      -0.363  -1.806  -1.990  1.00  0.00     0.210 HD
ENDBRANCH  12  22
BRANCH   9  24
HETATM   24  O1  UNL     1      -4.728  -0.018  -2.066  1.00  0.00    -0.395 OA
ATOM     25  H1  UNL     1      -4.811  -0.217  -2.991  1.00  0.00     0.210 HD
ENDBRANCH   9  24
TORSDOF 7
