REMARK  6 active torsions:
REMARK  status: ('A' for Active; 'I' for Inactive)
REMARK    1  A    between atoms: C2_2  and  C3_3 
REMARK    2  A    between atoms: C4_4  and  C5_5 
REMARK    3  A    between atoms: C5_5  and  C6_6 
REMARK    4  A    between atoms: C10_13  and  O1_14 
REMARK    5  A    between atoms: N2_16  and  C11_17 
REMARK    6  A    between atoms: C16_22  and  O2_23 
ROOT
HETATM    1  C6  UNL     1      -1.614  -0.723   1.050  1.00  0.00     0.199 C 
HETATM    2  N1  UNL     1      -1.032  -1.653   1.997  1.00  0.00    -0.061 N 
ATOM      3  H11 UNL     1      -1.713  -2.270   2.439  1.00  0.00     0.278 HD
ATOM      4  H12 UNL     1      -0.697  -1.212   2.854  1.00  0.00     0.278 HD
HETATM    5  C7  UNL     1      -0.004  -2.352   1.262  1.00  0.00     0.232 C 
HETATM    6  C8  UNL     1       1.020  -1.379   0.738  1.00  0.00     0.035 A 
HETATM    7  C9  UNL     1       0.402  -0.598  -0.212  1.00  0.00     0.013 A 
HETATM    8  C10 UNL     1       1.323   0.294  -0.704  1.00  0.00     0.152 A 
HETATM    9  N2  UNL     1       2.490   0.077  -0.074  1.00  0.00    -0.303 N 
HETATM   10  C16 UNL     1       2.320  -0.932   0.799  1.00  0.00     0.153 A 
HETATM   11  C17 UNL     1      -1.024  -1.092  -0.271  1.00  0.00     0.065 C 
HETATM   12  C18 UNL     1      -0.753  -2.589  -0.066  1.00  0.00    -0.005 C 
HETATM   13  C19 UNL     1      -1.972  -3.411   0.086  1.00  0.00     0.018 C 
HETATM   14  C20 UNL     1       0.200  -3.126  -1.087  1.00  0.00     0.018 C 
ENDROOT
BRANCH   1  15
HETATM   15  C5  UNL     1      -3.095  -0.637   1.112  1.00  0.00     0.060 C 
BRANCH  15  16
HETATM   16  C4  UNL     1      -3.635   0.330   0.119  1.00  0.00    -0.029 C 
HETATM   17  C3  UNL     1      -4.344   1.398   0.442  1.00  0.00    -0.031 C 
BRANCH  17  18
HETATM   18  C2  UNL     1      -4.844   2.310  -0.614  1.00  0.00     0.022 C 
HETATM   19  C1  UNL     1      -6.356   2.392  -0.587  1.00  0.00     0.009 C 
ENDBRANCH  17  18
ENDBRANCH  15  16
ENDBRANCH   1  15
BRANCH   8  20
HETATM   20  O1  UNL     1       1.080   1.256  -1.685  1.00  0.00    -0.345 OA
ATOM     21  H1  UNL     1       1.717   1.873  -2.025  1.00  0.00     0.219 HD
ENDBRANCH   8  20
BRANCH  10  22
HETATM   22  O2  UNL     1       3.306  -1.466   1.656  1.00  0.00    -0.345 OA
ATOM     23  H2  UNL     1       4.203  -1.157   1.698  1.00  0.00     0.219 HD
ENDBRANCH  10  22
BRANCH   9  24
HETATM   24  C11 UNL     1       3.747   0.752  -0.241  1.00  0.00     0.094 C 
HETATM   25  C12 UNL     1       4.241   1.450   0.978  1.00  0.00     0.026 C 
HETATM   26  C13 UNL     1       5.331   2.351   0.444  1.00  0.00     0.002 C 
HETATM   27  C14 UNL     1       5.110   2.462  -1.050  1.00  0.00     0.002 C 
HETATM   28  C15 UNL     1       3.726   1.832  -1.277  1.00  0.00     0.026 C 
ENDBRANCH   9  24
TORSDOF 6
