REMARK  7 active torsions:
REMARK  status: ('A' for Active; 'I' for Inactive)
REMARK    1  A    between atoms: C4_4  and  C5_5 
REMARK    2  A    between atoms: C7_8  and  O2_9 
REMARK    3  A    between atoms: O2_9  and  C8_10 
REMARK    4  A    between atoms: C8_10  and  C9_11 
REMARK    5  A    between atoms: C9_11  and  C10_12 
REMARK    6  A    between atoms: C14_16  and  O3_17 
REMARK    7  A    between atoms: C19_23  and  O4_25 
ROOT
HETATM    1  C1  UNL     1      -2.215   2.482   2.397  1.00  0.00     0.015 C 
HETATM    2  C2  UNL     1      -2.045   1.430   1.607  1.00  0.00    -0.081 C 
HETATM    3  C3  UNL     1      -0.725   0.762   1.564  1.00  0.00     0.043 C 
HETATM    4  C4  UNL     1      -0.498   0.338   0.112  1.00  0.00     0.027 C 
HETATM    5  C13 UNL     1      -1.522  -0.664  -0.299  1.00  0.00     0.051 C 
HETATM    6  C14 UNL     1      -2.863  -0.494   0.338  1.00  0.00     0.096 C 
HETATM    7  C15 UNL     1      -3.139   0.917   0.780  1.00  0.00     0.051 C 
HETATM    8  C16 UNL     1      -3.486   1.809  -0.382  1.00  0.00     0.012 C 
HETATM    9  C17 UNL     1      -4.825   1.274  -0.912  1.00  0.00     0.004 C 
HETATM   10  C18 UNL     1      -4.506  -0.077  -1.520  1.00  0.00     0.040 C 
HETATM   11  C19 UNL     1      -3.943  -1.046  -0.548  1.00  0.00     0.086 C 
HETATM   12  C20 UNL     1      -5.075  -1.681   0.238  1.00  0.00     0.049 C 
ENDROOT
BRANCH   4  13
HETATM   13  C5  UNL     1       0.887  -0.172   0.024  1.00  0.00    -0.026 A 
HETATM   14  C6  UNL     1       1.365  -1.315   0.625  1.00  0.00     0.152 A 
HETATM   15  O1  UNL     1       2.634  -1.435   0.317  1.00  0.00    -0.300 OA
HETATM   16  C7  UNL     1       3.055  -0.462  -0.446  1.00  0.00     0.185 A 
HETATM   17  C12 UNL     1       1.959   0.362  -0.650  1.00  0.00     0.073 A 
BRANCH  16  18
HETATM   18  O2  UNL     1       4.321  -0.244  -0.972  1.00  0.00    -0.330 OA
BRANCH  18  19
HETATM   19  C8  UNL     1       5.210   0.612  -0.285  1.00  0.00     0.178 C 
BRANCH  19  20
HETATM   20  C9  UNL     1       6.540   0.725  -1.013  1.00  0.00     0.026 C 
BRANCH  20  21
HETATM   21  C10 UNL     1       7.145  -0.658  -1.101  1.00  0.00    -0.002 C 
HETATM   22  C11 UNL     1       7.353  -1.192   0.290  1.00  0.00     0.005 C 
ENDBRANCH  20  21
ENDBRANCH  19  20
ENDBRANCH  18  19
ENDBRANCH  16  18
ENDBRANCH   4  13
BRANCH   6  23
HETATM   23  O3  UNL     1      -2.870  -1.284   1.511  1.00  0.00    -0.386 OA
ATOM     24  H3  UNL     1      -3.723  -1.176   1.916  1.00  0.00     0.210 HD
ENDBRANCH   6  23
BRANCH  11  25
HETATM   25  O4  UNL     1      -3.349  -2.093  -1.292  1.00  0.00    -0.387 OA
ATOM     26  H4  UNL     1      -4.032  -2.442  -1.852  1.00  0.00     0.210 HD
ENDBRANCH  11  25
TORSDOF 7
