REMARK  13 active torsions:
REMARK  status: ('A' for Active; 'I' for Inactive)
REMARK    1  A    between atoms: N1_1  and  C1_4 
REMARK    2  A    between atoms: C2_7  and  N3_8 
REMARK    3  A    between atoms: N3_8  and  O1_10 
REMARK    4  A    between atoms: N6_20  and  C6_21 
REMARK    5  A    between atoms: C7_23  and  C8_24 
REMARK    6  A    between atoms: C8_24  and  C9_25 
REMARK    7  A    between atoms: C8_24  and  O7_33 
REMARK    8  A    between atoms: C9_25  and  O4_26 
REMARK    9  A    between atoms: O4_26  and  S1_27 
REMARK   10  A    between atoms: S1_27  and  N7_28 
REMARK   11  A    between atoms: O7_33  and  C10_34 
REMARK   12  A    between atoms: C11_40  and  O9_41 
REMARK   13  A    between atoms: C12_43  and  O10_44 
ROOT
HETATM    1  C6  UNL     1       0.725  -1.433  -0.067  1.00  0.00     0.265 C 
HETATM    2  O3  UNL     1      -0.339  -0.926  -0.807  1.00  0.00    -0.329 OA
HETATM    3  C7  UNL     1      -1.187  -0.114  -0.116  1.00  0.00     0.358 C 
HETATM    4  N9  UNL     1      -1.926  -0.861   0.871  1.00  0.00    -0.017 N 
ATOM      5  H91 UNL     1      -2.934  -0.808   0.725  1.00  0.00     0.283 HD
ATOM      6  H92 UNL     1      -1.893  -0.427   1.793  1.00  0.00     0.283 HD
HETATM    7  C11 UNL     1      -1.446  -2.209   0.884  1.00  0.00     0.355 C 
HETATM    8  C12 UNL     1       0.063  -2.294   1.002  1.00  0.00     0.223 C 
ENDROOT
BRANCH   1   9
HETATM    9  N6  UNL     1       1.497  -0.443   0.633  1.00  0.00    -0.308 N 
HETATM   10  C5  UNL     1       1.286   0.031   1.888  1.00  0.00     0.186 A 
HETATM   11  N5  UNL     1       2.218   0.949   2.224  1.00  0.00    -0.346 N 
HETATM   12  C4  UNL     1       3.021   1.046   1.155  1.00  0.00     0.133 A 
ATOM     13  H5  UNL     1       2.295   1.460   3.104  1.00  0.00     0.167 HD
HETATM   14  C3  UNL     1       4.109   1.868   1.073  1.00  0.00     0.288 C 
HETATM   15  C13 UNL     1       2.579   0.177   0.148  1.00  0.00     0.115 A 
HETATM   16  N4  UNL     1       5.174   1.717   0.239  1.00  0.00    -0.152 N 
HETATM   17  O2  UNL     1       4.107   2.850   1.849  1.00  0.00    -0.265 OA
HETATM   18  C2  UNL     1       5.352   0.871  -0.790  1.00  0.00     0.706 C 
ATOM     19  H4  UNL     1       5.958   2.343   0.423  1.00  0.00     0.187 HD
HETATM   20  N2  UNL     1       4.408   0.133  -1.418  1.00  0.00    -0.173 N 
HETATM   21  C1  UNL     1       3.101  -0.035  -1.106  1.00  0.00     0.144 C 
ATOM     22  H2  UNL     1       4.727  -0.370  -2.246  1.00  0.00     0.186 HD
BRANCH  18  23
HETATM   23  N3  UNL     1       6.567   0.782  -1.191  1.00  0.00    -0.098 N 
ATOM     24  H3  UNL     1       6.796   0.162  -1.968  1.00  0.00     0.213 HD
BRANCH  23  25
HETATM   25  O1  UNL     1       7.558   1.506  -0.591  1.00  0.00    -0.276 OA
ATOM     26  H1  UNL     1       8.458   1.440  -0.888  1.00  0.00     0.245 HD
ENDBRANCH  23  25
ENDBRANCH  18  23
BRANCH  21  27
HETATM   27  N1  UNL     1       2.286  -0.408  -2.024  1.00  0.00    -0.383 N 
ATOM     28  H12 UNL     1       2.673  -0.565  -2.954  1.00  0.00     0.157 HD
ATOM     29  H11 UNL     1       1.302  -0.535  -1.789  1.00  0.00     0.157 HD
ENDBRANCH  21  27
ENDBRANCH   1   9
BRANCH   8  30
HETATM   30  O10 UNL     1       0.354  -3.662   0.739  1.00  0.00    -0.387 OA
ATOM     31  H10 UNL     1      -0.059  -4.199   1.405  1.00  0.00     0.210 HD
ENDBRANCH   8  30
BRANCH   3  32
HETATM   32  C8  UNL     1      -2.213   0.440  -1.112  1.00  0.00     0.215 C 
BRANCH  32  33
HETATM   33  C9  UNL     1      -3.203   1.313  -0.374  1.00  0.00     0.228 C 
BRANCH  33  34
HETATM   34  O4  UNL     1      -3.914   0.594   0.584  1.00  0.00    -0.257 OA
BRANCH  34  35
HETATM   35  S1  UNL     1      -5.005   1.544   1.403  1.00  0.00     0.355 S 
HETATM   36  O5  UNL     1      -5.996   0.667   2.122  1.00  0.00    -0.176 OA
HETATM   37  O6  UNL     1      -5.695   2.462   0.433  1.00  0.00    -0.176 OA
BRANCH  35  38
HETATM   38  N7  UNL     1      -4.237   2.525   2.598  1.00  0.00    -0.306 N 
ATOM     39  H72 UNL     1      -3.232   2.512   2.769  1.00  0.00     0.171 HD
ATOM     40  H71 UNL     1      -4.906   3.108   3.101  1.00  0.00     0.171 HD
ENDBRANCH  35  38
ENDBRANCH  34  35
ENDBRANCH  33  34
ENDBRANCH  32  33
BRANCH  32  41
HETATM   41  O7  UNL     1      -2.944  -0.590  -1.746  1.00  0.00    -0.294 OA
BRANCH  41  42
HETATM   42  C10 UNL     1      -2.957  -0.681  -3.116  1.00  0.00     0.373 C 
HETATM   43  N8  UNL     1      -3.692  -1.714  -3.739  1.00  0.00    -0.032 NA
HETATM   44  O8  UNL     1      -2.312   0.162  -3.780  1.00  0.00    -0.242 OA
ENDBRANCH  41  42
ENDBRANCH  32  41
ENDBRANCH   3  32
BRANCH   7  45
HETATM   45  O9  UNL     1      -1.781  -2.813  -0.327  1.00  0.00    -0.368 OA
ATOM     46  H9  UNL     1      -1.462  -3.708  -0.318  1.00  0.00     0.212 HD
ENDBRANCH   7  45
TORSDOF 13
