REMARK  13 active torsions:
REMARK  status: ('A' for Active; 'I' for Inactive)
REMARK    1  A    between atoms: O1_2  and  C2_3 
REMARK    2  A    between atoms: C2_3  and  N1_4 
REMARK    3  A    between atoms: C5_10  and  N3_11 
REMARK    4  A    between atoms: C7_13  and  O3_14 
REMARK    5  A    between atoms: C7_13  and  C8_16 
REMARK    6  A    between atoms: C8_16  and  O4_17 
REMARK    7  A    between atoms: C9_19  and  O5_20 
REMARK    8  A    between atoms: C10_22  and  O6_23 
REMARK    9  A    between atoms: C13_34  and  O7_35 
REMARK   10  A    between atoms: C14_37  and  O8_38 
REMARK   11  A    between atoms: C15_40  and  N7_41 
REMARK   12  A    between atoms: C16_45  and  O9_46 
REMARK   13  A    between atoms: O9_46  and  C17_47 
ROOT
HETATM    1  N1  UNL     1      -1.302   0.586  -0.596  1.00  0.00    -0.244 N 
HETATM    2  C3  UNL     1      -0.479   1.484  -1.148  1.00  0.00     0.331 A 
HETATM    3  O2  UNL     1      -0.783   2.476  -1.839  1.00  0.00    -0.246 OA
HETATM    4  N2  UNL     1       0.812   1.206  -0.875  1.00  0.00    -0.302 N 
ATOM      5  H2  UNL     1       1.618   1.747  -1.187  1.00  0.00     0.171 HD
HETATM    6  C4  UNL     1       0.854   0.102  -0.127  1.00  0.00     0.126 A 
HETATM    7  C5  UNL     1       1.929  -0.592   0.410  1.00  0.00     0.152 A 
HETATM    8  N4  UNL     1       1.641  -1.684   1.124  1.00  0.00    -0.174 N 
ATOM      9  H4  UNL     1       2.403  -2.223   1.536  1.00  0.00     0.186 HD
HETATM   10  C11 UNL     1       0.385  -2.088   1.313  1.00  0.00     0.679 A 
HETATM   11  N5  UNL     1       0.110  -3.158   2.014  1.00  0.00    -0.234 N 
ATOM     12  H51 UNL     1      -0.851  -3.467   2.159  1.00  0.00     0.174 HD
ATOM     13  H52 UNL     1       0.889  -3.680   2.416  1.00  0.00     0.174 HD
HETATM   14  N6  UNL     1      -0.653  -1.393   0.778  1.00  0.00    -0.174 N 
ATOM     15  H6  UNL     1      -1.604  -1.725   0.938  1.00  0.00     0.186 HD
HETATM   16  C12 UNL     1      -0.467  -0.285   0.047  1.00  0.00     0.160 A 
ENDROOT
BRANCH   1  17
HETATM   17  C2  UNL     1      -2.758   0.510  -0.641  1.00  0.00     0.203 C 
HETATM   18  C13 UNL     1      -3.270   1.940  -1.015  1.00  0.00     0.208 C 
HETATM   19  C14 UNL     1      -4.661   1.926  -0.352  1.00  0.00     0.185 C 
HETATM   20  C15 UNL     1      -4.258   1.495   1.023  1.00  0.00     0.249 C 
HETATM   21  C16 UNL     1      -3.426   0.218   0.644  1.00  0.00     0.225 C 
BRANCH  17  22
HETATM   22  O1  UNL     1      -3.227  -0.250  -1.662  1.00  0.00    -0.360 OA
HETATM   23  C1  UNL     1      -2.861  -1.521  -1.839  1.00  0.00     0.205 C 
ENDBRANCH  17  22
BRANCH  18  24
HETATM   24  O7  UNL     1      -3.513   2.058  -2.355  1.00  0.00    -0.388 OA
ATOM     25  H7  UNL     1      -3.824   2.926  -2.582  1.00  0.00     0.210 HD
ENDBRANCH  18  24
BRANCH  19  26
HETATM   26  O8  UNL     1      -5.248   3.164  -0.401  1.00  0.00    -0.391 OA
ATOM     27  H8  UNL     1      -6.106   3.155   0.008  1.00  0.00     0.210 HD
ENDBRANCH  19  26
BRANCH  20  28
HETATM   28  N7  UNL     1      -3.448   2.429   1.734  1.00  0.00    -0.070 N 
ATOM     29  H73 UNL     1      -2.623   2.670   1.184  1.00  0.00     0.274 HD
ATOM     30  H72 UNL     1      -3.909   3.338   1.771  1.00  0.00     0.274 HD
ATOM     31  H71 UNL     1      -3.173   2.135   2.671  1.00  0.00     0.274 HD
ENDBRANCH  20  28
BRANCH  21  32
HETATM   32  O9  UNL     1      -4.436  -0.777   0.602  1.00  0.00    -0.294 OA
BRANCH  32  33
HETATM   33  C17 UNL     1      -4.638  -1.684   1.634  1.00  0.00     0.373 C 
HETATM   34  N8  UNL     1      -5.685  -2.640   1.474  1.00  0.00    -0.032 NA
HETATM   35  O10 UNL     1      -3.917  -1.644   2.654  1.00  0.00    -0.242 OA
ENDBRANCH  32  33
ENDBRANCH  21  32
ENDBRANCH   1  17
BRANCH   7  36
HETATM   36  N3  UNL     1       3.280  -0.198   0.228  1.00  0.00    -0.333 N 
HETATM   37  C6  UNL     1       4.011  -0.101  -1.001  1.00  0.00     0.170 C 
HETATM   38  C7  UNL     1       5.462  -0.113  -0.620  1.00  0.00     0.125 C 
HETATM   39  C9  UNL     1       5.549  -0.248   0.884  1.00  0.00     0.205 C 
HETATM   40  C10 UNL     1       4.170   0.184   1.332  1.00  0.00     0.253 C 
BRANCH  38  41
HETATM   41  O3  UNL     1       6.046   1.112  -0.942  1.00  0.00    -0.383 OA
ATOM     42  H3  UNL     1       6.965   1.104  -0.701  1.00  0.00     0.210 HD
ENDBRANCH  38  41
BRANCH  38  43
HETATM   43  C8  UNL     1       6.216  -1.240  -1.311  1.00  0.00     0.206 C 
BRANCH  43  44
HETATM   44  O4  UNL     1       7.539  -1.267  -0.915  1.00  0.00    -0.398 OA
ATOM     45  H4  UNL     1       8.010  -1.971  -1.346  1.00  0.00     0.209 HD
ENDBRANCH  43  44
ENDBRANCH  38  43
BRANCH  39  46
HETATM   46  O5  UNL     1       6.540   0.589   1.395  1.00  0.00    -0.388 OA
ATOM     47  H5  UNL     1       6.595   0.504   2.340  1.00  0.00     0.210 HD
ENDBRANCH  39  46
BRANCH  40  48
HETATM   48  O6  UNL     1       3.794  -0.460   2.511  1.00  0.00    -0.374 OA
ATOM     49  H6  UNL     1       4.370  -0.213   3.225  1.00  0.00     0.212 HD
ENDBRANCH  40  48
ENDBRANCH   7  36
TORSDOF 13
