REMARK  13 active torsions:
REMARK  status: ('A' for Active; 'I' for Inactive)
REMARK    1  A    between atoms: N5_15  and  C6_16 
REMARK    2  A    between atoms: C9_20  and  C10_21 
REMARK    3  A    between atoms: C10_21  and  O2_22 
REMARK    4  A    between atoms: C10_21  and  C11_24 
REMARK    5  A    between atoms: C11_24  and  O3_25 
REMARK    6  A    between atoms: C11_24  and  C12_27 
REMARK    7  A    between atoms: C12_27  and  O4_28 
REMARK    8  A    between atoms: C13_30  and  O5_31 
REMARK    9  A    between atoms: C14_33  and  O6_34 
REMARK   10  A    between atoms: C15_36  and  O7_37 
REMARK   11  A    between atoms: C16_39  and  O8_40 
REMARK   12  A    between atoms: C16_39  and  C17_42 
REMARK   13  A    between atoms: C17_42  and  C18_44 
ROOT
HETATM    1  C6  UNL     1      -2.032  -0.880   0.667  1.00  0.00     0.237 C 
HETATM    2  C7  UNL     1      -1.030  -1.055  -0.434  1.00  0.00     0.101 C 
HETATM    3  C8  UNL     1       0.249  -1.536   0.258  1.00  0.00     0.158 C 
HETATM    4  O1  UNL     1       1.012  -0.401   0.471  1.00  0.00    -0.360 OA
HETATM    5  C9  UNL     1       1.701   0.108  -0.598  1.00  0.00     0.185 C 
HETATM    6  C13 UNL     1       2.590  -0.901  -1.274  1.00  0.00     0.181 C 
HETATM    7  C14 UNL     1       2.384  -2.295  -0.735  1.00  0.00     0.181 C 
HETATM    8  C15 UNL     1       0.941  -2.629  -0.450  1.00  0.00     0.190 C 
HETATM    9  C16 UNL     1      -0.284  -1.972   1.602  1.00  0.00     0.273 C 
HETATM   10  O12 UNL     1      -1.553  -1.486   1.784  1.00  0.00    -0.320 OA
ENDROOT
BRANCH   8  11
HETATM   11  O7  UNL     1       0.246  -2.873  -1.666  1.00  0.00    -0.390 OA
ATOM     12  H7  UNL     1       0.692  -3.577  -2.122  1.00  0.00     0.210 HD
ENDBRANCH   8  11
BRANCH   9  13
HETATM   13  O8  UNL     1       0.600  -1.396   2.582  1.00  0.00    -0.357 OA
ATOM     14  H8  UNL     1       0.265  -1.670   3.427  1.00  0.00     0.213 HD
ENDBRANCH   9  13
BRANCH   9  15
HETATM   15  C17 UNL     1      -0.275  -3.402   1.882  1.00  0.00     0.289 C 
HETATM   16  O9  UNL     1       0.584  -3.873   2.711  1.00  0.00    -0.280 OA
BRANCH  15  17
HETATM   17  C18 UNL     1      -1.172  -4.354   1.293  1.00  0.00     0.252 C 
HETATM   18  O10 UNL     1      -2.057  -4.059   0.483  1.00  0.00    -0.642 OA
HETATM   19  O11 UNL     1      -1.066  -5.717   1.636  1.00  0.00    -0.642 OA
ENDBRANCH  15  17
ENDBRANCH   9  15
BRANCH   1  20
HETATM   20  N5  UNL     1      -2.450   0.495   0.869  1.00  0.00    -0.300 N 
HETATM   21  C3  UNL     1      -3.306   1.184   0.089  1.00  0.00     0.142 A 
HETATM   22  N3  UNL     1      -4.002   0.906  -1.040  1.00  0.00    -0.336 N 
HETATM   23  C4  UNL     1      -3.456   2.456   0.623  1.00  0.00     0.122 A 
HETATM   24  C2  UNL     1      -4.810   1.809  -1.634  1.00  0.00     0.183 A 
ATOM     25  H3  UNL     1      -3.912  -0.021  -1.457  1.00  0.00     0.168 HD
HETATM   26  N2  UNL     1      -4.964   3.042  -1.128  1.00  0.00    -0.337 N 
HETATM   27  C1  UNL     1      -4.295   3.371  -0.007  1.00  0.00     0.131 A 
ATOM     28  H2  UNL     1      -5.577   3.718  -1.584  1.00  0.00     0.168 HD
HETATM   29  N1  UNL     1      -4.416   4.542   0.509  1.00  0.00    -0.383 N 
ATOM     30  H12 UNL     1      -5.031   5.212   0.047  1.00  0.00     0.157 HD
ATOM     31  H11 UNL     1      -3.909   4.791   1.358  1.00  0.00     0.157 HD
HETATM   32  N4  UNL     1      -2.670   2.458   1.710  1.00  0.00    -0.346 N 
HETATM   33  C5  UNL     1      -2.052   1.278   1.877  1.00  0.00     0.188 A 
ATOM     34  H4  UNL     1      -2.556   3.258   2.333  1.00  0.00     0.167 HD
ENDBRANCH   1  20
BRANCH   5  35
HETATM   35  C10 UNL     1       2.468   1.323  -0.113  1.00  0.00     0.180 C 
BRANCH  35  36
HETATM   36  O2  UNL     1       1.480   2.195   0.433  1.00  0.00    -0.390 OA
ATOM     37  H2  UNL     1       1.960   2.956   0.737  1.00  0.00     0.210 HD
ENDBRANCH  35  36
BRANCH  35  38
HETATM   38  C11 UNL     1       3.018   2.146  -1.286  1.00  0.00     0.173 C 
BRANCH  38  39
HETATM   39  O3  UNL     1       4.004   1.508  -1.992  1.00  0.00    -0.391 OA
ATOM     40  H3  UNL     1       4.344   2.017  -2.718  1.00  0.00     0.210 HD
ENDBRANCH  38  39
BRANCH  38  41
HETATM   41  C12 UNL     1       3.598   3.426  -0.719  1.00  0.00     0.198 C 
BRANCH  41  42
HETATM   42  O4  UNL     1       2.678   4.159   0.002  1.00  0.00    -0.398 OA
ATOM     43  H4  UNL     1       3.042   4.961   0.357  1.00  0.00     0.209 HD
ENDBRANCH  41  42
ENDBRANCH  38  41
ENDBRANCH  35  38
ENDBRANCH   5  35
BRANCH   7  44
HETATM   44  O6  UNL     1       2.895  -3.193  -1.655  1.00  0.00    -0.390 OA
ATOM     45  H6  UNL     1       2.765  -4.071  -1.316  1.00  0.00     0.210 HD
ENDBRANCH   7  44
BRANCH   6  46
HETATM   46  O5  UNL     1       2.462  -0.835  -2.652  1.00  0.00    -0.390 OA
ATOM     47  H5  UNL     1       3.023  -1.472  -3.079  1.00  0.00     0.210 HD
ENDBRANCH   6  46
TORSDOF 13
