REMARK  14 active torsions:
REMARK  status: ('A' for Active; 'I' for Inactive)
REMARK    1  A    between atoms: C1_4  and  N2_5 
REMARK    2  A    between atoms: C1_4  and  C17_48 
REMARK    3  A    between atoms: N2_5  and  C2_7 
REMARK    4  A    between atoms: C4_12  and  C5_13 
REMARK    5  A    between atoms: C5_13  and  N5_14 
REMARK    6  A    between atoms: C8_22  and  N9_23 
REMARK    7  A    between atoms: N9_23  and  C9_25 
REMARK    8  A    between atoms: C9_25  and  C10_26 
REMARK    9  A    between atoms: C10_26  and  N10_27 
REMARK   10  A    between atoms: C11_33  and  N12_34 
REMARK   11  A    between atoms: C15_44  and  C16_45 
REMARK   12  A    between atoms: C16_45  and  O3_46 
REMARK   13  A    between atoms: C17_48  and  N14_49 
REMARK   14  A    between atoms: C17_48  and  N15_53 
ROOT
HETATM    1  N5  UNL     1       0.593   0.088   2.151  1.00  0.00    -0.305 N 
HETATM    2  C6  UNL     1       1.130  -1.113   2.431  1.00  0.00     0.187 A 
HETATM    3  N6  UNL     1       2.331  -1.509   1.972  1.00  0.00    -0.336 N 
ATOM      4  H6  UNL     1       2.677  -2.435   2.224  1.00  0.00     0.168 HD
HETATM    5  C7  UNL     1       3.092  -0.717   1.187  1.00  0.00     0.141 A 
HETATM    6  N7  UNL     1       4.280  -0.811   0.593  1.00  0.00    -0.262 N 
ATOM      7  H7  UNL     1       4.884  -1.631   0.658  1.00  0.00     0.190 HD
HETATM    8  N8  UNL     1       4.587   0.271  -0.086  1.00  0.00    -0.066 N 
HETATM    9  C8  UNL     1       5.623   0.682  -0.839  1.00  0.00     0.715 A 
HETATM   10  N11 UNL     1       5.565   1.929  -1.399  1.00  0.00    -0.021 N 
ATOM     11  H11 UNL     1       6.348   2.247  -1.971  1.00  0.00     0.203 HD
HETATM   12  C11 UNL     1       4.521   2.747  -1.225  1.00  0.00     0.692 A 
HETATM   13  N13 UNL     1       3.488   2.339  -0.475  1.00  0.00    -0.173 N 
ATOM     14  H13 UNL     1       2.679   2.942  -0.325  1.00  0.00     0.186 HD
HETATM   15  C12 UNL     1       3.546   1.120   0.071  1.00  0.00     0.180 A 
HETATM   16  C13 UNL     1       2.569   0.525   0.880  1.00  0.00     0.124 A 
HETATM   17  C14 UNL     1       1.334   0.902   1.365  1.00  0.00     0.266 A 
HETATM   18  O1  UNL     1       0.874   2.024   1.081  1.00  0.00    -0.267 OA
ENDROOT
BRANCH   1  19
HETATM   19  C5  UNL     1      -0.694   0.440   2.677  1.00  0.00     0.186 C 
BRANCH  19  20
HETATM   20  C4  UNL     1      -1.836   0.057   1.778  1.00  0.00     0.240 C 
HETATM   21  N4  UNL     1      -1.896  -1.369   1.526  1.00  0.00    -0.352 N 
HETATM   22  C3  UNL     1      -2.890  -1.748   0.791  1.00  0.00     0.116 C 
ATOM     23  H4  UNL     1      -1.208  -2.023   1.899  1.00  0.00     0.163 HD
HETATM   24  C2  UNL     1      -3.810  -0.680   0.321  1.00  0.00     0.178 C 
HETATM   25  N3  UNL     1      -3.098  -3.117   0.446  1.00  0.00    -0.086 NA
HETATM   26  C15 UNL     1      -3.103   0.602   0.014  1.00  0.00     0.177 C 
HETATM   27  O2  UNL     1      -1.827   0.697   0.566  1.00  0.00    -0.355 OA
BRANCH  24  28
HETATM   28  N2  UNL     1      -4.612  -1.167  -0.796  1.00  0.00    -0.363 N 
ATOM     29  H2  UNL     1      -4.463  -2.125  -1.112  1.00  0.00     0.161 HD
BRANCH  28  30
HETATM   30  C1  UNL     1      -5.576  -0.394  -1.461  1.00  0.00     0.130 C 
HETATM   31  N1  UNL     1      -5.248   0.265  -2.512  1.00  0.00    -0.386 N 
ATOM     32  H12 UNL     1      -4.286   0.214  -2.847  1.00  0.00     0.157 HD
ATOM     33  H11 UNL     1      -5.949   0.827  -2.995  1.00  0.00     0.157 HD
BRANCH  30  34
HETATM   34  C17 UNL     1      -6.970  -0.320  -0.976  1.00  0.00     0.443 C 
BRANCH  34  35
HETATM   35  N14 UNL     1      -7.607  -1.624  -0.953  1.00  0.00    -0.043 N 
ATOM     36 3H14 UNL     1      -7.556  -2.077  -1.865  1.00  0.00     0.277 HD
ATOM     37 2H14 UNL     1      -7.061  -2.293  -0.410  1.00  0.00     0.277 HD
ATOM     38 1H14 UNL     1      -8.569  -1.573  -0.618  1.00  0.00     0.277 HD
ENDBRANCH  34  35
BRANCH  34  39
HETATM   39  N15 UNL     1      -7.794   0.534  -1.812  1.00  0.00    -0.043 N 
ATOM     40 3H15 UNL     1      -7.386   1.464  -1.906  1.00  0.00     0.277 HD
ATOM     41 2H15 UNL     1      -7.757   0.242  -2.789  1.00  0.00     0.277 HD
ATOM     42 1H15 UNL     1      -8.756   0.585  -1.477  1.00  0.00     0.277 HD
ENDBRANCH  34  39
ENDBRANCH  30  34
ENDBRANCH  28  30
ENDBRANCH  24  28
BRANCH  26  43
HETATM   43  C16 UNL     1      -3.874   1.817   0.549  1.00  0.00     0.198 C 
BRANCH  43  44
HETATM   44  O3  UNL     1      -3.224   2.982   0.143  1.00  0.00    -0.398 OA
ATOM     45  H3  UNL     1      -3.701   3.734   0.474  1.00  0.00     0.209 HD
ENDBRANCH  43  44
ENDBRANCH  26  43
ENDBRANCH  19  20
ENDBRANCH   1  19
BRANCH   9  46
HETATM   46  N9  UNL     1       6.640  -0.034  -1.047  1.00  0.00    -0.222 N 
ATOM     47  H9  UNL     1       7.389   0.341  -1.628  1.00  0.00     0.177 HD
BRANCH  46  48
HETATM   48  C9  UNL     1       6.790  -1.349  -0.504  1.00  0.00     0.165 C 
BRANCH  48  49
HETATM   49  C10 UNL     1       8.111  -1.964  -0.968  1.00  0.00     0.249 C 
BRANCH  49  50
HETATM   50  N10 UNL     1       9.235  -1.163  -0.538  1.00  0.00    -0.078 N 
ATOM     51 3H10 UNL     1       9.144  -0.194  -0.842  1.00  0.00     0.274 HD
ATOM     52 2H10 UNL     1       9.225  -1.011   0.471  1.00  0.00     0.274 HD
ATOM     53 1H10 UNL     1      10.116  -1.573  -0.847  1.00  0.00     0.274 HD
ENDBRANCH  49  50
ENDBRANCH  48  49
ENDBRANCH  46  48
ENDBRANCH   9  46
BRANCH  12  54
HETATM   54  N12 UNL     1       4.465   3.935  -1.759  1.00  0.00    -0.234 N 
ATOM     55 2H12 UNL     1       5.251   4.246  -2.330  1.00  0.00     0.174 HD
ATOM     56 1H12 UNL     1       3.669   4.559  -1.626  1.00  0.00     0.174 HD
ENDBRANCH  12  54
TORSDOF 14
