REMARK  3 active torsions:
REMARK  status: ('A' for Active; 'I' for Inactive)
REMARK    1  A    between atoms: C1_4  and  N2_5 
REMARK    2  A    between atoms: C1_4  and  C3_14 
REMARK    3  A    between atoms: N2_5  and  C2_7 
ROOT
HETATM    1  N1  UNL     1      -0.492  -1.324   1.814  1.00  0.00    -0.383 N 
ATOM      2  H11 UNL     1       0.231  -1.991   2.084  1.00  0.00     0.157 HD
ATOM      3  H12 UNL     1      -1.455  -1.496   2.104  1.00  0.00     0.157 HD
HETATM    4  C1  UNL     1      -0.137  -0.320   1.132  1.00  0.00     0.143 C 
ENDROOT
BRANCH   4   5
HETATM    5  N2  UNL     1      -1.152   0.616   0.753  1.00  0.00    -0.173 N 
ATOM      6  H2  UNL     1      -1.101   1.601   1.012  1.00  0.00     0.186 HD
BRANCH   5   7
HETATM    7  C2  UNL     1      -2.150   0.135   0.054  1.00  0.00     0.709 A 
HETATM    8  N3  UNL     1      -2.347  -1.111  -0.352  1.00  0.00    -0.117 N 
HETATM    9  N4  UNL     1      -3.486  -1.121  -1.024  1.00  0.00     0.006 NA
ATOM     10  H3  UNL     1      -1.737  -1.910  -0.179  1.00  0.00     0.202 HD
HETATM   11  N5  UNL     1      -4.007   0.094  -1.047  1.00  0.00     0.006 NA
HETATM   12  N6  UNL     1      -3.192   0.893  -0.382  1.00  0.00    -0.117 N 
ATOM     13  H6  UNL     1      -3.320   1.893  -0.225  1.00  0.00     0.202 HD
ENDBRANCH   5   7
ENDBRANCH   4   5
BRANCH   4  14
HETATM   14  C3  UNL     1       1.246  -0.073   0.716  1.00  0.00     0.092 A 
HETATM   15  C4  UNL     1       2.256  -0.941   1.054  1.00  0.00     0.121 A 
HETATM   16  N7  UNL     1       3.535  -0.699   0.662  1.00  0.00    -0.372 N 
HETATM   17  C5  UNL     1       3.817   0.398  -0.063  1.00  0.00     0.104 A 
ATOM     18  H7  UNL     1       4.279  -1.348   0.917  1.00  0.00     0.164 HD
HETATM   19  C6  UNL     1       2.801   1.266  -0.400  1.00  0.00     0.105 A 
HETATM   20  N8  UNL     1       1.542   1.025  -0.012  1.00  0.00    -0.360 N 
ATOM     21  H8  UNL     1       0.800   1.677  -0.269  1.00  0.00     0.165 HD
ENDBRANCH   4  14
TORSDOF 3
