REMARK  2 active torsions:
REMARK  status: ('A' for Active; 'I' for Inactive)
REMARK    1  A    between atoms: S1_3  and  C2_6 
REMARK    2  A    between atoms: C3_11  and  N4_12 
ROOT
HETATM    1  N1  UNL     1       3.598  -1.439  -1.083  1.00  0.00    -0.179 NA
HETATM    2  C1  UNL     1       2.925  -0.607  -0.634  1.00  0.00     0.202 C 
HETATM    3  S1  UNL     1       1.932   0.640   0.060  1.00  0.00     0.303 S 
HETATM    4  O1  UNL     1       2.603   1.045   1.347  1.00  0.00    -0.204 OA
HETATM    5  O2  UNL     1       1.854   1.802  -0.906  1.00  0.00    -0.204 OA
ENDROOT
BRANCH   3   6
HETATM    6  C2  UNL     1       0.314   0.080   0.363  1.00  0.00     0.247 A 
HETATM    7  N2  UNL     1      -0.003  -0.942   1.173  1.00  0.00    -0.260 N 
HETATM    8  N3  UNL     1      -1.312  -1.130   1.199  1.00  0.00    -0.130 N 
ATOM      9  H2  UNL     1       0.673  -1.498   1.697  1.00  0.00     0.190 HD
HETATM   10  C3  UNL     1      -1.822  -0.190   0.377  1.00  0.00     0.692 A 
ATOM     11  H3  UNL     1      -1.826  -1.835   1.728  1.00  0.00     0.205 HD
HETATM   12  N5  UNL     1      -0.836   0.562  -0.145  1.00  0.00    -0.163 N 
ATOM     13  H5  UNL     1      -0.939   1.341  -0.795  1.00  0.00     0.186 HD
BRANCH  10  14
HETATM   14  N4  UNL     1      -3.089  -0.055   0.142  1.00  0.00    -0.233 N 
ATOM     15  H42 UNL     1      -3.837  -0.625   0.538  1.00  0.00     0.174 HD
ATOM     16  H41 UNL     1      -3.475   0.656  -0.480  1.00  0.00     0.174 HD
ENDBRANCH  10  14
ENDBRANCH   3   6
TORSDOF 2
