REMARK  2 active torsions:
REMARK  status: ('A' for Active; 'I' for Inactive)
REMARK    1  A    between atoms: N1_1  and  C1_4 
REMARK    2  A    between atoms: N3_9  and  C4_10 
ROOT
HETATM    1  C4  UNL     1       0.481  -0.014   0.075  1.00  0.00     0.710 A 
HETATM    2  N4  UNL     1       1.407  -0.934  -0.302  1.00  0.00    -0.186 N 
ATOM      3  H4  UNL     1       1.091  -1.857  -0.599  1.00  0.00     0.185 HD
HETATM    4  C5  UNL     1       2.725  -0.670  -0.297  1.00  0.00     0.202 A 
HETATM    5  N5  UNL     1       3.174   0.539   0.089  1.00  0.00    -0.304 N 
ATOM      6  H5  UNL     1       4.171   0.752   0.097  1.00  0.00     0.171 HD
HETATM    7  C6  UNL     1       2.252   1.470   0.469  1.00  0.00     0.339 A 
HETATM    8  O1  UNL     1       2.694   2.593   0.826  1.00  0.00    -0.246 OA
HETATM    9  N6  UNL     1       0.943   1.190   0.458  1.00  0.00    -0.139 N 
ATOM     10  H6  UNL     1       0.279   1.908   0.747  1.00  0.00     0.189 HD
ENDROOT
BRANCH   1  11
HETATM   11  N3  UNL     1      -0.917  -0.319   0.061  1.00  0.00    -0.070 N 
HETATM   12  C1  UNL     1      -1.890   0.409  -0.487  1.00  0.00     0.140 A 
HETATM   13  C2  UNL     1      -3.115  -0.231  -0.286  1.00  0.00     0.069 A 
HETATM   14  C3  UNL     1      -2.796  -1.379   0.412  1.00  0.00     0.112 A 
HETATM   15  N2  UNL     1      -1.463  -1.399   0.604  1.00  0.00    -0.289 N 
ATOM     16  H2  UNL     1      -0.951  -2.133   1.093  1.00  0.00     0.187 HD
BRANCH  12  17
HETATM   17  N1  UNL     1      -1.773   1.534  -1.114  1.00  0.00    -0.383 N 
ATOM     18  H12 UNL     1      -2.518   2.091  -1.533  1.00  0.00     0.157 HD
ATOM     19  H11 UNL     1      -0.878   2.001  -1.261  1.00  0.00     0.157 HD
ENDBRANCH  12  17
ENDBRANCH   1  11
TORSDOF 2
