REMARK  6 active torsions:
REMARK  status: ('A' for Active; 'I' for Inactive)
REMARK    1  A    between atoms: C2_2  and  C3_3 
REMARK    2  A    between atoms: C3_3  and  S1_4 
REMARK    3  A    between atoms: S1_4  and  N1_7 
REMARK    4  A    between atoms: N1_7  and  C4_9 
REMARK    5  A    between atoms: C4_9  and  C5_10 
REMARK    6  A    between atoms: C4_9  and  C11_19 
ROOT
HETATM    1  C4  UNL     1      -0.087   0.488   0.737  1.00  0.00     0.047 C 
ENDROOT
BRANCH   1   2
HETATM    2  N1  UNL     1       0.863   1.222  -0.090  1.00  0.00    -0.288 N 
ATOM      3  H1  UNL     1       0.817   2.240  -0.058  1.00  0.00     0.178 HD
BRANCH   2   4
HETATM    4  S1  UNL     1       1.982   0.566  -1.053  1.00  0.00     0.230 S 
HETATM    5  O1  UNL     1       2.740   1.766  -1.675  1.00  0.00    -0.206 OA
HETATM    6  O2  UNL     1       1.456  -0.094  -2.334  1.00  0.00    -0.206 OA
BRANCH   4   7
HETATM    7  C3  UNL     1       3.265  -0.448  -0.466  1.00  0.00     0.163 C 
BRANCH   7   8
HETATM    8  C2  UNL     1       4.205  -0.955  -1.538  1.00  0.00     0.012 C 
HETATM    9  C1  UNL     1       3.487  -1.793  -2.571  1.00  0.00     0.006 C 
ENDBRANCH   7   8
ENDBRANCH   4   7
ENDBRANCH   2   4
ENDBRANCH   1   2
BRANCH   1  10
HETATM   10  C5  UNL     1      -1.420   0.542   0.076  1.00  0.00     0.237 C 
HETATM   11  N2  UNL     1      -1.349  -0.067  -1.285  1.00  0.00    -0.061 N 
HETATM   12  C6  UNL     1      -2.751  -0.151  -1.647  1.00  0.00     0.187 C 
ATOM     13  H22 UNL     1      -0.759   0.430  -1.952  1.00  0.00     0.278 HD
ATOM     14  H21 UNL     1      -0.834  -0.946  -1.340  1.00  0.00     0.278 HD
HETATM   15  C7  UNL     1      -3.509   1.117  -1.321  1.00  0.00     0.033 C 
HETATM   16  C10 UNL     1      -3.182  -1.016  -0.448  1.00  0.00     0.040 C 
HETATM   17  C8  UNL     1      -3.774   1.062   0.190  1.00  0.00     0.009 C 
HETATM   18  C9  UNL     1      -2.658   0.037   0.580  1.00  0.00     0.024 C 
ENDBRANCH   1  10
BRANCH   1  19
HETATM   19  C11 UNL     1       0.108   0.709   2.158  1.00  0.00     0.052 C 
HETATM   20  C12 UNL     1      -0.784   0.008   3.135  1.00  0.00     0.034 C 
HETATM   21  C13 UNL     1       1.504   0.132   2.504  1.00  0.00     0.034 C 
HETATM   22 BR1  UNL     1       0.207   2.521   2.777  1.00  0.00    -0.080 Br
ENDBRANCH   1  19
TORSDOF 6
