REMARK  5 active torsions:
REMARK  status: ('A' for Active; 'I' for Inactive)
REMARK       I    between atoms: C2_3  and  N2_4 
REMARK       I    between atoms: C2_3  and  N5_20 
REMARK    1  A    between atoms: N2_4  and  C3_6 
REMARK    2  A    between atoms: C3_6  and  C4_7 
REMARK    3  A    between atoms: C4_7  and  C5_8 
REMARK    4  A    between atoms: C5_8  and  N3_9 
REMARK    5  A    between atoms: C8_12  and  C9_13 
REMARK       I    between atoms: C9_13  and  N4_15 
ROOT
HETATM    1  C1  UNL     1       3.663  -2.719   2.277  1.00  0.00     0.233 C 
HETATM    2  N1  UNL     1       3.372  -1.802   1.384  1.00  0.00    -0.396 NA
HETATM    3  C2  UNL     1       3.113  -0.965   0.571  1.00  0.00     0.251 C 
HETATM    4  N2  UNL     1       1.828  -0.990  -0.161  1.00  0.00    -0.350 N 
ATOM      5  H2  UNL     1       1.756  -0.785  -1.158  1.00  0.00     0.163 HD
HETATM    6  N5  UNL     1       4.055   0.079   0.304  1.00  0.00    -0.342 N 
HETATM    7  C13 UNL     1       4.812   0.591   1.426  1.00  0.00     0.128 C 
HETATM    8  C14 UNL     1       5.995   1.380   0.886  1.00  0.00     0.040 C 
HETATM    9  C15 UNL     1       5.493   2.510   0.053  1.00  0.00     0.085 C 
HETATM   10 CL1  UNL     1       6.765   3.026  -1.102  1.00  0.00    -0.125 Cl
HETATM   11  C16 UNL     1       4.296   2.164  -0.790  1.00  0.00     0.040 C 
HETATM   12  C17 UNL     1       4.319   0.638  -0.983  1.00  0.00     0.128 C 
ENDROOT
BRANCH   4  13
HETATM   13  C3  UNL     1       0.688  -1.327   0.648  1.00  0.00     0.125 C 
BRANCH  13  14
HETATM   14  C4  UNL     1      -0.541  -1.648  -0.117  1.00  0.00     0.050 C 
BRANCH  14  15
HETATM   15  C5  UNL     1      -1.118  -0.583  -0.999  1.00  0.00     0.274 C 
BRANCH  15  16
HETATM   16  N3  UNL     1      -2.325  -1.239  -1.594  1.00  0.00     0.088 N 
HETATM   17  C6  UNL     1      -3.229  -1.442  -0.482  1.00  0.00     0.273 C 
HETATM   18  C7  UNL     1      -4.672  -1.209  -0.914  1.00  0.00     0.044 C 
HETATM   19  C8  UNL     1      -4.825   0.273  -1.239  1.00  0.00     0.081 C 
HETATM   20  C11 UNL     1      -3.661   0.754  -2.045  1.00  0.00     0.044 C 
HETATM   21  C12 UNL     1      -2.857  -0.397  -2.608  1.00  0.00     0.273 C 
BRANCH  19  22
HETATM   22  C9  UNL     1      -4.894   1.073   0.015  1.00  0.00     0.221 C 
HETATM   23  O1  UNL     1      -3.971   1.869   0.381  1.00  0.00    -0.273 OA
HETATM   24  N4  UNL     1      -6.032   0.952   0.851  1.00  0.00    -0.365 N 
HETATM   25  C10 UNL     1      -6.104   1.731   2.071  1.00  0.00     0.149 C 
ATOM     26  H4  UNL     1      -6.793   0.323   0.596  1.00  0.00     0.161 HD
ENDBRANCH  19  22
ENDBRANCH  15  16
ENDBRANCH  14  15
ENDBRANCH  13  14
ENDBRANCH   4  13
TORSDOF 4
