REMARK  5 active torsions:
REMARK  status: ('A' for Active; 'I' for Inactive)
REMARK    1  A    between atoms: N1_6  and  S1_7 
REMARK    2  A    between atoms: S1_7  and  N2_10 
REMARK    3  A    between atoms: N2_10  and  C6_12 
REMARK    4  A    between atoms: C9_15  and  C10_16 
REMARK    5  A    between atoms: C14_23  and  C15_24 
ROOT
HETATM    1  C6  UNL     1      -0.034   0.353  -1.720  1.00  0.00     0.094 C 
HETATM    2  C7  UNL     1      -0.884   0.646  -2.919  1.00  0.00     0.026 C 
HETATM    3  C8  UNL     1      -2.245   0.997  -2.355  1.00  0.00     0.007 C 
HETATM    4  C9  UNL     1      -2.216   0.581  -0.892  1.00  0.00    -0.006 C 
HETATM    5  C16 UNL     1      -0.972  -0.293  -0.747  1.00  0.00     0.031 C 
ENDROOT
BRANCH   1   6
HETATM    6  N2  UNL     1       1.154  -0.374  -1.987  1.00  0.00    -0.302 N 
ATOM      7  H2  UNL     1       1.139  -1.313  -2.385  1.00  0.00     0.173 HD
BRANCH   6   8
HETATM    8  S1  UNL     1       2.604   0.424  -1.599  1.00  0.00     0.299 S 
HETATM    9  O1  UNL     1       3.753  -0.003  -2.484  1.00  0.00    -0.188 OA
HETATM   10  O2  UNL     1       2.414   1.932  -1.682  1.00  0.00    -0.188 OA
BRANCH   8  11
HETATM   11  N1  UNL     1       3.084   0.093   0.027  1.00  0.00    -0.193 NA
HETATM   12  C5  UNL     1       3.314  -1.307   0.174  1.00  0.00     0.109 C 
HETATM   13  C4  UNL     1       3.674  -1.515   1.653  1.00  0.00     0.016 C 
HETATM   14  C3  UNL     1       5.070  -0.965   1.812  1.00  0.00     0.007 C 
HETATM   15  C2  UNL     1       5.275   0.360   1.160  1.00  0.00    -0.004 C 
HETATM   16  C1  UNL     1       6.432   0.224   0.186  1.00  0.00     0.011 C 
HETATM   17  C17 UNL     1       4.127   0.948   0.459  1.00  0.00     0.113 C 
ENDBRANCH   8  11
ENDBRANCH   6   8
ENDBRANCH   1   6
BRANCH   4  18
HETATM   18  C10 UNL     1      -3.470  -0.173  -0.604  1.00  0.00     0.022 C 
HETATM   19  C11 UNL     1      -4.644   0.719  -0.874  1.00  0.00     0.237 C 
HETATM   20  N3  UNL     1      -4.554   1.833   0.083  1.00  0.00    -0.075 N 
HETATM   21  C12 UNL     1      -4.922   1.269   1.370  1.00  0.00     0.232 C 
ATOM     22  H32 UNL     1      -3.647   2.301   0.084  1.00  0.00     0.277 HD
ATOM     23  H31 UNL     1      -5.109   2.647  -0.182  1.00  0.00     0.277 HD
HETATM   24  C13 UNL     1      -3.997   0.195   1.825  1.00  0.00     0.034 C 
HETATM   25  C14 UNL     1      -3.549  -0.747   0.767  1.00  0.00     0.022 C 
BRANCH  25  26
HETATM   26  C15 UNL     1      -4.378  -2.033   0.755  1.00  0.00     0.227 C 
HETATM   27  F1  UNL     1      -3.832  -2.976  -0.065  1.00  0.00    -0.255 F 
ENDBRANCH  25  26
ENDBRANCH   4  18
TORSDOF 5
