REMARK  7 active torsions:
REMARK  status: ('A' for Active; 'I' for Inactive)
REMARK    1  A    between atoms: C2_2  and  C3_3 
REMARK       I    between atoms: C3_3  and  N1_5 
REMARK    2  A    between atoms: N1_5  and  N2_6 
REMARK    3  A    between atoms: N2_6  and  C4_7 
REMARK    4  A    between atoms: N2_6  and  C8_15 
REMARK    5  A    between atoms: C4_7  and  C5_8 
REMARK       I    between atoms: C5_8  and  N3_10 
REMARK    6  A    between atoms: C6_12  and  C7_13 
REMARK    7  A    between atoms: C8_15  and  C11_18 
ROOT
HETATM    1  N2  UNL     1       0.118  -0.087  -0.101  1.00  0.00    -0.220 N 
ENDROOT
BRANCH   1   2
HETATM    2  N1  UNL     1      -0.068   1.198  -0.246  1.00  0.00    -0.284 NA
HETATM    3  C3  UNL     1      -0.263   2.545  -0.406  1.00  0.00     0.312 C 
HETATM    4  O1  UNL     1      -0.436   3.128  -1.537  1.00  0.00    -0.255 OA
BRANCH   3   5
HETATM    5  C2  UNL     1      -0.306   3.506   0.780  1.00  0.00     0.117 C 
HETATM    6  C1  UNL     1      -0.553   4.883   0.293  1.00  0.00     0.016 C 
ENDBRANCH   3   5
ENDBRANCH   1   2
BRANCH   1   7
HETATM    7  C4  UNL     1       1.426  -0.632  -0.385  1.00  0.00     0.199 C 
BRANCH   7   8
HETATM    8  C5  UNL     1       2.564   0.255  -0.250  1.00  0.00     0.263 C 
HETATM    9  O2  UNL     1       2.518   1.430   0.040  1.00  0.00    -0.267 OA
HETATM   10  N3  UNL     1       3.882  -0.298  -0.471  1.00  0.00    -0.335 N 
HETATM   11  C6  UNL     1       4.535  -0.814   0.498  1.00  0.00     0.075 C 
ATOM     12  H3  UNL     1       4.292  -0.276  -1.405  1.00  0.00     0.168 HD
BRANCH  11  13
HETATM   13  C7  UNL     1       5.876  -1.380   0.301  1.00  0.00     0.129 C 
HETATM   14 BR1  UNL     1       6.133  -2.191  -1.435  1.00  0.00    -0.091 Br
ENDBRANCH  11  13
ENDBRANCH   7   8
ENDBRANCH   1   7
BRANCH   1  15
HETATM   15  C8  UNL     1      -0.845  -1.097  -0.362  1.00  0.00     0.065 C 
HETATM   16  C9  UNL     1      -0.418  -2.278   0.560  1.00  0.00     0.042 C 
HETATM   17  C10 UNL     1      -0.871  -1.656  -1.760  1.00  0.00     0.042 C 
BRANCH  15  18
HETATM   18  C11 UNL     1      -2.237  -0.823   0.143  1.00  0.00    -0.024 C 
HETATM   19  C12 UNL     1      -2.936   0.359  -0.369  1.00  0.00     0.017 C 
HETATM   20  C13 UNL     1      -3.067  -2.061  -0.218  1.00  0.00     0.017 C 
HETATM   21  C14 UNL     1      -2.261  -0.751   1.674  1.00  0.00     0.017 C 
ENDBRANCH  15  18
ENDBRANCH   1  15
TORSDOF 7
