REMARK  4 active torsions:
REMARK  status: ('A' for Active; 'I' for Inactive)
REMARK    1  A    between atoms: C2_2  and  O1_3 
REMARK    2  A    between atoms: C5_7  and  C6_8 
REMARK    3  A    between atoms: C6_8  and  O2_9 
REMARK    4  A    between atoms: O2_9  and  N1_10 
ROOT
HETATM    1  C1  UNL     1      -2.833  -0.952  -0.345  1.00  0.00     0.045 C 
HETATM    2  C2  UNL     1      -1.958   0.197   0.149  1.00  0.00     0.054 C 
HETATM    3  C3  UNL     1      -1.153  -0.344   1.281  1.00  0.00     0.038 C 
HETATM    4  C4  UNL     1       0.199  -0.832   0.872  1.00  0.00     0.010 C 
HETATM    5  C5  UNL     1       0.945   0.321   0.280  1.00  0.00     0.012 C 
HETATM    6  C7  UNL     1       0.232   1.070  -0.778  1.00  0.00     0.010 C 
HETATM    7  C8  UNL     1      -1.196   0.745  -0.997  1.00  0.00     0.038 C 
ENDROOT
BRANCH   5   8
HETATM    8  C6  UNL     1       2.262  -0.246  -0.241  1.00  0.00     0.205 C 
BRANCH   8   9
HETATM    9  O2  UNL     1       3.144   0.747  -0.624  1.00  0.00    -0.287 OA
BRANCH   9  10
HETATM   10  N1  UNL     1       4.404   0.266  -0.430  1.00  0.00    -0.311 N 
ATOM     11  H12 UNL     1       4.637  -0.659  -0.068  1.00  0.00     0.184 HD
ATOM     12  H11 UNL     1       5.055   0.999  -0.713  1.00  0.00     0.184 HD
ENDBRANCH   9  10
ENDBRANCH   8   9
ENDBRANCH   5   8
BRANCH   2  13
HETATM   13  O1  UNL     1      -2.836   1.154   0.684  1.00  0.00    -0.390 OA
ATOM     14  H1  UNL     1      -2.291   1.869   0.991  1.00  0.00     0.210 HD
ENDBRANCH   2  13
TORSDOF 4
