REMARK  4 active torsions:
REMARK  status: ('A' for Active; 'I' for Inactive)
REMARK    1  A    between atoms: C2_2  and  C3_3 
REMARK    2  A    between atoms: C7_7  and  N1_8 
REMARK    3  A    between atoms: C8_12  and  N2_13 
REMARK    4  A    between atoms: N2_13  and  O1_15 
ROOT
HETATM    1  C3  UNL     1       0.433  -0.649  -0.125  1.00  0.00    -0.020 C 
HETATM    2  C4  UNL     1       0.160  -2.107   0.066  1.00  0.00     0.017 C 
HETATM    3  C5  UNL     1       0.374  -0.296  -1.583  1.00  0.00     0.013 C 
HETATM    4  C6  UNL     1      -0.687   0.737  -1.765  1.00  0.00     0.036 C 
HETATM    5  C7  UNL     1      -1.523   0.739  -0.498  1.00  0.00     0.208 C 
HETATM    6  C8  UNL     1      -0.534   0.265   0.539  1.00  0.00     0.144 C 
ENDROOT
BRANCH   5   7
HETATM    7  N1  UNL     1      -1.923   2.120  -0.266  1.00  0.00    -0.073 N 
ATOM      8  H13 UNL     1      -1.136   2.767  -0.231  1.00  0.00     0.274 HD
ATOM      9  H12 UNL     1      -2.399   2.541  -1.064  1.00  0.00     0.274 HD
ATOM     10  H11 UNL     1      -2.485   2.121   0.585  1.00  0.00     0.274 HD
ENDBRANCH   5   7
BRANCH   6  11
HETATM   11  N2  UNL     1      -1.152  -0.233   1.721  1.00  0.00    -0.297 N 
ATOM     12  H2  UNL     1      -1.048   0.234   2.622  1.00  0.00     0.187 HD
BRANCH  11  13
HETATM   13  O1  UNL     1      -1.869  -1.337   1.584  1.00  0.00    -0.294 OA
ATOM     14  H1  UNL     1      -2.281  -1.669   2.373  1.00  0.00     0.244 HD
ENDBRANCH  11  13
ENDBRANCH   6  11
BRANCH   1  15
HETATM   15  C2  UNL     1       1.832  -0.393   0.450  1.00  0.00     0.007 C 
HETATM   16  C1  UNL     1       2.239   1.032   0.326  1.00  0.00     0.006 C 
ENDBRANCH   1  15
TORSDOF 4
