REMARK  4 active torsions:
REMARK  status: ('A' for Active; 'I' for Inactive)
REMARK    1  A    between atoms: C2_2  and  N1_3 
REMARK    2  A    between atoms: C2_2  and  C8_10 
REMARK    3  A    between atoms: C8_10  and  N2_11 
REMARK    4  A    between atoms: C8_10  and  N3_15 
ROOT
HETATM    1  C1  UNL     1       1.559  -0.476  -1.009  1.00  0.00     0.036 C 
HETATM    2  C2  UNL     1       1.125  -0.423   0.442  1.00  0.00     0.135 C 
ENDROOT
BRANCH   2   3
HETATM    3  N1  UNL     1      -0.008   0.404   0.640  1.00  0.00    -0.388 N 
HETATM    4  C3  UNL     1      -1.193   0.120   0.314  1.00  0.00    -0.018 C 
HETATM    5  C4  UNL     1      -2.449   0.904   0.472  1.00  0.00     0.052 C 
HETATM    6  C7  UNL     1      -1.638  -1.141  -0.343  1.00  0.00     0.052 C 
HETATM    7  C5  UNL     1      -3.086   0.723  -0.893  1.00  0.00     0.006 C 
HETATM    8  C6  UNL     1      -2.766  -0.700  -1.244  1.00  0.00     0.006 C 
ATOM      9  H1  UNL     1       0.148   1.308   1.085  1.00  0.00     0.159 HD
ENDBRANCH   2   3
BRANCH   2  10
HETATM   10  C8  UNL     1       2.282   0.200   1.221  1.00  0.00     0.399 C 
BRANCH  10  11
HETATM   11  N2  UNL     1       3.436  -0.622   1.053  1.00  0.00    -0.048 N 
ATOM     12  H23 UNL     1       3.266  -1.593   1.314  1.00  0.00     0.276 HD
ATOM     13  H22 UNL     1       3.665  -0.779   0.072  1.00  0.00     0.276 HD
ATOM     14  H21 UNL     1       4.209  -0.206   1.573  1.00  0.00     0.276 HD
ENDBRANCH  10  11
BRANCH  10  15
HETATM   15  N3  UNL     1       2.442   1.545   0.703  1.00  0.00    -0.048 N 
ATOM     16  H33 UNL     1       2.570   1.577  -0.308  1.00  0.00     0.276 HD
ATOM     17  H32 UNL     1       1.585   2.098   0.738  1.00  0.00     0.276 HD
ATOM     18  H31 UNL     1       3.215   1.961   1.223  1.00  0.00     0.276 HD
ENDBRANCH  10  15
ENDBRANCH   2  10
TORSDOF 4
