REMARK  2 active torsions:
REMARK  status: ('A' for Active; 'I' for Inactive)
REMARK    1  A    between atoms: C2_2  and  O1_3 
REMARK    2  A    between atoms: C7_9  and  N1_10 
ROOT
HETATM    1  N1  UNL     1       2.016  -0.460   0.311  1.00  0.00    -0.321 N 
ATOM      2  H1  UNL     1       2.480   0.046  -0.443  1.00  0.00     0.172 HD
HETATM    3  C8  UNL     1       2.776  -1.350   1.064  1.00  0.00     0.177 C 
HETATM    4  N2  UNL     1       3.402  -2.103   1.677  1.00  0.00    -0.172 NA
ENDROOT
BRANCH   1   5
HETATM    5  C7  UNL     1       0.609  -0.207   0.531  1.00  0.00     0.126 C 
HETATM    6  C2  UNL     1       0.128   0.784  -0.441  1.00  0.00     0.075 C 
HETATM    7  C1  UNL     1       0.492   2.181   0.088  1.00  0.00     0.048 C 
HETATM    8  C3  UNL     1      -1.319   0.804  -0.753  1.00  0.00     0.040 C 
HETATM    9  C4  UNL     1      -2.118  -0.258  -0.036  1.00  0.00     0.003 C 
HETATM   10  C5  UNL     1      -1.346  -1.558  -0.286  1.00  0.00     0.002 C 
HETATM   11  C6  UNL     1      -0.142  -1.496   0.612  1.00  0.00     0.029 C 
BRANCH   6  12
HETATM   12  O1  UNL     1       0.829   0.675  -1.664  1.00  0.00    -0.388 OA
ATOM     13  H1  UNL     1       0.604  -0.188  -1.991  1.00  0.00     0.210 HD
ENDBRANCH   6  12
ENDBRANCH   1   5
TORSDOF 2
