REMARK  3 active torsions:
REMARK  status: ('A' for Active; 'I' for Inactive)
REMARK    1  A    between atoms: C2_2  and  C5_5 
REMARK    2  A    between atoms: C5_5  and  N1_6 
REMARK    3  A    between atoms: N1_6  and  C6_8 
ROOT
HETATM    1  C6  UNL     1       1.912  -0.856  -0.389  1.00  0.00     0.199 A 
HETATM    2  C7  UNL     1       2.484  -1.159   0.946  1.00  0.00     0.167 A 
HETATM    3  N2  UNL     1       3.475  -0.149   1.179  1.00  0.00    -0.383 N 
ATOM      4  H2  UNL     1       4.082  -0.119   1.998  1.00  0.00     0.160 HD
HETATM    5  C8  UNL     1       3.502   0.706   0.235  1.00  0.00     0.173 A 
HETATM    6  N3  UNL     1       2.545   0.395  -0.756  1.00  0.00    -0.364 N 
ATOM      7  H3  UNL     1       2.336   0.953  -1.584  1.00  0.00     0.162 HD
ENDROOT
BRANCH   1   8
HETATM    8  N1  UNL     1       0.523  -0.697  -0.468  1.00  0.00    -0.380 N 
ATOM      9  H1  UNL     1      -0.027  -1.341  -1.037  1.00  0.00     0.160 HD
BRANCH   8  10
HETATM   10  C5  UNL     1      -0.118   0.337   0.226  1.00  0.00     0.066 C 
BRANCH  10  11
HETATM   11  C2  UNL     1      -1.615   0.287  -0.017  1.00  0.00    -0.020 C 
HETATM   12  C1  UNL     1      -1.877   0.440  -1.505  1.00  0.00     0.020 C 
HETATM   13  C3  UNL     1      -2.231   1.405   0.777  1.00  0.00     0.020 C 
HETATM   14  C4  UNL     1      -2.180  -1.019   0.429  1.00  0.00     0.020 C 
ENDBRANCH  10  11
ENDBRANCH   8  10
ENDBRANCH   1   8
TORSDOF 3
