REMARK  7 active torsions:
REMARK  status: ('A' for Active; 'I' for Inactive)
REMARK    1  A    between atoms: N1_1  and  N2_4 
REMARK       I    between atoms: N2_4  and  C1_6 
REMARK    2  A    between atoms: C1_6  and  C2_8 
REMARK    3  A    between atoms: C2_8  and  N3_9 
REMARK       I    between atoms: N3_9  and  C3_11 
REMARK    4  A    between atoms: C3_11  and  C4_13 
REMARK    5  A    between atoms: C4_13  and  N4_14 
REMARK    6  A    between atoms: N4_14  and  C5_16 
REMARK    7  A    between atoms: N8_29  and  N9_30 
ROOT
HETATM    1  C5  UNL     1      -1.928   0.909   0.107  1.00  0.00     0.708 A 
HETATM    2  N5  UNL     1      -2.894   1.645  -0.510  1.00  0.00    -0.172 N 
ATOM      3  H5  UNL     1      -2.696   2.621  -0.729  1.00  0.00     0.186 HD
HETATM    4  C6  UNL     1      -4.081   1.150  -0.840  1.00  0.00     0.157 A 
HETATM    5  N6  UNL     1      -5.187   1.648  -1.442  1.00  0.00    -0.292 N 
ATOM      6  H6  UNL     1      -5.295   2.604  -1.780  1.00  0.00     0.172 HD
HETATM    7  C7  UNL     1      -6.113   0.690  -1.523  1.00  0.00     0.326 A 
HETATM    8  O3  UNL     1      -7.272   0.809  -2.030  1.00  0.00    -0.247 OA
HETATM    9  N7  UNL     1      -5.632  -0.432  -0.984  1.00  0.00    -0.301 N 
ATOM     10  H7  UNL     1      -6.118  -1.325  -0.907  1.00  0.00     0.171 HD
HETATM   11  C8  UNL     1      -4.364  -0.157  -0.554  1.00  0.00     0.152 A 
HETATM   12  C9  UNL     1      -3.405  -0.904   0.065  1.00  0.00     0.312 A 
HETATM   13  O4  UNL     1      -3.655  -2.107   0.333  1.00  0.00    -0.263 OA
HETATM   14  N8  UNL     1      -2.204  -0.364   0.386  1.00  0.00    -0.052 N 
ENDROOT
BRANCH   1  15
HETATM   15  N4  UNL     1      -0.860   1.456   0.373  1.00  0.00    -0.195 N 
ATOM     16  H4  UNL     1      -0.883   2.428   0.066  1.00  0.00     0.183 HD
BRANCH  15  17
HETATM   17  C4  UNL     1       0.370   1.175   0.958  1.00  0.00     0.180 C 
BRANCH  17  18
HETATM   18  C3  UNL     1       1.383   0.543   0.119  1.00  0.00     0.257 C 
HETATM   19  N3  UNL     1       2.654   0.222   0.642  1.00  0.00    -0.348 N 
ATOM     20  H3  UNL     1       2.872   0.432   1.616  1.00  0.00     0.163 HD
HETATM   21  O2  UNL     1       1.138   0.278  -1.072  1.00  0.00    -0.267 OA
BRANCH  19  22
HETATM   22  C2  UNL     1       3.655  -0.408  -0.207  1.00  0.00     0.227 C 
BRANCH  22  23
HETATM   23  C1  UNL     1       4.902  -0.641   0.576  1.00  0.00     0.253 C 
HETATM   24  N2  UNL     1       6.041  -1.245  -0.012  1.00  0.00    -0.275 N 
ATOM     25  H2  UNL     1       6.020  -1.531  -0.991  1.00  0.00     0.189 HD
HETATM   26  O1  UNL     1       4.948  -0.300   1.772  1.00  0.00    -0.270 OA
BRANCH  24  27
HETATM   27  N1  UNL     1       7.192  -1.448   0.752  1.00  0.00    -0.343 N 
ATOM     28  H12 UNL     1       7.196  -1.157   1.729  1.00  0.00     0.176 HD
ATOM     29  H11 UNL     1       8.012  -1.883   0.329  1.00  0.00     0.176 HD
ENDBRANCH  24  27
ENDBRANCH  22  23
ENDBRANCH  19  22
ENDBRANCH  17  18
ENDBRANCH  15  17
ENDBRANCH   1  15
BRANCH  14  30
HETATM   30  N9  UNL     1      -1.295  -1.212   1.016  1.00  0.00    -0.321 N 
ATOM     31  H92 UNL     1      -0.391  -0.806   1.258  1.00  0.00     0.178 HD
ATOM     32  H91 UNL     1      -1.506  -2.187   1.230  1.00  0.00     0.178 HD
ENDBRANCH  14  30
TORSDOF 7
