REMARK  7 active torsions:
REMARK  status: ('A' for Active; 'I' for Inactive)
REMARK       I    between atoms: N1_1  and  C1_5 
REMARK       I    between atoms: C1_5  and  N2_6 
REMARK       I    between atoms: C1_5  and  N3_10 
REMARK    1  A    between atoms: N3_10  and  C2_12 
REMARK    2  A    between atoms: C4_18  and  N6_19 
REMARK    3  A    between atoms: N6_19  and  N7_21 
REMARK    4  A    between atoms: N7_21  and  S1_23 
REMARK    5  A    between atoms: S1_23  and  N8_26 
REMARK    6  A    between atoms: N8_26  and  S2_28 
REMARK    7  A    between atoms: S2_28  and  N9_29 
ROOT
HETATM    1  C2  UNL     1      -2.348   0.254  -0.009  1.00  0.00     0.696 A 
HETATM    2  N4  UNL     1      -2.808  -1.009   0.104  1.00  0.00    -0.187 N 
ATOM      3  H4  UNL     1      -3.794  -1.162   0.315  1.00  0.00     0.185 HD
HETATM    4  C3  UNL     1      -1.995  -2.075  -0.055  1.00  0.00     0.215 A 
HETATM    5  N5  UNL     1      -0.692  -1.912  -0.333  1.00  0.00    -0.185 N 
ATOM      6  H5  UNL     1      -0.075  -2.715  -0.454  1.00  0.00     0.185 HD
HETATM    7  C4  UNL     1      -0.228  -0.662  -0.447  1.00  0.00     0.712 A 
HETATM    8  N10 UNL     1      -1.046   0.419  -0.287  1.00  0.00    -0.021 N 
ATOM      9  H10 UNL     1      -0.664   1.360  -0.380  1.00  0.00     0.203 HD
ENDROOT
BRANCH   7  10
HETATM   10  N6  UNL     1       1.003  -0.455  -0.711  1.00  0.00    -0.121 N 
ATOM     11  H6  UNL     1       1.353   0.499  -0.798  1.00  0.00     0.206 HD
BRANCH  10  12
HETATM   12  N7  UNL     1       1.866  -1.531  -0.880  1.00  0.00    -0.195 N 
ATOM     13  H7  UNL     1       1.629  -2.295  -1.513  1.00  0.00     0.202 HD
BRANCH  12  14
HETATM   14  S1  UNL     1       3.343  -1.547   0.001  1.00  0.00     0.347 S 
HETATM   15  O1  UNL     1       3.149  -0.777   1.263  1.00  0.00    -0.180 OA
HETATM   16  O2  UNL     1       3.727  -2.949   0.374  1.00  0.00    -0.180 OA
BRANCH  14  17
HETATM   17  N8  UNL     1       4.542  -0.767  -0.948  1.00  0.00    -0.176 N 
ATOM     18  H8  UNL     1       5.141  -1.252  -1.616  1.00  0.00     0.195 HD
BRANCH  17  19
HETATM   19  S2  UNL     1       4.619   0.926  -0.644  1.00  0.00     0.327 S 
HETATM   20  O3  UNL     1       3.284   1.480  -0.314  1.00  0.00    -0.182 OA
HETATM   21  O4  UNL     1       5.155   1.578  -1.893  1.00  0.00    -0.182 OA
BRANCH  19  22
HETATM   22  N9  UNL     1       5.746   1.253   0.635  1.00  0.00    -0.311 N 
ATOM     23  H92 UNL     1       6.278   0.535   1.126  1.00  0.00     0.170 HD
ATOM     24  H91 UNL     1       5.792   2.256   0.815  1.00  0.00     0.170 HD
ENDBRANCH  19  22
ENDBRANCH  17  19
ENDBRANCH  14  17
ENDBRANCH  12  14
ENDBRANCH  10  12
ENDBRANCH   7  10
BRANCH   1  25
HETATM   25  N3  UNL     1      -3.093   1.295   0.136  1.00  0.00    -0.173 N 
HETATM   26  C1  UNL     1      -4.486   1.168   0.433  1.00  0.00     0.494 C 
HETATM   27  N1  UNL     1      -4.799   2.011   1.555  1.00  0.00    -0.032 N 
HETATM   28  N2  UNL     1      -5.252   1.564  -0.749  1.00  0.00    -0.032 N 
ATOM     29  H13 UNL     1      -4.666   2.998   1.333  1.00  0.00     0.278 HD
ATOM     30  H12 UNL     1      -5.801   2.029   1.744  1.00  0.00     0.278 HD
ATOM     31  H11 UNL     1      -4.265   1.735   2.379  1.00  0.00     0.278 HD
ATOM     32  H23 UNL     1      -6.254   1.582  -0.560  1.00  0.00     0.278 HD
ATOM     33  H22 UNL     1      -5.119   2.551  -0.971  1.00  0.00     0.278 HD
ATOM     34  H21 UNL     1      -5.030   0.966  -1.545  1.00  0.00     0.278 HD
ATOM     35  H3  UNL     1      -2.683   2.224   0.037  1.00  0.00     0.181 HD
ENDBRANCH   1  25
TORSDOF 7
