REMARK  6 active torsions:
REMARK  status: ('A' for Active; 'I' for Inactive)
REMARK    1  A    between atoms: C3_11  and  O2_12 
REMARK    2  A    between atoms: C4_14  and  C5_15 
REMARK    3  A    between atoms: N4_16  and  N5_18 
REMARK       I    between atoms: N5_18  and  C6_20 
REMARK    4  A    between atoms: C6_20  and  C7_22 
REMARK    5  A    between atoms: C7_22  and  N6_23 
REMARK    6  A    between atoms: C7_22  and  C8_27 
ROOT
HETATM    1  N1  UNL     1      -5.447   0.002  -2.024  1.00  0.00    -0.234 N 
ATOM      2  H11 UNL     1      -5.062   0.357  -2.899  1.00  0.00     0.174 HD
ATOM      3  H12 UNL     1      -6.347  -0.425  -1.805  1.00  0.00     0.174 HD
HETATM    4  C1  UNL     1      -4.637   0.121  -1.011  1.00  0.00     0.682 C 
HETATM    5  N2  UNL     1      -5.175  -0.375   0.213  1.00  0.00    -0.141 N 
ATOM      6  H2  UNL     1      -6.162  -0.622   0.140  1.00  0.00     0.189 HD
HETATM    7  C2  UNL     1      -4.639  -0.605   1.525  1.00  0.00     0.340 C 
HETATM    8  O1  UNL     1      -5.557  -0.944   2.331  1.00  0.00    -0.246 OA
HETATM    9  N3  UNL     1      -3.342  -0.538   2.105  1.00  0.00    -0.288 N 
ATOM     10  H3  UNL     1      -3.359  -0.738   3.105  1.00  0.00     0.172 HD
HETATM   11  C3  UNL     1      -2.013  -0.259   1.633  1.00  0.00     0.161 C 
HETATM   12  C4  UNL     1      -1.484   0.240   0.529  1.00  0.00     0.100 C 
HETATM   13  C9  UNL     1      -2.092   0.725  -0.702  1.00  0.00     0.275 C 
HETATM   14  O5  UNL     1      -1.249   1.320  -1.437  1.00  0.00    -0.267 OA
HETATM   15  N8  UNL     1      -3.382   0.717  -1.317  1.00  0.00    -0.155 N 
ATOM     16  H8  UNL     1      -3.409   1.267  -2.176  1.00  0.00     0.187 HD
ENDROOT
BRANCH  12  17
HETATM   17  C5  UNL     1      -0.041   0.304   0.578  1.00  0.00     0.128 C 
HETATM   18  N4  UNL     1       0.569   0.786  -0.474  1.00  0.00    -0.308 N 
ATOM     19  H4  UNL     1       0.010   1.091  -1.271  1.00  0.00     0.186 HD
BRANCH  18  20
HETATM   20  N5  UNL     1       1.955   0.897  -0.542  1.00  0.00    -0.268 N 
HETATM   21  C6  UNL     1       2.729  -0.097  -1.191  1.00  0.00     0.275 C 
HETATM   22  O3  UNL     1       2.166  -1.082  -1.709  1.00  0.00    -0.269 OA
ATOM     23  H5  UNL     1       2.418   1.702  -0.120  1.00  0.00     0.190 HD
BRANCH  21  24
HETATM   24  C7  UNL     1       4.213   0.035  -1.256  1.00  0.00     0.364 C 
BRANCH  24  25
HETATM   25  N6  UNL     1       4.617   1.236  -0.598  1.00  0.00    -0.058 N 
ATOM     26  H63 UNL     1       4.141   2.058  -0.971  1.00  0.00     0.275 HD
ATOM     27  H62 UNL     1       4.268   1.286   0.359  1.00  0.00     0.275 HD
ATOM     28  H61 UNL     1       5.632   1.326  -0.642  1.00  0.00     0.275 HD
ENDBRANCH  24  25
BRANCH  24  29
HETATM   29  C8  UNL     1       4.812  -1.181  -0.667  1.00  0.00     0.271 C 
HETATM   30  N7  UNL     1       5.705  -1.113   0.454  1.00  0.00    -0.060 NA
HETATM   31  O4  UNL     1       4.512  -2.285  -1.183  1.00  0.00    -0.274 OA
ENDBRANCH  24  29
ENDBRANCH  21  24
ENDBRANCH  18  20
ENDBRANCH  12  17
BRANCH  11  32
HETATM   32  O2  UNL     1      -1.007  -0.583   2.537  1.00  0.00    -0.345 OA
ATOM     33  H2  UNL     1      -0.129  -0.399   2.225  1.00  0.00     0.219 HD
ENDBRANCH  11  32
TORSDOF 6
