REMARK  8 active torsions:
REMARK  status: ('A' for Active; 'I' for Inactive)
REMARK    1  A    between atoms: N1_1  and  N2_4 
REMARK    2  A    between atoms: N2_4  and  C1_6 
REMARK    3  A    between atoms: C1_6  and  C2_8 
REMARK    4  A    between atoms: C2_8  and  N3_9 
REMARK    5  A    between atoms: C2_8  and  N4_13 
REMARK    6  A    between atoms: N4_13  and  N5_15 
REMARK    7  A    between atoms: C5_19  and  C6_20 
REMARK    8  A    between atoms: C7_25  and  C8_26 
ROOT
HETATM    1  N5  UNL     1      -0.935   0.736   0.752  1.00  0.00    -0.288 N 
ATOM      2  H5  UNL     1      -1.375   1.655   0.700  1.00  0.00     0.188 HD
HETATM    3  C3  UNL     1       0.317   0.554   0.431  1.00  0.00     0.123 A 
HETATM    4  C4  UNL     1       0.935  -0.666   0.491  1.00  0.00     0.084 A 
HETATM    5  C5  UNL     1       2.258  -0.790   0.139  1.00  0.00     0.103 A 
HETATM    6  N7  UNL     1       2.897   0.325  -0.257  1.00  0.00    -0.334 N 
ATOM      7  H7  UNL     1       3.880   0.261  -0.523  1.00  0.00     0.168 HD
HETATM    8  C7  UNL     1       2.282   1.526  -0.314  1.00  0.00     0.173 A 
HETATM    9  N9  UNL     1       0.992   1.623   0.033  1.00  0.00    -0.323 N 
ATOM     10  H9  UNL     1       0.524   2.529  -0.009  1.00  0.00     0.169 HD
ENDROOT
BRANCH   1  11
HETATM   11  N4  UNL     1      -1.641  -0.396   1.171  1.00  0.00    -0.299 N 
ATOM     12  H4  UNL     1      -1.282  -1.018   1.896  1.00  0.00     0.183 HD
BRANCH  11  13
HETATM   13  C2  UNL     1      -2.921  -0.637   0.511  1.00  0.00     0.359 C 
BRANCH  13  14
HETATM   14  C1  UNL     1      -3.847   0.516   0.733  1.00  0.00     0.143 C 
HETATM   15  S1  UNL     1      -3.354   1.746   1.659  1.00  0.00    -0.060 SA
BRANCH  14  16
HETATM   16  N2  UNL     1      -5.117   0.466   0.114  1.00  0.00    -0.297 N 
ATOM     17  H2  UNL     1      -5.762   1.244   0.254  1.00  0.00     0.187 HD
BRANCH  16  18
HETATM   18  N1  UNL     1      -5.520  -0.605  -0.679  1.00  0.00    -0.344 N 
ATOM     19  H12 UNL     1      -4.862  -1.374  -0.808  1.00  0.00     0.176 HD
ATOM     20  H11 UNL     1      -6.436  -0.641  -1.126  1.00  0.00     0.176 HD
ENDBRANCH  16  18
ENDBRANCH  14  16
ENDBRANCH  13  14
BRANCH  13  21
HETATM   21  N3  UNL     1      -2.627  -0.804  -0.900  1.00  0.00    -0.051 N 
ATOM     22  H33 UNL     1      -3.479  -0.894  -1.454  1.00  0.00     0.277 HD
ATOM     23  H32 UNL     1      -2.264   0.055  -1.313  1.00  0.00     0.277 HD
ATOM     24  H31 UNL     1      -1.995  -1.590  -1.051  1.00  0.00     0.277 HD
ENDBRANCH  13  21
ENDBRANCH  11  13
ENDBRANCH   1  11
BRANCH   5  25
HETATM   25  C6  UNL     1       2.946  -2.090   0.194  1.00  0.00     0.281 C 
HETATM   26  N6  UNL     1       4.314  -2.158  -0.181  1.00  0.00    -0.056 NA
HETATM   27  O1  UNL     1       2.287  -3.078   0.572  1.00  0.00    -0.269 OA
ENDBRANCH   5  25
BRANCH   8  28
HETATM   28  C8  UNL     1       3.016   2.692  -0.748  1.00  0.00     0.298 C 
HETATM   29  N8  UNL     1       4.370   2.580  -1.111  1.00  0.00    -0.054 NA
HETATM   30  O2  UNL     1       2.473   3.823  -0.811  1.00  0.00    -0.268 OA
ENDBRANCH   8  28
TORSDOF 8
