REMARK  15 active torsions:
REMARK  status: ('A' for Active; 'I' for Inactive)
REMARK    1  A    between atoms: C2_2  and  C3_3 
REMARK    2  A    between atoms: C3_3  and  N1_4 
REMARK    3  A    between atoms: N1_4  and  C4_5 
REMARK    4  A    between atoms: N1_4  and  C14_30 
REMARK    5  A    between atoms: C4_5  and  C5_6 
REMARK    6  A    between atoms: C6_7  and  C7_8 
REMARK    7  A    between atoms: C7_8  and  N2_9 
REMARK    8  A    between atoms: N2_9  and  C8_10 
REMARK    9  A    between atoms: C8_10  and  N3_12 
REMARK   10  A    between atoms: N3_12  and  C10_14 
REMARK   11  A    between atoms: C11_19  and  N6_20 
REMARK   12  A    between atoms: N6_20  and  C12_22 
REMARK   13  A    between atoms: C12_22  and  C13_23 
REMARK   14  A    between atoms: C13_23  and  N7_24 
REMARK   15  A    between atoms: C14_30  and  C15_31 
ROOT
HETATM    1  C10 UNL     1       2.896   0.003   0.952  1.00  0.00     0.714 A 
HETATM    2  N4  UNL     1       3.046  -0.570  -0.245  1.00  0.00    -0.117 N 
ATOM      3  H4  UNL     1       2.306  -1.032  -0.774  1.00  0.00     0.206 HD
HETATM    4  N5  UNL     1       4.292  -0.447  -0.634  1.00  0.00    -0.117 N 
ATOM      5  H5  UNL     1       4.677  -0.795  -1.512  1.00  0.00     0.206 HD
HETATM    6  C11 UNL     1       5.014   0.247   0.363  1.00  0.00     0.711 A 
HETATM    7  N8  UNL     1       4.061   0.480   1.294  1.00  0.00    -0.019 N 
ATOM      8  H8  UNL     1       4.234   0.975   2.169  1.00  0.00     0.203 HD
ENDROOT
BRANCH   1   9
HETATM    9  N3  UNL     1       1.773   0.064   1.636  1.00  0.00    -0.167 N 
ATOM     10  H3  UNL     1       1.692   0.509   2.550  1.00  0.00     0.186 HD
BRANCH   9  11
HETATM   11  C8  UNL     1       0.648  -0.579   0.941  1.00  0.00     0.166 C 
HETATM   12  C9  UNL     1       0.518  -2.026   1.186  1.00  0.00     0.107 C 
BRANCH  11  13
HETATM   13  N2  UNL     1      -0.015   0.104   0.248  1.00  0.00    -0.396 NA
BRANCH  13  14
HETATM   14  C7  UNL     1      -0.773   0.869  -0.539  1.00  0.00     0.248 C 
BRANCH  14  15
HETATM   15  C6  UNL     1      -2.178   0.617  -0.787  1.00  0.00    -0.045 C 
HETATM   16  C5  UNL     1      -3.342   0.467  -1.024  1.00  0.00    -0.069 C 
BRANCH  16  17
HETATM   17  C4  UNL     1      -4.766   0.370  -1.348  1.00  0.00     0.366 C 
BRANCH  17  18
HETATM   18  N1  UNL     1      -5.545   0.375  -0.177  1.00  0.00     0.103 N 
BRANCH  18  19
HETATM   19  C3  UNL     1      -5.545  -0.864   0.593  1.00  0.00     0.300 C 
BRANCH  19  20
HETATM   20  C2  UNL     1      -6.330  -1.824  -0.235  1.00  0.00    -0.007 C 
HETATM   21  C1  UNL     1      -7.420  -2.344   0.216  1.00  0.00     0.008 C 
ENDBRANCH  19  20
ENDBRANCH  18  19
BRANCH  18  22
HETATM   22  C14 UNL     1      -5.269   1.512   0.692  1.00  0.00     0.284 C 
BRANCH  22  23
HETATM   23  C15 UNL     1      -5.306   2.771  -0.122  1.00  0.00     0.115 C 
HETATM   24 BR1  UNL     1      -4.933   4.287   1.032  1.00  0.00    -0.095 Br
ENDBRANCH  22  23
ENDBRANCH  18  22
ENDBRANCH  17  18
ENDBRANCH  16  17
ENDBRANCH  14  15
ENDBRANCH  13  14
ENDBRANCH  11  13
ENDBRANCH   9  11
ENDBRANCH   1   9
BRANCH   6  25
HETATM   25  N6  UNL     1       6.234   0.529   0.320  1.00  0.00    -0.202 N 
ATOM     26  H6  UNL     1       6.597   1.037   1.126  1.00  0.00     0.183 HD
BRANCH  25  27
HETATM   27  C12 UNL     1       7.172   0.240  -0.690  1.00  0.00     0.106 C 
BRANCH  27  28
HETATM   28  C13 UNL     1       8.418  -0.371  -0.121  1.00  0.00     0.274 C 
BRANCH  28  29
HETATM   29  N7  UNL     1       9.039   0.533   0.816  1.00  0.00    -0.075 N 
ATOM     30  H73 UNL     1       9.220   1.446   0.400  1.00  0.00     0.274 HD
ATOM     31  H72 UNL     1       8.391   0.826   1.548  1.00  0.00     0.274 HD
ATOM     32  H71 UNL     1       9.886   0.117   1.203  1.00  0.00     0.274 HD
ENDBRANCH  28  29
ENDBRANCH  27  28
ENDBRANCH  25  27
ENDBRANCH   6  25
TORSDOF 15
