REMARK  10 active torsions:
REMARK  status: ('A' for Active; 'I' for Inactive)
REMARK    1  A    between atoms: N1_2  and  C4_5 
REMARK    2  A    between atoms: C4_5  and  C5_6 
REMARK    3  A    between atoms: C5_6  and  N4_17 
REMARK       I    between atoms: N2_7  and  C6_9 
REMARK       I    between atoms: C6_9  and  N3_11 
REMARK    4  A    between atoms: N3_11  and  C7_13 
REMARK    5  A    between atoms: C7_13  and  C8_14 
REMARK    6  A    between atoms: N4_17  and  C10_19 
REMARK    7  A    between atoms: C10_19  and  C11_20 
REMARK    8  A    between atoms: C11_20  and  C12_21 
REMARK    9  A    between atoms: C12_21  and  C13_22 
REMARK   10  A    between atoms: C13_22  and  N6_26 
ROOT
HETATM    1  C5  UNL     1      -1.747  -0.431  -0.912  1.00  0.00     0.107 C 
HETATM    2  N2  UNL     1      -1.452   0.457  -0.056  1.00  0.00    -0.297 N 
ATOM      3  H2  UNL     1      -0.480   0.672   0.167  1.00  0.00     0.172 HD
HETATM    4  C6  UNL     1      -2.542   1.156   0.594  1.00  0.00     0.321 C 
HETATM    5  O1  UNL     1      -3.134   0.637   1.572  1.00  0.00    -0.247 OA
HETATM    6  N3  UNL     1      -2.956   2.426   0.141  1.00  0.00    -0.339 N 
ATOM      7  H3  UNL     1      -2.482   2.853  -0.655  1.00  0.00     0.164 HD
ENDROOT
BRANCH   1   8
HETATM    8  C4  UNL     1      -3.134  -0.731  -1.223  1.00  0.00     0.311 C 
BRANCH   8   9
HETATM    9  N1  UNL     1      -3.542  -2.097  -1.058  1.00  0.00    -0.072 N 
HETATM   10  C1  UNL     1      -4.999  -2.100  -1.204  1.00  0.00     0.272 C 
HETATM   11  C2  UNL     1      -3.043  -2.948  -2.140  1.00  0.00     0.272 C 
HETATM   12  C3  UNL     1      -3.238  -2.718   0.174  1.00  0.00     0.272 C 
ENDBRANCH   8   9
ENDBRANCH   1   8
BRANCH   1  13
HETATM   13  N4  UNL     1      -0.681  -1.105  -1.556  1.00  0.00    -0.378 N 
ATOM     14  H4  UNL     1      -0.700  -1.134  -2.575  1.00  0.00     0.160 HD
BRANCH  13  15
HETATM   15  C10 UNL     1       0.424  -1.752  -0.906  1.00  0.00     0.121 C 
BRANCH  15  16
HETATM   16  C11 UNL     1       1.390  -0.820  -0.225  1.00  0.00     0.027 C 
BRANCH  16  17
HETATM   17  C12 UNL     1       2.500  -1.684   0.396  1.00  0.00     0.077 C 
BRANCH  17  18
HETATM   18  C13 UNL     1       3.498  -0.858   1.083  1.00  0.00     0.073 C 
HETATM   19  N5  UNL     1       3.713  -1.022   2.337  1.00  0.00    -0.389 N 
ATOM     20  H52 UNL     1       3.167  -1.739   2.815  1.00  0.00     0.157 HD
ATOM     21  H51 UNL     1       4.407  -0.447   2.815  1.00  0.00     0.157 HD
BRANCH  18  22
HETATM   22  N6  UNL     1       4.267   0.151   0.410  1.00  0.00    -0.365 N 
HETATM   23  C14 UNL     1       5.210  -0.185  -0.636  1.00  0.00     0.168 C 
HETATM   24  C15 UNL     1       6.525   0.393  -0.288  1.00  0.00     0.075 C 
HETATM   25  N7  UNL     1       6.587   1.605   0.397  1.00  0.00    -0.399 N 
HETATM   26  C16 UNL     1       5.397   2.316   0.664  1.00  0.00     0.138 C 
ATOM     27  H7  UNL     1       7.486   1.976   0.703  1.00  0.00     0.158 HD
HETATM   28  C17 UNL     1       4.140   1.542   0.736  1.00  0.00     0.144 C 
ENDBRANCH  18  22
ENDBRANCH  17  18
ENDBRANCH  16  17
ENDBRANCH  15  16
ENDBRANCH  13  15
ENDBRANCH   1  13
BRANCH   6  29
HETATM   29  C7  UNL     1      -4.029   3.127   0.779  1.00  0.00     0.152 C 
BRANCH  29  30
HETATM   30  C8  UNL     1      -3.693   3.409   2.184  1.00  0.00     0.000 C 
HETATM   31  C9  UNL     1      -3.638   4.654   2.610  1.00  0.00     0.053 C 
HETATM   32 BR1  UNL     1      -3.206   5.058   4.427  1.00  0.00    -0.064 Br
ENDBRANCH  29  30
ENDBRANCH   6  29
TORSDOF 10
