REMARK  9 active torsions:
REMARK  status: ('A' for Active; 'I' for Inactive)
REMARK       I    between atoms: N1_2  and  C2_4 
REMARK    1  A    between atoms: N3_6  and  C3_8 
REMARK    2  A    between atoms: N4_10  and  C5_12 
REMARK    3  A    between atoms: C5_12  and  C6_13 
REMARK    4  A    between atoms: C6_13  and  C7_14 
REMARK    5  A    between atoms: C7_14  and  C8_15 
REMARK    6  A    between atoms: C8_15  and  C9_16 
REMARK    7  A    between atoms: C9_16  and  C10_17 
REMARK    8  A    between atoms: C15_23  and  N5_24 
REMARK       I    between atoms: C16_26  and  N6_27 
REMARK       I    between atoms: C16_26  and  N8_31 
REMARK    9  A    between atoms: N8_31  and  N9_33 
ROOT
HETATM    1  N5  UNL     1      -5.237  -0.136   0.384  1.00  0.00    -0.219 N 
ATOM      2  H5  UNL     1      -5.878  -0.927   0.448  1.00  0.00     0.178 HD
HETATM    3  C16 UNL     1      -5.583   0.914  -0.268  1.00  0.00     0.703 C 
HETATM    4  N6  UNL     1      -6.849   0.953  -0.887  1.00  0.00    -0.125 N 
ATOM      5  H6  UNL     1      -7.693   0.821  -0.329  1.00  0.00     0.197 HD
HETATM    6  C17 UNL     1      -6.949   1.170  -2.249  1.00  0.00     0.196 C 
HETATM    7  N7  UNL     1      -7.049   1.362  -3.392  1.00  0.00    -0.171 NA
HETATM    8  N8  UNL     1      -4.657   1.997  -0.331  1.00  0.00    -0.117 N 
ATOM      9  H8  UNL     1      -3.807   1.902  -0.886  1.00  0.00     0.207 HD
ENDROOT
BRANCH   1  10
HETATM   10  C15 UNL     1      -3.962  -0.203   1.020  1.00  0.00     0.111 C 
HETATM   11  C10 UNL     1      -3.001  -1.045   0.220  1.00  0.00     0.039 C 
HETATM   12  C11 UNL     1      -3.598  -2.235   0.901  1.00  0.00    -0.054 C 
HETATM   13  C12 UNL     1      -3.742  -3.505   0.585  1.00  0.00     0.011 C 
HETATM   14  C14 UNL     1      -3.926  -1.323   2.040  1.00  0.00     0.062 C 
HETATM   15  C13 UNL     1      -3.259  -4.036  -0.696  1.00  0.00     0.062 C 
HETATM   16 CL1  UNL     1      -4.530  -4.573   1.729  1.00  0.00    -0.089 Cl
BRANCH  11  17
HETATM   17  C9  UNL     1      -1.549  -0.926   0.636  1.00  0.00     0.011 C 
BRANCH  17  18
HETATM   18  C8  UNL     1      -0.961   0.279  -0.060  1.00  0.00     0.001 C 
BRANCH  18  19
HETATM   19  C7  UNL     1       0.477   0.499   0.275  1.00  0.00     0.002 C 
BRANCH  19  20
HETATM   20  C6  UNL     1       1.355  -0.672  -0.112  1.00  0.00     0.020 C 
BRANCH  20  21
HETATM   21  C5  UNL     1       2.801  -0.337   0.276  1.00  0.00     0.121 C 
BRANCH  21  22
HETATM   22  N4  UNL     1       3.207   0.858  -0.437  1.00  0.00    -0.380 N 
HETATM   23  C3  UNL     1       4.304   1.458  -0.153  1.00  0.00     0.075 C 
HETATM   24  C4  UNL     1       4.639   2.676  -0.936  1.00  0.00     0.089 C 
ATOM     25  H4  UNL     1       2.610   1.228  -1.177  1.00  0.00     0.160 HD
BRANCH  23  26
HETATM   26  N3  UNL     1       5.131   0.951   0.867  1.00  0.00    -0.321 N 
HETATM   27  C2  UNL     1       6.262   0.413   0.590  1.00  0.00     0.189 C 
HETATM   28  N1  UNL     1       6.669   0.336  -0.768  1.00  0.00    -0.369 N 
HETATM   29  N2  UNL     1       7.134  -0.114   1.577  1.00  0.00    -0.064 NA
HETATM   30  C1  UNL     1       8.082   0.480  -1.095  1.00  0.00     0.148 C 
ATOM     31  H1  UNL     1       5.981   0.182  -1.505  1.00  0.00     0.161 HD
ATOM     32  H3  UNL     1       4.827   1.012   1.839  1.00  0.00     0.169 HD
ENDBRANCH  23  26
ENDBRANCH  21  22
ENDBRANCH  20  21
ENDBRANCH  19  20
ENDBRANCH  18  19
ENDBRANCH  17  18
ENDBRANCH  11  17
ENDBRANCH   1  10
BRANCH   8  33
HETATM   33  N9  UNL     1      -4.901   3.187   0.359  1.00  0.00    -0.235 N 
HETATM   34  N10 UNL     1      -6.055   3.700   0.236  1.00  0.00    -0.330 N 
ATOM     35 2H10 UNL     1      -6.763   3.251  -0.345  1.00  0.00     0.178 HD
ATOM     36 1H10 UNL     1      -6.233   4.569   0.740  1.00  0.00     0.178 HD
ATOM     37  H9  UNL     1      -4.183   3.624   0.936  1.00  0.00     0.208 HD
ENDBRANCH   8  33
TORSDOF 9
