REMARK  13 active torsions:
REMARK  status: ('A' for Active; 'I' for Inactive)
REMARK    1  A    between atoms: C2_2  and  N1_3 
REMARK    2  A    between atoms: C2_2  and  N7_24 
REMARK    3  A    between atoms: N1_3  and  C3_5 
REMARK    4  A    between atoms: C3_5  and  C4_6 
REMARK    5  A    between atoms: C4_6  and  N2_7 
REMARK    6  A    between atoms: N2_7  and  C5_9 
REMARK    7  A    between atoms: C7_14  and  C8_15 
REMARK    8  A    between atoms: N7_24  and  C12_25 
REMARK    9  A    between atoms: N7_24  and  C14_29 
REMARK   10  A    between atoms: C12_25  and  C13_26 
REMARK   11  A    between atoms: C13_26  and  O1_27 
REMARK   12  A    between atoms: C14_29  and  C15_30 
REMARK   13  A    between atoms: C15_30  and  O2_31 
ROOT
HETATM    1  N2  UNL     1       0.839  -0.341   0.449  1.00  0.00    -0.224 N 
ATOM      2  H2  UNL     1       0.791   0.672   0.563  1.00  0.00     0.177 HD
ENDROOT
BRANCH   1   3
HETATM    3  C4  UNL     1      -0.402  -1.130   0.467  1.00  0.00     0.157 C 
BRANCH   3   4
HETATM    4  C3  UNL     1      -1.470  -0.241   1.046  1.00  0.00     0.141 C 
BRANCH   4   5
HETATM    5  N1  UNL     1      -1.588   0.921   0.159  1.00  0.00    -0.379 N 
ATOM      6  H1  UNL     1      -0.749   1.425  -0.128  1.00  0.00     0.160 HD
BRANCH   5   7
HETATM    7  C2  UNL     1      -2.746   1.313  -0.262  1.00  0.00     0.071 C 
HETATM    8  C1  UNL     1      -2.804   2.485  -1.150  1.00  0.00     0.088 C 
BRANCH   7   9
HETATM    9  N7  UNL     1      -3.923   0.633   0.127  1.00  0.00    -0.367 N 
BRANCH   9  10
HETATM   10  C12 UNL     1      -4.488  -0.349  -0.744  1.00  0.00     0.150 C 
BRANCH  10  11
HETATM   11  C13 UNL     1      -3.711  -0.495  -2.040  1.00  0.00     0.183 C 
BRANCH  11  12
HETATM   12  O1  UNL     1      -4.312  -1.475  -2.857  1.00  0.00    -0.399 OA
ATOM     13  H1  UNL     1      -3.826  -1.566  -3.668  1.00  0.00     0.209 HD
ENDBRANCH  11  12
ENDBRANCH  10  11
ENDBRANCH   9  10
BRANCH   9  14
HETATM   14  C14 UNL     1      -4.492   0.951   1.401  1.00  0.00     0.150 C 
BRANCH  14  15
HETATM   15  C15 UNL     1      -5.820   1.658   1.363  1.00  0.00     0.183 C 
BRANCH  15  16
HETATM   16  O2  UNL     1      -6.821   0.935   0.739  1.00  0.00    -0.399 OA
ATOM     17  H2  UNL     1      -7.659   1.381   0.715  1.00  0.00     0.209 HD
ENDBRANCH  15  16
ENDBRANCH  14  15
ENDBRANCH   9  14
ENDBRANCH   7   9
ENDBRANCH   5   7
ENDBRANCH   4   5
ENDBRANCH   3   4
ENDBRANCH   1   3
BRANCH   1  18
HETATM   18  C5  UNL     1       1.978  -0.904   0.293  1.00  0.00     0.679 A 
HETATM   19  N3  UNL     1       2.167  -2.210   0.135  1.00  0.00    -0.183 N 
HETATM   20  C6  UNL     1       3.519  -2.375   0.006  1.00  0.00     0.125 A 
ATOM     21  H3  UNL     1       1.453  -2.938   0.114  1.00  0.00     0.185 HD
HETATM   22 BR1  UNL     1       4.248  -4.115  -0.265  1.00  0.00    -0.028 Br
HETATM   23  C7  UNL     1       4.174  -1.173   0.083  1.00  0.00     0.112 A 
HETATM   24  N6  UNL     1       3.174  -0.269   0.264  1.00  0.00    -0.187 N 
ATOM     25  H6  UNL     1       3.305   0.738   0.363  1.00  0.00     0.184 HD
BRANCH  23  26
HETATM   26  C8  UNL     1       5.625  -0.906  -0.035  1.00  0.00     0.081 A 
HETATM   27  C9  UNL     1       6.629  -1.867  -0.075  1.00  0.00     0.121 A 
HETATM   28  N4  UNL     1       7.823  -1.247  -0.216  1.00  0.00    -0.360 N 
HETATM   29  C10 UNL     1       7.588   0.042  -0.263  1.00  0.00     0.182 A 
ATOM     30  H4  UNL     1       8.736  -1.698  -0.275  1.00  0.00     0.166 HD
HETATM   31  N5  UNL     1       6.241   0.282  -0.153  1.00  0.00    -0.344 N 
HETATM   32  C11 UNL     1       5.641   1.592  -0.178  1.00  0.00     0.157 C 
ENDBRANCH  23  26
ENDBRANCH   1  18
TORSDOF 13
