REMARK  8 active torsions:
REMARK  status: ('A' for Active; 'I' for Inactive)
REMARK    1  A    between atoms: N1_4  and  C4_5 
REMARK    2  A    between atoms: C4_5  and  C5_6 
REMARK    3  A    between atoms: C5_6  and  C6_7 
REMARK    4  A    between atoms: C6_7  and  N2_8 
REMARK       I    between atoms: N2_8  and  C7_10 
REMARK       I    between atoms: C7_10  and  N4_14 
REMARK    5  A    between atoms: N4_14  and  N5_16 
REMARK    6  A    between atoms: N5_16  and  C10_19 
REMARK    7  A    between atoms: C10_19  and  C11_20 
REMARK    8  A    between atoms: C11_20  and  N6_21 
REMARK       I    between atoms: N7_29  and  C18_30 
ROOT
HETATM    1  N2  UNL     1      -1.030   0.682  -0.053  1.00  0.00    -0.225 N 
ATOM      2  H2  UNL     1      -1.650   1.090   0.647  1.00  0.00     0.177 HD
HETATM    3  C7  UNL     1       0.329   1.080  -0.063  1.00  0.00     0.692 C 
HETATM    4  N3  UNL     1       0.623   2.294   0.244  1.00  0.00    -0.234 N 
ATOM      5  H31 UNL     1       1.602   2.581   0.237  1.00  0.00     0.174 HD
ATOM      6  H32 UNL     1      -0.111   2.957   0.491  1.00  0.00     0.174 HD
HETATM    7  N4  UNL     1       1.366   0.143  -0.412  1.00  0.00    -0.049 N 
ATOM      8  H4  UNL     1       1.356  -0.283  -1.339  1.00  0.00     0.213 HD
ENDROOT
BRANCH   1   9
HETATM    9  C6  UNL     1      -1.581  -0.274  -0.987  1.00  0.00     0.139 C 
BRANCH   9  10
HETATM   10  C5  UNL     1      -3.055  -0.507  -0.745  1.00  0.00     0.040 C 
BRANCH  10  11
HETATM   11  C4  UNL     1      -3.843   0.783  -0.896  1.00  0.00     0.129 C 
BRANCH  11  12
HETATM   12  N1  UNL     1      -5.248   0.582  -0.669  1.00  0.00    -0.332 N 
HETATM   13  C3  UNL     1      -6.222   0.239  -1.684  1.00  0.00     0.153 C 
HETATM   14  C2  UNL     1      -7.347  -0.407  -0.916  1.00  0.00     0.111 C 
HETATM   15  C1  UNL     1      -7.027  -1.850  -0.675  1.00  0.00     0.034 C 
HETATM   16  N7  UNL     1      -7.348   0.367   0.323  1.00  0.00    -0.268 N 
HETATM   17  C17 UNL     1      -5.958   0.675   0.557  1.00  0.00     0.327 C 
HETATM   18  C18 UNL     1      -8.471   0.724   1.106  1.00  0.00     0.192 C 
HETATM   19  O1  UNL     1      -5.499   0.975   1.695  1.00  0.00    -0.247 OA
HETATM   20  N8  UNL     1      -8.758   1.959   1.322  1.00  0.00    -0.373 N 
HETATM   21  N9  UNL     1      -9.317  -0.265   1.676  1.00  0.00    -0.063 NA
ATOM     22  H82 UNL     1      -8.151   2.669   0.913  1.00  0.00     0.158 HD
ATOM     23  H81 UNL     1      -9.568   2.216   1.887  1.00  0.00     0.158 HD
ENDBRANCH  11  12
ENDBRANCH  10  11
ENDBRANCH   9  10
ENDBRANCH   1   9
BRANCH   7  24
HETATM   24  N5  UNL     1       2.387  -0.201   0.481  1.00  0.00     0.020 N 
HETATM   25  C8  UNL     1       2.074   0.337   1.788  1.00  0.00     0.302 C 
HETATM   26  C9  UNL     1       2.494  -1.648   0.511  1.00  0.00     0.302 C 
BRANCH  24  27
HETATM   27  C10 UNL     1       3.597   0.425   0.011  1.00  0.00     0.292 C 
BRANCH  27  28
HETATM   28  C11 UNL     1       4.822  -0.345   0.446  1.00  0.00     0.267 C 
BRANCH  28  29
HETATM   29  N6  UNL     1       6.042   0.246  -0.002  1.00  0.00    -0.069 N 
HETATM   30  C12 UNL     1       6.069   1.687   0.159  1.00  0.00     0.272 C 
HETATM   31  C13 UNL     1       6.381  -0.054  -1.356  1.00  0.00     0.237 C 
HETATM   32  C14 UNL     1       7.696  -0.778  -1.369  1.00  0.00     0.029 C 
HETATM   33  C15 UNL     1       7.726  -1.400   0.012  1.00  0.00     0.029 C 
HETATM   34  C16 UNL     1       7.117  -0.279   0.841  1.00  0.00     0.237 C 
ENDBRANCH  28  29
ENDBRANCH  27  28
ENDBRANCH  24  27
ENDBRANCH   7  24
TORSDOF 8
