REMARK  10 active torsions:
REMARK  status: ('A' for Active; 'I' for Inactive)
REMARK    1  A    between atoms: C2_2  and  C3_3 
REMARK    2  A    between atoms: C3_3  and  N1_4 
REMARK       I    between atoms: N1_4  and  C4_6 
REMARK    3  A    between atoms: N3_8  and  C5_10 
REMARK    4  A    between atoms: C8_13  and  N4_14 
REMARK    5  A    between atoms: N4_14  and  C9_15 
REMARK    6  A    between atoms: C9_15  and  C10_16 
REMARK    7  A    between atoms: C14_20  and  C15_22 
REMARK    8  A    between atoms: C15_22  and  O1_23 
REMARK    9  A    between atoms: N5_26  and  C17_27 
REMARK   10  A    between atoms: C17_27  and  C18_28 
ROOT
HETATM    1  C5  UNL     1       2.000  -0.060  -0.872  1.00  0.00     0.176 C 
HETATM    2  C6  UNL     1       1.884   0.565   0.474  1.00  0.00     0.038 C 
HETATM    3  C7  UNL     1       0.552   0.236   1.161  1.00  0.00     0.058 C 
HETATM    4  C8  UNL     1      -0.454   0.031   0.066  1.00  0.00     0.294 C 
HETATM    5  N5  UNL     1      -0.186  -1.228  -0.507  1.00  0.00    -0.312 N 
HETATM    6  C19 UNL     1       1.163  -1.270  -1.074  1.00  0.00     0.244 C 
HETATM    7  O4  UNL     1       1.568  -2.297  -1.699  1.00  0.00    -0.271 OA
ENDROOT
BRANCH   4   8
HETATM    8  N4  UNL     1      -1.794   0.437   0.371  1.00  0.00    -0.043 N 
HETATM    9  C12 UNL     1      -1.707   1.829   0.790  1.00  0.00     0.243 C 
HETATM   10  C13 UNL     1      -2.238   1.964   2.171  1.00  0.00     0.075 C 
HETATM   11  C14 UNL     1      -2.795   0.634   2.535  1.00  0.00     0.150 C 
HETATM   12  F1  UNL     1      -2.416   0.249   3.831  1.00  0.00    -0.239 F 
HETATM   13  C16 UNL     1      -2.270  -0.327   1.502  1.00  0.00     0.285 C 
BRANCH   8  14
HETATM   14  C9  UNL     1      -2.662   0.233  -0.733  1.00  0.00     0.240 C 
BRANCH  14  15
HETATM   15  C10 UNL     1      -3.403   1.426  -1.268  1.00  0.00     0.023 C 
HETATM   16  C11 UNL     1      -4.255   0.893  -2.433  1.00  0.00     0.007 C 
ENDBRANCH  14  15
ENDBRANCH   8  14
BRANCH  11  17
HETATM   17  C15 UNL     1      -4.302   0.721   2.568  1.00  0.00     0.209 C 
BRANCH  17  18
HETATM   18  O1  UNL     1      -4.617   1.690   3.538  1.00  0.00    -0.398 OA
ATOM     19  H1  UNL     1      -5.565   1.745   3.559  1.00  0.00     0.209 HD
ENDBRANCH  17  18
ENDBRANCH  11  17
ENDBRANCH   4   8
BRANCH   5  20
HETATM   20  C17 UNL     1      -0.921  -2.425  -0.660  1.00  0.00     0.241 C 
BRANCH  20  21
HETATM   21  C18 UNL     1      -0.768  -3.450   0.386  1.00  0.00     0.191 C 
HETATM   22  O2  UNL     1      -0.051  -3.393   1.391  1.00  0.00    -0.647 OA
HETATM   23  O3  UNL     1      -1.516  -4.639   0.246  1.00  0.00    -0.647 OA
ENDBRANCH  20  21
ENDBRANCH   5  20
BRANCH   1  24
HETATM   24  N3  UNL     1       3.376  -0.266  -1.180  1.00  0.00    -0.351 N 
HETATM   25  C4  UNL     1       4.236  -1.012  -0.651  1.00  0.00     0.185 C 
HETATM   26  N1  UNL     1       5.556  -0.996  -1.196  1.00  0.00    -0.361 N 
HETATM   27  N2  UNL     1       4.034  -1.883   0.452  1.00  0.00    -0.064 NA
ATOM     28  H1  UNL     1       6.040  -1.882  -1.343  1.00  0.00     0.162 HD
ATOM     29  H3  UNL     1       3.721   0.287  -1.964  1.00  0.00     0.163 HD
BRANCH  26  30
HETATM   30  C3  UNL     1       6.229   0.238  -1.546  1.00  0.00     0.148 C 
BRANCH  30  31
HETATM   31  C2  UNL     1       5.571   0.909  -2.723  1.00  0.00    -0.018 C 
HETATM   32  C1  UNL     1       5.067   2.129  -2.617  1.00  0.00     0.008 C 
ENDBRANCH  30  31
ENDBRANCH  26  30
ENDBRANCH   1  24
TORSDOF 10
