REMARK  18 active torsions:
REMARK  status: ('A' for Active; 'I' for Inactive)
REMARK    1  A    between atoms: C2_2  and  N8_35 
REMARK    2  A    between atoms: N1_3  and  N2_5 
REMARK    3  A    between atoms: N2_5  and  C3_7 
REMARK    4  A    between atoms: C3_7  and  C4_8 
REMARK    5  A    between atoms: C4_8  and  C5_9 
REMARK    6  A    between atoms: C5_9  and  N3_10 
REMARK       I    between atoms: C6_12  and  N5_14 
REMARK    7  A    between atoms: N5_14  and  C7_16 
REMARK    8  A    between atoms: C7_16  and  C8_17 
REMARK    9  A    between atoms: C8_17  and  C9_18 
REMARK   10  A    between atoms: C9_18  and  C10_19 
REMARK   11  A    between atoms: C10_19  and  C11_20 
REMARK   12  A    between atoms: C11_20  and  C12_21 
REMARK       I    between atoms: C12_21  and  N6_23 
REMARK   13  A    between atoms: N6_23  and  C13_24 
REMARK   14  A    between atoms: C13_24  and  C14_25 
REMARK   15  A    between atoms: N8_35  and  C21_37 
REMARK   16  A    between atoms: C21_37  and  C22_38 
REMARK   17  A    between atoms: C22_38  and  S1_39 
REMARK   18  A    between atoms: S1_39  and  N9_40 
ROOT
HETATM    1  N3  UNL     1       2.929   0.684   1.479  1.00  0.00    -0.365 N 
ATOM      2  H3  UNL     1       3.490   0.963   2.284  1.00  0.00     0.162 HD
HETATM    3  C6  UNL     1       1.873   0.021   1.672  1.00  0.00     0.183 C 
HETATM    4  N4  UNL     1       1.407  -0.367   2.959  1.00  0.00    -0.064 NA
HETATM    5  N5  UNL     1       1.081  -0.392   0.562  1.00  0.00    -0.365 N 
ATOM      6  H5  UNL     1       1.488  -0.456  -0.371  1.00  0.00     0.162 HD
ENDROOT
BRANCH   1   7
HETATM    7  C5  UNL     1       3.367   1.058   0.164  1.00  0.00     0.124 C 
BRANCH   7   8
HETATM    8  C4  UNL     1       4.296   0.002  -0.369  1.00  0.00     0.041 C 
BRANCH   8   9
HETATM    9  C3  UNL     1       5.482  -0.114   0.564  1.00  0.00     0.141 C 
BRANCH   9  10
HETATM   10  N2  UNL     1       6.142   1.165   0.619  1.00  0.00    -0.335 N 
ATOM     11  H2  UNL     1       6.291   1.625   1.517  1.00  0.00     0.180 HD
BRANCH  10  12
HETATM   12  N1  UNL     1       6.573   1.768  -0.547  1.00  0.00    -0.294 N 
HETATM   13  C2  UNL     1       7.518   1.289  -1.242  1.00  0.00     0.087 C 
HETATM   14  C1  UNL     1       7.885   2.054  -2.488  1.00  0.00     0.090 C 
ATOM     15  H1  UNL     1       6.116   2.625  -0.858  1.00  0.00     0.188 HD
BRANCH  13  16
HETATM   16  N8  UNL     1       8.267   0.115  -0.976  1.00  0.00    -0.378 N 
ATOM     17  H8  UNL     1       8.146  -0.703  -1.573  1.00  0.00     0.160 HD
BRANCH  16  18
HETATM   18  C21 UNL     1       9.187   0.059   0.112  1.00  0.00     0.137 C 
BRANCH  18  19
HETATM   19  C22 UNL     1       9.880  -1.305   0.129  1.00  0.00     0.182 C 
BRANCH  19  20
HETATM   20  S1  UNL     1      11.001  -1.274   1.522  1.00  0.00     0.226 S 
HETATM   21  O3  UNL     1      11.692  -2.610   1.616  1.00  0.00    -0.206 OA
HETATM   22  O4  UNL     1      10.241  -0.959   2.778  1.00  0.00    -0.206 OA
BRANCH  20  23
HETATM   23  N9  UNL     1      12.118   0.010   1.272  1.00  0.00    -0.328 N 
ATOM     24  H92 UNL     1      12.127   0.635   0.466  1.00  0.00     0.168 HD
ATOM     25  H91 UNL     1      12.757   0.028   2.067  1.00  0.00     0.168 HD
ENDBRANCH  20  23
ENDBRANCH  19  20
ENDBRANCH  18  19
ENDBRANCH  16  18
ENDBRANCH  13  16
ENDBRANCH  10  12
ENDBRANCH   9  10
ENDBRANCH   8   9
ENDBRANCH   7   8
ENDBRANCH   1   7
BRANCH   5  26
HETATM   26  C7  UNL     1      -0.297  -0.716   0.780  1.00  0.00     0.122 C 
BRANCH  26  27
HETATM   27  C8  UNL     1      -0.938  -1.187  -0.479  1.00  0.00     0.020 C 
BRANCH  27  28
HETATM   28  C9  UNL     1      -0.918  -0.130  -1.534  1.00  0.00     0.002 C 
BRANCH  28  29
HETATM   29  C10 UNL     1      -1.644   1.079  -1.109  1.00  0.00     0.010 C 
BRANCH  29  30
HETATM   30  C11 UNL     1      -3.063   1.022  -0.760  1.00  0.00     0.119 C 
BRANCH  30  31
HETATM   31  C12 UNL     1      -4.003   0.578  -1.853  1.00  0.00     0.290 C 
HETATM   32  O1  UNL     1      -3.456   0.028  -2.856  1.00  0.00    -0.257 OA
HETATM   33  N6  UNL     1      -5.329   0.806  -1.673  1.00  0.00    -0.384 NA
BRANCH  33  34
HETATM   34  C13 UNL     1      -6.645   1.032  -1.494  1.00  0.00     0.210 C 
BRANCH  34  35
HETATM   35  C14 UNL     1      -7.523  -0.225  -1.474  1.00  0.00     0.210 C 
HETATM   36  F1  UNL     1      -7.380  -0.920  -2.665  1.00  0.00    -0.227 F 
HETATM   37  C15 UNL     1      -7.202  -1.132  -0.327  1.00  0.00     0.086 C 
HETATM   38  C16 UNL     1      -7.722  -0.677   1.000  1.00  0.00     0.241 C 
HETATM   39  N7  UNL     1      -9.074  -0.228   1.009  1.00  0.00    -0.068 N 
HETATM   40  C17 UNL     1      -9.359   0.361   2.317  1.00  0.00     0.272 C 
HETATM   41  C18 UNL     1      -9.942  -1.392   0.809  1.00  0.00     0.272 C 
HETATM   42  C19 UNL     1      -9.345   0.773   0.003  1.00  0.00     0.318 C 
HETATM   43  C20 UNL     1      -8.928   0.253  -1.318  1.00  0.00     0.198 C 
HETATM   44  O2  UNL     1      -9.709   0.210  -2.277  1.00  0.00    -0.292 OA
ENDBRANCH  34  35
ENDBRANCH  33  34
ENDBRANCH  30  31
ENDBRANCH  29  30
ENDBRANCH  28  29
ENDBRANCH  27  28
ENDBRANCH  26  27
ENDBRANCH   5  26
TORSDOF 18
