REMARK  16 active torsions:
REMARK  status: ('A' for Active; 'I' for Inactive)
REMARK    1  A    between atoms: C2_2  and  C4_4 
REMARK    2  A    between atoms: C4_4  and  C5_5 
REMARK    3  A    between atoms: C5_5  and  C6_6 
REMARK    4  A    between atoms: C6_6  and  N1_7 
REMARK    5  A    between atoms: C6_6  and  C21_36 
REMARK       I    between atoms: N1_7  and  C7_9 
REMARK    6  A    between atoms: C7_9  and  C8_11 
REMARK       I    between atoms: C8_11  and  N2_13 
REMARK       I    between atoms: N2_13  and  C9_15 
REMARK    7  A    between atoms: C9_15  and  C10_17 
REMARK    8  A    between atoms: C10_17  and  C11_18 
REMARK    9  A    between atoms: C10_17  and  N4_23 
REMARK   10  A    between atoms: C11_18  and  C12_19 
REMARK   11  A    between atoms: C12_19  and  C13_20 
REMARK   12  A    between atoms: N4_23  and  C14_25 
REMARK   13  A    between atoms: C14_25  and  C15_27 
REMARK   14  A    between atoms: C15_27  and  C16_28 
REMARK   15  A    between atoms: C15_27  and  N5_32 
REMARK   16  A    between atoms: C16_28  and  S1_29 
ROOT
HETATM    1  C8  UNL     1      -1.376   0.217   0.152  1.00  0.00     0.316 C 
HETATM    2  O2  UNL     1      -1.078   1.414  -0.092  1.00  0.00    -0.262 OA
HETATM    3  N2  UNL     1      -0.317  -0.650   0.535  1.00  0.00    -0.288 N 
ATOM      4  H2  UNL     1      -0.530  -1.627   0.737  1.00  0.00     0.172 HD
HETATM    5  C9  UNL     1       1.033  -0.203   0.647  1.00  0.00     0.247 C 
HETATM    6  O3  UNL     1       1.239   1.004   0.397  1.00  0.00    -0.271 OA
ENDROOT
BRANCH   1   7
HETATM    7  C7  UNL     1      -2.748  -0.259   0.046  1.00  0.00     0.310 C 
HETATM    8  N1  UNL     1      -3.753   0.650  -0.348  1.00  0.00    -0.348 N 
ATOM      9  H1  UNL     1      -3.483   1.613  -0.546  1.00  0.00     0.163 HD
HETATM   10  O1  UNL     1      -2.988  -1.468   0.310  1.00  0.00    -0.262 OA
BRANCH   8  11
HETATM   11  C6  UNL     1      -5.157   0.283  -0.486  1.00  0.00     0.090 C 
BRANCH  11  12
HETATM   12  C5  UNL     1      -5.986   1.052   0.490  1.00  0.00     0.026 C 
BRANCH  12  13
HETATM   13  C4  UNL     1      -5.582   0.794   1.928  1.00  0.00     0.006 C 
BRANCH  13  14
HETATM   14  C2  UNL     1      -6.450   1.596   2.888  1.00  0.00    -0.023 C 
HETATM   15  C1  UNL     1      -6.257   3.058   2.552  1.00  0.00     0.009 C 
HETATM   16  C3  UNL     1      -7.897   1.167   2.807  1.00  0.00     0.009 C 
ENDBRANCH  13  14
ENDBRANCH  12  13
ENDBRANCH  11  12
BRANCH  11  17
HETATM   17  C21 UNL     1      -5.545   0.416  -1.908  1.00  0.00     0.036 C 
HETATM   18  C22 UNL     1      -4.644  -0.406  -2.806  1.00  0.00     0.036 C 
HETATM   19  C23 UNL     1      -5.370  -1.758  -2.747  1.00  0.00     0.232 C 
HETATM   20  N6  UNL     1      -6.764  -1.434  -2.651  1.00  0.00    -0.075 N 
HETATM   21  C24 UNL     1      -6.888  -0.046  -2.299  1.00  0.00     0.239 C 
ATOM     22  H62 UNL     1      -7.280  -1.670  -3.499  1.00  0.00     0.277 HD
ATOM     23  H61 UNL     1      -7.265  -2.047  -2.007  1.00  0.00     0.277 HD
ENDBRANCH  11  17
ENDBRANCH   8  11
ENDBRANCH   1   7
BRANCH   5  24
HETATM   24  C10 UNL     1       2.083  -1.168   1.042  1.00  0.00     0.172 C 
BRANCH  24  25
HETATM   25  C11 UNL     1       1.969  -2.518   0.430  1.00  0.00     0.043 C 
BRANCH  25  26
HETATM   26  C12 UNL     1       3.030  -3.431   0.965  1.00  0.00     0.102 C 
BRANCH  26  27
HETATM   27  C13 UNL     1       2.890  -4.757   0.305  1.00  0.00     0.231 C 
HETATM   28  N3  UNL     1       3.763  -5.813   0.665  1.00  0.00    -0.062 NA
HETATM   29  O4  UNL     1       2.003  -4.916  -0.558  1.00  0.00    -0.277 OA
ENDBRANCH  26  27
ENDBRANCH  25  26
ENDBRANCH  24  25
BRANCH  24  30
HETATM   30  N4  UNL     1       3.404  -0.585   1.013  1.00  0.00    -0.378 N 
ATOM     31  H4  UNL     1       3.978  -0.501   1.852  1.00  0.00     0.157 HD
BRANCH  30  32
HETATM   32  C14 UNL     1       3.854  -0.135  -0.261  1.00  0.00     0.297 C 
HETATM   33  F1  UNL     1       4.234  -1.144  -1.141  1.00  0.00    -0.225 F 
BRANCH  32  34
HETATM   34  C15 UNL     1       4.938   0.933  -0.202  1.00  0.00     0.253 C 
BRANCH  34  35
HETATM   35  C16 UNL     1       5.203   1.276  -1.664  1.00  0.00     0.146 C 
BRANCH  35  36
HETATM   36  S1  UNL     1       6.433   2.532  -1.831  1.00  0.00     0.013 S 
HETATM   37  C17 UNL     1       6.737   2.919  -3.540  1.00  0.00     0.127 C 
HETATM   38  O5  UNL     1       5.950   3.970  -1.104  1.00  0.00    -0.258 OA
ENDBRANCH  35  36
ENDBRANCH  34  35
BRANCH  34  39
HETATM   39  N5  UNL     1       6.128   0.590   0.480  1.00  0.00    -0.069 N 
HETATM   40  C18 UNL     1       6.018  -0.433   1.479  1.00  0.00     0.272 C 
HETATM   41  C19 UNL     1       7.266   0.271  -0.368  1.00  0.00     0.272 C 
HETATM   42  C20 UNL     1       6.555   1.795   1.230  1.00  0.00     0.272 C 
ENDBRANCH  34  39
ENDBRANCH  32  34
ENDBRANCH  30  32
ENDBRANCH  24  30
ENDBRANCH   5  24
TORSDOF 16
