REMARK  16 active torsions:
REMARK  status: ('A' for Active; 'I' for Inactive)
REMARK    1  A    between atoms: C1_4  and  N2_5 
REMARK    2  A    between atoms: C1_4  and  C2_8 
REMARK    3  A    between atoms: C9_18  and  C10_19 
REMARK    4  A    between atoms: C10_19  and  C11_20 
REMARK    5  A    between atoms: C11_20  and  C12_21 
REMARK    6  A    between atoms: C12_21  and  C13_22 
REMARK    7  A    between atoms: C13_22  and  N4_23 
REMARK    8  A    between atoms: N4_23  and  S1_25 
REMARK    9  A    between atoms: S1_25  and  N5_28 
REMARK   10  A    between atoms: N5_28  and  C14_30 
REMARK   11  A    between atoms: C14_30  and  C15_31 
REMARK   12  A    between atoms: C15_31  and  C16_32 
REMARK   13  A    between atoms: C16_32  and  C17_33 
REMARK   14  A    between atoms: C17_33  and  C18_34 
REMARK   15  A    between atoms: C18_34  and  N6_35 
REMARK       I    between atoms: N6_35  and  C19_37 
REMARK   16  A    between atoms: C19_37  and  C20_39 
ROOT
HETATM    1  C11 UNL     1      -2.031   0.074  -1.019  1.00  0.00     0.002 C 
ENDROOT
BRANCH   1   2
HETATM    2  C10 UNL     1      -3.351  -0.615  -1.033  1.00  0.00     0.017 C 
BRANCH   2   3
HETATM    3  C9  UNL     1      -4.117  -0.813   0.158  1.00  0.00     0.112 C 
HETATM    4  C5  UNL     1      -4.990   0.345   0.656  1.00  0.00     0.075 C 
HETATM    5  C4  UNL     1      -4.714   1.663   0.196  1.00  0.00     0.042 C 
HETATM    6  C6  UNL     1      -5.342   0.139   2.099  1.00  0.00     0.058 C 
HETATM    7  O5  UNL     1      -6.242   0.067  -0.028  1.00  0.00    -0.366 OA
HETATM    8  C3  UNL     1      -6.088   2.352   0.210  1.00  0.00     0.043 C 
HETATM    9  C2  UNL     1      -7.001   1.145   0.216  1.00  0.00     0.189 C 
HETATM   10  C7  UNL     1      -5.930  -1.203   2.353  1.00  0.00     0.125 C 
HETATM   11  N3  UNL     1      -5.874  -2.153   1.278  1.00  0.00    -0.361 N 
HETATM   12  C8  UNL     1      -4.945  -2.056   0.222  1.00  0.00     0.224 C 
ATOM     13  H3  UNL     1      -6.534  -2.931   1.278  1.00  0.00     0.162 HD
HETATM   14  O1  UNL     1      -4.788  -2.836  -0.636  1.00  0.00    -0.273 OA
BRANCH   9  15
HETATM   15  C1  UNL     1      -8.126   1.317  -0.842  1.00  0.00     0.098 C 
HETATM   16  N1  UNL     1      -8.266   0.452  -1.748  1.00  0.00    -0.387 N 
ATOM     17  H12 UNL     1      -9.004   0.565  -2.442  1.00  0.00     0.157 HD
ATOM     18  H11 UNL     1      -7.736  -0.411  -1.867  1.00  0.00     0.157 HD
BRANCH  15  19
HETATM   19  N2  UNL     1      -8.842   2.484  -0.681  1.00  0.00    -0.387 N 
ATOM     20  H22 UNL     1      -9.580   2.597  -1.375  1.00  0.00     0.157 HD
ATOM     21  H21 UNL     1      -8.729   3.184   0.052  1.00  0.00     0.157 HD
ENDBRANCH  15  19
ENDBRANCH   9  15
ENDBRANCH   2   3
ENDBRANCH   1   2
BRANCH   1  22
HETATM   22  C12 UNL     1      -1.154  -1.018  -0.540  1.00  0.00     0.020 C 
BRANCH  22  23
HETATM   23  C13 UNL     1       0.290  -1.051  -0.930  1.00  0.00     0.133 C 
BRANCH  23  24
HETATM   24  N4  UNL     1       0.848   0.192  -0.531  1.00  0.00    -0.303 N 
ATOM     25  H4  UNL     1       0.304   0.991  -0.205  1.00  0.00     0.173 HD
BRANCH  24  26
HETATM   26  S1  UNL     1       2.472   0.175  -0.663  1.00  0.00     0.314 S 
HETATM   27  O2  UNL     1       3.154   1.170  -1.534  1.00  0.00    -0.183 OA
HETATM   28  O3  UNL     1       2.718   0.928   0.937  1.00  0.00    -0.183 OA
BRANCH  26  29
HETATM   29  N5  UNL     1       3.568  -1.056  -0.318  1.00  0.00    -0.303 N 
ATOM     30  H5  UNL     1       4.100  -1.457  -1.090  1.00  0.00     0.173 HD
BRANCH  29  31
HETATM   31  C14 UNL     1       3.798  -1.580   1.024  1.00  0.00     0.133 C 
BRANCH  31  32
HETATM   32  C15 UNL     1       5.210  -0.876   1.076  1.00  0.00     0.021 C 
BRANCH  32  33
HETATM   33  C16 UNL     1       5.895  -0.906  -0.172  1.00  0.00     0.007 C 
BRANCH  33  34
HETATM   34  C17 UNL     1       7.016   0.164  -0.299  1.00  0.00     0.044 C 
BRANCH  34  35
HETATM   35  C18 UNL     1       8.107  -0.208   0.522  1.00  0.00     0.064 C 
BRANCH  35  36
HETATM   36  N6  UNL     1       9.510  -0.113   0.156  1.00  0.00    -0.340 N 
HETATM   37  C19 UNL     1      10.131   1.083  -0.178  1.00  0.00     0.231 C 
HETATM   38  O4  UNL     1       9.542   2.207  -0.386  1.00  0.00    -0.272 OA
ATOM     39  H6  UNL     1      10.066  -0.968   0.144  1.00  0.00     0.167 HD
BRANCH  37  40
HETATM   40  C20 UNL     1      11.567   1.080  -0.221  1.00  0.00     0.188 C 
HETATM   41 BR1  UNL     1      12.327  -0.698  -0.151  1.00  0.00    -0.087 Br
ENDBRANCH  37  40
ENDBRANCH  35  36
ENDBRANCH  34  35
ENDBRANCH  33  34
ENDBRANCH  32  33
ENDBRANCH  31  32
ENDBRANCH  29  31
ENDBRANCH  26  29
ENDBRANCH  24  26
ENDBRANCH  23  24
ENDBRANCH  22  23
ENDBRANCH   1  22
TORSDOF 16
