REMARK  18 active torsions:
REMARK  status: ('A' for Active; 'I' for Inactive)
REMARK    1  A    between atoms: C2_2  and  C3_3 
REMARK    2  A    between atoms: C3_3  and  C4_4 
REMARK    3  A    between atoms: C4_4  and  N1_5 
REMARK    4  A    between atoms: C4_4  and  C5_12 
REMARK    5  A    between atoms: N1_5  and  N2_7 
REMARK    6  A    between atoms: C5_12  and  N4_13 
REMARK    7  A    between atoms: C5_12  and  C12_29 
REMARK    8  A    between atoms: N4_13  and  C6_15 
REMARK    9  A    between atoms: C6_15  and  O1_16 
REMARK   10  A    between atoms: C6_15  and  C7_18 
REMARK   11  A    between atoms: C7_18  and  C8_20 
REMARK       I    between atoms: C8_20  and  N5_22 
REMARK   12  A    between atoms: N5_22  and  C9_24 
REMARK   13  A    between atoms: C9_24  and  C10_25 
REMARK   14  A    between atoms: C10_25  and  C11_26 
REMARK   15  A    between atoms: C12_29  and  C13_31 
REMARK   16  A    between atoms: C13_31  and  C14_32 
REMARK   17  A    between atoms: N6_40  and  C21_41 
REMARK   18  A    between atoms: C21_41  and  C22_42 
ROOT
HETATM    1  C5  UNL     1       0.632  -0.679   0.494  1.00  0.00     0.078 C 
ENDROOT
BRANCH   1   2
HETATM    2  C4  UNL     1       0.971  -1.777  -0.419  1.00  0.00     0.154 C 
BRANCH   2   3
HETATM    3  C3  UNL     1       0.176  -3.069  -0.255  1.00  0.00     0.042 C 
BRANCH   3   4
HETATM    4  C2  UNL     1       0.969  -4.211  -0.929  1.00  0.00    -0.042 A 
HETATM    5  C1  UNL     1       2.356  -4.382  -0.326  1.00  0.00     0.015 C 
HETATM    6  C25 UNL     1       0.230  -5.507  -1.081  1.00  0.00     0.010 A 
HETATM    7  C26 UNL     1       0.706  -4.700  -2.264  1.00  0.00     0.010 A 
ENDBRANCH   3   4
ENDBRANCH   2   3
BRANCH   2   8
HETATM    8  N1  UNL     1       1.077  -1.403  -1.818  1.00  0.00    -0.312 N 
ATOM      9  H1  UNL     1       1.955  -1.581  -2.305  1.00  0.00     0.182 HD
BRANCH   8  10
HETATM   10  N2  UNL     1       0.034  -0.813  -2.522  1.00  0.00    -0.253 N 
HETATM   11  N3  UNL     1      -0.723  -1.430  -3.288  1.00  0.00    -0.331 N 
ATOM     12  H32 UNL     1      -0.556  -2.430  -3.396  1.00  0.00     0.178 HD
ATOM     13  H31 UNL     1      -1.488  -0.997  -3.805  1.00  0.00     0.178 HD
ATOM     14  H2  UNL     1      -0.119   0.188  -2.402  1.00  0.00     0.207 HD
ENDBRANCH   8  10
ENDBRANCH   2   8
ENDBRANCH   1   2
BRANCH   1  15
HETATM   15  N4  UNL     1       1.391   0.509   0.390  1.00  0.00    -0.360 N 
ATOM     16  H4  UNL     1       0.907   1.335   0.039  1.00  0.00     0.162 HD
BRANCH  15  17
HETATM   17  C6  UNL     1       2.728   0.661   0.718  1.00  0.00     0.261 C 
BRANCH  17  18
HETATM   18  O1  UNL     1       3.023   2.068   0.888  1.00  0.00    -0.373 OA
ATOM     19  H1  UNL     1       3.940   2.172   1.113  1.00  0.00     0.212 HD
ENDBRANCH  17  18
BRANCH  17  20
HETATM   20  C7  UNL     1       3.848   0.017   0.009  1.00  0.00     0.309 C 
HETATM   21  F1  UNL     1       3.871   0.430  -1.336  1.00  0.00    -0.235 F 
BRANCH  20  22
HETATM   22  C8  UNL     1       5.120   0.636   0.561  1.00  0.00     0.256 C 
HETATM   23  O2  UNL     1       5.794  -0.069   1.349  1.00  0.00    -0.270 OA
HETATM   24  N5  UNL     1       5.536   1.933   0.223  1.00  0.00    -0.358 N 
ATOM     25  H5  UNL     1       4.964   2.477  -0.423  1.00  0.00     0.162 HD
BRANCH  24  26
HETATM   26  C9  UNL     1       6.744   2.532   0.753  1.00  0.00     0.133 C 
BRANCH  26  27
HETATM   27  C10 UNL     1       6.978   3.930   0.212  1.00  0.00     0.133 C 
BRANCH  27  28
HETATM   28  C11 UNL     1       8.211   4.473   0.814  1.00  0.00     0.174 C 
HETATM   29  O3  UNL     1       8.853   3.791   1.641  1.00  0.00    -0.648 OA
HETATM   30  O4  UNL     1       8.673   5.732   0.478  1.00  0.00    -0.648 OA
ENDBRANCH  27  28
ENDBRANCH  26  27
ENDBRANCH  24  26
ENDBRANCH  20  22
ENDBRANCH  17  20
ENDBRANCH  15  17
ENDBRANCH   1  15
BRANCH   1  31
HETATM   31  C12 UNL     1      -0.799  -0.374   0.755  1.00  0.00     0.175 C 
HETATM   32  O5  UNL     1      -0.963   0.753   1.315  1.00  0.00    -0.291 OA
BRANCH  31  33
HETATM   33  C13 UNL     1      -2.007  -1.133   0.481  1.00  0.00     0.120 C 
BRANCH  33  34
HETATM   34  C14 UNL     1      -3.229  -0.438   1.052  1.00  0.00     0.231 C 
HETATM   35  C15 UNL     1      -4.495  -1.155   0.779  1.00  0.00     0.043 C 
HETATM   36  C16 UNL     1      -5.531  -0.050   0.745  1.00  0.00     0.028 C 
HETATM   37  C17 UNL     1      -6.505  -0.193   1.903  1.00  0.00     0.085 C 
HETATM   38  C20 UNL     1      -4.720   1.204   1.086  1.00  0.00     0.234 C 
HETATM   39  C18 UNL     1      -5.704   0.291   3.086  1.00  0.00     0.129 C 
HETATM   40  O6  UNL     1      -5.910  -0.107   4.213  1.00  0.00    -0.298 OA
HETATM   41  C19 UNL     1      -4.701   1.270   2.616  1.00  0.00     0.114 C 
HETATM   42  N6  UNL     1      -3.445   0.905   0.550  1.00  0.00     0.099 N 
BRANCH  42  43
HETATM   43  C21 UNL     1      -3.308   0.996  -0.845  1.00  0.00     0.278 C 
BRANCH  43  44
HETATM   44  C22 UNL     1      -3.485   2.282  -1.520  1.00  0.00     0.014 A 
HETATM   45  C23 UNL     1      -4.789   3.059  -1.596  1.00  0.00     0.007 A 
HETATM   46  C24 UNL     1      -4.194   2.426  -2.832  1.00  0.00     0.007 A 
ENDBRANCH  43  44
ENDBRANCH  42  43
ENDBRANCH  33  34
ENDBRANCH  31  33
ENDBRANCH   1  31
TORSDOF 18
