REMARK  18 active torsions:
REMARK  status: ('A' for Active; 'I' for Inactive)
REMARK    1  A    between atoms: C2_2  and  N1_3 
REMARK       I    between atoms: N1_3  and  C4_5 
REMARK    2  A    between atoms: C4_5  and  C5_7 
REMARK    3  A    between atoms: C5_7  and  C6_8 
REMARK    4  A    between atoms: C6_8  and  C7_9 
REMARK    5  A    between atoms: C7_9  and  C8_10 
REMARK    6  A    between atoms: C7_9  and  N5_18 
REMARK    7  A    between atoms: C8_10  and  C9_11 
REMARK    8  A    between atoms: C9_11  and  C10_12 
REMARK    9  A    between atoms: C10_12  and  N2_13 
REMARK       I    between atoms: N5_18  and  C12_20 
REMARK   10  A    between atoms: C12_20  and  C13_22 
REMARK       I    between atoms: N6_26  and  C17_27 
REMARK   11  A    between atoms: C17_27  and  C18_29 
REMARK   12  A    between atoms: C18_29  and  C19_30 
REMARK   13  A    between atoms: C18_29  and  C21_34 
REMARK   14  A    between atoms: C19_30  and  C20_31 
REMARK   15  A    between atoms: C21_34  and  N7_36 
REMARK   16  A    between atoms: N7_36  and  C23_38 
REMARK   17  A    between atoms: C23_38  and  C24_39 
REMARK   18  A    between atoms: C24_39  and  O6_41 
ROOT
HETATM    1  C13 UNL     1       1.252  -0.950   1.783  1.00  0.00     0.179 C 
HETATM    2  C14 UNL     1       1.024  -2.104   2.785  1.00  0.00     0.037 C 
HETATM    3  C15 UNL     1       0.594  -3.162   1.788  1.00  0.00     0.022 C 
HETATM    4  C16 UNL     1       1.563  -2.936   0.660  1.00  0.00     0.127 C 
HETATM    5  N6  UNL     1       2.138  -1.579   0.865  1.00  0.00    -0.338 N 
HETATM    6  C17 UNL     1       3.340  -1.233   0.219  1.00  0.00     0.227 C 
HETATM    7  O3  UNL     1       3.827  -2.045  -0.603  1.00  0.00    -0.273 OA
ENDROOT
BRANCH   1   8
HETATM    8  C12 UNL     1      -0.112  -0.641   1.292  1.00  0.00     0.244 C 
HETATM    9  N5  UNL     1      -0.541  -0.709  -0.028  1.00  0.00    -0.329 N 
ATOM     10  H5  UNL     1       0.131  -0.987  -0.744  1.00  0.00     0.168 HD
HETATM   11  O2  UNL     1      -0.903  -0.294   2.206  1.00  0.00    -0.271 OA
BRANCH   9  12
HETATM   12  C7  UNL     1      -1.899  -0.403  -0.436  1.00  0.00     0.009 C 
BRANCH  12  13
HETATM   13  C6  UNL     1      -2.321   0.923   0.042  1.00  0.00     0.066 C 
BRANCH  13  14
HETATM   14  C5  UNL     1      -3.508   1.515  -0.676  1.00  0.00     0.109 C 
BRANCH  14  15
HETATM   15  C4  UNL     1      -3.835   2.869  -0.161  1.00  0.00     0.219 C 
HETATM   16  N1  UNL     1      -5.045   3.499  -0.491  1.00  0.00    -0.357 N 
HETATM   17  C3  UNL     1      -6.032   2.818  -1.327  1.00  0.00     0.152 C 
HETATM   18  O1  UNL     1      -3.013   3.454   0.578  1.00  0.00    -0.273 OA
BRANCH  16  19
HETATM   19  C2  UNL     1      -5.345   4.849  -0.001  1.00  0.00     0.120 C 
HETATM   20  C1  UNL     1      -6.045   4.798   1.351  1.00  0.00     0.026 C 
ENDBRANCH  16  19
ENDBRANCH  14  15
ENDBRANCH  13  14
ENDBRANCH  12  13
BRANCH  12  21
HETATM   21  C8  UNL     1      -2.735  -1.584  -0.382  1.00  0.00    -0.000 C 
BRANCH  21  22
HETATM   22  C9  UNL     1      -4.020  -1.759  -1.034  1.00  0.00     0.048 C 
BRANCH  22  23
HETATM   23  C10 UNL     1      -4.507  -3.222  -0.753  1.00  0.00     0.126 C 
BRANCH  23  24
HETATM   24  N2  UNL     1      -5.768  -3.413  -1.396  1.00  0.00    -0.367 N 
HETATM   25  C11 UNL     1      -6.383  -4.532  -1.470  1.00  0.00     0.196 C 
HETATM   26  N3  UNL     1      -5.843  -5.705  -0.899  1.00  0.00    -0.067 NA
HETATM   27  N4  UNL     1      -7.639  -4.605  -2.143  1.00  0.00    -0.067 NA
ATOM     28  H2  UNL     1      -6.209  -2.600  -1.826  1.00  0.00     0.161 HD
ENDBRANCH  23  24
ENDBRANCH  22  23
ENDBRANCH  21  22
ENDBRANCH  12  21
ENDBRANCH   9  12
ENDBRANCH   1   8
BRANCH   6  29
HETATM   29  C18 UNL     1       4.102   0.068   0.452  1.00  0.00     0.110 C 
BRANCH  29  30
HETATM   30  C19 UNL     1       4.745   0.037   1.786  1.00  0.00     0.129 C 
BRANCH  30  31
HETATM   31  C20 UNL     1       5.760  -1.035   1.989  1.00  0.00     0.173 C 
HETATM   32  O4  UNL     1       6.329  -1.146   3.108  1.00  0.00    -0.648 OA
HETATM   33  O5  UNL     1       6.152  -1.951   1.032  1.00  0.00    -0.648 OA
ENDBRANCH  30  31
ENDBRANCH  29  30
BRANCH  29  34
HETATM   34  C21 UNL     1       4.978   0.331  -0.711  1.00  0.00     0.086 C 
HETATM   35  C22 UNL     1       4.122   0.432  -1.997  1.00  0.00     0.032 C 
BRANCH  34  36
HETATM   36  N7  UNL     1       5.791   1.449  -0.710  1.00  0.00    -0.414 N 
ATOM     37  H7  UNL     1       5.585   2.156  -1.416  1.00  0.00     0.153 HD
BRANCH  36  38
HETATM   38  C23 UNL     1       6.852   1.722   0.137  1.00  0.00     0.145 C 
BRANCH  38  39
HETATM   39  C24 UNL     1       7.663   2.950  -0.383  1.00  0.00     0.131 C 
HETATM   40  C25 UNL     1       6.813   4.189  -0.343  1.00  0.00     0.041 C 
BRANCH  39  41
HETATM   41  O6  UNL     1       8.142   2.641  -1.644  1.00  0.00    -0.394 OA
ATOM     42  H6  UNL     1       8.636   3.388  -1.961  1.00  0.00     0.210 HD
ENDBRANCH  39  41
ENDBRANCH  38  39
ENDBRANCH  36  38
ENDBRANCH  34  36
ENDBRANCH  29  34
ENDBRANCH   6  29
TORSDOF 18
