REMARK  10 active torsions:
REMARK  status: ('A' for Active; 'I' for Inactive)
REMARK    1  A    between atoms: C4_10  and  O2_11 
REMARK    2  A    between atoms: C5_13  and  C6_14 
REMARK    3  A    between atoms: C6_14  and  C7_15 
REMARK    4  A    between atoms: C7_15  and  N4_16 
REMARK    5  A    between atoms: C7_15  and  C10_21 
REMARK       I    between atoms: N4_16  and  C8_18 
REMARK    6  A    between atoms: N7_26  and  C11_27 
REMARK    7  A    between atoms: C14_30  and  O4_31 
REMARK    8  A    between atoms: C17_34  and  C18_35 
REMARK    9  A    between atoms: C19_36  and  C20_37 
REMARK   10  A    between atoms: C21_46  and  O5_47 
ROOT
HETATM    1  C1  UNL     1       1.983  -4.994   0.848  1.00  0.00     0.231 C 
HETATM    2  N1  UNL     1       2.742  -4.421  -0.074  1.00  0.00    -0.410 NA
HETATM    3  C2  UNL     1       3.419  -3.839  -0.889  1.00  0.00     0.191 A 
HETATM    4  N2  UNL     1       4.069  -4.660  -1.815  1.00  0.00    -0.283 N 
ATOM      5  H2  UNL     1       3.953  -5.672  -1.766  1.00  0.00     0.173 HD
HETATM    6  C3  UNL     1       4.835  -4.128  -2.756  1.00  0.00     0.328 A 
HETATM    7  O1  UNL     1       5.444  -4.854  -3.616  1.00  0.00    -0.247 OA
HETATM    8  N3  UNL     1       5.003  -2.795  -2.838  1.00  0.00    -0.288 N 
ATOM      9  H3  UNL     1       5.599  -2.407  -3.569  1.00  0.00     0.172 HD
HETATM   10  C4  UNL     1       4.402  -1.977  -1.977  1.00  0.00     0.155 A 
HETATM   11  C5  UNL     1       3.582  -2.481  -0.966  1.00  0.00     0.053 A 
ENDROOT
BRANCH  11  12
HETATM   12  C6  UNL     1       2.946  -1.500  -0.022  1.00  0.00     0.080 C 
BRANCH  12  13
HETATM   13  C7  UNL     1       1.446  -1.423  -0.139  1.00  0.00     0.145 C 
BRANCH  13  14
HETATM   14  N4  UNL     1       1.171  -1.111  -1.565  1.00  0.00    -0.351 N 
HETATM   15  C8  UNL     1       0.249  -1.690  -2.395  1.00  0.00     0.214 C 
HETATM   16  C9  UNL     1       0.134  -1.203  -3.829  1.00  0.00     0.117 C 
HETATM   17  O3  UNL     1      -0.531  -2.602  -2.087  1.00  0.00    -0.274 OA
ATOM     18  H4  UNL     1       1.741  -0.372  -1.978  1.00  0.00     0.163 HD
ENDBRANCH  13  14
BRANCH  13  19
HETATM   19  C10 UNL     1       1.105  -0.079   0.509  1.00  0.00     0.102 A 
HETATM   20  N5  UNL     1       1.873   1.026   0.422  1.00  0.00    -0.284 N 
HETATM   21  N6  UNL     1       1.171   2.021   0.919  1.00  0.00    -0.233 N 
ATOM     22  H5  UNL     1       2.818   1.080   0.043  1.00  0.00     0.188 HD
HETATM   23  N7  UNL     1      -0.047   1.584   1.336  1.00  0.00    -0.217 N 
ATOM     24  H6  UNL     1       1.495   2.986   0.983  1.00  0.00     0.209 HD
HETATM   25  C21 UNL     1      -0.082   0.296   1.088  1.00  0.00     0.190 A 
BRANCH  23  26
HETATM   26  C11 UNL     1      -0.978   2.467   1.896  1.00  0.00     0.070 A 
HETATM   27  C12 UNL     1      -0.539   3.272   2.970  1.00  0.00     0.035 A 
HETATM   28  C13 UNL     1      -1.350   4.188   3.582  1.00  0.00     0.039 A 
HETATM   29  C14 UNL     1      -2.635   4.336   3.146  1.00  0.00     0.069 A 
HETATM   30  C16 UNL     1      -3.102   3.572   2.106  1.00  0.00     0.050 A 
HETATM   31  C17 UNL     1      -2.274   2.648   1.493  1.00  0.00    -0.004 A 
BRANCH  29  32
HETATM   32  O4  UNL     1      -3.480   5.242   3.726  1.00  0.00    -0.356 OA
HETATM   33  C15 UNL     1      -3.199   6.119   4.778  1.00  0.00     0.210 C 
ENDBRANCH  29  32
BRANCH  31  34
HETATM   34  C18 UNL     1      -2.821   1.889   0.402  1.00  0.00     0.017 C 
HETATM   35  C19 UNL     1      -4.067   1.938  -0.008  1.00  0.00     0.052 C 
BRANCH  35  36
HETATM   36  C20 UNL     1      -4.513   1.094  -1.142  1.00  0.00     0.136 A 
HETATM   37  N8  UNL     1      -3.790   0.209  -1.834  1.00  0.00    -0.269 N 
HETATM   38  N9  UNL     1      -4.525  -0.356  -2.762  1.00  0.00    -0.227 N 
ATOM     39  H8  UNL     1      -2.806   0.002  -1.665  1.00  0.00     0.190 HD
HETATM   40  N10 UNL     1      -5.731   0.161  -2.678  1.00  0.00    -0.227 N 
ATOM     41  H9  UNL     1      -4.217  -1.066  -3.427  1.00  0.00     0.210 HD
HETATM   42  N11 UNL     1      -5.763   1.054  -1.700  1.00  0.00    -0.269 N 
ATOM     43  H10 UNL     1      -6.521  -0.087  -3.274  1.00  0.00     0.210 HD
ATOM     44  H11 UNL     1      -6.570   1.609  -1.415  1.00  0.00     0.190 HD
ENDBRANCH  35  36
ENDBRANCH  31  34
ENDBRANCH  23  26
BRANCH  25  45
HETATM   45  O5  UNL     1      -1.106  -0.637   1.340  1.00  0.00    -0.343 OA
ATOM     46  H5  UNL     1      -1.927  -0.378   1.741  1.00  0.00     0.219 HD
ENDBRANCH  25  45
ENDBRANCH  13  19
ENDBRANCH  12  13
ENDBRANCH  11  12
BRANCH  10  47
HETATM   47  O2  UNL     1       4.590  -0.583  -2.071  1.00  0.00    -0.345 OA
ATOM     48  H2  UNL     1       4.161   0.001  -1.456  1.00  0.00     0.219 HD
ENDBRANCH  10  47
TORSDOF 10
