REMARK  12 active torsions:
REMARK  status: ('A' for Active; 'I' for Inactive)
REMARK    1  A    between atoms: C2_2  and  C3_3 
REMARK    2  A    between atoms: C3_3  and  O1_4 
REMARK    3  A    between atoms: O1_4  and  C4_5 
REMARK    4  A    between atoms: C4_5  and  C5_6 
REMARK    5  A    between atoms: C5_6  and  N1_7 
REMARK    6  A    between atoms: C8_10  and  C9_11 
REMARK    7  A    between atoms: C10_12  and  O2_13 
REMARK    8  A    between atoms: C14_23  and  N4_24 
REMARK    9  A    between atoms: N6_30  and  C16_31 
REMARK   10  A    between atoms: C16_31  and  C17_32 
REMARK   11  A    between atoms: C17_32  and  N7_33 
REMARK   12  A    between atoms: C19_38  and  O4_39 
ROOT
HETATM    1  C9  UNL     1      -0.320  -0.647   0.549  1.00  0.00     0.081 A 
HETATM    2  C10 UNL     1      -0.927   0.584   0.448  1.00  0.00     0.111 A 
HETATM    3  C11 UNL     1      -2.290   0.734   0.356  1.00  0.00     0.098 A 
HETATM    4  N2  UNL     1      -2.770   1.977   0.254  1.00  0.00    -0.344 N 
ATOM      5  H2  UNL     1      -2.155   2.791   0.249  1.00  0.00     0.166 HD
HETATM    6  C12 UNL     1      -4.102   2.099   0.159  1.00  0.00     0.147 A 
HETATM    7  C13 UNL     1      -4.601   3.378   0.039  1.00  0.00     0.290 A 
HETATM    8  O3  UNL     1      -3.814   4.360   0.035  1.00  0.00    -0.265 OA
HETATM    9  N3  UNL     1      -5.928   3.624  -0.077  1.00  0.00    -0.154 N 
ATOM     10  H3  UNL     1      -6.287   4.575  -0.165  1.00  0.00     0.187 HD
HETATM   11  C14 UNL     1      -6.752   2.559  -0.071  1.00  0.00     0.680 A 
HETATM   12  N5  UNL     1      -6.275   1.300   0.047  1.00  0.00    -0.174 N 
ATOM     13  H5  UNL     1      -6.942   0.529   0.046  1.00  0.00     0.186 HD
HETATM   14  C15 UNL     1      -4.966   1.010   0.166  1.00  0.00     0.160 A 
HETATM   15  N6  UNL     1      -4.527  -0.284   0.270  1.00  0.00    -0.303 N 
HETATM   16  C18 UNL     1      -3.197  -0.427   0.364  1.00  0.00     0.107 A 
HETATM   17  C19 UNL     1      -2.559  -1.641   0.467  1.00  0.00     0.147 A 
HETATM   18  C20 UNL     1      -1.162  -1.757   0.556  1.00  0.00     0.222 A 
HETATM   19  O5  UNL     1      -0.741  -2.915   0.637  1.00  0.00    -0.284 OA
ENDROOT
BRANCH   1  20
HETATM   20  C8  UNL     1       1.140  -0.824   0.493  1.00  0.00     0.078 A 
HETATM   21  C6  UNL     1       2.040  -0.203  -0.359  1.00  0.00     0.040 A 
HETATM   22  N1  UNL     1       3.317  -0.489  -0.021  1.00  0.00    -0.299 N 
HETATM   23  C7  UNL     1       1.699   0.625  -1.576  1.00  0.00     0.071 C 
HETATM   24  C22 UNL     1       3.249  -1.291   1.040  1.00  0.00     0.329 A 
HETATM   25  N8  UNL     1       1.931  -1.498   1.358  1.00  0.00    -0.301 N 
HETATM   26  O6  UNL     1       4.250  -1.775   1.644  1.00  0.00    -0.246 OA
HETATM   27  C21 UNL     1       1.499  -2.283   2.497  1.00  0.00     0.161 C 
BRANCH  22  28
HETATM   28  C5  UNL     1       4.533  -0.003  -0.691  1.00  0.00     0.160 C 
BRANCH  28  29
HETATM   29  C4  UNL     1       5.003   1.278  -0.099  1.00  0.00     0.188 C 
BRANCH  29  30
HETATM   30  O1  UNL     1       6.089   1.805  -0.644  1.00  0.00    -0.390 OA
BRANCH  30  31
HETATM   31  C3  UNL     1       7.330   1.392  -0.662  1.00  0.00     0.167 C 
BRANCH  31  32
HETATM   32  C2  UNL     1       7.716   0.072  -1.235  1.00  0.00     0.022 C 
HETATM   33  C1  UNL     1       9.269  -0.003  -1.137  1.00  0.00     0.007 C 
ENDBRANCH  31  32
ENDBRANCH  30  31
ENDBRANCH  29  30
ENDBRANCH  28  29
ENDBRANCH  22  28
ENDBRANCH   1  20
BRANCH   2  34
HETATM   34  O2  UNL     1      -0.114   1.720   0.449  1.00  0.00    -0.357 OA
ATOM     35  H2  UNL     1      -0.533   2.570   0.379  1.00  0.00     0.217 HD
ENDBRANCH   2  34
BRANCH  17  36
HETATM   36  O4  UNL     1      -3.342  -2.778   0.480  1.00  0.00    -0.355 OA
ATOM     37  H4  UNL     1      -2.901  -3.617   0.551  1.00  0.00     0.218 HD
ENDBRANCH  17  36
BRANCH  15  38
HETATM   38  C16 UNL     1      -5.402  -1.376   0.322  1.00  0.00     0.099 C 
BRANCH  38  39
HETATM   39  C17 UNL     1      -5.883  -2.010  -0.942  1.00  0.00     0.274 C 
BRANCH  39  40
HETATM   40  N7  UNL     1      -6.761  -3.117  -0.577  1.00  0.00    -0.075 N 
ATOM     41  H73 UNL     1      -6.318  -3.782   0.056  1.00  0.00     0.274 HD
ATOM     42  H72 UNL     1      -7.523  -2.832   0.039  1.00  0.00     0.274 HD
ATOM     43  H71 UNL     1      -7.089  -3.550  -1.440  1.00  0.00     0.274 HD
ENDBRANCH  39  40
ENDBRANCH  38  39
ENDBRANCH  15  38
BRANCH  11  44
HETATM   44  N4  UNL     1      -8.024   2.734  -0.179  1.00  0.00    -0.234 N 
ATOM     45  H42 UNL     1      -8.384   3.684  -0.268  1.00  0.00     0.174 HD
ATOM     46  H41 UNL     1      -8.648   1.927  -0.174  1.00  0.00     0.174 HD
ENDBRANCH  11  44
TORSDOF 12
