REMARK  10 active torsions:
REMARK  status: ('A' for Active; 'I' for Inactive)
REMARK    1  A    between atoms: C2_2  and  C4_4 
REMARK    2  A    between atoms: C4_4  and  C5_5 
REMARK    3  A    between atoms: C4_4  and  N3_21 
REMARK    4  A    between atoms: C10_11  and  C11_12 
REMARK       I    between atoms: C11_12  and  N2_14 
REMARK       I    between atoms: N3_21  and  C18_23 
REMARK    5  A    between atoms: C18_23  and  C19_25 
REMARK    6  A    between atoms: C19_25  and  C20_26 
REMARK    7  A    between atoms: C19_25  and  N6_44 
REMARK       I    between atoms: C20_26  and  N4_28 
REMARK    8  A    between atoms: C23_31  and  C24_32 
REMARK       I    between atoms: C24_32  and  N5_34 
REMARK    9  A    between atoms: N5_34  and  C25_36 
REMARK   10  A    between atoms: C28_41  and  O5_42 
ROOT
HETATM    1  C19 UNL     1       2.415  -1.890  -1.389  1.00  0.00     0.269 C 
ENDROOT
BRANCH   1   2
HETATM    2  C18 UNL     1       1.681  -0.637  -1.138  1.00  0.00     0.250 C 
HETATM    3  N3  UNL     1       0.241  -0.621  -1.026  1.00  0.00    -0.349 N 
ATOM      4  H3  UNL     1      -0.268  -1.501  -1.111  1.00  0.00     0.163 HD
HETATM    5  O2  UNL     1       2.270   0.444  -1.021  1.00  0.00    -0.271 OA
BRANCH   3   6
HETATM    6  C4  UNL     1      -0.494   0.576  -0.801  1.00  0.00     0.126 C 
BRANCH   6   7
HETATM    7  C2  UNL     1      -1.126   1.146  -2.085  1.00  0.00     0.005 C 
HETATM    8  C1  UNL     1      -1.666   2.512  -1.731  1.00  0.00     0.012 C 
HETATM    9  C3  UNL     1      -0.049   1.328  -3.117  1.00  0.00     0.012 C 
ENDBRANCH   6   7
BRANCH   6  10
HETATM   10  C5  UNL     1      -1.570   0.488   0.275  1.00  0.00     0.084 C 
HETATM   11  N1  UNL     1      -2.649  -0.290  -0.034  1.00  0.00    -0.377 N 
HETATM   12  C6  UNL     1      -2.765  -1.660  -0.181  1.00  0.00     0.134 C 
HETATM   13  C10 UNL     1      -3.991  -0.110   0.332  1.00  0.00     0.185 C 
HETATM   14  C7  UNL     1      -4.299  -1.535  -0.123  1.00  0.00    -0.002 C 
HETATM   15  C8  UNL     1      -4.854  -2.467   0.887  1.00  0.00     0.019 C 
HETATM   16  C9  UNL     1      -4.960  -1.650  -1.453  1.00  0.00     0.019 C 
BRANCH  13  17
HETATM   17  C11 UNL     1      -4.288   0.146   1.763  1.00  0.00     0.243 C 
HETATM   18  O1  UNL     1      -3.384  -0.063   2.648  1.00  0.00    -0.271 OA
HETATM   19  N2  UNL     1      -5.515   0.612   2.231  1.00  0.00    -0.350 N 
HETATM   20  C12 UNL     1      -6.532   0.889   1.258  1.00  0.00     0.126 C 
HETATM   21  C17 UNL     1      -5.651   0.767   3.658  1.00  0.00     0.126 C 
HETATM   22  C13 UNL     1      -6.447   2.341   0.752  1.00  0.00     0.020 C 
HETATM   23  C14 UNL     1      -7.031   3.196   1.866  1.00  0.00     0.002 C 
HETATM   24  C15 UNL     1      -6.050   3.152   3.017  1.00  0.00     0.002 C 
HETATM   25  C16 UNL     1      -6.356   2.063   4.012  1.00  0.00     0.020 C 
ENDBRANCH  13  17
ENDBRANCH   6  10
ENDBRANCH   3   6
ENDBRANCH   1   2
BRANCH   1  26
HETATM   26  C20 UNL     1       3.847  -1.878  -1.128  1.00  0.00     0.252 C 
HETATM   27  O3  UNL     1       4.356  -2.685  -0.259  1.00  0.00    -0.270 OA
HETATM   28  N4  UNL     1       4.801  -1.045  -1.755  1.00  0.00    -0.336 N 
HETATM   29  C21 UNL     1       4.733   0.022  -2.750  1.00  0.00     0.129 C 
HETATM   30  C23 UNL     1       6.223  -0.874  -1.771  1.00  0.00     0.180 C 
HETATM   31  C22 UNL     1       6.119  -0.408  -3.212  1.00  0.00     0.055 C 
BRANCH  30  32
HETATM   32  C24 UNL     1       6.789   0.107  -0.857  1.00  0.00     0.241 C 
HETATM   33  O4  UNL     1       8.027   0.361  -0.920  1.00  0.00    -0.271 OA
HETATM   34  N5  UNL     1       5.953   0.768   0.095  1.00  0.00    -0.351 N 
ATOM     35  H5  UNL     1       4.958   0.547   0.122  1.00  0.00     0.163 HD
BRANCH  34  36
HETATM   36  C25 UNL     1       6.487   1.744   1.022  1.00  0.00     0.124 C 
HETATM   37  C26 UNL     1       6.438   1.112   2.401  1.00  0.00     0.113 C 
HETATM   38  S1  UNL     1       7.590   2.086   3.427  1.00  0.00    -0.095 SA
HETATM   39  S2  UNL     1       8.063   3.771   2.164  1.00  0.00    -0.095 SA
HETATM   40  C27 UNL     1       6.492   4.225   1.375  1.00  0.00     0.120 C 
HETATM   41  C28 UNL     1       5.725   3.009   0.914  1.00  0.00     0.151 C 
BRANCH  41  42
HETATM   42  O5  UNL     1       4.503   2.895   1.605  1.00  0.00    -0.393 OA
ATOM     43  H5  UNL     1       4.014   3.707   1.536  1.00  0.00     0.210 HD
ENDBRANCH  41  42
ENDBRANCH  34  36
ENDBRANCH  30  32
ENDBRANCH   1  26
BRANCH   1  44
HETATM   44  N6  UNL     1       1.691  -3.026  -0.887  1.00  0.00    -0.369 N 
HETATM   45  C29 UNL     1       1.462  -3.125   0.488  1.00  0.00     0.085 C 
HETATM   46  C30 UNL     1       1.715  -4.504   1.075  1.00  0.00     0.212 C 
HETATM   47  O6  UNL     1       1.352  -5.535   0.214  1.00  0.00    -0.385 OA
HETATM   48  C31 UNL     1       2.231  -5.435  -0.890  1.00  0.00     0.187 C 
HETATM   49  C32 UNL     1       1.786  -4.213  -1.644  1.00  0.00     0.149 C 
ENDBRANCH   1  44
TORSDOF 10
