REMARK  14 active torsions:
REMARK  status: ('A' for Active; 'I' for Inactive)
REMARK    1  A    between atoms: C2_2  and  N1_3 
REMARK    2  A    between atoms: C2_2  and  C28_43 
REMARK    3  A    between atoms: N1_3  and  C3_4 
REMARK    4  A    between atoms: C3_4  and  C4_5 
REMARK    5  A    between atoms: C3_4  and  C24_39 
REMARK       I    between atoms: C4_5  and  N2_7 
REMARK       I    between atoms: N2_7  and  C5_9 
REMARK    6  A    between atoms: C5_9  and  C6_11 
REMARK       I    between atoms: N3_15  and  C10_16 
REMARK    7  A    between atoms: C10_16  and  C11_18 
REMARK    8  A    between atoms: C11_18  and  N4_20 
REMARK       I    between atoms: N4_20  and  C13_22 
REMARK    9  A    between atoms: C13_22  and  C14_24 
REMARK   10  A    between atoms: N5_28  and  C18_29 
REMARK   11  A    between atoms: C18_29  and  O5_30 
REMARK   12  A    between atoms: C18_29  and  N6_32 
REMARK   13  A    between atoms: C28_43  and  O7_46 
REMARK   14  A    between atoms: O7_46  and  S1_47 
ROOT
HETATM    1  C6  UNL     1      -0.248   2.325   0.423  1.00  0.00     0.179 C 
HETATM    2  C7  UNL     1      -0.408   3.693   1.059  1.00  0.00     0.037 C 
HETATM    3  C8  UNL     1       0.119   4.628   0.024  1.00  0.00     0.022 C 
HETATM    4  C9  UNL     1       0.709   3.813  -1.084  1.00  0.00     0.127 C 
HETATM    5  N3  UNL     1       0.817   2.483  -0.546  1.00  0.00    -0.337 N 
HETATM    6  C10 UNL     1       1.770   1.520  -0.896  1.00  0.00     0.243 C 
HETATM    7  O3  UNL     1       2.635   1.828  -1.781  1.00  0.00    -0.271 OA
ENDROOT
BRANCH   1   8
HETATM    8  C5  UNL     1      -1.536   2.029  -0.239  1.00  0.00     0.247 C 
HETATM    9  N2  UNL     1      -2.663   1.637   0.531  1.00  0.00    -0.293 N 
HETATM   10  C4  UNL     1      -3.896   1.314  -0.123  1.00  0.00     0.260 C 
ATOM     11  H2  UNL     1      -2.595   1.586   1.547  1.00  0.00     0.172 HD
HETATM   12  O1  UNL     1      -3.928   1.419  -1.367  1.00  0.00    -0.270 OA
HETATM   13  O2  UNL     1      -1.601   2.131  -1.482  1.00  0.00    -0.271 OA
BRANCH  10  14
HETATM   14  C3  UNL     1      -5.128   0.856   0.620  1.00  0.00     0.262 C 
BRANCH  14  15
HETATM   15  N1  UNL     1      -6.030   0.275  -0.166  1.00  0.00    -0.438 NA
BRANCH  15  16
HETATM   16  C2  UNL     1      -6.830  -0.316  -0.801  1.00  0.00     0.088 C 
HETATM   17  C1  UNL     1      -7.423   0.252  -2.067  1.00  0.00     0.083 C 
BRANCH  16  18
HETATM   18  C28 UNL     1      -7.323  -1.686  -0.478  1.00  0.00     0.126 C 
HETATM   19  C29 UNL     1      -8.847  -1.525  -0.341  1.00  0.00     0.055 C 
HETATM   20  C30 UNL     1      -6.777  -2.204   0.801  1.00  0.00     0.055 C 
BRANCH  18  21
HETATM   21  O7  UNL     1      -6.989  -2.472  -1.581  1.00  0.00    -0.239 OA
BRANCH  21  22
HETATM   22  S1  UNL     1      -7.438  -4.059  -1.463  1.00  0.00     0.252 S 
HETATM   23  O8  UNL     1      -6.261  -4.855  -0.961  1.00  0.00    -0.572 OA
HETATM   24  O9  UNL     1      -8.690  -4.294  -0.702  1.00  0.00    -0.572 OA
HETATM   25  O10 UNL     1      -7.718  -4.633  -3.042  1.00  0.00    -0.572 OA
ENDBRANCH  21  22
ENDBRANCH  18  21
ENDBRANCH  16  18
ENDBRANCH  15  16
ENDBRANCH  14  15
BRANCH  14  26
HETATM   26  C24 UNL     1      -5.721   2.040   1.395  1.00  0.00    -0.010 C 
HETATM   27  C25 UNL     1      -6.231   3.140   0.519  1.00  0.00     0.018 C 
HETATM   28  C26 UNL     1      -6.984   1.472   2.098  1.00  0.00     0.018 C 
HETATM   29  C27 UNL     1      -4.852   2.519   2.509  1.00  0.00     0.018 C 
ENDBRANCH  14  26
ENDBRANCH  10  14
ENDBRANCH   1   8
BRANCH   6  30
HETATM   30  C11 UNL     1       1.861   0.176  -0.328  1.00  0.00     0.172 C 
HETATM   31  C12 UNL     1       0.586  -0.618  -0.519  1.00  0.00     0.042 C 
BRANCH  30  32
HETATM   32  N4  UNL     1       2.982  -0.577  -0.872  1.00  0.00    -0.346 N 
HETATM   33  C13 UNL     1       4.182  -0.872  -0.228  1.00  0.00     0.241 C 
HETATM   34  O4  UNL     1       4.442  -0.485   0.946  1.00  0.00    -0.271 OA
ATOM     35  H4  UNL     1       2.878  -0.925  -1.825  1.00  0.00     0.163 HD
BRANCH  33  36
HETATM   36  C14 UNL     1       5.241  -1.678  -0.911  1.00  0.00     0.179 C 
HETATM   37  C15 UNL     1       5.006  -3.165  -0.634  1.00  0.00     0.037 C 
HETATM   38  C16 UNL     1       5.460  -3.325   0.810  1.00  0.00     0.022 C 
HETATM   39  C17 UNL     1       6.582  -2.302   0.922  1.00  0.00     0.127 C 
HETATM   40  N5  UNL     1       6.555  -1.508  -0.280  1.00  0.00    -0.334 N 
BRANCH  40  41
HETATM   41  C18 UNL     1       7.604  -0.715  -0.813  1.00  0.00     0.218 C 
BRANCH  41  42
HETATM   42  O5  UNL     1       7.306  -0.178  -1.961  1.00  0.00    -0.332 OA
ATOM     43  H5  UNL     1       8.008   0.353  -2.318  1.00  0.00     0.220 HD
ENDBRANCH  41  42
BRANCH  41  44
HETATM   44  N6  UNL     1       8.865  -0.433  -0.312  1.00  0.00    -0.347 N 
HETATM   45  C19 UNL     1       9.453  -0.828   0.942  1.00  0.00     0.134 C 
HETATM   46  C20 UNL     1      10.492  -1.921   0.742  1.00  0.00     0.098 C 
HETATM   47  C21 UNL     1      11.026  -1.717  -0.648  1.00  0.00     0.130 C 
HETATM   48  O6  UNL     1      11.312  -2.683  -1.315  1.00  0.00    -0.298 OA
HETATM   49  C22 UNL     1      11.173  -0.317  -1.126  1.00  0.00     0.098 C 
HETATM   50  C23 UNL     1       9.805   0.370  -1.162  1.00  0.00     0.134 C 
ENDBRANCH  41  44
ENDBRANCH  40  41
ENDBRANCH  33  36
ENDBRANCH  30  32
ENDBRANCH   6  30
TORSDOF 14
