REMARK  12 active torsions:
REMARK  status: ('A' for Active; 'I' for Inactive)
REMARK    1  A    between atoms: C2_2  and  C4_4 
REMARK    2  A    between atoms: C4_4  and  N1_5 
REMARK    3  A    between atoms: C4_4  and  C22_33 
REMARK       I    between atoms: N1_5  and  C5_7 
REMARK       I    between atoms: C5_7  and  N2_9 
REMARK    4  A    between atoms: N2_9  and  C6_11 
REMARK    5  A    between atoms: C6_11  and  C7_12 
REMARK    6  A    between atoms: C6_11  and  C18_29 
REMARK       I    between atoms: C7_12  and  N3_14 
REMARK    7  A    between atoms: C9_16  and  O3_17 
REMARK    8  A    between atoms: C9_16  and  N4_19 
REMARK    9  A    between atoms: C22_33  and  C23_35 
REMARK       I    between atoms: C23_35  and  N5_37 
REMARK   10  A    between atoms: N5_37  and  C24_39 
REMARK   11  A    between atoms: C25_40  and  O6_41 
REMARK   12  A    between atoms: O6_41  and  C26_42 
REMARK       I    between atoms: C26_42  and  N6_44 
ROOT
HETATM    1  N1  UNL     1       0.033  -2.434   0.678  1.00  0.00    -0.331 N 
ATOM      2  H1  UNL     1       0.011  -3.256   0.075  1.00  0.00     0.165 HD
HETATM    3  C5  UNL     1      -1.085  -1.574   0.591  1.00  0.00     0.317 C 
HETATM    4  O1  UNL     1      -1.033  -0.571   1.385  1.00  0.00    -0.247 OA
HETATM    5  N2  UNL     1      -2.158  -1.743  -0.241  1.00  0.00    -0.329 N 
ATOM      6  H2  UNL     1      -2.045  -2.556  -0.847  1.00  0.00     0.165 HD
ENDROOT
BRANCH   1   7
HETATM    7  C4  UNL     1       1.183  -2.297   1.500  1.00  0.00     0.169 C 
BRANCH   7   8
HETATM    8  C2  UNL     1       1.213  -3.249   2.660  1.00  0.00     0.008 C 
HETATM    9  C1  UNL     1      -0.016  -3.047   3.567  1.00  0.00     0.012 C 
HETATM   10  C3  UNL     1       1.356  -4.687   2.342  1.00  0.00     0.012 C 
ENDBRANCH   7   8
BRANCH   7  11
HETATM   11  C22 UNL     1       2.389  -2.410   0.659  1.00  0.00     0.239 C 
HETATM   12  O4  UNL     1       2.223  -2.554  -0.620  1.00  0.00    -0.285 OA
BRANCH  11  13
HETATM   13  C23 UNL     1       3.765  -2.388   1.068  1.00  0.00     0.291 C 
HETATM   14  O5  UNL     1       4.080  -2.266   2.267  1.00  0.00    -0.264 OA
HETATM   15  N5  UNL     1       4.815  -2.509   0.121  1.00  0.00    -0.322 N 
ATOM     16  H5  UNL     1       4.588  -2.585  -0.871  1.00  0.00     0.165 HD
BRANCH  15  17
HETATM   17  C24 UNL     1       6.178  -2.526   0.528  1.00  0.00     0.355 C 
HETATM   18  C25 UNL     1       7.197  -1.738  -0.219  1.00  0.00     0.215 C 
HETATM   19  C31 UNL     1       7.138  -2.860  -1.196  1.00  0.00     0.311 C 
HETATM   20  N7  UNL     1       6.795  -3.736  -0.081  1.00  0.00     0.112 N 
HETATM   21  C32 UNL     1       7.881  -4.162   0.742  1.00  0.00     0.312 C 
BRANCH  18  22
HETATM   22  O6  UNL     1       6.840  -0.453  -0.672  1.00  0.00    -0.293 OA
BRANCH  22  23
HETATM   23  C26 UNL     1       7.676   0.612  -0.340  1.00  0.00     0.363 C 
HETATM   24  O7  UNL     1       8.709   0.416   0.346  1.00  0.00    -0.238 OA
HETATM   25  N6  UNL     1       7.384   1.926  -0.764  1.00  0.00    -0.324 N 
HETATM   26  C27 UNL     1       6.209   2.223  -1.595  1.00  0.00     0.154 C 
HETATM   27  C30 UNL     1       8.210   3.074  -0.402  1.00  0.00     0.154 C 
HETATM   28  C28 UNL     1       6.350   3.665  -2.039  1.00  0.00     0.187 C 
HETATM   29  O8  UNL     1       6.434   4.563  -1.000  1.00  0.00    -0.388 OA
HETATM   30  C29 UNL     1       7.206   4.135   0.054  1.00  0.00     0.187 C 
ENDBRANCH  22  23
ENDBRANCH  18  22
ENDBRANCH  15  17
ENDBRANCH  11  13
ENDBRANCH   7  11
ENDBRANCH   1   7
BRANCH   5  31
HETATM   31  C6  UNL     1      -3.407  -1.066  -0.480  1.00  0.00     0.186 C 
BRANCH  31  32
HETATM   32  C7  UNL     1      -3.222   0.371  -0.202  1.00  0.00     0.249 C 
HETATM   33  O2  UNL     1      -2.258   1.009  -0.749  1.00  0.00    -0.271 OA
HETATM   34  N3  UNL     1      -4.065   1.158   0.687  1.00  0.00    -0.296 N 
HETATM   35  C8  UNL     1      -3.792   2.542   0.791  1.00  0.00     0.076 C 
HETATM   36  C15 UNL     1      -5.038   0.646   1.571  1.00  0.00     0.082 C 
HETATM   37  C9  UNL     1      -4.321   3.586  -0.041  1.00  0.00     0.162 C 
HETATM   38  C14 UNL     1      -3.918   2.978   2.261  1.00  0.00     0.138 C 
HETATM   39  S1  UNL     1      -5.496   2.156   2.600  1.00  0.00    -0.132 SA
HETATM   40  C16 UNL     1      -4.459  -0.280   2.672  1.00  0.00     0.051 C 
HETATM   41  C17 UNL     1      -6.285  -0.003   1.135  1.00  0.00     0.051 C 
BRANCH  37  42
HETATM   42  O3  UNL     1      -3.522   4.678  -0.089  1.00  0.00    -0.345 OA
ATOM     43  H3  UNL     1      -3.872   5.369  -0.639  1.00  0.00     0.219 HD
ENDBRANCH  37  42
BRANCH  37  44
HETATM   44  N4  UNL     1      -5.449   3.800  -0.823  1.00  0.00    -0.360 N 
HETATM   45  C10 UNL     1      -5.676   5.039  -1.609  1.00  0.00     0.125 C 
HETATM   46  C11 UNL     1      -7.185   5.200  -1.483  1.00  0.00     0.021 C 
HETATM   47  C12 UNL     1      -7.614   3.788  -1.844  1.00  0.00     0.021 C 
HETATM   48  C13 UNL     1      -6.596   2.994  -1.033  1.00  0.00     0.125 C 
ENDBRANCH  37  44
ENDBRANCH  31  32
BRANCH  31  49
HETATM   49  C18 UNL     1      -3.823  -1.384  -1.898  1.00  0.00    -0.022 C 
HETATM   50  C19 UNL     1      -2.706  -0.945  -2.871  1.00  0.00     0.017 C 
HETATM   51  C20 UNL     1      -4.035  -2.846  -2.065  1.00  0.00     0.017 C 
HETATM   52  C21 UNL     1      -5.043  -0.651  -2.329  1.00  0.00     0.017 C 
ENDBRANCH  31  49
ENDBRANCH   5  31
TORSDOF 12
