REMARK  7 active torsions:
REMARK  status: ('A' for Active; 'I' for Inactive)
REMARK    1  A    between atoms: C3_5  and  C4_6 
REMARK    2  A    between atoms: C4_6  and  C5_7 
REMARK    3  A    between atoms: C11_15  and  C12_16 
REMARK    4  A    between atoms: C12_16  and  C13_17 
REMARK    5  A    between atoms: C13_17  and  C14_18 
REMARK    6  A    between atoms: C16_20  and  O1_21 
REMARK    7  A    between atoms: C19_24  and  O2_25 
ROOT
HETATM    1  C1  UNL     1      -1.662   2.325  -0.988  1.00  0.00     0.043 C 
HETATM    2  C2  UNL     1      -2.061   1.183  -0.469  1.00  0.00     0.030 A 
HETATM    3  N1  UNL     1      -3.342   0.813  -0.396  1.00  0.00    -0.356 N 
ATOM      4  H1  UNL     1      -4.145   1.350  -0.725  1.00  0.00     0.166 HD
HETATM    5  C3  UNL     1      -3.380  -0.394   0.189  1.00  0.00     0.040 A 
HETATM    6  C9  UNL     1      -2.102  -0.811   0.500  1.00  0.00    -0.027 A 
HETATM    7  C10 UNL     1      -1.685  -2.059   1.141  1.00  0.00     0.051 C 
HETATM    8  C11 UNL     1      -1.262   0.184   0.085  1.00  0.00    -0.024 A 
ENDROOT
BRANCH   8   9
HETATM    9  C12 UNL     1       0.189   0.263   0.158  1.00  0.00     0.046 C 
BRANCH   9  10
HETATM   10  C13 UNL     1       0.947  -0.023  -1.081  1.00  0.00     0.043 C 
BRANCH  10  11
HETATM   11  C14 UNL     1       2.407   0.123  -0.782  1.00  0.00    -0.052 A 
HETATM   12  C15 UNL     1       3.075   1.312  -0.956  1.00  0.00     0.044 A 
HETATM   13  C16 UNL     1       4.418   1.348  -0.642  1.00  0.00     0.071 A 
HETATM   14  C18 UNL     1       5.053   0.216  -0.169  1.00  0.00     0.073 A 
HETATM   15  C19 UNL     1       4.372  -0.987   0.006  1.00  0.00     0.071 A 
HETATM   16  C21 UNL     1       3.048  -1.003  -0.309  1.00  0.00     0.044 A 
BRANCH  13  17
HETATM   17  O1  UNL     1       5.123   2.551  -0.811  1.00  0.00    -0.356 OA
HETATM   18  C17 UNL     1       6.488   2.565  -0.485  1.00  0.00     0.210 C 
ENDBRANCH  13  17
BRANCH  15  19
HETATM   19  O2  UNL     1       5.008  -2.122   0.481  1.00  0.00    -0.356 OA
HETATM   20  C20 UNL     1       6.382  -2.091   0.806  1.00  0.00     0.210 C 
ENDBRANCH  15  19
ENDBRANCH  10  11
ENDBRANCH   9  10
ENDBRANCH   8   9
BRANCH   5  21
HETATM   21  C4  UNL     1      -4.462  -1.115   0.448  1.00  0.00     0.043 C 
BRANCH  21  22
HETATM   22  C5  UNL     1      -5.818  -0.689   0.123  1.00  0.00    -0.017 A 
HETATM   23  C6  UNL     1      -6.920  -0.756   0.983  1.00  0.00     0.030 A 
HETATM   24  C7  UNL     1      -8.027  -0.273   0.342  1.00  0.00     0.088 A 
HETATM   25  N2  UNL     1      -7.635   0.097  -0.908  1.00  0.00    -0.374 N 
HETATM   26  C8  UNL     1      -6.317  -0.148  -1.046  1.00  0.00     0.099 A 
ATOM     27  H2  UNL     1      -8.241   0.496  -1.625  1.00  0.00     0.164 HD
ENDBRANCH  21  22
ENDBRANCH   5  21
TORSDOF 7
