REMARK  6 active torsions:
REMARK  status: ('A' for Active; 'I' for Inactive)
REMARK    1  A    between atoms: C2_2  and  C3_3 
REMARK    2  A    between atoms: C3_3  and  N1_4 
REMARK       I    between atoms: N1_4  and  C4_6 
REMARK       I    between atoms: C4_6  and  N2_8 
REMARK       I    between atoms: N3_12  and  C8_13 
REMARK       I    between atoms: C8_13  and  N4_15 
REMARK    3  A    between atoms: N4_15  and  C9_17 
REMARK    4  A    between atoms: C9_17  and  C10_18 
REMARK    5  A    between atoms: C9_17  and  C14_22 
REMARK    6  A    between atoms: C10_18  and  C11_19 
ROOT
HETATM    1  N1  UNL     1       4.951  -0.166  -1.226  1.00  0.00    -0.322 N 
ATOM      2  H1  UNL     1       4.398   0.371  -1.895  1.00  0.00     0.169 HD
HETATM    3  C4  UNL     1       4.340  -0.264   0.021  1.00  0.00     0.325 C 
HETATM    4  O1  UNL     1       4.923  -0.948   0.945  1.00  0.00    -0.247 OA
HETATM    5  N2  UNL     1       3.109   0.350   0.317  1.00  0.00    -0.312 N 
HETATM    6  C5  UNL     1       2.623   0.072   1.696  1.00  0.00     0.134 C 
HETATM    7  C6  UNL     1       1.552  -1.002   1.456  1.00  0.00     0.040 C 
HETATM    8  C7  UNL     1       0.279  -0.330   1.090  1.00  0.00     0.129 C 
HETATM    9  N3  UNL     1       0.195   0.172  -0.256  1.00  0.00    -0.329 N 
HETATM   10  C8  UNL     1      -1.106   0.504  -0.683  1.00  0.00     0.318 C 
HETATM   11  O2  UNL     1      -1.270   0.941  -1.849  1.00  0.00    -0.247 OA
HETATM   12  N4  UNL     1      -2.281   0.379   0.133  1.00  0.00    -0.338 N 
ATOM     13  H4  UNL     1      -2.201   0.030   1.088  1.00  0.00     0.164 HD
HETATM   14  C17 UNL     1       1.238   0.400  -1.245  1.00  0.00     0.172 C 
HETATM   15  C18 UNL     1       2.406   1.149  -0.603  1.00  0.00     0.088 C 
ENDROOT
BRANCH  12  16
HETATM   16  C9  UNL     1      -3.572   0.743  -0.390  1.00  0.00     0.089 C 
BRANCH  16  17
HETATM   17  C10 UNL     1      -4.658  -0.227  -0.154  1.00  0.00     0.029 C 
BRANCH  17  18
HETATM   18  C11 UNL     1      -4.501  -1.598  -0.715  1.00  0.00    -0.021 C 
HETATM   19  C12 UNL     1      -5.762  -2.425  -0.364  1.00  0.00     0.009 C 
HETATM   20  C13 UNL     1      -3.371  -2.348  -0.045  1.00  0.00     0.009 C 
ENDBRANCH  17  18
ENDBRANCH  16  17
BRANCH  16  21
HETATM   21  C14 UNL     1      -3.963   2.039   0.343  1.00  0.00     0.000 C 
HETATM   22  C15 UNL     1      -5.312   2.537  -0.109  1.00  0.00     0.011 C 
HETATM   23  C16 UNL     1      -3.836   1.940   1.821  1.00  0.00     0.011 C 
ENDBRANCH  16  21
ENDBRANCH  12  16
BRANCH   1  24
HETATM   24  C3  UNL     1       6.158  -0.639  -1.774  1.00  0.00     0.065 C 
BRANCH  24  25
HETATM   25  C2  UNL     1       7.407  -0.062  -1.265  1.00  0.00     0.040 C 
HETATM   26  C1  UNL     1       7.760  -0.265   0.159  1.00  0.00     0.010 C 
ENDBRANCH  24  25
ENDBRANCH   1  24
TORSDOF 6
