REMARK  8 active torsions:
REMARK  status: ('A' for Active; 'I' for Inactive)
REMARK    1  A    between atoms: C2_2  and  N1_3 
REMARK    2  A    between atoms: N1_3  and  C3_4 
REMARK       I    between atoms: N1_3  and  C5_6 
REMARK       I    between atoms: C5_6  and  N2_8 
REMARK    3  A    between atoms: N2_8  and  C6_10 
REMARK    4  A    between atoms: C9_13  and  O2_14 
REMARK    5  A    between atoms: C9_13  and  N3_16 
REMARK    6  A    between atoms: N3_16  and  C10_18 
REMARK    7  A    between atoms: C10_18  and  C11_19 
REMARK    8  A    between atoms: C11_19  and  C12_20 
ROOT
HETATM    1  C6  UNL     1       1.998   0.536   0.722  1.00  0.00     0.110 A 
HETATM    2  C7  UNL     1       0.743   0.923   0.330  1.00  0.00     0.065 A 
HETATM    3  C8  UNL     1      -0.432   0.315   0.822  1.00  0.00     0.026 A 
HETATM    4  C9  UNL     1      -1.671   0.794   0.285  1.00  0.00     0.146 C 
HETATM    5  C15 UNL     1      -0.316  -0.696   1.723  1.00  0.00    -0.025 A 
HETATM    6  C16 UNL     1      -1.482  -1.355   2.309  1.00  0.00     0.051 C 
HETATM    7  C17 UNL     1       0.989  -1.072   2.107  1.00  0.00     0.013 A 
HETATM    8  C18 UNL     1       1.088  -2.181   3.092  1.00  0.00     0.068 C 
HETATM    9  N4  UNL     1       2.085  -0.476   1.621  1.00  0.00    -0.346 N 
ATOM     10  H4  UNL     1       3.004  -0.789   1.933  1.00  0.00     0.167 HD
ENDROOT
BRANCH   4  11
HETATM   11  O2  UNL     1      -1.666   2.022  -0.179  1.00  0.00    -0.346 OA
ATOM     12  H2  UNL     1      -2.488   2.340  -0.535  1.00  0.00     0.219 HD
ENDBRANCH   4  11
BRANCH   4  13
HETATM   13  N3  UNL     1      -2.908   0.181   0.159  1.00  0.00    -0.370 N 
ATOM     14  H3  UNL     1      -3.033  -0.780   0.477  1.00  0.00     0.161 HD
BRANCH  13  15
HETATM   15  C10 UNL     1      -4.030   0.902  -0.425  1.00  0.00     0.122 C 
BRANCH  15  16
HETATM   16  C11 UNL     1      -5.272   0.080  -0.482  1.00  0.00     0.023 C 
BRANCH  16  17
HETATM   17  C12 UNL     1      -6.383   0.875  -1.086  1.00  0.00    -0.021 C 
HETATM   18  C13 UNL     1      -5.994   1.299  -2.502  1.00  0.00     0.009 C 
HETATM   19  C14 UNL     1      -7.627   0.028  -1.146  1.00  0.00     0.009 C 
ENDBRANCH  16  17
ENDBRANCH  15  16
ENDBRANCH  13  15
ENDBRANCH   4  13
BRANCH   1  20
HETATM   20  N2  UNL     1       3.014   1.130   0.234  1.00  0.00    -0.295 N 
HETATM   21  C5  UNL     1       4.354   0.833   0.550  1.00  0.00     0.323 C 
HETATM   22  N1  UNL     1       5.123  -0.082  -0.212  1.00  0.00    -0.335 N 
HETATM   23  O1  UNL     1       4.874   1.402   1.540  1.00  0.00    -0.247 OA
ATOM     24  H2  UNL     1       2.844   1.879  -0.438  1.00  0.00     0.172 HD
BRANCH  22  25
HETATM   25  C2  UNL     1       4.483  -0.706  -1.335  1.00  0.00     0.123 C 
HETATM   26  C1  UNL     1       4.619   0.033  -2.623  1.00  0.00     0.026 C 
ENDBRANCH  22  25
BRANCH  22  27
HETATM   27  C3  UNL     1       6.485  -0.317   0.194  1.00  0.00     0.123 C 
HETATM   28  C4  UNL     1       7.421   0.662  -0.492  1.00  0.00     0.026 C 
ENDBRANCH  22  27
ENDBRANCH   1  20
TORSDOF 8
