REMARK  7 active torsions:
REMARK  status: ('A' for Active; 'I' for Inactive)
REMARK    1  A    between atoms: C10_10  and  C11_11 
REMARK    2  A    between atoms: C11_11  and  N1_12 
REMARK       I    between atoms: N1_12  and  C12_14 
REMARK    3  A    between atoms: C12_14  and  C13_16 
REMARK    4  A    between atoms: C13_16  and  C14_17 
REMARK    5  A    between atoms: C14_17  and  C15_18 
REMARK    6  A    between atoms: C15_18  and  S1_19 
REMARK    7  A    between atoms: S1_19  and  N2_21 
ROOT
HETATM    1  C11 UNL     1      -0.054  -0.809   0.606  1.00  0.00     0.132 C 
ENDROOT
BRANCH   1   2
HETATM    2  C10 UNL     1      -1.525  -0.682   0.491  1.00  0.00    -0.023 C 
HETATM    3  C9  UNL     1      -2.125   0.423   1.296  1.00  0.00     0.016 C 
HETATM    4  C8  UNL     1      -3.618   0.439   1.121  1.00  0.00    -0.005 C 
HETATM    5  C2  UNL     1      -4.041   0.653  -0.306  1.00  0.00    -0.040 C 
HETATM    6  C7  UNL     1      -4.156  -0.881   1.597  1.00  0.00     0.010 C 
HETATM    7  C1  UNL     1      -5.532   0.509  -0.399  1.00  0.00     0.015 C 
HETATM    8  C3  UNL     1      -3.673   2.020  -0.826  1.00  0.00     0.015 C 
HETATM    9  C4  UNL     1      -3.398  -0.431  -1.144  1.00  0.00    -0.005 C 
HETATM   10  C5  UNL     1      -3.873  -1.784  -0.726  1.00  0.00     0.010 C 
HETATM   11  C18 UNL     1      -1.884  -0.406  -0.975  1.00  0.00     0.016 C 
HETATM   12  C6  UNL     1      -3.623  -1.995   0.736  1.00  0.00    -0.013 C 
HETATM   13  C17 UNL     1      -2.116  -2.028   0.929  1.00  0.00     0.015 C 
ENDBRANCH   1   2
BRANCH   1  14
HETATM   14  N1  UNL     1       0.686   0.354   0.190  1.00  0.00    -0.360 N 
HETATM   15  C12 UNL     1       2.100   0.328   0.262  1.00  0.00     0.217 C 
HETATM   16  O1  UNL     1       2.672  -0.712   0.689  1.00  0.00    -0.274 OA
ATOM     17  H1  UNL     1       0.200   1.183  -0.151  1.00  0.00     0.162 HD
BRANCH  15  18
HETATM   18  C13 UNL     1       2.878   1.495  -0.153  1.00  0.00     0.103 C 
BRANCH  18  19
HETATM   19  C14 UNL     1       4.348   1.376  -0.113  1.00  0.00     0.023 C 
BRANCH  19  20
HETATM   20  C15 UNL     1       4.948   0.314  -0.998  1.00  0.00     0.117 C 
BRANCH  20  21
HETATM   21  S1  UNL     1       6.761   0.337  -0.810  1.00  0.00     0.015 S 
HETATM   22  C16 UNL     1       7.113   0.003   0.924  1.00  0.00     0.136 C 
HETATM   23  O2  UNL     1       7.382   1.861  -1.184  1.00  0.00    -0.251 OA
BRANCH  21  24
HETATM   24  N2  UNL     1       7.477  -0.861  -1.843  1.00  0.00    -0.360 N 
ATOM     25  H22 UNL     1       6.948  -1.479  -2.458  1.00  0.00     0.165 HD
ATOM     26  H21 UNL     1       8.491  -0.848  -1.738  1.00  0.00     0.165 HD
ENDBRANCH  21  24
ENDBRANCH  20  21
ENDBRANCH  19  20
ENDBRANCH  18  19
ENDBRANCH  15  18
ENDBRANCH   1  14
TORSDOF 7
