REMARK  8 active torsions:
REMARK  status: ('A' for Active; 'I' for Inactive)
REMARK    1  A    between atoms: C2_2  and  C3_3 
REMARK    2  A    between atoms: C4_4  and  C5_5 
REMARK    3  A    between atoms: C6_6  and  C7_7 
REMARK    4  A    between atoms: C7_7  and  C8_8 
REMARK    5  A    between atoms: C8_8  and  N1_9 
REMARK    6  A    between atoms: N1_9  and  C9_10 
REMARK    7  A    between atoms: N1_9  and  C11_12 
REMARK    8  A    between atoms: N1_9  and  C13_14 
ROOT
HETATM    1  C3  UNL     1       3.483   0.404  -0.070  1.00  0.00    -0.022 A 
HETATM    2  C4  UNL     1       2.540   0.544  -1.116  1.00  0.00     0.025 A 
HETATM    3  C15 UNL     1       2.996   0.526  -2.396  1.00  0.00     0.023 A 
HETATM    4  C16 UNL     1       4.316   0.378  -2.715  1.00  0.00     0.032 A 
HETATM    5  C17 UNL     1       5.211   0.243  -1.688  1.00  0.00     0.052 A 
HETATM    6  N2  UNL     1       6.524   0.080  -1.952  1.00  0.00    -0.308 N 
ATOM      7  H2  UNL     1       6.841   0.071  -2.921  1.00  0.00     0.170 HD
HETATM    8  C18 UNL     1       7.420  -0.070  -0.967  1.00  0.00     0.327 A 
HETATM    9  O1  UNL     1       8.644  -0.220  -1.232  1.00  0.00    -0.247 OA
HETATM   10  N3  UNL     1       7.058  -0.065   0.321  1.00  0.00    -0.275 N 
ATOM     11  H3  UNL     1       7.760  -0.180   1.052  1.00  0.00     0.173 HD
HETATM   12  C19 UNL     1       5.764   0.093   0.647  1.00  0.00     0.262 A 
HETATM   13  O2  UNL     1       5.474   0.087   1.850  1.00  0.00    -0.267 OA
HETATM   14  C20 UNL     1       4.819   0.251  -0.331  1.00  0.00     0.067 A 
ENDROOT
BRANCH   2  15
HETATM   15  C5  UNL     1       1.160   0.699  -0.763  1.00  0.00    -0.066 C 
HETATM   16  C6  UNL     1      -0.026   0.842  -0.481  1.00  0.00    -0.099 C 
BRANCH  16  17
HETATM   17  C7  UNL     1      -1.443   1.037  -0.154  1.00  0.00     0.122 C 
BRANCH  17  18
HETATM   18  C8  UNL     1      -2.135  -0.279  -0.290  1.00  0.00     0.249 C 
BRANCH  18  19
HETATM   19  N1  UNL     1      -3.546  -0.241   0.004  1.00  0.00    -0.067 N 
BRANCH  19  20
HETATM   20  C9  UNL     1      -3.962  -1.613   0.253  1.00  0.00     0.233 C 
HETATM   21  C10 UNL     1      -3.367  -2.615  -0.677  1.00  0.00     0.035 C 
ENDBRANCH  19  20
BRANCH  19  22
HETATM   22  C11 UNL     1      -4.270   0.243  -1.128  1.00  0.00     0.233 C 
HETATM   23  C12 UNL     1      -5.749   0.397  -0.863  1.00  0.00     0.035 C 
ENDBRANCH  19  22
BRANCH  19  24
HETATM   24  C13 UNL     1      -3.822   0.484   1.222  1.00  0.00     0.233 C 
HETATM   25  C14 UNL     1      -4.197   1.907   1.062  1.00  0.00     0.035 C 
ENDBRANCH  19  24
ENDBRANCH  18  19
ENDBRANCH  17  18
ENDBRANCH  16  17
ENDBRANCH   2  15
BRANCH   1  26
HETATM   26  C2  UNL     1       2.950   0.426   1.290  1.00  0.00     0.036 C 
HETATM   27  C1  UNL     1       2.418  -0.933   1.696  1.00  0.00     0.010 C 
ENDBRANCH   1  26
TORSDOF 8
