REMARK  11 active torsions:
REMARK  status: ('A' for Active; 'I' for Inactive)
REMARK    1  A    between atoms: C2_2  and  N2_6 
REMARK    2  A    between atoms: N2_6  and  C3_8 
REMARK    3  A    between atoms: C3_8  and  C4_9 
REMARK    4  A    between atoms: C4_9  and  C5_10 
REMARK    5  A    between atoms: C5_10  and  N3_11 
REMARK    6  A    between atoms: C7_16  and  N5_17 
REMARK    7  A    between atoms: N5_17  and  C8_19 
REMARK    8  A    between atoms: C8_19  and  C9_20 
REMARK    9  A    between atoms: C9_20  and  C10_21 
REMARK   10  A    between atoms: C10_21  and  N6_22 
REMARK   11  A    between atoms: N7_25  and  C13_26 
ROOT
HETATM    1  N3  UNL     1       4.111  -1.667  -0.819  1.00  0.00    -0.374 N 
ATOM      2  H3  UNL     1       3.804  -0.821  -1.300  1.00  0.00     0.161 HD
HETATM    3  C6  UNL     1       3.259  -1.971   0.022  1.00  0.00     0.140 A 
HETATM    4  N4  UNL     1       2.150  -1.167   0.133  1.00  0.00    -0.175 N 
ATOM      5  H4  UNL     1       2.065  -0.353  -0.475  1.00  0.00     0.186 HD
HETATM    6  C7  UNL     1       1.181  -1.422   1.015  1.00  0.00     0.679 A 
HETATM    7  N8  UNL     1       1.259  -2.492   1.837  1.00  0.00    -0.200 N 
ATOM      8  H8  UNL     1       0.512  -2.676   2.506  1.00  0.00     0.183 HD
HETATM    9  C18 UNL     1       2.317  -3.310   1.773  1.00  0.00     0.133 A 
HETATM   10  C19 UNL     1       3.327  -3.049   0.858  1.00  0.00     0.094 A 
HETATM   11 CL1  UNL     1       4.691  -4.176   0.835  1.00  0.00    -0.079 Cl
ENDROOT
BRANCH   6  12
HETATM   12  N5  UNL     1       0.186  -0.589   1.023  1.00  0.00    -0.226 N 
ATOM     13  H5  UNL     1       0.195   0.197   0.373  1.00  0.00     0.177 HD
BRANCH  12  14
HETATM   14  C8  UNL     1      -0.915  -0.737   1.909  1.00  0.00     0.140 C 
BRANCH  14  15
HETATM   15  C9  UNL     1      -1.935  -1.703   1.355  1.00  0.00     0.050 C 
BRANCH  15  16
HETATM   16  C10 UNL     1      -2.434  -1.158   0.023  1.00  0.00     0.274 C 
BRANCH  16  17
HETATM   17  N6  UNL     1      -3.059   0.149   0.172  1.00  0.00     0.091 N 
HETATM   18  C11 UNL     1      -3.477   0.547  -1.160  1.00  0.00     0.291 C 
HETATM   19  C12 UNL     1      -4.981   0.607  -1.250  1.00  0.00     0.147 C 
HETATM   20  N7  UNL     1      -5.470   1.497  -0.237  1.00  0.00    -0.406 N 
HETATM   21  C16 UNL     1      -5.131   1.142   1.086  1.00  0.00     0.147 C 
HETATM   22  C17 UNL     1      -4.184  -0.042   1.067  1.00  0.00     0.291 C 
BRANCH  20  23
HETATM   23  C13 UNL     1      -6.787   1.933  -0.489  1.00  0.00     0.071 C 
HETATM   24  C14 UNL     1      -7.783   0.775  -0.490  1.00  0.00     0.031 C 
HETATM   25  C15 UNL     1      -7.316   2.985   0.418  1.00  0.00     0.031 C 
ENDBRANCH  20  23
ENDBRANCH  16  17
ENDBRANCH  15  16
ENDBRANCH  14  15
ENDBRANCH  12  14
ENDBRANCH   6  12
BRANCH   1  26
HETATM   26  C5  UNL     1       5.327  -2.054  -1.346  1.00  0.00     0.123 C 
BRANCH  26  27
HETATM   27  C4  UNL     1       6.523  -1.385  -0.633  1.00  0.00     0.039 C 
BRANCH  27  28
HETATM   28  C3  UNL     1       6.371   0.126  -0.804  1.00  0.00     0.122 C 
BRANCH  28  29
HETATM   29  N2  UNL     1       7.445   0.828  -0.170  1.00  0.00    -0.380 N 
ATOM     30  H2  UNL     1       8.179   0.310   0.314  1.00  0.00     0.160 HD
BRANCH  29  31
HETATM   31  C2  UNL     1       7.487   2.234  -0.215  1.00  0.00     0.066 C 
HETATM   32  C1  UNL     1       8.686   2.948  -0.733  1.00  0.00     0.088 C 
HETATM   33  N1  UNL     1       6.469   2.904   0.201  1.00  0.00    -0.389 N 
ATOM     34  H12 UNL     1       6.499   3.923   0.168  1.00  0.00     0.157 HD
ATOM     35  H11 UNL     1       5.647   2.415   0.556  1.00  0.00     0.157 HD
ENDBRANCH  29  31
ENDBRANCH  28  29
ENDBRANCH  27  28
ENDBRANCH  26  27
ENDBRANCH   1  26
TORSDOF 11
