REMARK  12 active torsions:
REMARK  status: ('A' for Active; 'I' for Inactive)
REMARK    1  A    between atoms: C3_5  and  C4_6 
REMARK    2  A    between atoms: C3_5  and  C5_9 
REMARK    3  A    between atoms: C4_6  and  O1_7 
REMARK    4  A    between atoms: C5_9  and  O2_10 
REMARK    5  A    between atoms: O2_10  and  C6_11 
REMARK    6  A    between atoms: C6_11  and  C7_13 
REMARK    7  A    between atoms: C7_13  and  C8_14 
REMARK    8  A    between atoms: C8_14  and  C9_15 
REMARK    9  A    between atoms: C9_15  and  C10_16 
REMARK   10  A    between atoms: C10_16  and  C11_17 
REMARK   11  A    between atoms: C11_17  and  C12_18 
REMARK   12  A    between atoms: C20_31  and  O4_32 
ROOT
HETATM    1  C5  UNL     1      -2.463  -1.378  -0.882  1.00  0.00     0.242 C 
ENDROOT
BRANCH   1   2
HETATM    2  C3  UNL     1      -3.502  -0.578  -0.153  1.00  0.00     0.237 C 
HETATM    3  N1  UNL     1      -3.101   0.765   0.005  1.00  0.00    -0.381 N 
HETATM    4  C2  UNL     1      -4.065   1.619   0.657  1.00  0.00     0.105 C 
ATOM      5  H1  UNL     1      -2.196   1.108  -0.318  1.00  0.00     0.156 HD
HETATM    6  C1  UNL     1      -3.690   1.723   2.110  1.00  0.00     0.034 C 
HETATM    7  C20 UNL     1      -5.475   1.295   0.399  1.00  0.00     0.170 C 
HETATM    8  C18 UNL     1      -5.793  -0.062  -0.134  1.00  0.00     0.215 C 
HETATM    9  N3  UNL     1      -4.728  -0.630  -0.938  1.00  0.00    -0.038 N 
HETATM   10  C19 UNL     1      -7.011   0.009  -1.063  1.00  0.00     0.043 C 
ATOM     11  H32 UNL     1      -4.635  -0.179  -1.848  1.00  0.00     0.280 HD
ATOM     12  H31 UNL     1      -4.943  -1.569  -1.274  1.00  0.00     0.280 HD
BRANCH   7  13
HETATM   13  O4  UNL     1      -6.219   1.469   1.569  1.00  0.00    -0.391 OA
ATOM     14  H4  UNL     1      -7.130   1.260   1.402  1.00  0.00     0.210 HD
ENDBRANCH   7  13
BRANCH   2  15
HETATM   15  C4  UNL     1      -3.706  -1.273   1.185  1.00  0.00     0.227 C 
BRANCH  15  16
HETATM   16  O1  UNL     1      -4.096  -2.600   1.006  1.00  0.00    -0.397 OA
ATOM     17  H1  UNL     1      -4.223  -3.034   1.841  1.00  0.00     0.209 HD
ENDBRANCH  15  16
ENDBRANCH   2  15
ENDBRANCH   1   2
BRANCH   1  18
HETATM   18  O2  UNL     1      -1.244  -1.574  -0.351  1.00  0.00    -0.317 OA
BRANCH  18  19
HETATM   19  C6  UNL     1      -0.200  -0.793  -0.014  1.00  0.00     0.258 C 
HETATM   20  O3  UNL     1      -0.264   0.439  -0.202  1.00  0.00    -0.265 OA
BRANCH  19  21
HETATM   21  C7  UNL     1       1.050  -1.403   0.591  1.00  0.00     0.111 C 
BRANCH  21  22
HETATM   22  C8  UNL     1       2.108  -1.624  -0.457  1.00  0.00     0.010 C 
BRANCH  22  23
HETATM   23  C9  UNL     1       2.505  -0.330  -1.115  1.00  0.00     0.001 C 
BRANCH  23  24
HETATM   24  C10 UNL     1       3.573  -0.531  -2.138  1.00  0.00     0.005 C 
BRANCH  24  25
HETATM   25  C11 UNL     1       4.861  -1.080  -1.641  1.00  0.00     0.040 C 
BRANCH  25  26
HETATM   26  C12 UNL     1       5.557  -0.259  -0.638  1.00  0.00    -0.034 A 
HETATM   27  C13 UNL     1       5.579  -0.602   0.692  1.00  0.00     0.026 A 
HETATM   28  C14 UNL     1       6.249   0.178   1.633  1.00  0.00     0.090 A 
HETATM   29  N2  UNL     1       6.897   1.295   1.259  1.00  0.00    -0.369 N 
HETATM   30  C15 UNL     1       7.607   2.116   2.254  1.00  0.00     0.154 C 
HETATM   31  C16 UNL     1       6.892   1.652  -0.031  1.00  0.00     0.114 A 
HETATM   32  C17 UNL     1       6.228   0.890  -1.002  1.00  0.00     0.055 A 
HETATM   33 CL1  UNL     1       6.236   1.377  -2.673  1.00  0.00    -0.082 Cl
ENDBRANCH  25  26
ENDBRANCH  24  25
ENDBRANCH  23  24
ENDBRANCH  22  23
ENDBRANCH  21  22
ENDBRANCH  19  21
ENDBRANCH  18  19
ENDBRANCH   1  18
TORSDOF 12
