REMARK  13 active torsions:
REMARK  status: ('A' for Active; 'I' for Inactive)
REMARK    1  A    between atoms: O1_1  and  C1_3 
REMARK    2  A    between atoms: C1_3  and  C2_4 
REMARK    3  A    between atoms: C3_5  and  O2_6 
REMARK    4  A    between atoms: C4_8  and  O3_9 
REMARK    5  A    between atoms: C5_11  and  O4_12 
REMARK    6  A    between atoms: N1_15  and  C7_16 
REMARK    7  A    between atoms: C7_16  and  C8_17 
REMARK    8  A    between atoms: C8_17  and  C9_18 
REMARK    9  A    between atoms: C9_18  and  C10_19 
REMARK   10  A    between atoms: C10_19  and  C11_20 
REMARK   11  A    between atoms: C11_20  and  C12_21 
REMARK   12  A    between atoms: C12_21  and  C13_22 
REMARK   13  A    between atoms: C13_22  and  C14_23 
ROOT
HETATM    1  C2  UNL     1       4.275   0.335   1.070  1.00  0.00     0.138 C 
HETATM    2  C3  UNL     1       5.175   1.016   0.110  1.00  0.00     0.174 C 
HETATM    3  C4  UNL     1       5.342   0.260  -1.186  1.00  0.00     0.182 C 
HETATM    4  C5  UNL     1       4.077  -0.388  -1.647  1.00  0.00     0.187 C 
HETATM    5  C6  UNL     1       2.862  -0.008  -0.861  1.00  0.00     0.093 C 
HETATM    6  N1  UNL     1       2.973   0.097   0.518  1.00  0.00    -0.382 N 
ENDROOT
BRANCH   6   7
HETATM    7  C7  UNL     1       2.147  -0.706   1.346  1.00  0.00     0.122 C 
BRANCH   7   8
HETATM    8  C8  UNL     1       0.754  -0.940   0.870  1.00  0.00     0.020 C 
BRANCH   8   9
HETATM    9  C9  UNL     1      -0.030   0.341   0.699  1.00  0.00     0.002 C 
BRANCH   9  10
HETATM   10  C10 UNL     1      -1.450   0.013   0.207  1.00  0.00     0.000 C 
BRANCH  10  11
HETATM   11  C11 UNL     1      -2.190   1.320   0.054  1.00  0.00     0.000 C 
BRANCH  11  12
HETATM   12  C12 UNL     1      -3.584   1.077  -0.440  1.00  0.00     0.005 C 
BRANCH  12  13
HETATM   13  C13 UNL     1      -4.379   0.224   0.487  1.00  0.00     0.038 C 
BRANCH  13  14
HETATM   14  C14 UNL     1      -5.768   0.012  -0.035  1.00  0.00    -0.058 A 
HETATM   15  C15 UNL     1      -6.034  -1.059  -0.853  1.00  0.00     0.008 A 
HETATM   16  C16 UNL     1      -7.335  -1.202  -1.306  1.00  0.00     0.019 A 
HETATM   17  C17 UNL     1      -8.299  -0.276  -0.922  1.00  0.00     0.011 A 
HETATM   18 BR1  UNL     1     -10.094  -0.455  -1.532  1.00  0.00    -0.051 Br
HETATM   19  C18 UNL     1      -8.015   0.794  -0.099  1.00  0.00     0.019 A 
HETATM   20  C19 UNL     1      -6.718   0.936   0.352  1.00  0.00     0.008 A 
ENDBRANCH  13  14
ENDBRANCH  12  13
ENDBRANCH  11  12
ENDBRANCH  10  11
ENDBRANCH   9  10
ENDBRANCH   8   9
ENDBRANCH   7   8
ENDBRANCH   6   7
BRANCH   1  21
HETATM   21  C1  UNL     1       4.865  -0.889   1.722  1.00  0.00     0.192 C 
BRANCH  21  22
HETATM   22  O1  UNL     1       6.115  -0.668   2.251  1.00  0.00    -0.399 OA
ATOM     23  H1  UNL     1       6.487  -1.440   2.662  1.00  0.00     0.209 HD
ENDBRANCH  21  22
ENDBRANCH   1  21
BRANCH   2  24
HETATM   24  O2  UNL     1       4.611   2.257  -0.212  1.00  0.00    -0.391 OA
ATOM     25  H2  UNL     1       5.188   2.694  -0.828  1.00  0.00     0.210 HD
ENDBRANCH   2  24
BRANCH   4  26
HETATM   26  O4  UNL     1       4.242  -1.764  -1.806  1.00  0.00    -0.388 OA
ATOM     27  H4  UNL     1       3.438  -2.176  -2.099  1.00  0.00     0.210 HD
ENDBRANCH   4  26
BRANCH   3  28
HETATM   28  O3  UNL     1       6.332  -0.722  -0.973  1.00  0.00    -0.390 OA
ATOM     29  H3  UNL     1       6.437  -1.198  -1.789  1.00  0.00     0.210 HD
ENDBRANCH   3  28
TORSDOF 13
