REMARK  11 active torsions:
REMARK  status: ('A' for Active; 'I' for Inactive)
REMARK    1  A    between atoms: C2_2  and  C4_5 
REMARK    2  A    between atoms: C4_5  and  C5_6 
REMARK    3  A    between atoms: C4_5  and  N1_9 
REMARK    4  A    between atoms: C5_6  and  O1_7 
REMARK    5  A    between atoms: N1_9  and  C6_11 
REMARK    6  A    between atoms: C6_11  and  C7_12 
REMARK       I    between atoms: C7_12  and  N2_14 
REMARK    7  A    between atoms: N2_14  and  C8_16 
REMARK    8  A    between atoms: C8_16  and  C9_17 
REMARK    9  A    between atoms: C9_17  and  C10_18 
REMARK   10  A    between atoms: C9_17  and  N4_28 
REMARK       I    between atoms: C10_18  and  N3_20 
REMARK   11  A    between atoms: N3_20  and  C11_22 
ROOT
HETATM    1  C9  UNL     1      -1.068   1.052   0.412  1.00  0.00     0.193 C 
ENDROOT
BRANCH   1   2
HETATM    2  C8  UNL     1       0.309   0.835  -0.227  1.00  0.00     0.158 C 
BRANCH   2   3
HETATM    3  N2  UNL     1       1.067  -0.125   0.541  1.00  0.00    -0.354 N 
HETATM    4  C7  UNL     1       2.386  -0.567   0.170  1.00  0.00     0.256 C 
HETATM    5  O2  UNL     1       2.863  -0.069  -0.853  1.00  0.00    -0.267 OA
ATOM      6  H2  UNL     1       0.647  -0.509   1.388  1.00  0.00     0.162 HD
BRANCH   4   7
HETATM    7  C6  UNL     1       3.047  -1.557   1.019  1.00  0.00     0.158 C 
BRANCH   7   8
HETATM    8  N1  UNL     1       4.343  -1.909   0.655  1.00  0.00    -0.385 N 
ATOM      9  H1  UNL     1       4.476  -2.810   0.197  1.00  0.00     0.159 HD
BRANCH   8  10
HETATM   10  C4  UNL     1       5.467  -1.125   0.869  1.00  0.00     0.143 C 
BRANCH  10  11
HETATM   11  C2  UNL     1       6.558  -1.533  -0.145  1.00  0.00     0.118 C 
HETATM   12  C1  UNL     1       7.886  -0.944   0.341  1.00  0.00     0.053 C 
HETATM   13  C3  UNL     1       6.297  -0.998  -1.508  1.00  0.00     0.053 C 
HETATM   14  F1  UNL     1       6.595  -2.906  -0.170  1.00  0.00    -0.241 F 
ENDBRANCH  10  11
BRANCH  10  15
HETATM   15  C5  UNL     1       5.406   0.355   0.909  1.00  0.00     0.192 C 
BRANCH  15  16
HETATM   16  O1  UNL     1       4.549   0.843   1.894  1.00  0.00    -0.399 OA
ATOM     17  H1  UNL     1       4.510   1.792   1.920  1.00  0.00     0.209 HD
ENDBRANCH  15  16
ENDBRANCH  10  15
ENDBRANCH   8  10
ENDBRANCH   7   8
ENDBRANCH   4   7
ENDBRANCH   2   3
ENDBRANCH   1   2
BRANCH   1  18
HETATM   18  C10 UNL     1      -1.842  -0.208   0.430  1.00  0.00     0.242 C 
HETATM   19  O3  UNL     1      -1.348  -1.332   0.683  1.00  0.00    -0.271 OA
HETATM   20  N3  UNL     1      -3.261  -0.243   0.152  1.00  0.00    -0.355 N 
ATOM     21  H3  UNL     1      -3.744   0.630  -0.059  1.00  0.00     0.162 HD
BRANCH  20  22
HETATM   22  C11 UNL     1      -4.006  -1.459   0.163  1.00  0.00     0.084 C 
HETATM   23  C12 UNL     1      -4.848  -1.570  -1.078  1.00  0.00     0.025 C 
HETATM   24  C13 UNL     1      -5.764  -2.778  -1.025  1.00  0.00     0.002 C 
HETATM   25  C14 UNL     1      -5.561  -3.591   0.235  1.00  0.00     0.000 C 
HETATM   26  C15 UNL     1      -5.630  -2.780   1.499  1.00  0.00     0.002 C 
HETATM   27  C16 UNL     1      -5.004  -1.409   1.332  1.00  0.00     0.025 C 
ENDBRANCH  20  22
ENDBRANCH   1  18
BRANCH   1  28
HETATM   28  N4  UNL     1      -1.703   2.146  -0.175  1.00  0.00    -0.379 N 
HETATM   29  C17 UNL     1      -2.051   2.182  -1.519  1.00  0.00     0.123 C 
HETATM   30  C18 UNL     1      -1.469   3.462  -2.140  1.00  0.00     0.020 C 
HETATM   31  C19 UNL     1      -1.708   4.631  -1.244  1.00  0.00     0.007 C 
HETATM   32  C20 UNL     1      -2.665   4.384  -0.113  1.00  0.00     0.044 C 
HETATM   33  C21 UNL     1      -2.326   3.100   0.634  1.00  0.00     0.059 C 
ENDBRANCH   1  28
TORSDOF 11
