REMARK  0 active torsions:
REMARK  status: ('A' for Active; 'I' for Inactive)
REMARK       I    between atoms: C2_3  and  N2_5 
ROOT
HETATM    1  C1  UNL     1       2.468   0.914   0.446  1.00  0.00     0.265 C 
HETATM    2  N1  UNL     1       1.300   0.193   0.312  1.00  0.00    -0.407 NA
HETATM    3  C2  UNL     1       0.166  -0.507   0.182  1.00  0.00     0.367 C 
HETATM    4  O1  UNL     1      -0.177  -1.583   0.807  1.00  0.00    -0.237 OA
HETATM    5  N2  UNL     1      -0.830  -0.048  -0.767  1.00  0.00    -0.220 NA
HETATM    6  C3  UNL     1      -2.036  -0.923  -0.870  1.00  0.00     0.116 A 
HETATM    7  C4  UNL     1      -2.080   0.428  -0.265  1.00  0.00     0.116 A 
ENDROOT
TORSDOF -1
