REMARK  1 active torsions:
REMARK  status: ('A' for Active; 'I' for Inactive)
REMARK    1  A    between atoms: C2_2  and  N2_6 
ROOT
HETATM    1  N2  UNL     1      -0.012  -0.457  -0.380  1.00  0.00    -0.023 N 
HETATM    2  C3  UNL     1      -0.477  -1.631  -1.112  1.00  0.00     0.281 C 
HETATM    3  C4  UNL     1       0.878   0.388  -1.138  1.00  0.00     0.278 A 
HETATM    4  C5  UNL     1       1.364  -0.468   0.011  1.00  0.00     0.220 A 
HETATM    5  C6  UNL     1       1.833   0.264   1.232  1.00  0.00     0.043 C 
ENDROOT
BRANCH   1   6
HETATM    6  C2  UNL     1      -1.002   0.116   0.448  1.00  0.00     0.174 C 
HETATM    7  C1  UNL     1      -1.731   1.351   0.084  1.00  0.00     0.096 C 
HETATM    8  N1  UNL     1      -1.276  -0.456   1.550  1.00  0.00    -0.383 N 
ATOM      9  H12 UNL     1      -1.991  -0.042   2.148  1.00  0.00     0.157 HD
ATOM     10  H11 UNL     1      -0.773  -1.307   1.801  1.00  0.00     0.157 HD
ENDBRANCH   1   6
TORSDOF 1
