REMARK  1 active torsions:
REMARK  status: ('A' for Active; 'I' for Inactive)
REMARK    1  A    between atoms: C2_2  and  N1_3 
ROOT
HETATM    1  N1  UNL     1       0.318  -0.155  -0.164  1.00  0.00    -0.047 N 
HETATM    2  C3  UNL     1      -0.227   1.168  -0.080  1.00  0.00     0.243 C 
HETATM    3  C4  UNL     1      -1.699   0.819   0.226  1.00  0.00     0.036 C 
HETATM    4  C5  UNL     1      -1.550  -0.675   0.287  1.00  0.00     0.040 C 
HETATM    5  C6  UNL     1      -0.228  -0.817   1.033  1.00  0.00     0.249 C 
HETATM    6  C7  UNL     1      -0.670  -0.963  -0.896  1.00  0.00     0.249 C 
ENDROOT
BRANCH   1   7
HETATM    7  C2  UNL     1       1.645  -0.351  -0.451  1.00  0.00     0.192 C 
HETATM    8  C1  UNL     1       2.547   0.526  -0.114  1.00  0.00     0.038 C 
ENDBRANCH   1   7
TORSDOF 1
