REMARK  5 active torsions:
REMARK  status: ('A' for Active; 'I' for Inactive)
REMARK    1  A    between atoms: S1_2  and  C2_3 
REMARK    2  A    between atoms: C3_8  and  C4_9 
REMARK       I    between atoms: N3_12  and  C7_13 
REMARK       I    between atoms: C7_13  and  N4_15 
REMARK    3  A    between atoms: N4_15  and  C8_17 
REMARK    4  A    between atoms: C8_17  and  C9_18 
REMARK    5  A    between atoms: C9_18  and  C10_19 
ROOT
HETATM    1  C4  UNL     1       1.805   1.001  -0.022  1.00  0.00     0.065 C 
HETATM    2  C5  UNL     1       1.112   0.463   1.198  1.00  0.00     0.033 C 
HETATM    3  C6  UNL     1      -0.366   0.377   1.058  1.00  0.00     0.128 C 
HETATM    4  N3  UNL     1      -0.866   0.322  -0.289  1.00  0.00    -0.334 N 
HETATM    5  C7  UNL     1      -2.274   0.343  -0.491  1.00  0.00     0.318 C 
HETATM    6  O1  UNL     1      -2.772   0.298  -1.649  1.00  0.00    -0.247 OA
HETATM    7  N4  UNL     1      -3.151   0.416   0.614  1.00  0.00    -0.343 N 
ATOM      8  H4  UNL     1      -2.727   0.454   1.541  1.00  0.00     0.164 HD
HETATM    9  C11 UNL     1      -0.025   0.247  -1.439  1.00  0.00     0.128 C 
HETATM   10  C12 UNL     1       1.432   0.100  -1.179  1.00  0.00     0.033 C 
ENDROOT
BRANCH   1  11
HETATM   11  C3  UNL     1       3.251   0.991   0.233  1.00  0.00     0.145 A 
HETATM   12  N2  UNL     1       4.050   2.070   0.146  1.00  0.00    -0.281 N 
HETATM   13  N1  UNL     1       5.275   1.736   0.430  1.00  0.00    -0.272 N 
ATOM     14  H2  UNL     1       3.742   3.009  -0.105  1.00  0.00     0.189 HD
HETATM   15  C2  UNL     1       5.266   0.421   0.706  1.00  0.00     0.203 A 
ATOM     16  H1  UNL     1       6.087   2.354   0.441  1.00  0.00     0.189 HD
HETATM   17  O2  UNL     1       4.036  -0.012   0.582  1.00  0.00    -0.272 OA
BRANCH  15  18
HETATM   18  S1  UNL     1       6.731  -0.492   1.155  1.00  0.00    -0.089 SA
HETATM   19  C1  UNL     1       7.555  -1.161  -0.339  1.00  0.00     0.099 C 
ENDBRANCH  15  18
ENDBRANCH   1  11
BRANCH   7  20
HETATM   20  C8  UNL     1      -4.586   0.442   0.549  1.00  0.00     0.125 C 
BRANCH  20  21
HETATM   21  C9  UNL     1      -5.146  -0.797  -0.092  1.00  0.00     0.034 C 
BRANCH  21  22
HETATM   22  C10 UNL     1      -6.678  -0.699  -0.116  1.00  0.00     0.116 C 
HETATM   23 CL1  UNL     1      -7.332  -2.165  -0.874  1.00  0.00    -0.130 Cl
ENDBRANCH  21  22
ENDBRANCH  20  21
ENDBRANCH   7  20
TORSDOF 5
