REMARK  8 active torsions:
REMARK  status: ('A' for Active; 'I' for Inactive)
REMARK    1  A    between atoms: C2_2  and  O1_3 
REMARK    2  A    between atoms: O1_3  and  C3_4 
REMARK       I    between atoms: C3_4  and  N1_6 
REMARK    3  A    between atoms: N1_6  and  C4_8 
REMARK    4  A    between atoms: C5_11  and  C6_12 
REMARK    5  A    between atoms: C6_12  and  O4_14 
REMARK    6  A    between atoms: O4_14  and  C7_15 
REMARK    7  A    between atoms: C7_15  and  C8_16 
REMARK    8  A    between atoms: C8_16  and  C9_17 
ROOT
HETATM    1  C4  UNL     1       2.031  -0.038   0.492  1.00  0.00     0.155 A 
HETATM    2  N2  UNL     1       0.752   0.094   0.813  1.00  0.00    -0.330 N 
ATOM      3  H2  UNL     1       0.242  -0.683   1.233  1.00  0.00     0.168 HD
HETATM    4  C5  UNL     1       0.151   1.234   0.584  1.00  0.00     0.139 A 
HETATM    5  C12 UNL     1       0.906   2.235   0.016  1.00  0.00     0.111 A 
HETATM    6 CL1  UNL     1       0.417   3.878  -0.420  1.00  0.00    -0.073 Cl
HETATM    7  S1  UNL     1       2.430   1.481  -0.156  1.00  0.00    -0.039 SA
ENDROOT
BRANCH   4   8
HETATM    8  C6  UNL     1      -1.278   1.482   0.908  1.00  0.00     0.312 C 
HETATM    9  O3  UNL     1      -1.785   2.589   0.664  1.00  0.00    -0.258 OA
BRANCH   8  10
HETATM   10  O4  UNL     1      -2.049   0.505   1.472  1.00  0.00    -0.316 OA
BRANCH  10  11
HETATM   11  C7  UNL     1      -3.397   0.625   1.817  1.00  0.00     0.179 C 
BRANCH  11  12
HETATM   12  C8  UNL     1      -4.303   0.944   0.666  1.00  0.00     0.031 C 
BRANCH  12  13
HETATM   13  C9  UNL     1      -4.180  -0.175  -0.344  1.00  0.00    -0.013 A 
HETATM   14  C10 UNL     1      -4.513  -1.559   0.009  1.00  0.00     0.005 A 
HETATM   15  C11 UNL     1      -5.482  -0.820  -0.802  1.00  0.00     0.005 A 
ENDBRANCH  12  13
ENDBRANCH  11  12
ENDBRANCH  10  11
ENDBRANCH   8  10
ENDBRANCH   4   8
BRANCH   1  16
HETATM   16  N1  UNL     1       2.811  -1.087   0.636  1.00  0.00    -0.282 N 
HETATM   17  C3  UNL     1       4.178  -0.967   0.202  1.00  0.00     0.366 C 
HETATM   18  O2  UNL     1       5.127  -1.539   0.793  1.00  0.00    -0.238 OA
ATOM     19  H1  UNL     1       2.460  -1.955   1.041  1.00  0.00     0.173 HD
BRANCH  17  20
HETATM   20  O1  UNL     1       4.477  -0.194  -0.911  1.00  0.00    -0.304 OA
BRANCH  20  21
HETATM   21  C2  UNL     1       5.829  -0.082  -1.332  1.00  0.00     0.176 C 
HETATM   22  C1  UNL     1       6.426  -1.422  -1.686  1.00  0.00     0.034 C 
ENDBRANCH  20  21
ENDBRANCH  17  20
ENDBRANCH   1  16
TORSDOF 8
