REMARK  5 active torsions:
REMARK  status: ('A' for Active; 'I' for Inactive)
REMARK    1  A    between atoms: O1_2  and  C2_3 
REMARK    2  A    between atoms: C4_5  and  C5_6 
REMARK    3  A    between atoms: C5_6  and  C6_8 
REMARK    4  A    between atoms: C6_8  and  C7_10 
REMARK    5  A    between atoms: C11_18  and  O4_19 
ROOT
HETATM    1  C2  UNL     1      -1.469   0.413  -0.346  1.00  0.00     0.103 A 
HETATM    2  C3  UNL     1      -0.097   0.641  -0.351  1.00  0.00     0.055 A 
HETATM    3  C4  UNL     1       0.836  -0.336  -0.005  1.00  0.00     0.028 A 
HETATM    4  C8  UNL     1       0.303  -1.559   0.348  1.00  0.00    -0.027 A 
HETATM    5  C9  UNL     1       1.157  -2.715   0.729  1.00  0.00     0.050 C 
HETATM    6  C10 UNL     1      -1.081  -1.781   0.351  1.00  0.00     0.054 A 
HETATM    7 BR1  UNL     1      -1.784  -3.488   0.845  1.00  0.00    -0.047 Br
HETATM    8  C11 UNL     1      -1.983  -0.808   0.007  1.00  0.00     0.119 A 
ENDROOT
BRANCH   3   9
HETATM    9  C5  UNL     1       2.259  -0.087   0.019  1.00  0.00     0.233 C 
HETATM   10  O2  UNL     1       2.974  -0.934   0.662  1.00  0.00    -0.283 OA
BRANCH   9  11
HETATM   11  C6  UNL     1       2.990   0.986  -0.585  1.00  0.00     0.237 C 
HETATM   12  O3  UNL     1       2.450   1.867  -1.268  1.00  0.00    -0.283 OA
BRANCH  11  13
HETATM   13  C7  UNL     1       4.435   1.064  -0.402  1.00  0.00     0.140 C 
HETATM   14  N1  UNL     1       5.115   2.010  -0.929  1.00  0.00    -0.405 N 
ATOM     15  H12 UNL     1       4.624   2.712  -1.483  1.00  0.00     0.155 HD
ATOM     16  H11 UNL     1       6.125   2.065  -0.801  1.00  0.00     0.155 HD
ENDBRANCH  11  13
ENDBRANCH   9  11
ENDBRANCH   3   9
BRANCH   1  17
HETATM   17  O1  UNL     1      -2.336   1.436  -0.703  1.00  0.00    -0.353 OA
HETATM   18  C1  UNL     1      -1.869   2.723  -1.079  1.00  0.00     0.210 C 
ENDBRANCH   1  17
BRANCH   8  19
HETATM   19  O4  UNL     1      -3.367  -1.047   0.015  1.00  0.00    -0.352 OA
HETATM   20  C12 UNL     1      -4.153  -0.817   1.171  1.00  0.00     0.210 C 
ENDBRANCH   8  19
TORSDOF 5
