REMARK  9 active torsions:
REMARK  status: ('A' for Active; 'I' for Inactive)
REMARK    1  A    between atoms: C5_5  and  C6_6 
REMARK    2  A    between atoms: C6_6  and  C7_7 
REMARK    3  A    between atoms: C7_7  and  N1_8 
REMARK    4  A    between atoms: C7_7  and  C8_12 
REMARK    5  A    between atoms: C8_12  and  C9_13 
REMARK    6  A    between atoms: C9_13  and  N2_14 
REMARK    7  A    between atoms: C9_13  and  C10_18 
REMARK    8  A    between atoms: C14_22  and  N3_23 
REMARK    9  A    between atoms: N3_23  and  O1_25 
ROOT
HETATM    1  C7  UNL     1      -0.565   1.706   0.505  1.00  0.00     0.189 C 
ENDROOT
BRANCH   1   2
HETATM    2  C6  UNL     1       0.639   2.160  -0.248  1.00  0.00     0.071 C 
BRANCH   2   3
HETATM    3  C5  UNL     1       1.667   1.097  -0.349  1.00  0.00    -0.054 A 
HETATM    4  C4  UNL     1       1.665   0.263  -1.466  1.00  0.00     0.008 A 
HETATM    5  C3  UNL     1       2.614  -0.726  -1.571  1.00  0.00     0.009 A 
HETATM    6  C2  UNL     1       3.581  -0.910  -0.575  1.00  0.00    -0.033 A 
HETATM    7  C1  UNL     1       4.581  -1.994  -0.740  1.00  0.00     0.050 C 
HETATM    8  C14 UNL     1       3.605  -0.104   0.533  1.00  0.00     0.060 A 
HETATM    9  C13 UNL     1       2.626   0.895   0.612  1.00  0.00     0.039 A 
BRANCH   8  10
HETATM   10  N3  UNL     1       4.515  -0.187   1.591  1.00  0.00    -0.269 N 
ATOM     11  H3  UNL     1       4.458   0.457   2.380  1.00  0.00     0.194 HD
BRANCH  10  12
HETATM   12  O1  UNL     1       5.444  -1.112   1.546  1.00  0.00    -0.289 OA
ATOM     13  H1  UNL     1       6.062  -1.168   2.265  1.00  0.00     0.244 HD
ENDBRANCH  10  12
ENDBRANCH   8  10
ENDBRANCH   2   3
ENDBRANCH   1   2
BRANCH   1  14
HETATM   14  N1  UNL     1      -1.503   2.838   0.536  1.00  0.00    -0.075 N 
ATOM     15  H13 UNL     1      -1.091   3.690   0.915  1.00  0.00     0.274 HD
ATOM     16  H12 UNL     1      -1.723   3.202  -0.391  1.00  0.00     0.274 HD
ATOM     17  H11 UNL     1      -2.327   2.527   1.051  1.00  0.00     0.274 HD
ENDBRANCH   1  14
BRANCH   1  18
HETATM   18  C8  UNL     1      -1.196   0.514  -0.162  1.00  0.00     0.066 C 
BRANCH  18  19
HETATM   19  C9  UNL     1      -2.424   0.110   0.646  1.00  0.00     0.188 C 
BRANCH  19  20
HETATM   20  N2  UNL     1      -1.981  -0.222   1.988  1.00  0.00    -0.075 N 
ATOM     21  H23 UNL     1      -1.248  -0.932   1.999  1.00  0.00     0.274 HD
ATOM     22  H22 UNL     1      -1.448   0.529   2.426  1.00  0.00     0.274 HD
ATOM     23  H21 UNL     1      -2.803  -0.492   2.529  1.00  0.00     0.274 HD
ENDBRANCH  19  20
BRANCH  19  24
HETATM   24  C10 UNL     1      -3.089  -1.121   0.070  1.00  0.00     0.008 C 
HETATM   25  C11 UNL     1      -3.546  -0.908  -1.345  1.00  0.00     0.011 C 
HETATM   26  C12 UNL     1      -4.321  -1.390   0.909  1.00  0.00     0.011 C 
ENDBRANCH  19  24
ENDBRANCH  18  19
ENDBRANCH   1  18
TORSDOF 9
