REMARK  5 active torsions:
REMARK  status: ('A' for Active; 'I' for Inactive)
REMARK    1  A    between atoms: C2_2  and  C4_4 
REMARK    2  A    between atoms: C4_4  and  O1_5 
REMARK    3  A    between atoms: C4_4  and  C12_17 
REMARK    4  A    between atoms: O1_5  and  C5_6 
REMARK    5  A    between atoms: C8_9  and  N1_10 
ROOT
HETATM    1  C5  UNL     1       0.074  -0.244   0.352  1.00  0.00     0.070 A 
HETATM    2  C6  UNL     1       0.663   0.859  -0.213  1.00  0.00     0.039 A 
HETATM    3  C7  UNL     1       2.013   1.074  -0.197  1.00  0.00     0.032 A 
HETATM    4  C8  UNL     1       2.904   0.172   0.404  1.00  0.00     0.034 A 
HETATM    5  C10 UNL     1       2.311  -0.962   0.985  1.00  0.00     0.032 A 
HETATM    6  C11 UNL     1       0.973  -1.141   0.947  1.00  0.00     0.039 A 
ENDROOT
BRANCH   1   7
HETATM    7  O1  UNL     1      -1.273  -0.527   0.390  1.00  0.00    -0.337 OA
BRANCH   7   8
HETATM    8  C4  UNL     1      -2.256   0.304  -0.112  1.00  0.00     0.221 C 
BRANCH   8   9
HETATM    9  C2  UNL     1      -3.331  -0.400  -0.933  1.00  0.00     0.016 C 
HETATM   10  C1  UNL     1      -4.308   0.633  -1.412  1.00  0.00     0.012 C 
HETATM   11  C3  UNL     1      -4.077  -1.394  -0.065  1.00  0.00     0.012 C 
ENDBRANCH   8   9
BRANCH   8  12
HETATM   12  C12 UNL     1      -2.978   0.971   1.053  1.00  0.00     0.261 C 
HETATM   13  N4  UNL     1      -2.582   0.555   2.382  1.00  0.00    -0.060 NA
HETATM   14  O2  UNL     1      -3.849   1.813   0.864  1.00  0.00    -0.274 OA
ENDBRANCH   8  12
ENDBRANCH   7   8
ENDBRANCH   1   7
BRANCH   4  15
HETATM   15  N1  UNL     1       4.248   0.405   0.403  1.00  0.00    -0.333 N 
HETATM   16  C9  UNL     1       5.258   0.104  -0.180  1.00  0.00     0.201 C 
HETATM   17  N2  UNL     1       5.283  -0.811  -1.296  1.00  0.00    -0.066 NA
HETATM   18  N3  UNL     1       6.520   0.703   0.231  1.00  0.00    -0.066 NA
ATOM     19  H1  UNL     1       4.476   1.058   1.153  1.00  0.00     0.168 HD
ENDBRANCH   4  15
TORSDOF 5
