REMARK  5 active torsions:
REMARK  status: ('A' for Active; 'I' for Inactive)
REMARK    1  A    between atoms: N1_2  and  C3_4 
REMARK       I    between atoms: N2_5  and  C4_7 
REMARK       I    between atoms: C4_7  and  N4_11 
REMARK    2  A    between atoms: N4_11  and  C5_13 
REMARK    3  A    between atoms: C5_13  and  C6_14 
REMARK    4  A    between atoms: C6_14  and  O1_15 
REMARK    5  A    between atoms: O1_15  and  C7_16 
ROOT
HETATM    1  C3  UNL     1      -3.807  -0.252  -0.526  1.00  0.00     0.195 C 
HETATM    2  N2  UNL     1      -3.422   0.392   0.510  1.00  0.00    -0.189 N 
ATOM      3  H2  UNL     1      -4.047   0.494   1.310  1.00  0.00     0.184 HD
HETATM    4  C4  UNL     1      -2.103   0.973   0.545  1.00  0.00     0.672 C 
HETATM    5  N3  UNL     1      -2.014   2.080   1.173  1.00  0.00    -0.235 N 
ATOM      6  H31 UNL     1      -1.081   2.491   1.198  1.00  0.00     0.174 HD
ATOM      7  H32 UNL     1      -2.772   2.577   1.640  1.00  0.00     0.174 HD
HETATM    8  N4  UNL     1      -1.066   0.293  -0.093  1.00  0.00    -0.224 N 
ATOM      9  H4  UNL     1      -1.242  -0.087  -1.023  1.00  0.00     0.177 HD
ENDROOT
BRANCH   8  10
HETATM   10  C5  UNL     1       0.230   0.097   0.479  1.00  0.00     0.164 C 
BRANCH  10  11
HETATM   11  C6  UNL     1       0.980   1.398   0.541  1.00  0.00     0.196 C 
BRANCH  11  12
HETATM   12  O1  UNL     1       2.232   1.212   1.078  1.00  0.00    -0.350 OA
BRANCH  12  13
HETATM   13  C7  UNL     1       3.301   0.514   0.616  1.00  0.00     0.068 A 
HETATM   14  C8  UNL     1       3.358  -0.156  -0.566  1.00  0.00     0.038 A 
HETATM   15  C9  UNL     1       4.494  -0.872  -0.995  1.00  0.00     0.029 A 
HETATM   16  C10 UNL     1       5.612  -0.905  -0.191  1.00  0.00     0.046 A 
HETATM   17  N5  UNL     1       6.772  -1.619  -0.596  1.00  0.00    -0.102 NA
HETATM   18  C11 UNL     1       5.566  -0.227   1.011  1.00  0.00     0.029 A 
HETATM   19  C12 UNL     1       4.455   0.469   1.425  1.00  0.00     0.038 A 
ENDBRANCH  12  13
ENDBRANCH  11  12
ENDBRANCH  10  11
ENDBRANCH   8  10
BRANCH   1  20
HETATM   20  N1  UNL     1      -5.110  -0.815  -0.539  1.00  0.00    -0.385 N 
HETATM   21  C1  UNL     1      -5.836  -0.766  -1.781  1.00  0.00     0.149 C 
HETATM   22  C2  UNL     1      -5.657  -1.399   0.644  1.00  0.00     0.149 C 
ENDBRANCH   1  20
TORSDOF 5
