REMARK  6 active torsions:
REMARK  status: ('A' for Active; 'I' for Inactive)
REMARK    1  A    between atoms: C2_2  and  N1_3 
REMARK    2  A    between atoms: N1_3  and  C3_4 
REMARK    3  A    between atoms: N1_3  and  C7_14 
REMARK    4  A    between atoms: C3_4  and  C4_5 
REMARK    5  A    between atoms: C4_5  and  N2_7 
REMARK    6  A    between atoms: N2_7  and  N3_9 
ROOT
HETATM    1  N1  UNL     1      -0.475   0.474  -0.489  1.00  0.00    -0.379 N 
ENDROOT
BRANCH   1   2
HETATM    2  C2  UNL     1      -0.427   1.785  -1.178  1.00  0.00     0.118 C 
HETATM    3  C1  UNL     1      -1.747   2.444  -1.297  1.00  0.00     0.026 C 
ENDBRANCH   1   2
BRANCH   1   4
HETATM    4  C3  UNL     1       0.801  -0.146  -0.398  1.00  0.00     0.149 C 
BRANCH   4   5
HETATM    5  C4  UNL     1       0.971  -1.433   0.285  1.00  0.00     0.113 C 
HETATM    6  C5  UNL     1       0.214  -2.591  -0.302  1.00  0.00     0.035 C 
BRANCH   5   7
HETATM    7  N2  UNL     1       2.405  -1.774   0.198  1.00  0.00    -0.328 N 
ATOM      8  H2  UNL     1       2.687  -2.628  -0.284  1.00  0.00     0.180 HD
BRANCH   7   9
HETATM    9  N3  UNL     1       3.377  -0.958   0.758  1.00  0.00    -0.280 N 
HETATM   10  C6  UNL     1       4.237  -0.269   0.105  1.00  0.00     0.215 C 
HETATM   11  N4  UNL     1       4.341  -0.225  -1.311  1.00  0.00    -0.065 NA
HETATM   12  N5  UNL     1       5.157   0.508   0.872  1.00  0.00    -0.065 NA
ATOM     13  H3  UNL     1       3.410  -0.902   1.776  1.00  0.00     0.189 HD
ENDBRANCH   7   9
ENDBRANCH   5   7
ENDBRANCH   4   5
ENDBRANCH   1   4
BRANCH   1  14
HETATM   14  C7  UNL     1      -1.723   0.091  -0.014  1.00  0.00     0.036 A 
HETATM   15  C8  UNL     1      -2.544  -0.753  -0.719  1.00  0.00     0.030 A 
HETATM   16  C9  UNL     1      -3.801  -1.123  -0.306  1.00  0.00     0.002 A 
HETATM   17  C10 UNL     1      -4.284  -0.632   0.876  1.00  0.00     0.001 A 
HETATM   18  C11 UNL     1      -3.504   0.215   1.617  1.00  0.00     0.009 A 
HETATM   19  C12 UNL     1      -2.254   0.559   1.170  1.00  0.00    -0.035 A 
HETATM   20  C13 UNL     1      -1.448   1.468   2.010  1.00  0.00     0.050 C 
ENDBRANCH   1  14
TORSDOF 6
