REMARK  8 active torsions:
REMARK  status: ('A' for Active; 'I' for Inactive)
REMARK    1  A    between atoms: C4_4  and  C5_5 
REMARK    2  A    between atoms: C5_5  and  N1_6 
REMARK    3  A    between atoms: C5_5  and  C13_21 
REMARK    4  A    between atoms: N1_6  and  C6_8 
REMARK    5  A    between atoms: C6_8  and  O1_9 
REMARK    6  A    between atoms: C6_8  and  C7_11 
REMARK    7  A    between atoms: C7_11  and  N2_12 
REMARK    8  A    between atoms: C7_11  and  C8_16 
ROOT
HETATM    1  C1  UNL     1       4.038   4.476   0.886  1.00  0.00     0.027 C 
HETATM    2  C2  UNL     1       3.556   3.381   0.711  1.00  0.00    -0.026 C 
HETATM    3  C3  UNL     1       2.985   2.116   0.505  1.00  0.00    -0.014 C 
HETATM    4  C4  UNL     1       2.501   1.017   0.293  1.00  0.00    -0.067 C 
ENDROOT
BRANCH   4   5
HETATM    5  C5  UNL     1       1.936  -0.341   0.009  1.00  0.00     0.163 C 
BRANCH   5   6
HETATM    6  N1  UNL     1       1.037  -0.239  -1.045  1.00  0.00    -0.380 N 
ATOM      7  H1  UNL     1       1.342   0.112  -1.953  1.00  0.00     0.157 HD
BRANCH   6   8
HETATM    8  C6  UNL     1      -0.309  -0.629  -0.841  1.00  0.00     0.245 C 
BRANCH   8   9
HETATM    9  O1  UNL     1      -0.329  -2.031  -0.650  1.00  0.00    -0.375 OA
ATOM     10  H1  UNL     1      -1.232  -2.293  -0.513  1.00  0.00     0.212 HD
ENDBRANCH   8   9
BRANCH   8  11
HETATM   11  C7  UNL     1      -1.068   0.032   0.236  1.00  0.00     0.235 C 
BRANCH  11  12
HETATM   12  N2  UNL     1      -1.150   1.463   0.098  1.00  0.00    -0.070 N 
ATOM     13  H23 UNL     1      -0.218   1.869   0.014  1.00  0.00     0.274 HD
ATOM     14  H22 UNL     1      -1.530   1.714  -0.815  1.00  0.00     0.274 HD
ATOM     15  H21 UNL     1      -1.675   1.920   0.843  1.00  0.00     0.274 HD
ENDBRANCH  11  12
BRANCH  11  16
HETATM   16  C8  UNL     1      -2.455  -0.553   0.372  1.00  0.00     0.020 C 
HETATM   17  C9  UNL     1      -3.188   0.105   1.529  1.00  0.00     0.007 C 
HETATM   18  C10 UNL     1      -4.368   0.850   0.985  1.00  0.00     0.000 C 
HETATM   19  C11 UNL     1      -4.172   0.934  -0.522  1.00  0.00     0.000 C 
HETATM   20  C12 UNL     1      -3.321  -0.282  -0.831  1.00  0.00     0.007 C 
ENDBRANCH  11  16
ENDBRANCH   8  11
ENDBRANCH   6   8
ENDBRANCH   5   6
BRANCH   5  21
HETATM   21  C13 UNL     1       3.089  -1.286  -0.101  1.00  0.00     0.012 C 
HETATM   22  C14 UNL     1       4.062  -1.001  -1.189  1.00  0.00     0.012 C 
HETATM   23  C15 UNL     1       2.705  -2.743   0.010  1.00  0.00     0.012 C 
ENDBRANCH   5  21
ENDBRANCH   4   5
TORSDOF 8
