REMARK  7 active torsions:
REMARK  status: ('A' for Active; 'I' for Inactive)
REMARK    1  A    between atoms: C2_2  and  C3_3 
REMARK    2  A    between atoms: C3_3  and  C4_4 
REMARK    3  A    between atoms: C7_8  and  C8_9 
REMARK    4  A    between atoms: C8_9  and  N1_10 
REMARK    5  A    between atoms: C9_11  and  O1_12 
REMARK    6  A    between atoms: N2_15  and  C11_16 
REMARK    7  A    between atoms: C11_16  and  C12_17 
ROOT
HETATM    1  N1  UNL     1       0.224  -1.137   0.379  1.00  0.00    -0.274 N 
HETATM    2  C9  UNL     1      -0.662  -2.204   0.317  1.00  0.00     0.162 A 
HETATM    3  C10 UNL     1      -1.756  -1.809  -0.380  1.00  0.00     0.151 A 
HETATM    4  N2  UNL     1      -1.599  -0.537  -0.759  1.00  0.00    -0.305 N 
HETATM    5  C16 UNL     1      -0.393  -0.158  -0.286  1.00  0.00     0.331 A 
HETATM    6  O2  UNL     1       0.037   1.030  -0.493  1.00  0.00    -0.246 OA
ENDROOT
BRANCH   1   7
HETATM    7  C8  UNL     1       1.469  -1.262   1.067  1.00  0.00     0.175 C 
BRANCH   7   8
HETATM    8  C7  UNL     1       2.683  -1.640   0.289  1.00  0.00    -0.026 A 
HETATM    9  C4  UNL     1       3.812  -0.918   0.144  1.00  0.00    -0.043 A 
HETATM   10  C5  UNL     1       4.794  -1.443  -0.681  1.00  0.00     0.057 A 
HETATM   11  S1  UNL     1       4.124  -2.905  -1.220  1.00  0.00    -0.113 SA
HETATM   12  C6  UNL     1       2.632  -2.834  -0.406  1.00  0.00     0.058 A 
BRANCH   9  13
HETATM   13  C3  UNL     1       4.139   0.391   0.837  1.00  0.00     0.039 C 
BRANCH  13  14
HETATM   14  C2  UNL     1       3.628   1.573   0.087  1.00  0.00     0.000 C 
HETATM   15  C1  UNL     1       3.951   2.872   0.790  1.00  0.00     0.005 C 
ENDBRANCH  13  14
ENDBRANCH   9  13
ENDBRANCH   7   8
ENDBRANCH   1   7
BRANCH   2  16
HETATM   16  O1  UNL     1      -0.453  -3.479   0.892  1.00  0.00    -0.345 OA
ATOM     17  H1  UNL     1      -1.059  -4.209   0.850  1.00  0.00     0.219 HD
ENDBRANCH   2  16
BRANCH   4  18
HETATM   18  C11 UNL     1      -2.605   0.189  -1.491  1.00  0.00     0.141 C 
BRANCH  18  19
HETATM   19  C12 UNL     1      -3.653   0.834  -0.631  1.00  0.00    -0.035 C 
HETATM   20  C13 UNL     1      -4.648   1.544  -1.544  1.00  0.00     0.016 C 
HETATM   21  C14 UNL     1      -3.099   1.853   0.335  1.00  0.00     0.016 C 
HETATM   22  C15 UNL     1      -4.454  -0.231   0.107  1.00  0.00     0.016 C 
ENDBRANCH  18  19
ENDBRANCH   4  18
TORSDOF 7
