REMARK  5 active torsions:
REMARK  status: ('A' for Active; 'I' for Inactive)
REMARK    1  A    between atoms: O1_3  and  C3_4 
REMARK    2  A    between atoms: C4_5  and  C5_6 
REMARK    3  A    between atoms: C8_9  and  O2_10 
REMARK    4  A    between atoms: C12_14  and  C13_15 
REMARK    5  A    between atoms: C15_20  and  O6_21 
ROOT
HETATM    1  C1  UNL     1       3.808   2.824  -0.592  1.00  0.00     0.045 C 
HETATM    2  C2  UNL     1       2.865   2.185  -1.001  1.00  0.00     0.049 C 
HETATM    3  O1  UNL     1       1.804   1.499  -1.468  1.00  0.00    -0.258 OA
ENDROOT
BRANCH   3   4
HETATM    4  C3  UNL     1       0.805   0.893  -0.736  1.00  0.00     0.132 A 
HETATM    5  C4  UNL     1       0.846  -0.464  -0.359  1.00  0.00     0.017 A 
HETATM    6  C8  UNL     1      -0.178  -0.999   0.360  1.00  0.00     0.090 A 
HETATM    7  C10 UNL     1      -1.243  -0.141   0.697  1.00  0.00     0.038 A 
HETATM    8  C11 UNL     1      -2.392  -0.372   1.400  1.00  0.00     0.061 A 
HETATM    9  C14 UNL     1      -1.281   1.182   0.330  1.00  0.00     0.125 A 
HETATM   10  C12 UNL     1      -3.092   0.831   1.435  1.00  0.00     0.153 A 
HETATM   11  O5  UNL     1      -2.395   1.729   0.786  1.00  0.00    -0.300 OA
HETATM   12  C15 UNL     1      -0.244   1.725  -0.401  1.00  0.00     0.138 A 
BRANCH   5  13
HETATM   13  C5  UNL     1       2.049  -1.192  -0.710  1.00  0.00     0.016 C 
HETATM   14  C6  UNL     1       2.044  -2.667  -0.743  1.00  0.00     0.015 C 
HETATM   15  C7  UNL     1       3.188  -0.841   0.305  1.00  0.00     0.015 C 
ENDBRANCH   5  13
BRANCH   6  16
HETATM   16  O2  UNL     1      -0.306  -2.309   0.803  1.00  0.00    -0.354 OA
HETATM   17  C9  UNL     1      -1.060  -3.300   0.106  1.00  0.00     0.210 C 
ENDBRANCH   6  16
BRANCH  10  18
HETATM   18  C13 UNL     1      -4.374   0.963   2.106  1.00  0.00     0.234 C 
HETATM   19  O3  UNL     1      -4.938   2.084   2.092  1.00  0.00    -0.642 OA
HETATM   20  O4  UNL     1      -5.016  -0.069   2.762  1.00  0.00    -0.642 OA
ENDBRANCH  10  18
BRANCH  12  21
HETATM   21  O6  UNL     1      -0.248   3.057  -0.789  1.00  0.00    -0.351 OA
HETATM   22  C16 UNL     1      -0.738   3.593  -1.966  1.00  0.00     0.210 C 
ENDBRANCH  12  21
ENDBRANCH   3   4
TORSDOF 5
