REMARK  6 active torsions:
REMARK  status: ('A' for Active; 'I' for Inactive)
REMARK    1  A    between atoms: C4_4  and  C5_5 
REMARK    2  A    between atoms: C6_6  and  C7_7 
REMARK    3  A    between atoms: C7_7  and  C10_10 
REMARK    4  A    between atoms: C12_12  and  N1_13 
REMARK    5  A    between atoms: C14_17  and  N2_18 
REMARK    6  A    between atoms: C15_21  and  O5_22 
ROOT
HETATM    1  C10 UNL     1      -1.696  -0.181   0.290  1.00  0.00    -0.008 A 
HETATM    2  C11 UNL     1      -2.550  -1.175  -0.130  1.00  0.00     0.047 A 
HETATM    3  C12 UNL     1      -3.858  -0.931  -0.551  1.00  0.00     0.106 A 
HETATM    4  C13 UNL     1      -4.321   0.365  -0.547  1.00  0.00     0.075 A 
HETATM    5  C14 UNL     1      -3.470   1.401  -0.123  1.00  0.00     0.138 A 
HETATM    6  C15 UNL     1      -2.191   1.121   0.283  1.00  0.00     0.106 A 
ENDROOT
BRANCH   1   7
HETATM    7  C7  UNL     1      -0.338  -0.508   0.717  1.00  0.00     0.000 C 
HETATM    8  C8  UNL     1      -0.108  -1.994   0.576  1.00  0.00     0.024 C 
HETATM    9  C9  UNL     1      -0.045  -0.162   2.156  1.00  0.00     0.024 C 
BRANCH   7  10
HETATM   10  C6  UNL     1       0.707   0.164  -0.099  1.00  0.00    -0.013 C 
HETATM   11  C5  UNL     1       1.965  -0.060   0.157  1.00  0.00    -0.003 C 
BRANCH  11  12
HETATM   12  C4  UNL     1       3.053   0.563  -0.601  1.00  0.00     0.002 C 
HETATM   13  C2  UNL     1       4.309   0.319  -0.319  1.00  0.00    -0.088 C 
HETATM   14  C1  UNL     1       5.376   0.981  -1.124  1.00  0.00     0.043 C 
HETATM   15  C3  UNL     1       4.649  -0.606   0.788  1.00  0.00     0.043 C 
ENDBRANCH  11  12
ENDBRANCH   7  10
ENDBRANCH   1   7
BRANCH   6  16
HETATM   16  O5  UNL     1      -1.345   2.088   0.698  1.00  0.00    -0.358 OA
ATOM     17  H5  UNL     1      -1.683   2.976   0.693  1.00  0.00     0.217 HD
ENDBRANCH   6  16
BRANCH   3  18
HETATM   18  N1  UNL     1      -4.705  -1.989  -0.976  1.00  0.00    -0.116 N 
HETATM   19  O1  UNL     1      -4.315  -3.170  -0.990  1.00  0.00    -0.532 OA
HETATM   20  O2  UNL     1      -5.987  -1.729  -1.386  1.00  0.00    -0.532 OA
ENDBRANCH   3  18
BRANCH   5  21
HETATM   21  N2  UNL     1      -4.053   2.691  -0.159  1.00  0.00    -0.113 N 
HETATM   22  O3  UNL     1      -5.300   2.843  -0.020  1.00  0.00    -0.532 OA
HETATM   23  O4  UNL     1      -3.332   3.839  -0.340  1.00  0.00    -0.532 OA
ENDBRANCH   5  21
TORSDOF 6
