REMARK  7 active torsions:
REMARK  status: ('A' for Active; 'I' for Inactive)
REMARK    1  A    between atoms: C3_4  and  C4_5 
REMARK       I    between atoms: C4_5  and  N1_7 
REMARK    2  A    between atoms: N1_7  and  O2_9 
REMARK    3  A    between atoms: C7_12  and  O3_13 
REMARK    4  A    between atoms: O3_13  and  C8_14 
REMARK    5  A    between atoms: C8_14  and  C9_15 
REMARK    6  A    between atoms: C9_15  and  S2_16 
REMARK    7  A    between atoms: S2_16  and  C10_17 
ROOT
HETATM    1  C1  UNL     1       0.650  -3.896   0.994  1.00  0.00     0.059 C 
HETATM    2  C2  UNL     1       1.440  -2.636   0.773  1.00  0.00     0.013 A 
HETATM    3  S1  UNL     1       3.000  -2.254   1.341  1.00  0.00    -0.087 SA
HETATM    4  C3  UNL     1       3.166  -0.670   0.666  1.00  0.00     0.078 A 
HETATM    5  C6  UNL     1       1.981  -0.506   0.018  1.00  0.00     0.062 A 
HETATM    6  C7  UNL     1       1.087  -1.523   0.074  1.00  0.00     0.083 A 
ENDROOT
BRANCH   6   7
HETATM    7  O3  UNL     1      -0.175  -1.451  -0.566  1.00  0.00    -0.349 OA
BRANCH   7   8
HETATM    8  C8  UNL     1      -0.596  -0.329  -1.306  1.00  0.00     0.186 C 
BRANCH   8   9
HETATM    9  C9  UNL     1      -1.979  -0.632  -1.829  1.00  0.00     0.101 C 
BRANCH   9  10
HETATM   10  S2  UNL     1      -3.219  -0.938  -0.595  1.00  0.00    -0.158 SA
BRANCH  10  11
HETATM   11  C10 UNL     1      -3.628   0.541   0.323  1.00  0.00    -0.003 C 
HETATM   12  C11 UNL     1      -4.739   0.170   1.307  1.00  0.00     0.026 C 
HETATM   13  C12 UNL     1      -2.415   1.016   1.088  1.00  0.00     0.026 C 
HETATM   14  C13 UNL     1      -4.098   1.666  -0.576  1.00  0.00     0.026 C 
ENDBRANCH  10  11
ENDBRANCH   9  10
ENDBRANCH   8   9
ENDBRANCH   7   8
ENDBRANCH   6   7
BRANCH   4  15
HETATM   15  C4  UNL     1       4.337   0.180   0.825  1.00  0.00     0.283 C 
HETATM   16  O1  UNL     1       5.326  -0.257   1.508  1.00  0.00    -0.265 OA
HETATM   17  N1  UNL     1       4.439   1.452   0.268  1.00  0.00    -0.229 N 
HETATM   18  C5  UNL     1       5.680   2.215   0.503  1.00  0.00     0.189 C 
BRANCH  17  19
HETATM   19  O2  UNL     1       3.515   2.094  -0.481  1.00  0.00    -0.285 OA
ATOM     20  H2  UNL     1       3.585   2.962  -0.861  1.00  0.00     0.245 HD
ENDBRANCH  17  19
ENDBRANCH   4  15
TORSDOF 7
