REMARK  3 active torsions:
REMARK  status: ('A' for Active; 'I' for Inactive)
REMARK    1  A    between atoms: C2_2  and  C4_4 
REMARK    2  A    between atoms: C6_6  and  O1_7 
REMARK    3  A    between atoms: C10_12  and  O2_13 
ROOT
HETATM    1  C4  UNL     1      -1.006   0.437  -0.150  1.00  0.00    -0.000 C 
HETATM    2  C5  UNL     1      -0.952   1.720   0.651  1.00  0.00     0.037 C 
HETATM    3  C6  UNL     1       0.295   2.519   0.410  1.00  0.00     0.118 C 
HETATM    4  C7  UNL     1       1.403   1.520   0.051  1.00  0.00     0.037 C 
HETATM    5  C8  UNL     1       1.123   0.313   0.941  1.00  0.00    -0.001 C 
HETATM    6  C9  UNL     1       2.360  -0.427   1.260  1.00  0.00     0.037 C 
HETATM    7  C10 UNL     1       2.816  -1.420   0.258  1.00  0.00     0.118 C 
HETATM    8  C11 UNL     1       2.093  -1.391  -1.048  1.00  0.00     0.032 C 
HETATM    9  C12 UNL     1       0.616  -1.259  -0.968  1.00  0.00     0.012 C 
HETATM   10  C13 UNL     1       0.083  -0.528   0.240  1.00  0.00    -0.036 C 
HETATM   11  C14 UNL     1      -0.360  -1.596   1.215  1.00  0.00     0.016 C 
ENDROOT
BRANCH   1  12
HETATM   12  C2  UNL     1      -2.409  -0.098  -0.006  1.00  0.00    -0.018 C 
HETATM   13  C1  UNL     1      -3.416   0.939  -0.546  1.00  0.00     0.010 C 
HETATM   14  C3  UNL     1      -2.668  -1.343  -0.823  1.00  0.00     0.010 C 
ENDBRANCH   1  12
BRANCH   3  15
HETATM   15  O1  UNL     1       0.164   3.504  -0.529  1.00  0.00    -0.396 OA
ATOM     16  H1  UNL     1       0.954   4.010  -0.682  1.00  0.00     0.210 HD
ENDBRANCH   3  15
BRANCH   7  17
HETATM   17  O2  UNL     1       4.182  -1.232   0.041  1.00  0.00    -0.396 OA
ATOM     18  H2  UNL     1       4.474  -1.868  -0.601  1.00  0.00     0.210 HD
ENDBRANCH   7  17
TORSDOF 3
