REMARK  3 active torsions:
REMARK  status: ('A' for Active; 'I' for Inactive)
REMARK    1  A    between atoms: C2_2  and  C4_4 
REMARK    2  A    between atoms: C4_4  and  O1_5 
REMARK    3  A    between atoms: C9_11  and  O2_12 
ROOT
HETATM    1  C4  UNL     1       0.814   0.451   0.613  1.00  0.00     0.069 C 
HETATM    2  C5  UNL     1      -0.131   1.605   0.500  1.00  0.00     0.050 C 
HETATM    3  C6  UNL     1      -1.498   1.351   0.012  1.00  0.00    -0.019 C 
HETATM    4  C7  UNL     1      -1.671   1.826  -1.442  1.00  0.00     0.017 C 
HETATM    5  C8  UNL     1      -2.547   2.169   0.788  1.00  0.00     0.017 C 
HETATM    6  C9  UNL     1      -1.989  -0.066   0.038  1.00  0.00     0.131 C 
HETATM    7  C10 UNL     1      -0.936  -0.884  -0.582  1.00  0.00     0.026 C 
HETATM    8  C11 UNL     1      -1.229  -2.290  -0.888  1.00  0.00     0.008 C 
HETATM    9  C12 UNL     1       0.133  -2.918  -0.940  1.00  0.00     0.001 C 
HETATM   10  C13 UNL     1       1.127  -1.878  -0.399  1.00  0.00     0.012 C 
HETATM   11  C14 UNL     1       0.308  -0.869   0.321  1.00  0.00    -0.007 C 
HETATM   12  C15 UNL     1      -0.121  -1.596   1.612  1.00  0.00     0.019 C 
ENDROOT
BRANCH   1  13
HETATM   13  C2  UNL     1       2.143   0.875   0.018  1.00  0.00     0.012 C 
HETATM   14  C1  UNL     1       2.223   1.032  -1.437  1.00  0.00     0.012 C 
HETATM   15  C3  UNL     1       3.316   0.163   0.646  1.00  0.00     0.012 C 
ENDBRANCH   1  13
BRANCH   1  16
HETATM   16  O1  UNL     1       1.198   0.435   1.998  1.00  0.00    -0.389 OA
ATOM     17  H1  UNL     1       0.366   0.169   2.371  1.00  0.00     0.210 HD
ENDBRANCH   1  16
BRANCH   6  18
HETATM   18  O2  UNL     1      -2.446  -0.457   1.264  1.00  0.00    -0.394 OA
ATOM     19  H2  UNL     1      -2.757  -1.355   1.280  1.00  0.00     0.210 HD
ENDBRANCH   6  18
TORSDOF 3
