REMARK  3 active torsions:
REMARK  status: ('A' for Active; 'I' for Inactive)
REMARK    1  A    between atoms: C12_12  and  O1_13 
REMARK    2  A    between atoms: C13_15  and  C15_17 
REMARK    3  A    between atoms: C15_17  and  O2_18 
ROOT
HETATM    1  C1  UNL     1      -1.981   1.293  -1.240  1.00  0.00     0.015 C 
HETATM    2  C2  UNL     1      -1.965   0.258  -0.142  1.00  0.00    -0.043 C 
HETATM    3  C3  UNL     1      -3.216   0.687   0.674  1.00  0.00     0.015 C 
HETATM    4  C4  UNL     1      -2.331  -1.110  -0.646  1.00  0.00     0.009 C 
HETATM    5  C5  UNL     1      -1.192  -2.010  -0.948  1.00  0.00     0.002 C 
HETATM    6  C6  UNL     1      -0.100  -2.001   0.058  1.00  0.00     0.010 C 
HETATM    7  C7  UNL     1       0.336  -0.645   0.520  1.00  0.00    -0.028 C 
HETATM    8  C8  UNL     1       0.934  -0.916   1.931  1.00  0.00     0.016 C 
HETATM    9  C9  UNL     1      -0.803   0.276   0.770  1.00  0.00     0.002 C 
HETATM   10  C10 UNL     1      -0.357   1.675   1.069  1.00  0.00     0.009 C 
HETATM   11  C11 UNL     1       0.715   2.200   0.199  1.00  0.00     0.033 C 
HETATM   12  C12 UNL     1       1.841   1.282  -0.076  1.00  0.00     0.129 C 
HETATM   13  C13 UNL     1       1.497  -0.159  -0.258  1.00  0.00     0.011 C 
HETATM   14  C14 UNL     1       2.765  -0.897   0.247  1.00  0.00     0.021 C 
ENDROOT
BRANCH  13  15
HETATM   15  C15 UNL     1       1.518  -0.534  -1.728  1.00  0.00     0.176 C 
BRANCH  15  16
HETATM   16  O2  UNL     1       2.713   0.042  -2.230  1.00  0.00    -0.400 OA
ATOM     17  H2  UNL     1       2.726  -0.193  -3.150  1.00  0.00     0.209 HD
ENDBRANCH  15  16
ENDBRANCH  13  15
BRANCH  12  18
HETATM   18  O1  UNL     1       2.855   1.492   0.890  1.00  0.00    -0.395 OA
ATOM     19  H1  UNL     1       3.578   0.902   0.713  1.00  0.00     0.210 HD
ENDBRANCH  12  18
TORSDOF 3
