REMARK  16 active torsions:
REMARK  status: ('A' for Active; 'I' for Inactive)
REMARK    1  A    between atoms: N1_2  and  C2_3 
REMARK    2  A    between atoms: N1_2  and  C15_26 
REMARK    3  A    between atoms: C2_3  and  C3_4 
REMARK    4  A    between atoms: C3_4  and  C4_5 
REMARK    5  A    between atoms: C4_5  and  C5_6 
REMARK    6  A    between atoms: C5_6  and  C6_7 
REMARK    7  A    between atoms: C6_7  and  C7_8 
REMARK    8  A    between atoms: C7_8  and  C8_9 
REMARK    9  A    between atoms: C8_9  and  C9_10 
REMARK   10  A    between atoms: C9_10  and  C10_11 
REMARK   11  A    between atoms: C10_11  and  C11_12 
REMARK   12  A    between atoms: C11_12  and  N2_13 
REMARK   13  A    between atoms: N2_13  and  C12_15 
REMARK   14  A    between atoms: C15_26  and  C16_27 
REMARK   15  A    between atoms: C16_27  and  C17_28 
REMARK   16  A    between atoms: C17_28  and  N6_29 
ROOT
HETATM    1  C8  UNL     1      -2.548  -1.234  -0.802  1.00  0.00     0.000 C 
ENDROOT
BRANCH   1   2
HETATM    2  C7  UNL     1      -1.105  -1.327  -0.247  1.00  0.00     0.000 C 
BRANCH   2   3
HETATM    3  C6  UNL     1      -1.045  -0.646   1.068  1.00  0.00     0.000 C 
BRANCH   3   4
HETATM    4  C5  UNL     1       0.215  -0.780   1.814  1.00  0.00     0.000 C 
BRANCH   4   5
HETATM    5  C4  UNL     1       1.457  -0.310   1.200  1.00  0.00     0.002 C 
BRANCH   5   6
HETATM    6  C3  UNL     1       2.046  -1.004   0.032  1.00  0.00     0.020 C 
BRANCH   6   7
HETATM    7  C2  UNL     1       3.349  -0.292  -0.418  1.00  0.00     0.121 C 
BRANCH   7   8
HETATM    8  N1  UNL     1       4.316  -0.278   0.586  1.00  0.00    -0.398 N 
HETATM    9  C1  UNL     1       4.877  -1.494   0.935  1.00  0.00     0.148 C 
BRANCH   8  10
HETATM   10  C15 UNL     1       4.514   0.907   1.256  1.00  0.00     0.059 C 
BRANCH  10  11
HETATM   11  C16 UNL     1       5.905   1.498   1.173  1.00  0.00     0.064 C 
BRANCH  11  12
HETATM   12  C17 UNL     1       6.313   1.809  -0.240  1.00  0.00     0.127 C 
BRANCH  12  13
HETATM   13  N6  UNL     1       6.335   0.684  -1.122  1.00  0.00    -0.367 N 
HETATM   14  C18 UNL     1       7.355   0.106  -1.621  1.00  0.00     0.196 C 
HETATM   15  N7  UNL     1       7.265  -1.005  -2.487  1.00  0.00    -0.067 NA
HETATM   16  N8  UNL     1       8.656   0.584  -1.304  1.00  0.00    -0.067 NA
ATOM     17  H6  UNL     1       5.427   0.299  -1.382  1.00  0.00     0.161 HD
ENDBRANCH  12  13
ENDBRANCH  11  12
ENDBRANCH  10  11
ENDBRANCH   8  10
ENDBRANCH   7   8
ENDBRANCH   6   7
ENDBRANCH   5   6
ENDBRANCH   4   5
ENDBRANCH   3   4
ENDBRANCH   2   3
ENDBRANCH   1   2
BRANCH   1  18
HETATM   18  C9  UNL     1      -2.897   0.197  -0.973  1.00  0.00     0.002 C 
BRANCH  18  19
HETATM   19  C10 UNL     1      -4.299   0.370  -1.554  1.00  0.00     0.020 C 
BRANCH  19  20
HETATM   20  C11 UNL     1      -5.355  -0.245  -0.649  1.00  0.00     0.138 C 
BRANCH  20  21
HETATM   21  N2  UNL     1      -6.644  -0.075  -1.210  1.00  0.00    -0.225 N 
ATOM     22  H2  UNL     1      -6.722  -0.312  -2.199  1.00  0.00     0.177 HD
BRANCH  21  23
HETATM   23  C12 UNL     1      -7.722   0.330  -0.663  1.00  0.00     0.695 A 
HETATM   24  N3  UNL     1      -8.870   0.424  -1.387  1.00  0.00    -0.129 N 
HETATM   25  N4  UNL     1     -10.000   0.837  -0.847  1.00  0.00    -0.247 N 
ATOM     26  H3  UNL     1      -8.856   0.168  -2.374  1.00  0.00     0.205 HD
HETATM   27  C13 UNL     1     -10.094   1.190   0.445  1.00  0.00     0.329 A 
ATOM     28  H4  UNL     1     -10.833   0.890  -1.433  1.00  0.00     0.191 HD
HETATM   29  O1  UNL     1     -11.183   1.587   0.958  1.00  0.00    -0.261 OA
HETATM   30  C14 UNL     1      -8.945   1.104   1.199  1.00  0.00     0.329 A 
HETATM   31  O2  UNL     1      -9.017   1.432   2.410  1.00  0.00    -0.261 OA
HETATM   32  N5  UNL     1      -7.783   0.674   0.625  1.00  0.00    -0.150 N 
ATOM     33  H5  UNL     1      -6.940   0.614   1.196  1.00  0.00     0.188 HD
ENDBRANCH  21  23
ENDBRANCH  20  21
ENDBRANCH  19  20
ENDBRANCH  18  19
ENDBRANCH   1  18
TORSDOF 16
