REMARK  15 active torsions:
REMARK  status: ('A' for Active; 'I' for Inactive)
REMARK    1  A    between atoms: N1_1  and  C1_5 
REMARK    2  A    between atoms: C1_5  and  C2_6 
REMARK    3  A    between atoms: C2_6  and  C3_7 
REMARK    4  A    between atoms: C3_7  and  N2_8 
REMARK    5  A    between atoms: C5_11  and  C6_12 
REMARK    6  A    between atoms: C6_12  and  C7_13 
REMARK    7  A    between atoms: C7_13  and  C8_14 
REMARK    8  A    between atoms: C8_14  and  C9_15 
REMARK    9  A    between atoms: C9_15  and  C10_16 
REMARK   10  A    between atoms: C10_16  and  C11_17 
REMARK   11  A    between atoms: C11_17  and  C12_18 
REMARK   12  A    between atoms: C12_18  and  C13_19 
REMARK   13  A    between atoms: C13_19  and  N3_20 
REMARK   14  A    between atoms: N3_20  and  C14_22 
REMARK   15  A    between atoms: C15_27  and  C16_28 
ROOT
HETATM    1  N2  UNL     1      -2.758  -0.134  -0.959  1.00  0.00    -0.321 N 
HETATM    2  C4  UNL     1      -1.528  -0.531  -1.618  1.00  0.00     0.252 C 
HETATM    3  O1  UNL     1      -1.382  -1.589  -2.293  1.00  0.00    -0.271 OA
HETATM    4  C5  UNL     1      -0.566   0.537  -1.320  1.00  0.00     0.279 C 
HETATM    5  N4  UNL     1      -1.349   1.660  -0.946  1.00  0.00    -0.040 N 
ATOM      6  H41 UNL     1      -1.182   2.462  -1.554  1.00  0.00     0.280 HD
ATOM      7  H42 UNL     1      -1.033   2.071  -0.068  1.00  0.00     0.280 HD
HETATM    8  C15 UNL     1      -2.745   1.297  -0.901  1.00  0.00     0.303 C 
ENDROOT
BRANCH   4   9
HETATM    9  C6  UNL     1       0.382   0.196  -0.200  1.00  0.00     0.043 C 
BRANCH   9  10
HETATM   10  C7  UNL     1       1.214  -1.011  -0.467  1.00  0.00     0.002 C 
BRANCH  10  11
HETATM   11  C8  UNL     1       2.086  -0.903  -1.681  1.00  0.00     0.000 C 
BRANCH  11  12
HETATM   12  C9  UNL     1       3.064   0.219  -1.643  1.00  0.00     0.000 C 
BRANCH  12  13
HETATM   13  C10 UNL     1       3.999   0.068  -0.418  1.00  0.00     0.000 C 
BRANCH  13  14
HETATM   14  C11 UNL     1       4.746  -1.210  -0.507  1.00  0.00     0.002 C 
BRANCH  14  15
HETATM   15  C12 UNL     1       5.633  -1.498   0.640  1.00  0.00     0.020 C 
BRANCH  15  16
HETATM   16  C13 UNL     1       6.708  -0.510   0.880  1.00  0.00     0.122 C 
BRANCH  16  17
HETATM   17  N3  UNL     1       6.328   0.816   1.257  1.00  0.00    -0.368 N 
ATOM     18  H3  UNL     1       6.604   1.587   0.649  1.00  0.00     0.161 HD
BRANCH  17  19
HETATM   19  C14 UNL     1       5.592   1.118   2.424  1.00  0.00     0.348 C 
HETATM   20  O2  UNL     1       5.231   0.211   3.198  1.00  0.00    -0.284 OA
ENDBRANCH  17  19
ENDBRANCH  16  17
ENDBRANCH  15  16
ENDBRANCH  14  15
ENDBRANCH  13  14
ENDBRANCH  12  13
ENDBRANCH  11  12
ENDBRANCH  10  11
ENDBRANCH   9  10
ENDBRANCH   4   9
BRANCH   1  21
HETATM   21  C3  UNL     1      -3.693  -1.133  -0.516  1.00  0.00     0.130 C 
BRANCH  21  22
HETATM   22  C2  UNL     1      -3.410  -1.580   0.926  1.00  0.00     0.047 C 
BRANCH  22  23
HETATM   23  C1  UNL     1      -4.487  -2.631   1.224  1.00  0.00     0.231 C 
BRANCH  23  24
HETATM   24  N1  UNL     1      -4.379  -3.168   2.544  1.00  0.00    -0.079 N 
ATOM     25  H13 UNL     1      -3.445  -3.542   2.712  1.00  0.00     0.274 HD
ATOM     26  H12 UNL     1      -4.387  -2.426   3.244  1.00  0.00     0.274 HD
ATOM     27  H11 UNL     1      -5.095  -3.867   2.742  1.00  0.00     0.274 HD
ENDBRANCH  23  24
ENDBRANCH  22  23
ENDBRANCH  21  22
ENDBRANCH   1  21
BRANCH   8  28
HETATM   28  C16 UNL     1      -3.499   1.940   0.196  1.00  0.00     0.137 C 
HETATM   29  C17 UNL     1      -4.973   1.636   0.085  1.00  0.00     0.121 C 
HETATM   30  C18 UNL     1      -5.664   2.942   0.333  1.00  0.00     0.225 C 
HETATM   31  O3  UNL     1      -6.892   3.104   0.271  1.00  0.00    -0.273 OA
HETATM   32  N5  UNL     1      -4.660   3.888   0.634  1.00  0.00    -0.297 N 
HETATM   33  C19 UNL     1      -3.382   3.417   0.193  1.00  0.00     0.232 C 
ATOM     34  H5  UNL     1      -4.822   4.781   1.100  1.00  0.00     0.171 HD
HETATM   35  O4  UNL     1      -2.417   4.160  -0.113  1.00  0.00    -0.273 OA
ENDBRANCH   8  28
TORSDOF 15
