REMARK  17 active torsions:
REMARK  status: ('A' for Active; 'I' for Inactive)
REMARK    1  A    between atoms: N1_2  and  C2_4 
REMARK    2  A    between atoms: N1_2  and  C4_8 
REMARK    3  A    between atoms: C2_4  and  C3_5 
REMARK    4  A    between atoms: C3_5  and  O2_6 
REMARK    5  A    between atoms: C4_8  and  C5_9 
REMARK    6  A    between atoms: C5_9  and  C6_10 
REMARK    7  A    between atoms: C6_10  and  C7_11 
REMARK    8  A    between atoms: C7_11  and  C8_12 
REMARK    9  A    between atoms: C8_12  and  N2_13 
REMARK   10  A    between atoms: N2_13  and  C9_15 
REMARK   11  A    between atoms: C9_15  and  C10_16 
REMARK   12  A    between atoms: C9_15  and  C13_28 
REMARK   13  A    between atoms: C10_16  and  C11_17 
REMARK   14  A    between atoms: C12_22  and  N5_23 
REMARK   15  A    between atoms: C13_28  and  N7_29 
REMARK   16  A    between atoms: C17_33  and  C18_34 
REMARK   17  A    between atoms: C18_34  and  O3_35 
ROOT
HETATM    1  C9  UNL     1      -1.872   0.519   0.326  1.00  0.00     0.106 C 
ENDROOT
BRANCH   1   2
HETATM    2  N2  UNL     1      -1.180  -0.703   0.354  1.00  0.00    -0.396 N 
ATOM      3  H2  UNL     1      -1.478  -1.430  -0.296  1.00  0.00     0.159 HD
BRANCH   2   4
HETATM    4  C8  UNL     1      -0.122  -0.992   1.200  1.00  0.00     0.056 C 
BRANCH   4   5
HETATM    5  C7  UNL     1       1.215  -0.364   1.034  1.00  0.00     0.044 C 
BRANCH   5   6
HETATM    6  C6  UNL     1       1.846  -0.591  -0.295  1.00  0.00     0.007 C 
BRANCH   6   7
HETATM    7  C5  UNL     1       3.192   0.082  -0.359  1.00  0.00     0.037 C 
BRANCH   7   8
HETATM    8  C4  UNL     1       4.096  -0.486   0.695  1.00  0.00     0.311 C 
BRANCH   8   9
HETATM    9  N1  UNL     1       5.435   0.100   0.675  1.00  0.00     0.011 N 
HETATM   10  C1  UNL     1       5.400   1.446   1.183  1.00  0.00     0.356 C 
HETATM   11  O1  UNL     1       6.143  -0.651   1.583  1.00  0.00    -0.065 OA
BRANCH   9  12
HETATM   12  C2  UNL     1       6.052   0.006  -0.608  1.00  0.00     0.337 C 
BRANCH  12  13
HETATM   13  C3  UNL     1       7.506  -0.440  -0.564  1.00  0.00     0.200 C 
BRANCH  13  14
HETATM   14  O2  UNL     1       7.604  -1.694   0.023  1.00  0.00    -0.399 OA
ATOM     15  H2  UNL     1       8.512  -1.972   0.050  1.00  0.00     0.209 HD
ENDBRANCH  13  14
ENDBRANCH  12  13
ENDBRANCH   9  12
ENDBRANCH   8   9
ENDBRANCH   7   8
ENDBRANCH   6   7
ENDBRANCH   5   6
ENDBRANCH   4   5
ENDBRANCH   2   4
ENDBRANCH   1   2
BRANCH   1  16
HETATM   16  C10 UNL     1      -1.137   1.736  -0.104  1.00  0.00     0.105 C 
BRANCH  16  17
HETATM   17  C11 UNL     1      -1.992   2.949  -0.104  1.00  0.00     0.114 A 
HETATM   18  N3  UNL     1      -2.214   3.754   0.937  1.00  0.00    -0.274 N 
HETATM   19  N4  UNL     1      -2.986   4.736   0.555  1.00  0.00    -0.131 N 
ATOM     20  H3  UNL     1      -1.842   3.624   1.878  1.00  0.00     0.189 HD
HETATM   21  C12 UNL     1      -3.280   4.582  -0.748  1.00  0.00     0.691 A 
ATOM     22  H4  UNL     1      -3.313   5.497   1.150  1.00  0.00     0.205 HD
HETATM   23  N6  UNL     1      -2.666   3.472  -1.167  1.00  0.00    -0.178 N 
ATOM     24  H6  UNL     1      -2.696   3.086  -2.111  1.00  0.00     0.185 HD
BRANCH  21  25
HETATM   25  N5  UNL     1      -4.015   5.318  -1.530  1.00  0.00    -0.233 N 
ATOM     26  H52 UNL     1      -4.484   6.166  -1.210  1.00  0.00     0.174 HD
ATOM     27  H51 UNL     1      -4.238   5.201  -2.518  1.00  0.00     0.174 HD
ENDBRANCH  21  25
ENDBRANCH  16  17
ENDBRANCH   1  16
BRANCH   1  28
HETATM   28  C13 UNL     1      -3.131   0.372  -0.537  1.00  0.00     0.153 C 
BRANCH  28  29
HETATM   29  N7  UNL     1      -3.987  -0.679   0.015  1.00  0.00    -0.364 N 
HETATM   30  C14 UNL     1      -4.907  -0.329   0.926  1.00  0.00     0.090 A 
HETATM   31  C15 UNL     1      -5.755  -1.291   1.493  1.00  0.00     0.018 A 
HETATM   32  C16 UNL     1      -5.646  -2.598   1.115  1.00  0.00     0.012 A 
HETATM   33  C17 UNL     1      -4.701  -2.950   0.179  1.00  0.00    -0.019 A 
HETATM   34  C19 UNL     1      -3.878  -1.946  -0.356  1.00  0.00     0.099 A 
BRANCH  33  35
HETATM   35  C18 UNL     1      -4.553  -4.364  -0.247  1.00  0.00     0.204 C 
BRANCH  35  36
HETATM   36  O3  UNL     1      -5.485  -4.743  -1.221  1.00  0.00    -0.396 OA
ATOM     37  H3  UNL     1      -5.390  -5.648  -1.494  1.00  0.00     0.209 HD
ENDBRANCH  35  36
ENDBRANCH  33  35
ENDBRANCH  28  29
ENDBRANCH   1  28
TORSDOF 17
