REMARK  19 active torsions:
REMARK  status: ('A' for Active; 'I' for Inactive)
REMARK    1  A    between atoms: O1_2  and  C2_3 
REMARK    2  A    between atoms: C2_3  and  C3_4 
REMARK    3  A    between atoms: C4_5  and  C5_6 
REMARK    4  A    between atoms: C5_6  and  N1_7 
REMARK    5  A    between atoms: N1_7  and  C6_10 
REMARK    6  A    between atoms: C6_10  and  C7_11 
REMARK    7  A    between atoms: C7_11  and  C8_12 
REMARK    8  A    between atoms: C8_12  and  N2_13 
REMARK    9  A    between atoms: N2_13  and  C9_14 
REMARK   10  A    between atoms: C13_20  and  N4_21 
REMARK   11  A    between atoms: N4_21  and  C14_23 
REMARK   12  A    between atoms: C14_23  and  C15_24 
REMARK   13  A    between atoms: C15_24  and  N5_25 
REMARK   14  A    between atoms: N5_25  and  C16_27 
REMARK   15  A    between atoms: C16_27  and  C17_28 
REMARK   16  A    between atoms: C17_28  and  C18_29 
REMARK   17  A    between atoms: C18_29  and  C19_30 
REMARK   18  A    between atoms: C19_30  and  N6_31 
REMARK   19  A    between atoms: N6_31  and  C20_33 
ROOT
HETATM    1  C9  UNL     1       0.563  -0.448  -0.062  1.00  0.00     0.260 A 
HETATM    2  N3  UNL     1       0.639  -1.598  -0.797  1.00  0.00    -0.320 N 
ATOM      3  H3  UNL     1       1.495  -1.776  -1.323  1.00  0.00     0.169 HD
HETATM    4  C10 UNL     1      -0.333  -2.493  -0.866  1.00  0.00     0.013 A 
HETATM    5  C11 UNL     1      -0.222  -3.751  -1.679  1.00  0.00     0.068 C 
HETATM    6  C12 UNL     1      -1.484  -2.284  -0.177  1.00  0.00     0.073 A 
HETATM    7  C13 UNL     1      -1.615  -1.126   0.590  1.00  0.00     0.106 A 
HETATM    8  N7  UNL     1      -0.611  -0.278   0.615  1.00  0.00    -0.302 N 
ATOM      9  H7  UNL     1      -0.716   0.565   1.179  1.00  0.00     0.171 HD
ENDROOT
BRANCH   7  10
HETATM   10  N4  UNL     1      -2.728  -0.998   1.213  1.00  0.00    -0.375 N 
ATOM     11  H4  UNL     1      -3.453  -1.712   1.135  1.00  0.00     0.161 HD
BRANCH  10  12
HETATM   12  C14 UNL     1      -2.936   0.180   2.029  1.00  0.00     0.141 C 
BRANCH  12  13
HETATM   13  C15 UNL     1      -4.387   0.265   2.336  1.00  0.00     0.138 C 
BRANCH  13  14
HETATM   14  N5  UNL     1      -5.268   0.372   1.178  1.00  0.00    -0.398 N 
ATOM     15  H5  UNL     1      -5.903  -0.361   0.862  1.00  0.00     0.158 HD
BRANCH  14  16
HETATM   16  C16 UNL     1      -5.120   1.628   0.557  1.00  0.00     0.079 C 
BRANCH  16  17
HETATM   17  C17 UNL     1      -5.809   1.941  -0.695  1.00  0.00    -0.008 C 
BRANCH  17  18
HETATM   18  C18 UNL     1      -7.264   1.921  -0.840  1.00  0.00     0.048 C 
BRANCH  18  19
HETATM   19  C19 UNL     1      -8.011   0.643  -0.694  1.00  0.00     0.126 C 
BRANCH  19  20
HETATM   20  N6  UNL     1      -9.424   0.942  -0.912  1.00  0.00    -0.368 N 
ATOM     21  H6  UNL     1      -9.736   1.890  -1.122  1.00  0.00     0.161 HD
BRANCH  20  22
HETATM   22  C20 UNL     1     -10.344  -0.126  -0.822  1.00  0.00     0.348 C 
HETATM   23  O2  UNL     1      -9.982  -1.280  -0.566  1.00  0.00    -0.284 OA
ENDBRANCH  20  22
ENDBRANCH  19  20
ENDBRANCH  18  19
ENDBRANCH  17  18
ENDBRANCH  16  17
ENDBRANCH  14  16
ENDBRANCH  13  14
ENDBRANCH  12  13
ENDBRANCH  10  12
ENDBRANCH   7  10
BRANCH   1  24
HETATM   24  N2  UNL     1       1.478   0.320  -0.050  1.00  0.00    -0.388 NA
BRANCH  24  25
HETATM   25  C8  UNL     1       2.423   1.245   0.042  1.00  0.00     0.160 C 
BRANCH  25  26
HETATM   26  C7  UNL     1       3.834   0.795   0.423  1.00  0.00     0.087 C 
BRANCH  26  27
HETATM   27  C6  UNL     1       4.346  -0.190  -0.591  1.00  0.00     0.239 C 
BRANCH  27  28
HETATM   28  N1  UNL     1       5.673  -0.672  -0.333  1.00  0.00    -0.065 N 
ATOM     29  H12 UNL     1       5.893  -1.492  -0.898  1.00  0.00     0.278 HD
ATOM     30  H11 UNL     1       5.747  -1.097   0.591  1.00  0.00     0.278 HD
BRANCH  28  31
HETATM   31  C5  UNL     1       6.658   0.392  -0.519  1.00  0.00     0.325 C 
BRANCH  31  32
HETATM   32  C4  UNL     1       8.015  -0.149  -0.265  1.00  0.00    -0.077 C 
HETATM   33  C3  UNL     1       9.112  -0.607  -0.070  1.00  0.00    -0.079 C 
BRANCH  33  34
HETATM   34  C2  UNL     1      10.448  -1.189   0.159  1.00  0.00     0.260 C 
BRANCH  34  35
HETATM   35  O1  UNL     1      11.021  -0.734   1.343  1.00  0.00    -0.384 OA
HETATM   36  C1  UNL     1      11.127   0.651   1.226  1.00  0.00     0.202 C 
ENDBRANCH  34  35
ENDBRANCH  33  34
ENDBRANCH  31  32
ENDBRANCH  28  31
ENDBRANCH  27  28
ENDBRANCH  26  27
ENDBRANCH  25  26
ENDBRANCH  24  25
ENDBRANCH   1  24
TORSDOF 19
