REMARK  16 active torsions:
REMARK  status: ('A' for Active; 'I' for Inactive)
REMARK    1  A    between atoms: N1_1  and  C1_5 
REMARK    2  A    between atoms: C1_5  and  C2_6 
REMARK    3  A    between atoms: C2_6  and  C3_7 
REMARK    4  A    between atoms: C3_7  and  N2_8 
REMARK       I    between atoms: C4_10  and  N4_12 
REMARK    5  A    between atoms: N6_19  and  C8_20 
REMARK    6  A    between atoms: C8_20  and  C9_21 
REMARK    7  A    between atoms: C9_21  and  C10_22 
REMARK    8  A    between atoms: C10_22  and  C11_23 
REMARK    9  A    between atoms: C11_23  and  C12_24 
REMARK   10  A    between atoms: C12_24  and  C13_25 
REMARK   11  A    between atoms: C13_25  and  N7_26 
REMARK   12  A    between atoms: N7_26  and  C14_29 
REMARK   13  A    between atoms: C14_29  and  C15_30 
REMARK   14  A    between atoms: C15_30  and  C16_31 
REMARK   15  A    between atoms: C16_31  and  N8_32 
REMARK   16  A    between atoms: N8_32  and  C17_34 
ROOT
HETATM    1  N2  UNL     1      -6.120   1.253   1.737  1.00  0.00    -0.364 N 
ATOM      2  H2  UNL     1      -6.709   2.076   1.863  1.00  0.00     0.162 HD
HETATM    3  C4  UNL     1      -4.921   1.245   2.202  1.00  0.00     0.189 C 
HETATM    4  N3  UNL     1      -4.407   2.398   2.903  1.00  0.00    -0.063 NA
HETATM    5  N4  UNL     1      -4.124   0.092   2.019  1.00  0.00    -0.312 N 
ATOM      6  H4  UNL     1      -4.262  -0.681   2.670  1.00  0.00     0.170 HD
HETATM    7  C5  UNL     1      -3.248  -0.059   1.108  1.00  0.00     0.173 C 
HETATM    8  N5  UNL     1      -2.473  -1.259   0.983  1.00  0.00    -0.370 N 
ATOM      9  H5  UNL     1      -2.179  -1.776   1.812  1.00  0.00     0.161 HD
HETATM   10  C6  UNL     1      -2.120  -1.718  -0.324  1.00  0.00     0.141 C 
HETATM   11  C7  UNL     1      -1.721  -0.670  -1.300  1.00  0.00     0.145 C 
HETATM   12  N6  UNL     1      -1.945   0.691  -0.859  1.00  0.00    -0.344 N 
HETATM   13  C18 UNL     1      -2.957   0.986   0.111  1.00  0.00     0.287 C 
HETATM   14  O2  UNL     1      -3.535   2.079   0.076  1.00  0.00    -0.264 OA
ENDROOT
BRANCH  12  15
HETATM   15  C8  UNL     1      -1.138   1.740  -1.421  1.00  0.00     0.126 C 
BRANCH  15  16
HETATM   16  C9  UNL     1       0.110   2.043  -0.637  1.00  0.00     0.020 C 
BRANCH  16  17
HETATM   17  C10 UNL     1       1.047   0.892  -0.483  1.00  0.00     0.002 C 
BRANCH  17  18
HETATM   18  C11 UNL     1       2.235   1.387   0.318  1.00  0.00     0.002 C 
BRANCH  18  19
HETATM   19  C12 UNL     1       3.190   0.220   0.489  1.00  0.00     0.027 C 
BRANCH  19  20
HETATM   20  C13 UNL     1       4.361   0.709   1.279  1.00  0.00     0.232 C 
BRANCH  20  21
HETATM   21  N7  UNL     1       5.289  -0.369   1.483  1.00  0.00    -0.075 N 
ATOM     22  H72 UNL     1       5.977  -0.137   2.199  1.00  0.00     0.277 HD
ATOM     23  H71 UNL     1       4.842  -1.162   1.943  1.00  0.00     0.277 HD
BRANCH  21  24
HETATM   24  C14 UNL     1       5.923  -0.764   0.254  1.00  0.00     0.234 C 
BRANCH  24  25
HETATM   25  C15 UNL     1       6.893  -1.906   0.597  1.00  0.00     0.047 C 
BRANCH  25  26
HETATM   26  C16 UNL     1       7.584  -2.363  -0.652  1.00  0.00     0.123 C 
BRANCH  26  27
HETATM   27  N8  UNL     1       8.337  -1.298  -1.260  1.00  0.00    -0.368 N 
ATOM     28  H8  UNL     1       8.335  -0.380  -0.815  1.00  0.00     0.161 HD
BRANCH  27  29
HETATM   29  C17 UNL     1       9.086  -1.476  -2.460  1.00  0.00     0.348 C 
HETATM   30  O1  UNL     1       9.132  -2.580  -3.059  1.00  0.00    -0.284 OA
ENDBRANCH  27  29
ENDBRANCH  26  27
ENDBRANCH  25  26
ENDBRANCH  24  25
ENDBRANCH  21  24
ENDBRANCH  20  21
ENDBRANCH  19  20
ENDBRANCH  18  19
ENDBRANCH  17  18
ENDBRANCH  16  17
ENDBRANCH  15  16
ENDBRANCH  12  15
BRANCH   1  31
HETATM   31  C3  UNL     1      -6.633   0.107   1.041  1.00  0.00     0.124 C 
BRANCH  31  32
HETATM   32  C2  UNL     1      -7.168   0.588  -0.300  1.00  0.00     0.047 C 
BRANCH  32  33
HETATM   33  C1  UNL     1      -7.732  -0.562  -1.107  1.00  0.00     0.231 C 
BRANCH  33  34
HETATM   34  N1  UNL     1      -8.216  -0.015  -2.359  1.00  0.00    -0.079 N 
ATOM     35  H13 UNL     1      -8.883   0.746  -2.230  1.00  0.00     0.274 HD
ATOM     36  H12 UNL     1      -7.506   0.515  -2.863  1.00  0.00     0.274 HD
ATOM     37  H11 UNL     1      -8.596  -0.790  -2.903  1.00  0.00     0.274 HD
ENDBRANCH  33  34
ENDBRANCH  32  33
ENDBRANCH  31  32
ENDBRANCH   1  31
TORSDOF 16
