REMARK  17 active torsions:
REMARK  status: ('A' for Active; 'I' for Inactive)
REMARK    1  A    between atoms: N1_2  and  C2_3 
REMARK    2  A    between atoms: C2_3  and  O1_4 
REMARK    3  A    between atoms: O1_4  and  C3_5 
REMARK       I    between atoms: C3_5  and  N2_7 
REMARK    4  A    between atoms: N2_7  and  C4_9 
REMARK    5  A    between atoms: C4_9  and  C5_10 
REMARK    6  A    between atoms: C4_9  and  C14_23 
REMARK    7  A    between atoms: C5_10  and  C6_11 
REMARK    8  A    between atoms: C6_11  and  C7_12 
REMARK    9  A    between atoms: C8_13  and  C9_14 
REMARK   10  A    between atoms: C9_14  and  C10_15 
REMARK   11  A    between atoms: C11_16  and  C12_17 
REMARK   12  A    between atoms: N4_19  and  C13_21 
REMARK   13  A    between atoms: C14_23  and  C15_24 
REMARK   14  A    between atoms: C15_24  and  N5_25 
REMARK   15  A    between atoms: N5_25  and  N6_27 
REMARK   16  A    between atoms: C16_29  and  N7_30 
REMARK   17  A    between atoms: N7_30  and  N8_32 
ROOT
HETATM    1  C4  UNL     1      -1.035   0.406   0.364  1.00  0.00     0.088 C 
ENDROOT
BRANCH   1   2
HETATM    2  N2  UNL     1      -1.956  -0.565  -0.286  1.00  0.00    -0.332 N 
HETATM    3  C3  UNL     1      -2.414  -1.641   0.496  1.00  0.00     0.362 C 
HETATM    4  O2  UNL     1      -2.119  -1.853   1.694  1.00  0.00    -0.238 OA
ATOM      5  H2  UNL     1      -2.243  -0.455  -1.258  1.00  0.00     0.165 HD
BRANCH   3   6
HETATM    6  O1  UNL     1      -3.269  -2.561  -0.094  1.00  0.00    -0.276 OA
BRANCH   6   7
HETATM    7  C2  UNL     1      -3.780  -3.681   0.628  1.00  0.00     0.416 C 
BRANCH   7   8
HETATM    8  N1  UNL     1      -4.639  -4.475  -0.214  1.00  0.00    -0.046 N 
HETATM    9  C1  UNL     1      -5.979  -4.658   0.274  1.00  0.00     0.275 C 
HETATM   10  C17 UNL     1      -4.428  -4.243  -1.632  1.00  0.00     0.267 A 
HETATM   11  C18 UNL     1      -4.043  -5.519  -1.030  1.00  0.00     0.267 A 
ENDBRANCH   7   8
ENDBRANCH   6   7
ENDBRANCH   3   6
ENDBRANCH   1   2
BRANCH   1  12
HETATM   12  C5  UNL     1       0.064   0.618  -0.601  1.00  0.00     0.029 C 
BRANCH  12  13
HETATM   13  C6  UNL     1       0.719  -0.760  -0.874  1.00  0.00     0.029 C 
BRANCH  13  14
HETATM   14  C7  UNL     1       1.319  -1.349   0.315  1.00  0.00    -0.030 C 
HETATM   15  C8  UNL     1       2.583  -1.644   0.429  1.00  0.00    -0.027 C 
BRANCH  15  16
HETATM   16  C9  UNL     1       3.604  -1.433  -0.612  1.00  0.00     0.054 C 
BRANCH  16  17
HETATM   17  C10 UNL     1       4.666  -0.496  -0.060  1.00  0.00    -0.020 C 
HETATM   18  C11 UNL     1       4.868   0.625  -0.672  1.00  0.00     0.041 C 
BRANCH  18  19
HETATM   19  C12 UNL     1       5.803   1.671  -0.356  1.00  0.00     0.117 C 
HETATM   20  N3  UNL     1       5.789   2.826  -1.249  1.00  0.00    -0.083 NA
HETATM   21  N4  UNL     1       6.643   1.759   0.576  1.00  0.00    -0.323 N 
ATOM     22  H4  UNL     1       7.203   2.611   0.596  1.00  0.00     0.169 HD
BRANCH  21  23
HETATM   23  C13 UNL     1       6.898   0.846   1.571  1.00  0.00     0.354 C 
HETATM   24  O3  UNL     1       6.402   1.027   2.717  1.00  0.00    -0.283 OA
ENDBRANCH  21  23
ENDBRANCH  18  19
ENDBRANCH  16  17
ENDBRANCH  15  16
ENDBRANCH  13  14
ENDBRANCH  12  13
ENDBRANCH   1  12
BRANCH   1  25
HETATM   25  C14 UNL     1      -1.871   1.600   0.734  1.00  0.00     0.046 C 
BRANCH  25  26
HETATM   26  C15 UNL     1      -1.145   2.696   1.385  1.00  0.00     0.141 C 
BRANCH  26  27
HETATM   27  N5  UNL     1      -0.164   3.389   0.607  1.00  0.00    -0.335 N 
ATOM     28  H5  UNL     1      -0.084   3.213  -0.395  1.00  0.00     0.180 HD
BRANCH  27  29
HETATM   29  N6  UNL     1       0.680   4.304   1.228  1.00  0.00    -0.299 N 
HETATM   30  C16 UNL     1       0.501   5.557   1.050  1.00  0.00     0.212 C 
ATOM     31  H6  UNL     1       1.440   3.976   1.824  1.00  0.00     0.187 HD
BRANCH  30  32
HETATM   32  N7  UNL     1      -0.560   5.991   0.219  1.00  0.00    -0.301 N 
ATOM     33  H7  UNL     1      -1.475   6.204   0.617  1.00  0.00     0.187 HD
BRANCH  32  34
HETATM   34  N8  UNL     1      -0.337   6.123  -1.150  1.00  0.00    -0.344 N 
ATOM     35  H82 UNL     1       0.583   5.906  -1.532  1.00  0.00     0.176 HD
ATOM     36  H81 UNL     1      -1.101   6.436  -1.749  1.00  0.00     0.176 HD
ENDBRANCH  32  34
ENDBRANCH  30  32
ENDBRANCH  27  29
ENDBRANCH  26  27
ENDBRANCH  25  26
ENDBRANCH   1  25
TORSDOF 17
