REMARK  18 active torsions:
REMARK  status: ('A' for Active; 'I' for Inactive)
REMARK    1  A    between atoms: N1_2  and  C2_5 
REMARK    2  A    between atoms: C2_5  and  C3_6 
REMARK    3  A    between atoms: C3_6  and  N2_7 
REMARK    4  A    between atoms: N2_7  and  C4_9 
REMARK    5  A    between atoms: C5_10  and  C6_11 
REMARK    6  A    between atoms: C6_11  and  O1_12 
REMARK    7  A    between atoms: C7_15  and  O3_16 
REMARK    8  A    between atoms: O3_16  and  C8_17 
REMARK    9  A    between atoms: C8_17  and  C9_18 
REMARK   10  A    between atoms: C10_20  and  S1_21 
REMARK   11  A    between atoms: S1_21  and  C11_22 
REMARK   12  A    between atoms: C12_24  and  C13_25 
REMARK   13  A    between atoms: C13_25  and  O6_26 
REMARK   14  A    between atoms: C14_28  and  N3_29 
REMARK   15  A    between atoms: C15_33  and  O7_34 
REMARK   16  A    between atoms: C16_36  and  N4_37 
REMARK   17  A    between atoms: C17_41  and  O8_42 
REMARK   18  A    between atoms: C18_44  and  N5_45 
ROOT
HETATM    1  C9  UNL     1       1.142  -0.770  -0.156  1.00  0.00     0.177 C 
HETATM    2  O4  UNL     1       2.293  -0.100  -0.535  1.00  0.00    -0.363 OA
HETATM    3  C10 UNL     1       3.151  -1.143  -0.865  1.00  0.00     0.219 C 
HETATM    4  C16 UNL     1       2.295  -1.885  -1.873  1.00  0.00     0.253 C 
HETATM    5  C17 UNL     1       1.037  -2.042  -0.995  1.00  0.00     0.183 C 
ENDROOT
BRANCH   1   6
HETATM    6  C8  UNL     1      -0.121   0.068  -0.364  1.00  0.00     0.205 C 
BRANCH   6   7
HETATM    7  O3  UNL     1      -1.152  -0.724   0.084  1.00  0.00    -0.356 OA
BRANCH   7   8
HETATM    8  C7  UNL     1      -2.425  -0.172  -0.044  1.00  0.00     0.292 C 
HETATM    9  O2  UNL     1      -3.012   0.049   1.187  1.00  0.00    -0.350 OA
HETATM   10  C5  UNL     1      -4.170  -0.701   1.273  1.00  0.00     0.172 C 
HETATM   11  C4  UNL     1      -4.654  -0.861  -0.151  1.00  0.00     0.143 C 
HETATM   12  C18 UNL     1      -3.331  -1.045  -0.862  1.00  0.00     0.263 C 
BRANCH  10  13
HETATM   13  C6  UNL     1      -3.743  -2.070   1.815  1.00  0.00     0.198 C 
BRANCH  13  14
HETATM   14  O1  UNL     1      -4.816  -2.936   1.957  1.00  0.00    -0.398 OA
ATOM     15  H1  UNL     1      -4.551  -3.784   2.293  1.00  0.00     0.209 HD
ENDBRANCH  13  14
ENDBRANCH  10  13
BRANCH  11  16
HETATM   16  N2  UNL     1      -5.233   0.338  -0.657  1.00  0.00    -0.411 N 
ATOM     17  H2  UNL     1      -4.827   0.833  -1.451  1.00  0.00     0.153 HD
BRANCH  16  18
HETATM   18  C3  UNL     1      -6.408   0.814  -0.001  1.00  0.00     0.142 C 
BRANCH  18  19
HETATM   19  C2  UNL     1      -6.850   2.067  -0.747  1.00  0.00     0.251 C 
BRANCH  19  20
HETATM   20  N1  UNL     1      -8.031   2.668  -0.208  1.00  0.00    -0.077 N 
HETATM   21  C1  UNL     1      -7.716   3.218   1.092  1.00  0.00     0.267 C 
ATOM     22  H12 UNL     1      -8.820   2.022  -0.179  1.00  0.00     0.276 HD
ATOM     23  H11 UNL     1      -8.440   3.360  -0.837  1.00  0.00     0.276 HD
ENDBRANCH  19  20
ENDBRANCH  18  19
ENDBRANCH  16  18
ENDBRANCH  11  16
BRANCH  12  24
HETATM   24  N5  UNL     1      -3.390  -0.559  -2.229  1.00  0.00    -0.068 N 
ATOM     25  H53 UNL     1      -4.155  -0.992  -2.746  1.00  0.00     0.275 HD
ATOM     26  H52 UNL     1      -3.703   0.411  -2.267  1.00  0.00     0.275 HD
ATOM     27  H51 UNL     1      -2.498  -0.683  -2.708  1.00  0.00     0.275 HD
ENDBRANCH  12  24
ENDBRANCH   7   8
ENDBRANCH   6   7
ENDBRANCH   1   6
BRANCH   5  28
HETATM   28  O8  UNL     1       1.118  -3.125  -0.157  1.00  0.00    -0.391 OA
ATOM     29  H8  UNL     1       1.053  -3.916  -0.679  1.00  0.00     0.210 HD
ENDBRANCH   5  28
BRANCH   3  30
HETATM   30  S1  UNL     1       4.767  -0.684  -1.428  1.00  0.00    -0.101 SA
BRANCH  30  31
HETATM   31  C11 UNL     1       5.718   0.007  -0.108  1.00  0.00     0.216 C 
HETATM   32  O5  UNL     1       5.294   1.231   0.380  1.00  0.00    -0.363 OA
HETATM   33  C12 UNL     1       6.300   1.670   1.237  1.00  0.00     0.179 C 
HETATM   34  C14 UNL     1       7.587   0.976   0.829  1.00  0.00     0.246 C 
HETATM   35  C15 UNL     1       7.151   0.373  -0.509  1.00  0.00     0.190 C 
BRANCH  33  36
HETATM   36  C13 UNL     1       6.421   3.170   1.105  1.00  0.00     0.198 C 
BRANCH  36  37
HETATM   37  O6  UNL     1       6.756   3.517  -0.205  1.00  0.00    -0.398 OA
ATOM     38  H6  UNL     1       6.832   4.460  -0.288  1.00  0.00     0.209 HD
ENDBRANCH  36  37
ENDBRANCH  33  36
BRANCH  34  39
HETATM   39  N3  UNL     1       7.818  -0.104   1.740  1.00  0.00    -0.070 N 
ATOM     40  H33 UNL     1       7.825   0.197   2.714  1.00  0.00     0.274 HD
ATOM     41  H32 UNL     1       7.027  -0.745   1.800  1.00  0.00     0.274 HD
ATOM     42  H31 UNL     1       8.683  -0.570   1.466  1.00  0.00     0.274 HD
ENDBRANCH  34  39
BRANCH  35  43
HETATM   43  O7  UNL     1       7.907  -0.742  -0.778  1.00  0.00    -0.390 OA
ATOM     44  H7  UNL     1       8.795  -0.515  -1.027  1.00  0.00     0.210 HD
ENDBRANCH  35  43
ENDBRANCH  30  31
ENDBRANCH   3  30
BRANCH   4  45
HETATM   45  N4  UNL     1       2.839  -3.137  -2.287  1.00  0.00    -0.069 N 
ATOM     46  H43 UNL     1       3.787  -3.015  -2.643  1.00  0.00     0.275 HD
ATOM     47  H42 UNL     1       3.033  -3.728  -1.479  1.00  0.00     0.275 HD
ATOM     48  H41 UNL     1       2.263  -3.636  -2.965  1.00  0.00     0.275 HD
ENDBRANCH   4  45
TORSDOF 18
