REMARK  20 active torsions:
REMARK  status: ('A' for Active; 'I' for Inactive)
REMARK    1  A    between atoms: C1_4  and  S1_5 
REMARK    2  A    between atoms: C1_4  and  C7_20 
REMARK    3  A    between atoms: S1_5  and  S2_6 
REMARK    4  A    between atoms: S2_6  and  C2_7 
REMARK    5  A    between atoms: C2_7  and  C3_8 
REMARK    6  A    between atoms: C3_8  and  N2_9 
REMARK    7  A    between atoms: C3_8  and  C4_13 
REMARK    8  A    between atoms: C4_13  and  C5_14 
REMARK    9  A    between atoms: C5_14  and  C6_15 
REMARK   10  A    between atoms: C6_15  and  N3_16 
REMARK   11  A    between atoms: C8_22  and  N4_23 
REMARK       I    between atoms: N4_23  and  C9_25 
REMARK   12  A    between atoms: C9_25  and  C10_27 
REMARK   13  A    between atoms: C10_27  and  N5_28 
REMARK   14  A    between atoms: C10_27  and  C11_32 
REMARK   15  A    between atoms: C11_32  and  N6_33 
REMARK   16  A    between atoms: C12_37  and  O3_38 
REMARK   17  A    between atoms: C13_40  and  O4_41 
REMARK   18  A    between atoms: C14_43  and  N7_44 
REMARK   19  A    between atoms: N7_44  and  C15_46 
REMARK   20  A    between atoms: C16_48  and  N8_49 
ROOT
HETATM    1  C7  UNL     1      -0.366  -1.873   0.444  1.00  0.00     0.213 C 
HETATM    2  O1  UNL     1      -0.539  -0.626  -0.151  1.00  0.00    -0.350 OA
HETATM    3  C8  UNL     1      -1.838  -0.134  -0.028  1.00  0.00     0.255 C 
HETATM    4  C12 UNL     1      -2.766  -0.876  -0.952  1.00  0.00     0.197 C 
HETATM    5  C13 UNL     1      -3.435  -2.047  -0.299  1.00  0.00     0.176 C 
HETATM    6  C14 UNL     1      -2.487  -3.081   0.231  1.00  0.00     0.148 C 
HETATM    7  C16 UNL     1      -1.074  -2.929  -0.305  1.00  0.00     0.243 C 
ENDROOT
BRANCH   1   8
HETATM    8  C1  UNL     1       1.064  -2.108   0.732  1.00  0.00     0.082 C 
HETATM    9  N1  UNL     1       1.766  -3.033   0.239  1.00  0.00    -0.394 N 
ATOM     10  H12 UNL     1       2.753  -3.195   0.438  1.00  0.00     0.156 HD
ATOM     11  H11 UNL     1       1.306  -3.669  -0.412  1.00  0.00     0.156 HD
BRANCH   8  12
HETATM   12  S1  UNL     1       1.877  -0.983   1.884  1.00  0.00    -0.042 SA
BRANCH  12  13
HETATM   13  S2  UNL     1       3.889  -1.461   2.163  1.00  0.00    -0.089 SA
BRANCH  13  14
HETATM   14  C2  UNL     1       5.033  -0.625   1.023  1.00  0.00     0.119 C 
BRANCH  14  15
HETATM   15  C3  UNL     1       5.109   0.823   1.241  1.00  0.00     0.193 C 
BRANCH  15  16
HETATM   16  N2  UNL     1       5.503   1.187   2.605  1.00  0.00    -0.074 N 
ATOM     17  H23 UNL     1       4.885   0.750   3.289  1.00  0.00     0.274 HD
ATOM     18  H22 UNL     1       6.382   0.736   2.860  1.00  0.00     0.274 HD
ATOM     19  H21 UNL     1       5.556   2.194   2.757  1.00  0.00     0.274 HD
ENDBRANCH  15  16
BRANCH  15  20
HETATM   20  C4  UNL     1       4.214   1.790   0.591  1.00  0.00     0.035 C 
BRANCH  20  21
HETATM   21  C5  UNL     1       4.235   1.984  -0.874  1.00  0.00     0.029 C 
BRANCH  21  22
HETATM   22  C6  UNL     1       3.929   0.891  -1.810  1.00  0.00     0.229 C 
BRANCH  22  23
HETATM   23  N3  UNL     1       2.627   0.309  -1.639  1.00  0.00    -0.079 N 
ATOM     24  H33 UNL     1       2.500  -0.002  -0.676  1.00  0.00     0.274 HD
ATOM     25  H32 UNL     1       1.907   1.030  -1.686  1.00  0.00     0.274 HD
ATOM     26  H31 UNL     1       2.415  -0.449  -2.288  1.00  0.00     0.274 HD
ENDBRANCH  22  23
ENDBRANCH  21  22
ENDBRANCH  20  21
ENDBRANCH  15  20
ENDBRANCH  14  15
ENDBRANCH  13  14
ENDBRANCH  12  13
ENDBRANCH   8  12
ENDBRANCH   1   8
BRANCH   7  27
HETATM   27  N8  UNL     1      -0.470  -4.250  -0.181  1.00  0.00    -0.070 N 
ATOM     28  H83 UNL     1       0.514  -4.220  -0.447  1.00  0.00     0.274 HD
ATOM     29  H82 UNL     1      -0.375  -4.510   0.801  1.00  0.00     0.274 HD
ATOM     30  H81 UNL     1      -0.959  -4.980  -0.699  1.00  0.00     0.274 HD
ENDBRANCH   7  27
BRANCH   3  31
HETATM   31  N4  UNL     1      -1.816   1.248  -0.464  1.00  0.00    -0.330 N 
HETATM   32  C9  UNL     1      -2.106   2.334   0.389  1.00  0.00     0.252 C 
HETATM   33  O2  UNL     1      -2.402   2.156   1.591  1.00  0.00    -0.271 OA
ATOM     34  H4  UNL     1      -1.579   1.446  -1.436  1.00  0.00     0.165 HD
BRANCH  32  35
HETATM   35  C10 UNL     1      -2.068   3.722  -0.118  1.00  0.00     0.299 C 
BRANCH  35  36
HETATM   36  N5  UNL     1      -1.710   3.709  -1.519  1.00  0.00    -0.065 N 
ATOM     37  H53 UNL     1      -0.837   3.211  -1.690  1.00  0.00     0.275 HD
ATOM     38  H52 UNL     1      -2.327   3.113  -2.070  1.00  0.00     0.275 HD
ATOM     39  H51 UNL     1      -1.684   4.667  -1.869  1.00  0.00     0.275 HD
ENDBRANCH  35  36
BRANCH  35  40
HETATM   40  C11 UNL     1      -3.501   4.253  -0.016  1.00  0.00     0.272 C 
BRANCH  40  41
HETATM   41  N6  UNL     1      -3.576   5.606  -0.488  1.00  0.00    -0.077 N 
ATOM     42  H63 UNL     1      -2.913   6.212  -0.005  1.00  0.00     0.274 HD
ATOM     43  H62 UNL     1      -3.206   5.697  -1.434  1.00  0.00     0.274 HD
ATOM     44  H61 UNL     1      -4.530   5.960  -0.420  1.00  0.00     0.274 HD
ENDBRANCH  40  41
ENDBRANCH  35  40
ENDBRANCH  32  35
ENDBRANCH   3  31
BRANCH   6  45
HETATM   45  N7  UNL     1      -2.980  -4.423   0.046  1.00  0.00    -0.359 N 
ATOM     46  H7  UNL     1      -3.121  -4.785  -0.897  1.00  0.00     0.162 HD
BRANCH  45  47
HETATM   47  C15 UNL     1      -3.269  -5.242   1.162  1.00  0.00     0.348 C 
HETATM   48  O5  UNL     1      -3.087  -4.773   2.312  1.00  0.00    -0.284 OA
ENDBRANCH  45  47
ENDBRANCH   6  45
BRANCH   4  49
HETATM   49  O3  UNL     1      -3.803   0.014  -1.318  1.00  0.00    -0.389 OA
ATOM     50  H3  UNL     1      -4.389  -0.454  -1.901  1.00  0.00     0.210 HD
ENDBRANCH   4  49
BRANCH   5  51
HETATM   51  O4  UNL     1      -4.258  -2.659  -1.243  1.00  0.00    -0.391 OA
ATOM     52  H4  UNL     1      -4.682  -3.401  -0.829  1.00  0.00     0.210 HD
ENDBRANCH   5  51
TORSDOF 20
