REMARK  18 active torsions:
REMARK  status: ('A' for Active; 'I' for Inactive)
REMARK    1  A    between atoms: N1_1  and  C1_5 
REMARK    2  A    between atoms: C3_7  and  N2_8 
REMARK    3  A    between atoms: C4_12  and  O1_13 
REMARK    4  A    between atoms: C5_15  and  O2_16 
REMARK    5  A    between atoms: O2_16  and  C6_17 
REMARK    6  A    between atoms: C7_18  and  N3_19 
REMARK    7  A    between atoms: C9_24  and  N4_25 
REMARK    8  A    between atoms: C10_29  and  O3_30 
REMARK    9  A    between atoms: O3_30  and  C11_31 
REMARK   10  A    between atoms: C13_33  and  C14_34 
REMARK   11  A    between atoms: C14_34  and  O4_35 
REMARK   12  A    between atoms: O4_35  and  C15_36 
REMARK   13  A    between atoms: C15_36  and  O5_37 
REMARK   14  A    between atoms: C15_36  and  N5_39 
REMARK   15  A    between atoms: N5_39  and  C16_42 
REMARK   16  A    between atoms: C16_42  and  C17_43 
REMARK   17  A    between atoms: C17_43  and  C18_44 
REMARK   18  A    between atoms: C19_48  and  N6_49 
ROOT
HETATM    1  C6  UNL     1      -1.961  -0.880  -2.094  1.00  0.00     0.183 C 
HETATM    2  C7  UNL     1      -1.075  -1.974  -2.708  1.00  0.00     0.217 C 
HETATM    3  C8  UNL     1      -0.078  -1.278  -3.604  1.00  0.00     0.071 C 
HETATM    4  C9  UNL     1      -0.777   0.002  -3.954  1.00  0.00     0.217 C 
HETATM    5  C10 UNL     1      -1.257   0.410  -2.550  1.00  0.00     0.186 C 
ENDROOT
BRANCH   1   6
HETATM    6  O2  UNL     1      -1.968  -0.990  -0.791  1.00  0.00    -0.371 OA
BRANCH   6   7
HETATM    7  C5  UNL     1      -3.067  -1.158  -0.032  1.00  0.00     0.185 C 
HETATM    8  C4  UNL     1      -3.193  -2.443   0.707  1.00  0.00     0.179 C 
HETATM    9  C3  UNL     1      -2.611  -2.491   2.067  1.00  0.00     0.216 C 
HETATM   10  C2  UNL     1      -2.654  -1.271   2.888  1.00  0.00     0.070 C 
HETATM   11  C1  UNL     1      -2.807   0.032   2.175  1.00  0.00     0.218 C 
HETATM   12  C19 UNL     1      -3.518  -0.055   0.867  1.00  0.00     0.245 C 
BRANCH   8  13
HETATM   13  O1  UNL     1      -2.584  -3.437  -0.093  1.00  0.00    -0.391 OA
ATOM     14  H1  UNL     1      -2.958  -3.406  -0.966  1.00  0.00     0.210 HD
ENDBRANCH   8  13
BRANCH   9  15
HETATM   15  N2  UNL     1      -1.250  -3.005   1.964  1.00  0.00    -0.072 N 
ATOM     16  H23 UNL     1      -0.605  -2.295   1.617  1.00  0.00     0.274 HD
ATOM     17  H22 UNL     1      -0.834  -3.156   2.883  1.00  0.00     0.274 HD
ATOM     18  H21 UNL     1      -1.220  -3.851   1.395  1.00  0.00     0.274 HD
ENDBRANCH   9  15
BRANCH  11  19
HETATM   19  N1  UNL     1      -3.618   0.947   3.004  1.00  0.00    -0.073 N 
ATOM     20  H13 UNL     1      -4.516   0.540   3.264  1.00  0.00     0.274 HD
ATOM     21  H12 UNL     1      -3.235   1.062   3.942  1.00  0.00     0.274 HD
ATOM     22  H11 UNL     1      -3.723   1.837   2.517  1.00  0.00     0.274 HD
ENDBRANCH  11  19
BRANCH  12  23
HETATM   23  N6  UNL     1      -3.598   1.232   0.251  1.00  0.00    -0.070 N 
ATOM     24  H63 UNL     1      -4.026   1.922   0.869  1.00  0.00     0.274 HD
ATOM     25  H62 UNL     1      -2.679   1.663   0.154  1.00  0.00     0.274 HD
ATOM     26  H61 UNL     1      -4.084   1.172  -0.644  1.00  0.00     0.274 HD
ENDBRANCH  12  23
ENDBRANCH   6   7
ENDBRANCH   1   6
BRANCH   2  27
HETATM   27  N3  UNL     1      -1.856  -2.876  -3.534  1.00  0.00    -0.072 N 
ATOM     28  H33 UNL     1      -2.641  -3.274  -3.018  1.00  0.00     0.274 HD
ATOM     29  H32 UNL     1      -2.380  -2.372  -4.249  1.00  0.00     0.274 HD
ATOM     30  H31 UNL     1      -1.268  -3.603  -3.942  1.00  0.00     0.274 HD
ENDBRANCH   2  27
BRANCH   5  31
HETATM   31  O3  UNL     1      -0.139   0.663  -1.798  1.00  0.00    -0.351 OA
BRANCH  31  32
HETATM   32  C11 UNL     1      -0.218   1.962  -1.311  1.00  0.00     0.263 C 
HETATM   33  C12 UNL     1       0.992   2.819  -1.467  1.00  0.00     0.095 C 
HETATM   34  C13 UNL     1       1.178   2.418  -0.031  1.00  0.00     0.153 C 
HETATM   35  O8  UNL     1      -0.146   2.023   0.072  1.00  0.00    -0.354 OA
BRANCH  34  36
HETATM   36  C14 UNL     1       2.182   1.312   0.096  1.00  0.00     0.205 C 
BRANCH  36  37
HETATM   37  O4  UNL     1       3.455   1.813  -0.013  1.00  0.00    -0.337 OA
BRANCH  37  38
HETATM   38  C15 UNL     1       3.834   2.722   0.937  1.00  0.00     0.466 C 
BRANCH  38  39
HETATM   39  O5  UNL     1       4.151   3.979   0.375  1.00  0.00    -0.350 OA
ATOM     40  H5  UNL     1       4.414   4.610   1.035  1.00  0.00     0.214 HD
ENDBRANCH  38  39
BRANCH  38  41
HETATM   41  N5  UNL     1       5.022   2.268   1.642  1.00  0.00    -0.025 N 
ATOM     42  H52 UNL     1       5.842   2.229   1.036  1.00  0.00     0.283 HD
ATOM     43  H51 UNL     1       5.368   2.961   2.306  1.00  0.00     0.283 HD
BRANCH  41  44
HETATM   44  C16 UNL     1       4.736   0.976   2.280  1.00  0.00     0.249 C 
BRANCH  44  45
HETATM   45  C17 UNL     1       5.949   0.476   3.021  1.00  0.00     0.141 C 
BRANCH  45  46
HETATM   46  C18 UNL     1       5.601  -0.829   3.640  1.00  0.00     0.174 C 
HETATM   47  O6  UNL     1       4.474  -1.340   3.518  1.00  0.00    -0.648 OA
HETATM   48  O7  UNL     1       6.541  -1.537   4.391  1.00  0.00    -0.648 OA
ENDBRANCH  45  46
ENDBRANCH  44  45
ENDBRANCH  41  44
ENDBRANCH  38  41
ENDBRANCH  37  38
ENDBRANCH  36  37
ENDBRANCH  34  36
ENDBRANCH  31  32
ENDBRANCH   5  31
BRANCH   4  49
HETATM   49  N4  UNL     1      -1.915  -0.231  -4.806  1.00  0.00    -0.072 N 
ATOM     50  H43 UNL     1      -1.654  -0.753  -5.642  1.00  0.00     0.274 HD
ATOM     51  H42 UNL     1      -2.558  -0.906  -4.392  1.00  0.00     0.274 HD
ATOM     52  H41 UNL     1      -2.390   0.639  -5.044  1.00  0.00     0.274 HD
ENDBRANCH   4  49
TORSDOF 18
