REMARK  17 active torsions:
REMARK  status: ('A' for Active; 'I' for Inactive)
REMARK    1  A    between atoms: S1_2  and  N1_3 
REMARK    2  A    between atoms: S1_2  and  O8_38 
REMARK    3  A    between atoms: N1_3  and  C2_5 
REMARK    4  A    between atoms: C3_6  and  O1_7 
REMARK    5  A    between atoms: O1_7  and  C4_8 
REMARK    6  A    between atoms: C5_9  and  N2_10 
REMARK    7  A    between atoms: C8_16  and  O2_17 
REMARK    8  A    between atoms: O2_17  and  C9_18 
REMARK    9  A    between atoms: C9_18  and  C10_19 
REMARK   10  A    between atoms: C10_19  and  N3_20 
REMARK   11  A    between atoms: C11_24  and  O3_25 
REMARK   12  A    between atoms: C12_28  and  C13_29 
REMARK   13  A    between atoms: C13_29  and  O5_30 
REMARK   14  A    between atoms: C14_32  and  O6_33 
REMARK   15  A    between atoms: C15_35  and  O7_36 
REMARK   16  A    between atoms: O8_38  and  C16_39 
REMARK   17  A    between atoms: C16_39  and  C17_40 
ROOT
HETATM    1  C2  UNL     1       1.080  -0.434  -0.820  1.00  0.00     0.176 C 
HETATM    2  C3  UNL     1       0.058  -1.468  -0.322  1.00  0.00     0.286 C 
HETATM    3  O4  UNL     1       0.038  -2.593  -1.134  1.00  0.00    -0.349 OA
HETATM    4  C12 UNL     1       1.174  -3.378  -0.993  1.00  0.00     0.179 C 
HETATM    5  C14 UNL     1       2.377  -2.490  -0.910  1.00  0.00     0.180 C 
HETATM    6  C15 UNL     1       2.035  -1.220  -1.689  1.00  0.00     0.177 C 
ENDROOT
BRANCH   2   7
HETATM    7  O1  UNL     1      -1.201  -0.928  -0.304  1.00  0.00    -0.349 OA
BRANCH   7   8
HETATM    8  C4  UNL     1      -1.772  -0.898   0.973  1.00  0.00     0.186 C 
HETATM    9  C5  UNL     1      -3.066  -1.635   1.059  1.00  0.00     0.215 C 
HETATM   10  C6  UNL     1      -4.025  -1.129   2.081  1.00  0.00     0.038 C 
HETATM   11  C7  UNL     1      -4.258   0.341   2.060  1.00  0.00     0.036 C 
HETATM   12  C8  UNL     1      -3.391   0.911   0.930  1.00  0.00     0.152 C 
HETATM   13  C11 UNL     1      -1.975   0.568   1.299  1.00  0.00     0.178 C 
BRANCH   9  14
HETATM   14  N2  UNL     1      -2.829  -3.052   1.394  1.00  0.00    -0.072 N 
ATOM     15  H23 UNL     1      -2.183  -3.494   0.740  1.00  0.00     0.274 HD
ATOM     16  H22 UNL     1      -2.276  -3.154   2.245  1.00  0.00     0.274 HD
ATOM     17  H21 UNL     1      -3.714  -3.556   1.453  1.00  0.00     0.274 HD
ENDBRANCH   9  14
BRANCH  12  18
HETATM   18  O2  UNL     1      -3.630   2.224   0.697  1.00  0.00    -0.382 OA
BRANCH  18  19
HETATM   19  C9  UNL     1      -4.168   2.562  -0.505  1.00  0.00     0.195 C 
BRANCH  19  20
HETATM   20  C10 UNL     1      -5.532   1.925  -0.757  1.00  0.00     0.255 C 
BRANCH  20  21
HETATM   21  N3  UNL     1      -6.053   2.324  -2.052  1.00  0.00    -0.077 N 
ATOM     22  H33 UNL     1      -6.086   3.339  -2.150  1.00  0.00     0.274 HD
ATOM     23  H32 UNL     1      -5.395   2.119  -2.804  1.00  0.00     0.274 HD
ATOM     24  H31 UNL     1      -6.965   1.898  -2.220  1.00  0.00     0.274 HD
ENDBRANCH  20  21
ENDBRANCH  19  20
ENDBRANCH  18  19
ENDBRANCH  12  18
BRANCH  13  25
HETATM   25  O3  UNL     1      -1.731   0.699   2.670  1.00  0.00    -0.390 OA
ATOM     26  H3  UNL     1      -1.858   1.618   2.874  1.00  0.00     0.210 HD
ENDBRANCH  13  25
ENDBRANCH   7   8
ENDBRANCH   2   7
BRANCH   1  27
HETATM   27  N1  UNL     1       1.741   0.214   0.287  1.00  0.00    -0.341 N 
ATOM     28  H1  UNL     1       1.448  -0.105   1.211  1.00  0.00     0.169 HD
BRANCH  27  29
HETATM   29  S1  UNL     1       2.913   1.406   0.290  1.00  0.00     0.001 SA
HETATM   30  C1  UNL     1       2.556   2.935   1.578  1.00  0.00     0.133 C 
BRANCH  29  31
HETATM   31  O8  UNL     1       4.127   1.821  -0.708  1.00  0.00    -0.306 OA
BRANCH  31  32
HETATM   32  C16 UNL     1       5.118   2.718  -0.291  1.00  0.00     0.258 C 
BRANCH  32  33
HETATM   33  C17 UNL     1       6.109   2.943  -1.356  1.00  0.00     0.111 C 
HETATM   34  N4  UNL     1       6.301   4.143  -1.838  1.00  0.00    -0.389 N 
ATOM     35  H42 UNL     1       5.729   4.882  -1.429  1.00  0.00     0.157 HD
ATOM     36  H41 UNL     1       6.988   4.299  -2.576  1.00  0.00     0.157 HD
HETATM   37  N5  UNL     1       6.901   1.920  -1.922  1.00  0.00    -0.086 NA
ENDBRANCH  32  33
ENDBRANCH  31  32
ENDBRANCH  29  31
ENDBRANCH  27  29
ENDBRANCH   1  27
BRANCH   6  38
HETATM   38  O7  UNL     1       3.200  -0.580  -2.000  1.00  0.00    -0.391 OA
ATOM     39  H7  UNL     1       3.800  -1.074  -2.546  1.00  0.00     0.210 HD
ENDBRANCH   6  38
BRANCH   4  40
HETATM   40  C13 UNL     1       1.106  -4.292   0.205  1.00  0.00     0.198 C 
BRANCH  40  41
HETATM   41  O5  UNL     1       0.019  -5.158   0.105  1.00  0.00    -0.398 OA
ATOM     42  H5  UNL     1      -0.024  -5.734   0.860  1.00  0.00     0.209 HD
ENDBRANCH  40  41
ENDBRANCH   4  40
BRANCH   5  43
HETATM   43  O6  UNL     1       3.455  -3.104  -1.542  1.00  0.00    -0.390 OA
ATOM     44  H6  UNL     1       4.218  -2.541  -1.489  1.00  0.00     0.210 HD
ENDBRANCH   5  43
TORSDOF 17
