REMARK  17 active torsions:
REMARK  status: ('A' for Active; 'I' for Inactive)
REMARK    1  A    between atoms: C2_2  and  N1_3 
REMARK    2  A    between atoms: N1_3  and  C3_6 
REMARK    3  A    between atoms: C3_6  and  C4_7 
REMARK    4  A    between atoms: C4_7  and  N2_8 
REMARK    5  A    between atoms: N2_8  and  C5_11 
REMARK    6  A    between atoms: C6_12  and  O1_13 
REMARK    7  A    between atoms: O1_13  and  C7_14 
REMARK    8  A    between atoms: C8_15  and  O2_16 
REMARK    9  A    between atoms: C9_18  and  C10_19 
REMARK   10  A    between atoms: C10_19  and  N3_20 
REMARK   11  A    between atoms: C11_25  and  O4_26 
REMARK   12  A    between atoms: O4_26  and  C12_27 
REMARK   13  A    between atoms: C17_35  and  O5_36 
REMARK   14  A    between atoms: C18_38  and  O6_39 
REMARK   15  A    between atoms: C19_42  and  C20_43 
REMARK   16  A    between atoms: C20_43  and  N5_44 
REMARK   17  A    between atoms: C21_48  and  O8_49 
ROOT
HETATM    1  C7  UNL     1       0.419  -1.467   1.184  1.00  0.00     0.189 C 
HETATM    2  C8  UNL     1       1.001  -1.479   2.559  1.00  0.00     0.180 C 
HETATM    3  C9  UNL     1       2.488  -1.659   2.474  1.00  0.00     0.181 C 
HETATM    4  O3  UNL     1       3.115  -0.623   1.808  1.00  0.00    -0.349 OA
HETATM    5  C11 UNL     1       2.581  -0.292   0.598  1.00  0.00     0.292 C 
HETATM    6  C18 UNL     1       1.108  -0.298   0.464  1.00  0.00     0.205 C 
ENDROOT
BRANCH   1   7
HETATM    7  O1  UNL     1      -0.941  -1.160   1.174  1.00  0.00    -0.348 OA
BRANCH   7   8
HETATM    8  C6  UNL     1      -1.695  -2.025   0.430  1.00  0.00     0.294 C 
HETATM    9  C5  UNL     1      -2.457  -1.302  -0.693  1.00  0.00     0.271 C 
HETATM   10  C21 UNL     1      -3.427  -2.413  -1.057  1.00  0.00     0.184 C 
HETATM   11  C19 UNL     1      -3.730  -2.962   0.321  1.00  0.00     0.181 C 
HETATM   12  O7  UNL     1      -2.773  -2.502   1.184  1.00  0.00    -0.349 OA
BRANCH   9  13
HETATM   13  N2  UNL     1      -3.206  -0.190  -0.154  1.00  0.00    -0.062 N 
ATOM     14  H22 UNL     1      -2.620   0.419   0.417  1.00  0.00     0.277 HD
ATOM     15  H21 UNL     1      -3.863  -0.491   0.566  1.00  0.00     0.277 HD
BRANCH  13  16
HETATM   16  C4  UNL     1      -3.860   0.533  -1.198  1.00  0.00     0.260 C 
BRANCH  16  17
HETATM   17  C3  UNL     1      -4.660   1.710  -0.686  1.00  0.00     0.259 C 
BRANCH  17  18
HETATM   18  N1  UNL     1      -3.866   2.673   0.011  1.00  0.00    -0.074 N 
ATOM     19  H12 UNL     1      -3.078   3.012  -0.541  1.00  0.00     0.277 HD
ATOM     20  H11 UNL     1      -3.328   2.265   0.775  1.00  0.00     0.277 HD
BRANCH  18  21
HETATM   21  C2  UNL     1      -4.750   3.740   0.449  1.00  0.00     0.228 C 
HETATM   22  C1  UNL     1      -5.294   4.545  -0.703  1.00  0.00     0.034 C 
ENDBRANCH  18  21
ENDBRANCH  17  18
ENDBRANCH  16  17
ENDBRANCH  13  16
ENDBRANCH   9  13
BRANCH  10  23
HETATM   23  O8  UNL     1      -2.684  -3.386  -1.741  1.00  0.00    -0.391 OA
ATOM     24  H8  UNL     1      -3.291  -4.081  -1.969  1.00  0.00     0.210 HD
ENDBRANCH  10  23
BRANCH  11  25
HETATM   25  C20 UNL     1      -3.916  -4.447   0.319  1.00  0.00     0.264 C 
BRANCH  25  26
HETATM   26  N5  UNL     1      -4.948  -4.798  -0.630  1.00  0.00    -0.077 N 
ATOM     27  H53 UNL     1      -5.820  -4.299  -0.454  1.00  0.00     0.274 HD
ATOM     28  H52 UNL     1      -4.757  -4.431  -1.562  1.00  0.00     0.274 HD
ATOM     29  H51 UNL     1      -5.075  -5.810  -0.631  1.00  0.00     0.274 HD
ENDBRANCH  25  26
ENDBRANCH  11  25
ENDBRANCH   7   8
ENDBRANCH   1   7
BRANCH   2  30
HETATM   30  O2  UNL     1       0.495  -2.439   3.413  1.00  0.00    -0.390 OA
ATOM     31  H2  UNL     1       0.865  -2.447   4.288  1.00  0.00     0.210 HD
ENDBRANCH   2  30
BRANCH   6  32
HETATM   32  O6  UNL     1       0.612   0.860   1.094  1.00  0.00    -0.388 OA
ATOM     33  H6  UNL     1       1.038   1.583   0.649  1.00  0.00     0.210 HD
ENDBRANCH   6  32
BRANCH   3  34
HETATM   34  C10 UNL     1       2.806  -2.998   1.861  1.00  0.00     0.264 C 
BRANCH  34  35
HETATM   35  N3  UNL     1       2.205  -4.126   2.503  1.00  0.00    -0.077 N 
ATOM     36  H33 UNL     1       2.442  -4.131   3.495  1.00  0.00     0.274 HD
ATOM     37  H32 UNL     1       1.195  -3.999   2.559  1.00  0.00     0.274 HD
ATOM     38  H31 UNL     1       2.420  -5.033   2.088  1.00  0.00     0.274 HD
ENDBRANCH  34  35
ENDBRANCH   3  34
BRANCH   5  39
HETATM   39  O4  UNL     1       3.048   0.972   0.238  1.00  0.00    -0.351 OA
BRANCH  39  40
HETATM   40  C12 UNL     1       3.840   0.970  -0.880  1.00  0.00     0.157 C 
HETATM   41  C13 UNL     1       3.304   1.873  -1.976  1.00  0.00     0.062 C 
HETATM   42  C14 UNL     1       3.339   3.315  -1.547  1.00  0.00     0.235 C 
HETATM   43  N4  UNL     1       4.699   3.688  -1.293  1.00  0.00    -0.069 N 
HETATM   44  C15 UNL     1       5.301   2.907  -0.246  1.00  0.00     0.212 C 
ATOM     45  H42 UNL     1       5.256   3.647  -2.147  1.00  0.00     0.277 HD
ATOM     46  H41 UNL     1       4.774   4.686  -1.095  1.00  0.00     0.277 HD
HETATM   47  C16 UNL     1       6.756   3.315  -0.135  1.00  0.00     0.043 C 
HETATM   48  C17 UNL     1       5.250   1.434  -0.495  1.00  0.00     0.177 C 
BRANCH  48  49
HETATM   49  O5  UNL     1       6.088   1.142  -1.569  1.00  0.00    -0.391 OA
ATOM     50  H5  UNL     1       6.961   1.429  -1.330  1.00  0.00     0.210 HD
ENDBRANCH  48  49
ENDBRANCH  39  40
ENDBRANCH   5  39
TORSDOF 17
