REMARK  19 active torsions:
REMARK  status: ('A' for Active; 'I' for Inactive)
REMARK    1  A    between atoms: N1_2  and  C2_5 
REMARK    2  A    between atoms: C3_6  and  O1_7 
REMARK    3  A    between atoms: C6_12  and  O3_13 
REMARK    4  A    between atoms: O3_13  and  C7_14 
REMARK    5  A    between atoms: C8_15  and  N2_16 
REMARK    6  A    between atoms: C10_21  and  C11_22 
REMARK    7  A    between atoms: C11_22  and  N3_23 
REMARK    8  A    between atoms: C12_27  and  O4_28 
REMARK    9  A    between atoms: O4_28  and  C13_29 
REMARK   10  A    between atoms: C13_29  and  C14_30 
REMARK   11  A    between atoms: C14_30  and  O5_31 
REMARK   12  A    between atoms: C14_30  and  C15_33 
REMARK   13  A    between atoms: C15_33  and  N4_34 
REMARK   14  A    between atoms: N4_34  and  C16_37 
REMARK   15  A    between atoms: C16_37  and  C18_39 
REMARK   16  A    between atoms: C18_39  and  C19_40 
REMARK   17  A    between atoms: C19_40  and  N5_41 
REMARK   18  A    between atoms: C20_45  and  N6_46 
REMARK   19  A    between atoms: C21_50  and  O6_51 
ROOT
HETATM    1  C7  UNL     1      -1.724  -0.521   0.451  1.00  0.00     0.188 C 
HETATM    2  C8  UNL     1      -2.098  -1.723   1.288  1.00  0.00     0.215 C 
HETATM    3  C9  UNL     1      -0.896  -2.229   1.991  1.00  0.00     0.044 C 
HETATM    4  C10 UNL     1       0.209  -2.610   1.028  1.00  0.00     0.044 C 
HETATM    5  C12 UNL     1       0.629  -1.433   0.188  1.00  0.00     0.160 C 
HETATM    6  C20 UNL     1      -0.520  -0.635  -0.375  1.00  0.00     0.243 C 
ENDROOT
BRANCH   5   7
HETATM    7  O4  UNL     1       1.405  -0.629   1.033  1.00  0.00    -0.381 OA
BRANCH   7   8
HETATM    8  C13 UNL     1       2.717  -0.527   0.603  1.00  0.00     0.201 C 
BRANCH   8   9
HETATM    9  C14 UNL     1       3.551   0.335   1.528  1.00  0.00     0.167 C 
BRANCH   9  10
HETATM   10  O5  UNL     1       3.554  -0.226   2.829  1.00  0.00    -0.392 OA
ATOM     11  H5  UNL     1       4.077   0.315   3.409  1.00  0.00     0.210 HD
ENDBRANCH   9  10
BRANCH   9  12
HETATM   12  C15 UNL     1       4.996   0.264   1.075  1.00  0.00     0.266 C 
BRANCH  12  13
HETATM   13  N4  UNL     1       5.202   0.798  -0.248  1.00  0.00    -0.069 N 
ATOM     14  H42 UNL     1       4.604   0.370  -0.955  1.00  0.00     0.277 HD
ATOM     15  H41 UNL     1       4.862   1.753  -0.356  1.00  0.00     0.277 HD
BRANCH  13  16
HETATM   16  C16 UNL     1       6.629   0.655  -0.533  1.00  0.00     0.183 C 
HETATM   17  C17 UNL     1       7.385   1.492   0.483  1.00  0.00     0.040 C 
BRANCH  16  18
HETATM   18  C18 UNL     1       6.931   1.124  -1.938  1.00  0.00     0.059 C 
BRANCH  18  19
HETATM   19  C19 UNL     1       6.109   0.252  -2.891  1.00  0.00     0.231 C 
BRANCH  19  20
HETATM   20  N5  UNL     1       6.498  -1.132  -2.713  1.00  0.00    -0.079 N 
ATOM     21  H53 UNL     1       7.502  -1.272  -2.826  1.00  0.00     0.274 HD
ATOM     22  H52 UNL     1       6.421  -1.436  -1.743  1.00  0.00     0.274 HD
ATOM     23  H51 UNL     1       5.950  -1.713  -3.348  1.00  0.00     0.274 HD
ENDBRANCH  19  20
ENDBRANCH  18  19
ENDBRANCH  16  18
ENDBRANCH  13  16
ENDBRANCH  12  13
ENDBRANCH   9  12
ENDBRANCH   8   9
ENDBRANCH   7   8
ENDBRANCH   5   7
BRANCH   4  24
HETATM   24  C11 UNL     1       1.376  -3.215   1.772  1.00  0.00     0.236 C 
BRANCH  24  25
HETATM   25  N3  UNL     1       0.869  -4.409   2.464  1.00  0.00    -0.079 N 
ATOM     26  H33 UNL     1       0.067  -4.215   3.064  1.00  0.00     0.274 HD
ATOM     27  H32 UNL     1       0.406  -5.069   1.839  1.00  0.00     0.274 HD
ATOM     28  H31 UNL     1       1.657  -4.818   2.966  1.00  0.00     0.274 HD
ENDBRANCH  24  25
ENDBRANCH   4  24
BRANCH   6  29
HETATM   29  N6  UNL     1       0.085   0.703  -0.597  1.00  0.00    -0.070 N 
ATOM     30  H63 UNL     1      -0.586   1.362  -0.992  1.00  0.00     0.274 HD
ATOM     31  H62 UNL     1       0.272   1.186   0.282  1.00  0.00     0.274 HD
ATOM     32  H61 UNL     1       0.924   0.624  -1.172  1.00  0.00     0.274 HD
ENDBRANCH   6  29
BRANCH   1  33
HETATM   33  O3  UNL     1      -2.884  -0.132  -0.168  1.00  0.00    -0.349 OA
BRANCH  33  34
HETATM   34  C6  UNL     1      -3.488   1.022   0.196  1.00  0.00     0.291 C 
HETATM   35  O2  UNL     1      -4.750   0.641   0.697  1.00  0.00    -0.351 OA
HETATM   36  C4  UNL     1      -5.556   1.720   0.971  1.00  0.00     0.151 C 
HETATM   37  C3  UNL     1      -5.839   2.581  -0.229  1.00  0.00     0.180 C 
HETATM   38  C5  UNL     1      -6.880   1.203   1.482  1.00  0.00     0.042 C 
HETATM   39  C2  UNL     1      -5.100   2.064  -1.412  1.00  0.00     0.249 C 
HETATM   40  C21 UNL     1      -3.635   1.905  -1.016  1.00  0.00     0.206 C 
BRANCH  37  41
HETATM   41  O1  UNL     1      -7.203   2.674  -0.498  1.00  0.00    -0.391 OA
ATOM     42  H1  UNL     1      -7.675   3.004   0.257  1.00  0.00     0.210 HD
ENDBRANCH  37  41
BRANCH  39  43
HETATM   43  N1  UNL     1      -5.584   0.834  -1.941  1.00  0.00    -0.070 N 
HETATM   44  C1  UNL     1      -6.922   0.903  -2.447  1.00  0.00     0.267 C 
ATOM     45  H12 UNL     1      -5.501   0.089  -1.249  1.00  0.00     0.277 HD
ATOM     46  H11 UNL     1      -4.949   0.477  -2.655  1.00  0.00     0.277 HD
ENDBRANCH  39  43
BRANCH  40  47
HETATM   47  O6  UNL     1      -2.977   1.420  -2.147  1.00  0.00    -0.388 OA
ATOM     48  H6  UNL     1      -2.065   1.321  -1.900  1.00  0.00     0.210 HD
ENDBRANCH  40  47
ENDBRANCH  33  34
ENDBRANCH   1  33
BRANCH   2  49
HETATM   49  N2  UNL     1      -2.825  -2.717   0.548  1.00  0.00    -0.072 N 
ATOM     50  H23 UNL     1      -3.649  -2.311   0.105  1.00  0.00     0.274 HD
ATOM     51  H22 UNL     1      -2.310  -3.000  -0.286  1.00  0.00     0.274 HD
ATOM     52  H21 UNL     1      -3.077  -3.528   1.113  1.00  0.00     0.274 HD
ENDBRANCH   2  49
TORSDOF 19
