REMARK  16 active torsions:
REMARK  status: ('A' for Active; 'I' for Inactive)
REMARK       I    between atoms: C1_4  and  N3_6 
REMARK    1  A    between atoms: N3_6  and  C2_8 
REMARK    2  A    between atoms: C2_8  and  C3_9 
REMARK    3  A    between atoms: C3_9  and  C4_10 
REMARK    4  A    between atoms: C4_10  and  S1_11 
REMARK    5  A    between atoms: S1_11  and  C5_12 
REMARK    6  A    between atoms: C5_12  and  C6_13 
REMARK    7  A    between atoms: C7_17  and  C8_18 
REMARK    8  A    between atoms: C8_18  and  N5_19 
REMARK    9  A    between atoms: N5_19  and  C9_21 
REMARK   10  A    between atoms: N6_22  and  O1_24 
REMARK   11  A    between atoms: C10_27  and  O3_28 
REMARK   12  A    between atoms: O3_28  and  C11_29 
REMARK   13  A    between atoms: C12_31  and  C13_32 
REMARK   14  A    between atoms: C13_32  and  O5_33 
REMARK   15  A    between atoms: C14_35  and  N7_36 
REMARK   16  A    between atoms: C16_41  and  N8_42 
ROOT
HETATM    1  C6  UNL     1       0.862   2.005   0.712  1.00  0.00     0.275 C 
HETATM    2  N4  UNL     1       0.545   3.197  -0.095  1.00  0.00    -0.036 N 
ATOM      3  H41 UNL     1       1.127   3.240  -0.931  1.00  0.00     0.281 HD
ATOM      4  H42 UNL     1       0.861   4.049   0.368  1.00  0.00     0.281 HD
HETATM    5  C7  UNL     1      -0.836   3.276  -0.427  1.00  0.00     0.342 C 
HETATM    6  O2  UNL     1      -1.481   2.088  -0.238  1.00  0.00    -0.321 OA
HETATM    7  C10 UNL     1      -0.819   0.973  -0.787  1.00  0.00     0.340 C 
HETATM    8  C17 UNL     1       0.520   0.779  -0.061  1.00  0.00     0.321 C 
HETATM    9  F1  UNL     1       0.300  -0.229   0.847  1.00  0.00    -0.198 F 
HETATM   10  F2  UNL     1       1.498   0.407  -0.945  1.00  0.00    -0.198 F 
ENDROOT
BRANCH   7  11
HETATM   11  O3  UNL     1      -1.566  -0.157  -0.671  1.00  0.00    -0.323 OA
BRANCH  11  12
HETATM   12  C11 UNL     1      -1.969  -0.753  -1.859  1.00  0.00     0.294 C 
HETATM   13  O4  UNL     1      -3.360  -0.560  -1.876  1.00  0.00    -0.350 OA
HETATM   14  C12 UNL     1      -4.006  -1.167  -0.821  1.00  0.00     0.178 C 
HETATM   15  C14 UNL     1      -3.642  -2.628  -0.673  1.00  0.00     0.216 C 
HETATM   16  C15 UNL     1      -2.119  -2.781  -0.546  1.00  0.00     0.073 C 
HETATM   17  C16 UNL     1      -1.593  -2.181  -1.861  1.00  0.00     0.240 C 
BRANCH  14  18
HETATM   18  C13 UNL     1      -5.498  -0.937  -0.854  1.00  0.00     0.198 C 
BRANCH  18  19
HETATM   19  O5  UNL     1      -6.059  -1.571   0.246  1.00  0.00    -0.398 OA
ATOM     20  H5  UNL     1      -6.998  -1.426   0.225  1.00  0.00     0.209 HD
ENDBRANCH  18  19
ENDBRANCH  14  18
BRANCH  15  21
HETATM   21  N7  UNL     1      -4.322  -3.293   0.392  1.00  0.00    -0.072 N 
ATOM     22  H73 UNL     1      -4.179  -2.798   1.272  1.00  0.00     0.274 HD
ATOM     23  H72 UNL     1      -5.332  -3.184   0.295  1.00  0.00     0.274 HD
ATOM     24  H71 UNL     1      -4.077  -4.278   0.492  1.00  0.00     0.274 HD
ENDBRANCH  15  21
BRANCH  17  25
HETATM   25  N8  UNL     1      -0.205  -2.441  -2.030  1.00  0.00    -0.070 N 
ATOM     26  H83 UNL     1       0.137  -1.987  -2.877  1.00  0.00     0.274 HD
ATOM     27  H82 UNL     1       0.335  -1.937  -1.327  1.00  0.00     0.274 HD
ATOM     28  H81 UNL     1       0.055  -3.427  -2.031  1.00  0.00     0.274 HD
ENDBRANCH  17  25
ENDBRANCH  11  12
ENDBRANCH   7  11
BRANCH   5  29
HETATM   29  C8  UNL     1      -1.494   4.290   0.519  1.00  0.00     0.181 C 
BRANCH  29  30
HETATM   30  N5  UNL     1      -2.898   4.433   0.226  1.00  0.00    -0.381 N 
ATOM     31  H5  UNL     1      -3.327   3.894  -0.526  1.00  0.00     0.160 HD
BRANCH  30  32
HETATM   32  C9  UNL     1      -3.670   5.328   0.994  1.00  0.00     0.199 C 
HETATM   33  N6  UNL     1      -3.648   6.621   0.795  1.00  0.00    -0.265 N 
ATOM     34  H6  UNL     1      -4.222   7.236   1.371  1.00  0.00     0.194 HD
BRANCH  33  35
HETATM   35  O1  UNL     1      -2.843   7.154  -0.201  1.00  0.00    -0.289 OA
ATOM     36  H1  UNL     1      -2.827   8.093  -0.345  1.00  0.00     0.244 HD
ENDBRANCH  33  35
ENDBRANCH  30  32
ENDBRANCH  29  30
ENDBRANCH   5  29
BRANCH   1  37
HETATM   37  C5  UNL     1       2.215   2.108   1.279  1.00  0.00     0.113 C 
BRANCH  37  38
HETATM   38  S1  UNL     1       2.916   0.877   2.292  1.00  0.00    -0.167 SA
BRANCH  38  39
HETATM   39  C4  UNL     1       3.549  -0.595   1.540  1.00  0.00     0.075 C 
BRANCH  39  40
HETATM   40  C3  UNL     1       4.740  -0.197   0.658  1.00  0.00     0.030 C 
BRANCH  40  41
HETATM   41  C2  UNL     1       5.358  -1.371  -0.033  1.00  0.00     0.123 C 
BRANCH  41  42
HETATM   42  N3  UNL     1       5.851  -2.353   0.907  1.00  0.00    -0.365 N 
HETATM   43  C1  UNL     1       6.475  -3.546   0.449  1.00  0.00     0.181 C 
HETATM   44  N1  UNL     1       7.630  -3.447  -0.145  1.00  0.00    -0.374 N 
HETATM   45  N2  UNL     1       5.850  -4.788   0.639  1.00  0.00    -0.064 NA
ATOM     46  H12 UNL     1       8.078  -4.303  -0.473  1.00  0.00     0.158 HD
ATOM     47  H11 UNL     1       8.084  -2.544  -0.283  1.00  0.00     0.158 HD
ATOM     48  H3  UNL     1       5.750  -2.188   1.909  1.00  0.00     0.162 HD
ENDBRANCH  41  42
ENDBRANCH  40  41
ENDBRANCH  39  40
ENDBRANCH  38  39
ENDBRANCH  37  38
ENDBRANCH   1  37
TORSDOF 16
