REMARK  17 active torsions:
REMARK  status: ('A' for Active; 'I' for Inactive)
REMARK    1  A    between atoms: C2_2  and  O1_3 
REMARK    2  A    between atoms: O1_3  and  N1_4 
REMARK    3  A    between atoms: N1_4  and  C3_5 
REMARK    4  A    between atoms: C3_5  and  C4_6 
REMARK    5  A    between atoms: C4_6  and  C5_7 
REMARK    6  A    between atoms: C5_7  and  C6_8 
REMARK    7  A    between atoms: C5_7  and  N2_10 
REMARK    8  A    between atoms: N2_10  and  C7_12 
REMARK    9  A    between atoms: C8_15  and  S1_16 
REMARK   10  A    between atoms: S1_16  and  C9_17 
REMARK   11  A    between atoms: C9_17  and  C10_18 
REMARK   12  A    between atoms: C13_24  and  N4_25 
REMARK   13  A    between atoms: C14_29  and  O4_30 
REMARK   14  A    between atoms: C15_32  and  O5_33 
REMARK   15  A    between atoms: C16_35  and  O6_36 
REMARK   16  A    between atoms: C17_38  and  O7_39 
REMARK   17  A    between atoms: C18_41  and  O8_42 
ROOT
HETATM    1  C7  UNL     1       0.940  -1.830   0.052  1.00  0.00     0.205 C 
HETATM    2  N3  UNL     1      -0.223  -1.628  -0.769  1.00  0.00    -0.384 N 
ATOM      3  H3  UNL     1      -0.248  -1.892  -1.754  1.00  0.00     0.156 HD
HETATM    4  C8  UNL     1      -1.347  -1.028  -0.105  1.00  0.00     0.173 C 
HETATM    5  C16 UNL     1      -1.622  -1.753   1.144  1.00  0.00     0.182 C 
HETATM    6  C17 UNL     1      -0.495  -1.338   2.100  1.00  0.00     0.182 C 
HETATM    7  C18 UNL     1       0.807  -1.607   1.483  1.00  0.00     0.191 C 
ENDROOT
BRANCH   4   8
HETATM    8  S1  UNL     1      -2.601  -0.755  -1.301  1.00  0.00    -0.117 SA
BRANCH   8   9
HETATM    9  C9  UNL     1      -4.228  -0.281  -0.835  1.00  0.00     0.129 C 
HETATM   10  C11 UNL     1      -4.922   0.356  -2.036  1.00  0.00     0.074 C 
HETATM   11  C12 UNL     1      -6.158   1.049  -1.506  1.00  0.00     0.205 C 
HETATM   12  F2  UNL     1      -7.028   1.305  -2.529  1.00  0.00    -0.247 F 
HETATM   13  C13 UNL     1      -5.676   2.343  -0.875  1.00  0.00     0.248 C 
HETATM   14  C14 UNL     1      -4.476   2.104  -0.000  1.00  0.00     0.182 C 
HETATM   15  C15 UNL     1      -4.248   0.684   0.345  1.00  0.00     0.178 C 
BRANCH   9  16
HETATM   16  C10 UNL     1      -5.017  -1.446  -0.421  1.00  0.00     0.195 C 
HETATM   17  O2  UNL     1      -5.977  -1.805  -1.202  1.00  0.00    -0.647 OA
HETATM   18  O3  UNL     1      -4.887  -2.231   0.695  1.00  0.00    -0.647 OA
ENDBRANCH   9  16
BRANCH  13  19
HETATM   19  N4  UNL     1      -6.781   2.954  -0.165  1.00  0.00    -0.070 N 
ATOM     20  H43 UNL     1      -7.599   3.091  -0.759  1.00  0.00     0.274 HD
ATOM     21  H42 UNL     1      -7.205   2.323   0.515  1.00  0.00     0.274 HD
ATOM     22  H41 UNL     1      -6.457   3.823   0.259  1.00  0.00     0.274 HD
ENDBRANCH  13  19
BRANCH  14  23
HETATM   23  O4  UNL     1      -3.342   2.715  -0.531  1.00  0.00    -0.391 OA
ATOM     24  H4  UNL     1      -2.584   2.564   0.022  1.00  0.00     0.210 HD
ENDBRANCH  14  23
BRANCH  15  25
HETATM   25  O5  UNL     1      -5.115   0.265   1.343  1.00  0.00    -0.391 OA
ATOM     26  H5  UNL     1      -5.127   0.866   2.078  1.00  0.00     0.210 HD
ENDBRANCH  15  25
ENDBRANCH   8   9
ENDBRANCH   4   8
BRANCH   5  27
HETATM   27  O6  UNL     1      -1.637  -3.117   0.955  1.00  0.00    -0.390 OA
ATOM     28  H6  UNL     1      -1.815  -3.585   1.762  1.00  0.00     0.210 HD
ENDBRANCH   5  27
BRANCH   1  29
HETATM   29  N2  UNL     1       1.959  -1.089  -0.655  1.00  0.00    -0.393 N 
ATOM     30  H2  UNL     1       1.717  -0.454  -1.416  1.00  0.00     0.155 HD
BRANCH  29  31
HETATM   31  C5  UNL     1       3.318  -1.276  -0.252  1.00  0.00     0.108 C 
BRANCH  31  32
HETATM   32  C4  UNL     1       3.867   0.111   0.026  1.00  0.00     0.045 C 
BRANCH  32  33
HETATM   33  C3  UNL     1       5.329   0.170   0.299  1.00  0.00     0.144 C 
BRANCH  33  34
HETATM   34  N1  UNL     1       5.631   1.600   0.525  1.00  0.00    -0.101 NA
BRANCH  34  35
HETATM   35  O1  UNL     1       6.967   1.752   0.737  1.00  0.00    -0.287 OA
BRANCH  35  36
HETATM   36  C2  UNL     1       7.564   2.423  -0.341  1.00  0.00     0.191 C 
HETATM   37  C1  UNL     1       9.040   2.576  -0.075  1.00  0.00     0.035 C 
ENDBRANCH  35  36
ENDBRANCH  34  35
ENDBRANCH  33  34
ENDBRANCH  32  33
ENDBRANCH  31  32
BRANCH  31  38
HETATM   38  C6  UNL     1       4.062  -1.843  -1.458  1.00  0.00     0.246 C 
HETATM   39  F1  UNL     1       3.597  -3.109  -1.758  1.00  0.00    -0.253 F 
ENDBRANCH  31  38
ENDBRANCH  29  31
ENDBRANCH   1  29
BRANCH   6  40
HETATM   40  O7  UNL     1      -0.710  -1.968   3.315  1.00  0.00    -0.390 OA
ATOM     41  H7  UNL     1      -0.013  -1.711   3.907  1.00  0.00     0.210 HD
ENDBRANCH   6  40
BRANCH   7  42
HETATM   42  O8  UNL     1       1.343  -2.708   2.223  1.00  0.00    -0.389 OA
ATOM     43  H8  UNL     1       1.256  -2.562   3.158  1.00  0.00     0.210 HD
ENDBRANCH   7  42
TORSDOF 17
