REMARK  18 active torsions:
REMARK  status: ('A' for Active; 'I' for Inactive)
REMARK    1  A    between atoms: C2_2  and  N1_3 
REMARK    2  A    between atoms: N1_3  and  C3_5 
REMARK    3  A    between atoms: C3_5  and  C4_6 
REMARK    4  A    between atoms: C4_6  and  O1_7 
REMARK    5  A    between atoms: C4_6  and  C5_9 
REMARK    6  A    between atoms: C5_9  and  C6_10 
REMARK    7  A    between atoms: C5_9  and  O2_21 
REMARK    8  A    between atoms: C6_10  and  N2_11 
REMARK    9  A    between atoms: N2_11  and  C7_14 
REMARK   10  A    between atoms: C7_14  and  C9_16 
REMARK   11  A    between atoms: C9_16  and  N3_17 
REMARK   12  A    between atoms: O2_21  and  C10_22 
REMARK   13  A    between atoms: C11_24  and  O4_25 
REMARK   14  A    between atoms: O4_25  and  C12_26 
REMARK   15  A    between atoms: C14_28  and  N4_29 
REMARK   16  A    between atoms: C17_37  and  O5_38 
REMARK   17  A    between atoms: C18_40  and  N5_41 
REMARK   18  A    between atoms: C20_46  and  N6_47 
ROOT
HETATM    1  C10 UNL     1      -0.306  -0.083   0.597  1.00  0.00     0.293 C 
HETATM    2  O3  UNL     1      -1.070   0.872  -0.014  1.00  0.00    -0.327 OA
HETATM    3  C11 UNL     1      -2.373   0.882   0.487  1.00  0.00     0.293 C 
HETATM    4  C18 UNL     1      -2.274   1.565   1.833  1.00  0.00     0.240 C 
HETATM    5  C19 UNL     1      -1.410   0.712   2.717  1.00  0.00     0.075 C 
HETATM    6  C20 UNL     1      -0.639  -0.350   2.033  1.00  0.00     0.240 C 
ENDROOT
BRANCH   1   7
HETATM    7  O2  UNL     1       1.066   0.213   0.436  1.00  0.00    -0.349 OA
BRANCH   7   8
HETATM    8  C5  UNL     1       1.756  -0.702  -0.306  1.00  0.00     0.180 C 
BRANCH   8   9
HETATM    9  C4  UNL     1       2.323  -0.206  -1.602  1.00  0.00     0.166 C 
BRANCH   9  10
HETATM   10  C3  UNL     1       3.084   1.069  -1.539  1.00  0.00     0.148 C 
BRANCH  10  11
HETATM   11  N1  UNL     1       3.358   1.606  -2.826  1.00  0.00    -0.419 N 
ATOM     12  H1  UNL     1       2.888   2.458  -3.131  1.00  0.00     0.153 HD
BRANCH  11  13
HETATM   13  C2  UNL     1       4.274   0.967  -3.680  1.00  0.00     0.109 C 
HETATM   14  C1  UNL     1       5.682   1.074  -3.072  1.00  0.00     0.026 C 
ENDBRANCH  11  13
ENDBRANCH  10  11
ENDBRANCH   9  10
BRANCH   9  15
HETATM   15  O1  UNL     1       3.017  -1.193  -2.243  1.00  0.00    -0.391 OA
ATOM     16  H1  UNL     1       2.531  -2.008  -2.283  1.00  0.00     0.210 HD
ENDBRANCH   9  15
ENDBRANCH   8   9
BRANCH   8  17
HETATM   17  C6  UNL     1       2.804  -1.483   0.447  1.00  0.00     0.267 C 
BRANCH  17  18
HETATM   18  N2  UNL     1       3.761  -0.603   1.011  1.00  0.00    -0.067 N 
ATOM     19  H22 UNL     1       4.157   0.000   0.290  1.00  0.00     0.277 HD
ATOM     20  H21 UNL     1       3.300   0.097   1.592  1.00  0.00     0.277 HD
BRANCH  18  21
HETATM   21  C7  UNL     1       4.811  -1.256   1.750  1.00  0.00     0.207 C 
HETATM   22  C8  UNL     1       4.307  -2.019   2.950  1.00  0.00     0.041 C 
BRANCH  21  23
HETATM   23  C9  UNL     1       5.746  -0.169   2.269  1.00  0.00     0.262 C 
BRANCH  23  24
HETATM   24  N3  UNL     1       5.057   0.756   3.131  1.00  0.00    -0.077 N 
ATOM     25  H33 UNL     1       4.240   1.156   2.670  1.00  0.00     0.274 HD
ATOM     26  H32 UNL     1       4.587   0.273   3.896  1.00  0.00     0.274 HD
ATOM     27  H31 UNL     1       5.682   1.483   3.478  1.00  0.00     0.274 HD
ENDBRANCH  23  24
ENDBRANCH  21  23
ENDBRANCH  18  21
ENDBRANCH  17  18
ENDBRANCH   8  17
ENDBRANCH   7   8
ENDBRANCH   1   7
BRANCH   6  28
HETATM   28  N6  UNL     1      -1.244  -1.676   2.232  1.00  0.00    -0.070 N 
ATOM     29  H63 UNL     1      -2.062  -1.800   1.636  1.00  0.00     0.274 HD
ATOM     30  H62 UNL     1      -0.650  -2.412   1.849  1.00  0.00     0.274 HD
ATOM     31  H61 UNL     1      -1.471  -1.858   3.210  1.00  0.00     0.274 HD
ENDBRANCH   6  28
BRANCH   3  32
HETATM   32  O4  UNL     1      -3.265   1.487  -0.381  1.00  0.00    -0.351 OA
BRANCH  32  33
HETATM   33  C12 UNL     1      -4.277   0.646  -0.805  1.00  0.00     0.161 C 
HETATM   34  C13 UNL     1      -5.663   1.135  -0.579  1.00  0.00     0.067 C 
HETATM   35  C14 UNL     1      -6.646  -0.001  -0.886  1.00  0.00     0.191 C 
HETATM   36  C15 UNL     1      -6.003  -1.042  -1.764  1.00  0.00     0.114 C 
HETATM   37  C16 UNL     1      -5.165  -0.432  -2.854  1.00  0.00     0.273 C 
HETATM   38  F1  UNL     1      -6.033   0.244  -3.707  1.00  0.00    -0.203 F 
HETATM   39  F2  UNL     1      -4.614  -1.479  -3.574  1.00  0.00    -0.203 F 
HETATM   40  C17 UNL     1      -4.104   0.461  -2.297  1.00  0.00     0.219 C 
BRANCH  35  41
HETATM   41  N4  UNL     1      -6.988  -0.623   0.375  1.00  0.00    -0.075 N 
ATOM     42  H43 UNL     1      -6.172  -0.933   0.902  1.00  0.00     0.274 HD
ATOM     43  H42 UNL     1      -7.345   0.039   1.063  1.00  0.00     0.274 HD
ATOM     44  H41 UNL     1      -7.642  -1.379   0.171  1.00  0.00     0.274 HD
ENDBRANCH  35  41
BRANCH  40  45
HETATM   45  O5  UNL     1      -2.817   0.057  -2.627  1.00  0.00    -0.387 OA
ATOM     46  H5  UNL     1      -2.708  -0.059  -3.564  1.00  0.00     0.210 HD
ENDBRANCH  40  45
ENDBRANCH  32  33
ENDBRANCH   3  32
BRANCH   4  47
HETATM   47  N5  UNL     1      -3.531   1.875   2.433  1.00  0.00    -0.070 N 
ATOM     48  H53 UNL     1      -4.102   2.429   1.795  1.00  0.00     0.274 HD
ATOM     49  H52 UNL     1      -4.108   1.037   2.502  1.00  0.00     0.274 HD
ATOM     50  H51 UNL     1      -3.464   2.336   3.341  1.00  0.00     0.274 HD
ENDBRANCH   4  47
TORSDOF 18
