REMARK  16 active torsions:
REMARK  status: ('A' for Active; 'I' for Inactive)
REMARK    1  A    between atoms: N1_2  and  C2_5 
REMARK    2  A    between atoms: C2_5  and  C3_6 
REMARK    3  A    between atoms: N2_9  and  O1_11 
REMARK    4  A    between atoms: C6_13  and  O2_14 
REMARK    5  A    between atoms: C7_16  and  O3_17 
REMARK    6  A    between atoms: C8_19  and  O4_20 
REMARK    7  A    between atoms: O4_20  and  C9_21 
REMARK    8  A    between atoms: C10_23  and  C11_24 
REMARK    9  A    between atoms: C11_24  and  O6_25 
REMARK   10  A    between atoms: C12_27  and  O7_28 
REMARK   11  A    between atoms: C13_30  and  N3_31 
REMARK   12  A    between atoms: C14_33  and  C15_34 
REMARK   13  A    between atoms: C14_33  and  C18_40 
REMARK   14  A    between atoms: C15_34  and  C16_35 
REMARK   15  A    between atoms: C16_35  and  N4_36 
REMARK   16  A    between atoms: N4_36  and  C17_38 
ROOT
HETATM    1  C9  UNL     1      -0.607  -0.525   0.020  1.00  0.00     0.415 C 
HETATM    2  O5  UNL     1      -0.545  -1.645   0.864  1.00  0.00    -0.329 OA
HETATM    3  C10 UNL     1       0.789  -2.056   0.958  1.00  0.00     0.183 C 
HETATM    4  C12 UNL     1       1.544  -0.744   1.315  1.00  0.00     0.198 C 
HETATM    5  C13 UNL     1       1.540   0.172   0.143  1.00  0.00     0.258 C 
HETATM    6  O9  UNL     1       0.526  -0.380  -0.733  1.00  0.00    -0.311 OA
ENDROOT
BRANCH   1   7
HETATM    7  O4  UNL     1      -1.746  -0.742  -0.775  1.00  0.00    -0.330 OA
BRANCH   7   8
HETATM    8  C8  UNL     1      -2.647   0.277  -0.521  1.00  0.00     0.164 C 
HETATM    9  C3  UNL     1      -3.899  -0.346   0.048  1.00  0.00     0.048 C 
HETATM   10  C4  UNL     1      -5.038   0.608   0.180  1.00  0.00     0.066 C 
HETATM   11  C5  UNL     1      -4.555   1.955  -0.281  1.00  0.00     0.041 C 
HETATM   12  N2  UNL     1      -4.605   2.971   0.498  1.00  0.00    -0.275 N 
HETATM   13  C6  UNL     1      -4.028   2.024  -1.669  1.00  0.00     0.196 C 
ATOM     14  H2  UNL     1      -4.974   2.878   1.444  1.00  0.00     0.193 HD
HETATM   15  C7  UNL     1      -2.898   1.028  -1.794  1.00  0.00     0.182 C 
BRANCH   9  16
HETATM   16  C2  UNL     1      -4.340  -1.559  -0.704  1.00  0.00     0.239 C 
BRANCH  16  17
HETATM   17  N1  UNL     1      -5.429  -2.184   0.043  1.00  0.00    -0.079 N 
HETATM   18  C1  UNL     1      -4.960  -2.747   1.293  1.00  0.00     0.267 C 
ATOM     19  H12 UNL     1      -5.917  -2.880  -0.520  1.00  0.00     0.276 HD
ATOM     20  H11 UNL     1      -6.200  -1.534   0.193  1.00  0.00     0.276 HD
ENDBRANCH  16  17
ENDBRANCH   9  16
BRANCH  12  21
HETATM   21  O1  UNL     1      -4.157   4.183   0.046  1.00  0.00    -0.290 OA
ATOM     22  H1  UNL     1      -4.194   4.936   0.624  1.00  0.00     0.244 HD
ENDBRANCH  12  21
BRANCH  13  23
HETATM   23  O2  UNL     1      -5.071   1.613  -2.520  1.00  0.00    -0.387 OA
ATOM     24  H2  UNL     1      -4.734   1.657  -3.407  1.00  0.00     0.210 HD
ENDBRANCH  13  23
BRANCH  15  25
HETATM   25  O3  UNL     1      -3.104   0.134  -2.827  1.00  0.00    -0.390 OA
ATOM     26  H3  UNL     1      -2.394  -0.492  -2.906  1.00  0.00     0.210 HD
ENDBRANCH  15  25
ENDBRANCH   7   8
ENDBRANCH   1   7
BRANCH   3  27
HETATM   27  C11 UNL     1       0.908  -2.965   2.148  1.00  0.00     0.199 C 
BRANCH  27  28
HETATM   28  O6  UNL     1       2.193  -3.437   2.338  1.00  0.00    -0.398 OA
ATOM     29  H6  UNL     1       2.268  -4.012   3.091  1.00  0.00     0.209 HD
ENDBRANCH  27  28
ENDBRANCH   3  27
BRANCH   5  30
HETATM   30  N3  UNL     1       2.670   0.481  -0.553  1.00  0.00    -0.366 N 
HETATM   31  C14 UNL     1       3.816   1.160  -0.295  1.00  0.00     0.019 C 
ATOM     32  H3  UNL     1       2.649   0.110  -1.503  1.00  0.00     0.161 HD
BRANCH  31  33
HETATM   33  C15 UNL     1       4.755   1.289  -1.503  1.00  0.00     0.075 C 
BRANCH  33  34
HETATM   34  C16 UNL     1       5.240   0.050  -2.110  1.00  0.00     0.128 C 
BRANCH  34  35
HETATM   35  N4  UNL     1       6.133  -0.801  -1.398  1.00  0.00    -0.368 N 
ATOM     36  H4  UNL     1       5.825  -1.737  -1.135  1.00  0.00     0.161 HD
BRANCH  35  37
HETATM   37  C17 UNL     1       7.466  -0.371  -1.038  1.00  0.00     0.348 C 
HETATM   38  O8  UNL     1       7.849   0.779  -1.359  1.00  0.00    -0.284 OA
ENDBRANCH  35  37
ENDBRANCH  34  35
ENDBRANCH  33  34
ENDBRANCH  31  33
BRANCH  31  39
HETATM   39  C18 UNL     1       4.572   1.154   0.966  1.00  0.00     0.211 C 
HETATM   40  C19 UNL     1       3.803   1.721   2.145  1.00  0.00     0.051 C 
HETATM   41  F1  UNL     1       5.056  -0.070   1.384  1.00  0.00    -0.244 F 
ENDBRANCH  31  39
ENDBRANCH   5  30
BRANCH   4  42
HETATM   42  O7  UNL     1       0.789  -0.152   2.358  1.00  0.00    -0.389 OA
ATOM     43  H7  UNL     1       1.250   0.649   2.576  1.00  0.00     0.210 HD
ENDBRANCH   4  42
TORSDOF 16
