REMARK  8 active torsions:
REMARK  status: ('A' for Active; 'I' for Inactive)
REMARK    1  A    between atoms: N1_1  and  C1_5 
REMARK    2  A    between atoms: C2_6  and  N2_7 
REMARK    3  A    between atoms: N2_7  and  C3_9 
REMARK    4  A    between atoms: C4_11  and  O2_12 
REMARK    5  A    between atoms: C5_14  and  O3_15 
REMARK    6  A    between atoms: C7_19  and  N3_20 
REMARK    7  A    between atoms: N3_20  and  C8_22 
REMARK    8  A    between atoms: C8_22  and  C9_23 
ROOT
HETATM    1  C1  UNL     1      -0.782  -1.007   0.323  1.00  0.00     0.233 C 
HETATM    2  C2  UNL     1      -2.219  -0.899  -0.128  1.00  0.00     0.147 C 
HETATM    3  C4  UNL     1      -2.791   0.374   0.418  1.00  0.00     0.174 C 
HETATM    4  C5  UNL     1      -2.026   0.970   1.538  1.00  0.00     0.184 C 
HETATM    5  C6  UNL     1      -0.566   1.212   1.258  1.00  0.00     0.226 C 
HETATM    6  F1  UNL     1       0.075   1.022   2.454  1.00  0.00    -0.244 F 
HETATM    7  C7  UNL     1      -0.108   0.362   0.137  1.00  0.00     0.150 C 
ENDROOT
BRANCH   7   8
HETATM    8  N3  UNL     1       1.223   0.180  -0.131  1.00  0.00    -0.388 N 
ATOM      9  H3  UNL     1       1.560   0.502  -1.038  1.00  0.00     0.159 HD
BRANCH   8  10
HETATM   10  C8  UNL     1       2.151  -0.398   0.710  1.00  0.00     0.095 C 
BRANCH  10  11
HETATM   11  C9  UNL     1       3.497  -0.399  -0.015  1.00  0.00    -0.014 A 
HETATM   12  C10 UNL     1       4.302   0.692   0.031  1.00  0.00     0.020 A 
HETATM   13  C11 UNL     1       5.492   0.617  -0.642  1.00  0.00     0.050 A 
HETATM   14  S1  UNL     1       5.465  -0.947  -1.313  1.00  0.00    -0.113 SA
HETATM   15  C12 UNL     1       3.956  -1.471  -0.732  1.00  0.00     0.062 A 
ENDBRANCH  10  11
ENDBRANCH   8  10
ENDBRANCH   7   8
BRANCH   1  16
HETATM   16  N1  UNL     1      -0.062  -2.045  -0.374  1.00  0.00    -0.071 N 
ATOM     17  H13 UNL     1      -0.541  -2.942  -0.293  1.00  0.00     0.274 HD
ATOM     18  H12 UNL     1      -0.121  -1.918  -1.384  1.00  0.00     0.274 HD
ATOM     19  H11 UNL     1       0.909  -2.118  -0.069  1.00  0.00     0.274 HD
ENDBRANCH   1  16
BRANCH   2  20
HETATM   20  N2  UNL     1      -2.306  -0.829  -1.586  1.00  0.00    -0.359 N 
ATOM     21  H2  UNL     1      -1.890  -0.044  -2.088  1.00  0.00     0.162 HD
BRANCH  20  22
HETATM   22  C3  UNL     1      -2.969  -1.855  -2.296  1.00  0.00     0.348 C 
HETATM   23  O1  UNL     1      -3.499  -2.846  -1.739  1.00  0.00    -0.284 OA
ENDBRANCH  20  22
ENDBRANCH   2  20
BRANCH   4  24
HETATM   24  O3  UNL     1      -2.630   2.197   1.861  1.00  0.00    -0.390 OA
ATOM     25  H3  UNL     1      -2.139   2.579   2.579  1.00  0.00     0.210 HD
ENDBRANCH   4  24
BRANCH   3  26
HETATM   26  O2  UNL     1      -3.026   1.336  -0.562  1.00  0.00    -0.391 OA
ATOM     27  H2  UNL     1      -3.389   2.143  -0.216  1.00  0.00     0.210 HD
ENDBRANCH   3  26
TORSDOF 8
