REMARK  7 active torsions:
REMARK  status: ('A' for Active; 'I' for Inactive)
REMARK    1  A    between atoms: C1_4  and  C2_5 
REMARK    2  A    between atoms: C1_4  and  N4_19 
REMARK    3  A    between atoms: C2_5  and  N2_6 
REMARK    4  A    between atoms: N2_6  and  C3_8 
REMARK    5  A    between atoms: C3_8  and  C4_9 
REMARK    6  A    between atoms: C4_9  and  O1_10 
REMARK    7  A    between atoms: C4_9  and  C5_12 
REMARK       I    between atoms: N4_19  and  C8_21 
REMARK       I    between atoms: C8_21  and  N5_22 
REMARK       I    between atoms: C8_21  and  N6_26 
ROOT
HETATM    1  N1  UNL     1       1.834  -1.648   2.027  1.00  0.00    -0.388 N 
ATOM      2  H11 UNL     1       2.354  -1.025   2.645  1.00  0.00     0.157 HD
ATOM      3  H12 UNL     1       1.573  -2.601   2.280  1.00  0.00     0.157 HD
HETATM    4  C1  UNL     1       1.497  -1.172   0.849  1.00  0.00     0.091 C 
ENDROOT
BRANCH   4   5
HETATM    5  C2  UNL     1       0.743  -2.075  -0.046  1.00  0.00     0.190 C 
BRANCH   5   6
HETATM    6  N2  UNL     1      -0.595  -1.678  -0.346  1.00  0.00    -0.412 N 
ATOM      7  H2  UNL     1      -1.395  -2.194   0.019  1.00  0.00     0.153 HD
BRANCH   6   8
HETATM    8  C3  UNL     1      -0.768  -0.538  -1.172  1.00  0.00     0.154 C 
BRANCH   8   9
HETATM    9  C4  UNL     1      -2.211  -0.165  -1.442  1.00  0.00     0.210 C 
BRANCH   9  10
HETATM   10  O1  UNL     1      -2.123   0.965  -2.305  1.00  0.00    -0.386 OA
ATOM     11  H1  UNL     1      -3.028   1.199  -2.474  1.00  0.00     0.210 HD
ENDBRANCH   9  10
BRANCH   9  12
HETATM   12  C5  UNL     1      -2.938   0.303  -0.249  1.00  0.00     0.155 A 
HETATM   13  N3  UNL     1      -2.681   0.120   1.051  1.00  0.00    -0.345 N 
HETATM   14  C6  UNL     1      -3.625   0.736   1.784  1.00  0.00     0.135 A 
ATOM     15  H3  UNL     1      -1.892  -0.405   1.428  1.00  0.00     0.167 HD
HETATM   16  C7  UNL     1      -4.482   1.310   0.872  1.00  0.00     0.139 A 
HETATM   17 BR1  UNL     1      -6.055   2.344   1.250  1.00  0.00    -0.021 Br
HETATM   18  O2  UNL     1      -4.027   1.021  -0.313  1.00  0.00    -0.286 OA
ENDBRANCH   9  12
ENDBRANCH   8   9
ENDBRANCH   6   8
ENDBRANCH   5   6
ENDBRANCH   4   5
BRANCH   4  19
HETATM   19  N4  UNL     1       1.856   0.138   0.501  1.00  0.00    -0.330 N 
HETATM   20  C8  UNL     1       2.900   0.512  -0.409  1.00  0.00     0.481 C 
HETATM   21  N5  UNL     1       2.976   1.967  -0.508  1.00  0.00    -0.033 N 
HETATM   22  N6  UNL     1       4.204   0.020   0.055  1.00  0.00    -0.033 N 
ATOM     23  H53 UNL     1       2.079   2.381  -0.763  1.00  0.00     0.278 HD
ATOM     24  H52 UNL     1       3.088   2.407   0.405  1.00  0.00     0.278 HD
ATOM     25  H51 UNL     1       3.718   2.233  -1.155  1.00  0.00     0.278 HD
ATOM     26  H63 UNL     1       4.406   0.328   1.006  1.00  0.00     0.278 HD
ATOM     27  H62 UNL     1       4.190  -0.987   0.218  1.00  0.00     0.278 HD
ATOM     28  H61 UNL     1       4.946   0.286  -0.592  1.00  0.00     0.278 HD
ATOM     29  H4  UNL     1       1.326   0.894   0.935  1.00  0.00     0.164 HD
ENDBRANCH   4  19
TORSDOF 7
