REMARK  12 active torsions:
REMARK  status: ('A' for Active; 'I' for Inactive)
REMARK    1  A    between atoms: N1_1  and  C1_4 
REMARK    2  A    between atoms: C1_4  and  C2_5 
REMARK    3  A    between atoms: C2_5  and  C3_6 
REMARK    4  A    between atoms: C3_6  and  O1_7 
REMARK    5  A    between atoms: C3_6  and  C4_9 
REMARK    6  A    between atoms: C4_9  and  O2_10 
REMARK    7  A    between atoms: C4_9  and  C5_12 
REMARK    8  A    between atoms: C6_13  and  O3_14 
REMARK    9  A    between atoms: C7_16  and  C8_17 
REMARK   10  A    between atoms: C8_17  and  O4_18 
REMARK   11  A    between atoms: N2_20  and  C9_21 
REMARK   12  A    between atoms: C9_21  and  C10_22 
ROOT
HETATM    1  C5  UNL     1       1.347   0.441  -0.129  1.00  0.00     0.285 C 
HETATM    2  C6  UNL     1       1.161   1.885  -0.623  1.00  0.00     0.189 C 
HETATM    3  C7  UNL     1      -0.166   1.730   0.078  1.00  0.00     0.278 C 
HETATM    4  N2  UNL     1      -0.075   0.317  -0.223  1.00  0.00     0.112 N 
ENDROOT
BRANCH   1   5
HETATM    5  C4  UNL     1       2.220  -0.291  -1.067  1.00  0.00     0.183 C 
BRANCH   5   6
HETATM    6  C3  UNL     1       2.152  -1.769  -1.083  1.00  0.00     0.161 C 
BRANCH   6   7
HETATM    7  C2  UNL     1       2.633  -2.409   0.164  1.00  0.00     0.138 C 
BRANCH   7   8
HETATM    8  C1  UNL     1       3.924  -2.327   0.435  1.00  0.00    -0.075 C 
BRANCH   8   9
HETATM    9  N1  UNL     1       5.116  -2.092   0.821  1.00  0.00    -0.370 N 
ATOM     10  H12 UNL     1       4.737  -1.343   1.400  1.00  0.00     0.165 HD
ATOM     11  H11 UNL     1       6.112  -2.029   1.030  1.00  0.00     0.165 HD
ENDBRANCH   8   9
ENDBRANCH   7   8
ENDBRANCH   6   7
BRANCH   6  12
HETATM   12  O1  UNL     1       2.996  -2.249  -2.108  1.00  0.00    -0.392 OA
ATOM     13  H1  UNL     1       2.688  -1.839  -2.907  1.00  0.00     0.210 HD
ENDBRANCH   6  12
ENDBRANCH   5   6
BRANCH   5  14
HETATM   14  O2  UNL     1       3.569   0.037  -0.779  1.00  0.00    -0.391 OA
ATOM     15  H2  UNL     1       3.613   0.986  -0.769  1.00  0.00     0.210 HD
ENDBRANCH   5  14
ENDBRANCH   1   5
BRANCH   2  16
HETATM   16  O3  UNL     1       2.042   2.785  -0.063  1.00  0.00    -0.391 OA
ATOM     17  H3  UNL     1       1.927   3.677  -0.368  1.00  0.00     0.210 HD
ENDBRANCH   2  16
BRANCH   4  18
HETATM   18  C9  UNL     1      -0.663  -0.560   0.731  1.00  0.00     0.312 C 
BRANCH  18  19
HETATM   19  C10 UNL     1      -2.141  -0.632   0.624  1.00  0.00    -0.030 A 
HETATM   20  C11 UNL     1      -2.749  -0.996  -0.553  1.00  0.00     0.009 A 
HETATM   21  C12 UNL     1      -4.120  -1.081  -0.686  1.00  0.00     0.001 A 
HETATM   22  C13 UNL     1      -4.917  -0.796   0.379  1.00  0.00     0.000 A 
HETATM   23  C14 UNL     1      -4.353  -0.426   1.579  1.00  0.00     0.001 A 
HETATM   24  C15 UNL     1      -2.959  -0.346   1.695  1.00  0.00     0.009 A 
ENDBRANCH  18  19
ENDBRANCH   4  18
BRANCH   3  25
HETATM   25  C8  UNL     1      -1.307   2.482  -0.552  1.00  0.00     0.202 C 
BRANCH  25  26
HETATM   26  O4  UNL     1      -1.189   3.813  -0.123  1.00  0.00    -0.399 OA
ATOM     27  H4  UNL     1      -1.909   4.288  -0.521  1.00  0.00     0.209 HD
ENDBRANCH  25  26
ENDBRANCH   3  25
TORSDOF 12
