REMARK  11 active torsions:
REMARK  status: ('A' for Active; 'I' for Inactive)
REMARK    1  A    between atoms: C2_5  and  N3_6 
REMARK    2  A    between atoms: C2_5  and  C8_18 
REMARK    3  A    between atoms: N3_6  and  C3_8 
REMARK    4  A    between atoms: C3_8  and  C4_9 
REMARK    5  A    between atoms: C4_9  and  O1_10 
REMARK    6  A    between atoms: O1_10  and  C5_11 
REMARK    7  A    between atoms: C5_11  and  C6_12 
REMARK    8  A    between atoms: C6_12  and  N4_13 
REMARK    9  A    between atoms: C8_18  and  N7_19 
REMARK   10  A    between atoms: C8_18  and  C9_23 
REMARK   11  A    between atoms: C9_23  and  C10_24 
ROOT
HETATM    1  N1  UNL     1       3.930   0.618  -3.557  1.00  0.00    -0.172 NA
HETATM    2  C1  UNL     1       3.234   0.989  -2.736  1.00  0.00     0.183 C 
HETATM    3  N2  UNL     1       2.374   1.422  -1.723  1.00  0.00    -0.281 N 
ATOM      4  H2  UNL     1       2.226   2.422  -1.589  1.00  0.00     0.179 HD
HETATM    5  C2  UNL     1       1.766   0.590  -0.958  1.00  0.00     0.117 C 
ENDROOT
BRANCH   5   6
HETATM    6  N3  UNL     1       0.914   1.087   0.043  1.00  0.00    -0.375 N 
ATOM      7  H3  UNL     1       1.206   1.076   1.020  1.00  0.00     0.160 HD
BRANCH   6   8
HETATM    8  C3  UNL     1      -0.371   1.610  -0.323  1.00  0.00     0.147 C 
BRANCH   8   9
HETATM    9  C4  UNL     1      -1.171   2.105   0.849  1.00  0.00     0.187 C 
BRANCH   9  10
HETATM   10  O1  UNL     1      -1.438   1.148   1.789  1.00  0.00    -0.388 OA
BRANCH  10  11
HETATM   11  C5  UNL     1      -2.150   0.087   1.299  1.00  0.00     0.187 C 
BRANCH  11  12
HETATM   12  C6  UNL     1      -3.491   0.401   0.728  1.00  0.00     0.148 C 
BRANCH  12  13
HETATM   13  N4  UNL     1      -4.074  -0.851   0.269  1.00  0.00    -0.365 N 
HETATM   14  C7  UNL     1      -5.268  -0.898  -0.234  1.00  0.00     0.197 C 
HETATM   15  N5  UNL     1      -5.782  -2.141  -0.663  1.00  0.00    -0.067 NA
HETATM   16  N6  UNL     1      -6.000   0.293  -0.330  1.00  0.00    -0.067 NA
ATOM     17  H4  UNL     1      -3.531  -1.711   0.345  1.00  0.00     0.161 HD
ENDBRANCH  12  13
ENDBRANCH  11  12
ENDBRANCH  10  11
ENDBRANCH   9  10
ENDBRANCH   8   9
ENDBRANCH   6   8
ENDBRANCH   5   6
BRANCH   5  18
HETATM   18  C8  UNL     1       1.975  -0.864  -1.147  1.00  0.00     0.256 C 
BRANCH  18  19
HETATM   19  N7  UNL     1       0.752  -1.558  -1.449  1.00  0.00    -0.068 N 
ATOM     20  H73 UNL     1       0.042  -1.378  -0.740  1.00  0.00     0.275 HD
ATOM     21  H72 UNL     1       0.285  -1.145  -2.256  1.00  0.00     0.275 HD
ATOM     22  H71 UNL     1       0.896  -2.559  -1.579  1.00  0.00     0.275 HD
ENDBRANCH  18  19
BRANCH  18  23
HETATM   23  C9  UNL     1       2.638  -1.468   0.099  1.00  0.00     0.099 C 
BRANCH  23  24
HETATM   24  C10 UNL     1       3.953  -0.827   0.346  1.00  0.00     0.028 A 
HETATM   25  C11 UNL     1       4.258   0.285   1.099  1.00  0.00     0.114 A 
HETATM   26  N8  UNL     1       5.598   0.480   1.019  1.00  0.00    -0.360 N 
HETATM   27  C12 UNL     1       6.140  -0.477   0.239  1.00  0.00     0.180 A 
ATOM     28  H8  UNL     1       6.114   1.232   1.476  1.00  0.00     0.166 HD
HETATM   29  N9  UNL     1       5.134  -1.270  -0.168  1.00  0.00    -0.355 N 
ATOM     30  H9  UNL     1       5.240  -2.084  -0.773  1.00  0.00     0.166 HD
ENDBRANCH  23  24
ENDBRANCH  18  23
ENDBRANCH   5  18
TORSDOF 11
