REMARK  12 active torsions:
REMARK  status: ('A' for Active; 'I' for Inactive)
REMARK    1  A    between atoms: N1_2  and  C4_5 
REMARK    2  A    between atoms: C4_5  and  C5_6 
REMARK    3  A    between atoms: C6_9  and  C7_10 
REMARK    4  A    between atoms: C7_10  and  C8_11 
REMARK    5  A    between atoms: C8_11  and  C9_12 
REMARK    6  A    between atoms: C9_12  and  N3_13 
REMARK    7  A    between atoms: N3_13  and  C10_15 
REMARK    8  A    between atoms: C10_15  and  C11_16 
REMARK    9  A    between atoms: C11_16  and  N4_17 
REMARK   10  A    between atoms: C12_21  and  O1_22 
REMARK   11  A    between atoms: C13_24  and  O2_25 
REMARK   12  A    between atoms: C14_27  and  O3_28 
ROOT
HETATM    1  C5  UNL     1      -1.877   0.011   1.031  1.00  0.00     0.134 C 
HETATM    2  N2  UNL     1      -0.642  -0.157   0.375  1.00  0.00    -0.406 N 
ATOM      3  H2  UNL     1      -0.443  -1.036  -0.103  1.00  0.00     0.154 HD
HETATM    4  C6  UNL     1       0.314   0.859   0.368  1.00  0.00     0.108 C 
HETATM    5  C12 UNL     1      -0.136   2.230   0.767  1.00  0.00     0.171 C 
HETATM    6  C13 UNL     1      -1.174   2.278   1.824  1.00  0.00     0.179 C 
HETATM    7  C14 UNL     1      -1.719   0.951   2.227  1.00  0.00     0.173 C 
ENDROOT
BRANCH   4   8
HETATM    8  C7  UNL     1       1.524   0.473   1.178  1.00  0.00     0.029 C 
BRANCH   8   9
HETATM    9  C8  UNL     1       2.235  -0.763   0.696  1.00  0.00     0.022 C 
BRANCH   9  10
HETATM   10  C9  UNL     1       2.739  -0.626  -0.747  1.00  0.00     0.119 C 
BRANCH  10  11
HETATM   11  N3  UNL     1       3.412  -1.798  -1.161  1.00  0.00    -0.401 N 
ATOM     12  H3  UNL     1       3.006  -2.385  -1.890  1.00  0.00     0.158 HD
BRANCH  11  13
HETATM   13  C10 UNL     1       4.634  -2.159  -0.576  1.00  0.00     0.082 C 
BRANCH  13  14
HETATM   14  C11 UNL     1       5.822  -1.324  -0.866  1.00  0.00     0.273 C 
BRANCH  14  15
HETATM   15  N4  UNL     1       5.751   0.045  -0.454  1.00  0.00    -0.075 N 
ATOM     16  H43 UNL     1       4.918   0.481  -0.850  1.00  0.00     0.274 HD
ATOM     17  H42 UNL     1       5.530   0.094   0.541  1.00  0.00     0.274 HD
ATOM     18  H41 UNL     1       6.569   0.620  -0.654  1.00  0.00     0.274 HD
ENDBRANCH  14  15
ENDBRANCH  13  14
ENDBRANCH  11  13
ENDBRANCH  10  11
ENDBRANCH   9  10
ENDBRANCH   8   9
ENDBRANCH   4   8
BRANCH   5  19
HETATM   19  O1  UNL     1      -0.457   2.998  -0.352  1.00  0.00    -0.391 OA
ATOM     20  H1  UNL     1      -0.743   3.868  -0.099  1.00  0.00     0.210 HD
ENDBRANCH   5  19
BRANCH   1  21
HETATM   21  C4  UNL     1      -3.053   0.381   0.206  1.00  0.00     0.263 C 
BRANCH  21  22
HETATM   22  N1  UNL     1      -3.457  -0.499  -0.825  1.00  0.00    -0.077 N 
HETATM   23  C1  UNL     1      -4.155   0.333  -1.833  1.00  0.00     0.271 C 
HETATM   24  C2  UNL     1      -2.389  -1.136  -1.569  1.00  0.00     0.271 C 
HETATM   25  C3  UNL     1      -4.467  -1.459  -0.418  1.00  0.00     0.271 C 
ENDBRANCH  21  22
ENDBRANCH   1  21
BRANCH   6  26
HETATM   26  O2  UNL     1      -2.234   3.110   1.394  1.00  0.00    -0.390 OA
ATOM     27  H2  UNL     1      -2.899   3.141   2.071  1.00  0.00     0.210 HD
ENDBRANCH   6  26
BRANCH   7  28
HETATM   28  O3  UNL     1      -2.972   1.172   2.819  1.00  0.00    -0.391 OA
ATOM     29  H3  UNL     1      -2.874   1.756   3.562  1.00  0.00     0.210 HD
ENDBRANCH   7  28
TORSDOF 12
