REMARK  12 active torsions:
REMARK  status: ('A' for Active; 'I' for Inactive)
REMARK    1  A    between atoms: C1_2  and  N1_3 
REMARK    2  A    between atoms: N1_3  and  C2_5 
REMARK    3  A    between atoms: C2_5  and  C3_6 
REMARK    4  A    between atoms: C3_6  and  N2_7 
REMARK    5  A    between atoms: N2_7  and  C4_9 
REMARK    6  A    between atoms: C4_9  and  N3_11 
REMARK    7  A    between atoms: N3_11  and  N4_13 
REMARK    8  A    between atoms: N4_13  and  N5_15 
REMARK    9  A    between atoms: C5_17  and  C6_18 
REMARK   10  A    between atoms: C8_22  and  C9_23 
REMARK   11  A    between atoms: C9_23  and  N7_24 
REMARK   12  A    between atoms: N7_24  and  C10_26 
ROOT
HETATM    1  N4  UNL     1      -0.914   1.781   0.134  1.00  0.00    -0.241 N 
ATOM      2  H4  UNL     1      -0.953   2.750   0.449  1.00  0.00     0.208 HD
ENDROOT
BRANCH   1   3
HETATM    3  N3  UNL     1      -2.100   1.042  -0.103  1.00  0.00    -0.262 N 
ATOM      4  H3  UNL     1      -2.729   1.321  -0.856  1.00  0.00     0.191 HD
BRANCH   3   5
HETATM    5  C4  UNL     1      -2.417  -0.082   0.699  1.00  0.00     0.187 C 
HETATM    6  S1  UNL     1      -1.444  -0.568   1.915  1.00  0.00    -0.040 SA
BRANCH   5   7
HETATM    7  N2  UNL     1      -3.599  -0.800   0.445  1.00  0.00    -0.364 N 
ATOM      8  H2  UNL     1      -3.835  -1.611   1.017  1.00  0.00     0.162 HD
BRANCH   7   9
HETATM    9  C3  UNL     1      -4.476  -0.393  -0.621  1.00  0.00     0.141 C 
BRANCH   9  10
HETATM   10  C2  UNL     1      -5.684  -1.264  -0.753  1.00  0.00     0.141 C 
BRANCH  10  11
HETATM   11  N1  UNL     1      -6.520  -0.822  -1.828  1.00  0.00    -0.367 N 
ATOM     12  H1  UNL     1      -6.699  -1.442  -2.618  1.00  0.00     0.161 HD
BRANCH  11  13
HETATM   13  C1  UNL     1      -7.099   0.466  -1.802  1.00  0.00     0.348 C 
HETATM   14  O1  UNL     1      -6.963   1.314  -0.898  1.00  0.00    -0.284 OA
ENDBRANCH  11  13
ENDBRANCH  10  11
ENDBRANCH   9  10
ENDBRANCH   7   9
ENDBRANCH   5   7
ENDBRANCH   3   5
ENDBRANCH   1   3
BRANCH   1  15
HETATM   15  N5  UNL     1       0.291   1.152  -0.073  1.00  0.00    -0.297 N 
HETATM   16  C5  UNL     1       1.247   1.077   0.765  1.00  0.00     0.121 C 
ATOM     17  H5  UNL     1       0.432   0.705  -0.979  1.00  0.00     0.187 HD
BRANCH  16  18
HETATM   18  C6  UNL     1       2.467   0.382   0.419  1.00  0.00    -0.002 A 
HETATM   19  C7  UNL     1       2.727  -0.251  -0.798  1.00  0.00     0.101 A 
HETATM   20  N6  UNL     1       3.953  -0.801  -0.796  1.00  0.00    -0.367 N 
HETATM   21  C8  UNL     1       4.490  -0.533   0.405  1.00  0.00     0.027 A 
ATOM     22  H6  UNL     1       4.390  -1.320  -1.557  1.00  0.00     0.165 HD
HETATM   23  C11 UNL     1       3.606   0.191   1.176  1.00  0.00     0.041 A 
BRANCH  21  24
HETATM   24  C9  UNL     1       5.841  -0.957   0.831  1.00  0.00     0.178 C 
BRANCH  24  25
HETATM   25  N7  UNL     1       6.817   0.103   0.821  1.00  0.00    -0.363 N 
ATOM     26  H7  UNL     1       7.286   0.364   1.689  1.00  0.00     0.162 HD
BRANCH  25  27
HETATM   27  C10 UNL     1       7.135   0.789  -0.382  1.00  0.00     0.348 C 
HETATM   28  O2  UNL     1       6.582   0.492  -1.457  1.00  0.00    -0.284 OA
ENDBRANCH  25  27
ENDBRANCH  24  25
ENDBRANCH  21  24
ENDBRANCH  16  18
ENDBRANCH   1  15
TORSDOF 12
