REMARK  8 active torsions:
REMARK  status: ('A' for Active; 'I' for Inactive)
REMARK    1  A    between atoms: C2_2  and  C3_3 
REMARK    2  A    between atoms: C3_3  and  N1_4 
REMARK    3  A    between atoms: N1_4  and  C4_7 
REMARK    4  A    between atoms: C4_7  and  C5_8 
REMARK    5  A    between atoms: C5_8  and  N2_9 
REMARK    6  A    between atoms: N2_9  and  C6_12 
REMARK    7  A    between atoms: C6_12  and  C7_13 
REMARK    8  A    between atoms: C7_13  and  C8_14 
ROOT
HETATM    1  C8  UNL     1      -1.460  -1.026  -0.124  1.00  0.00     0.108 C 
HETATM    2  C9  UNL     1      -1.225  -0.259   1.104  1.00  0.00     0.228 C 
HETATM    3  O1  UNL     1      -0.492  -0.554   2.078  1.00  0.00    -0.273 OA
HETATM    4  N3  UNL     1      -2.033   0.939   0.971  1.00  0.00    -0.326 N 
ATOM      5  H3  UNL     1      -1.819   1.871   1.325  1.00  0.00     0.168 HD
HETATM    6  C10 UNL     1      -3.210   0.531   0.228  1.00  0.00     0.065 C 
HETATM    7  C11 UNL     1      -4.467   0.889   0.164  1.00  0.00     0.089 A 
HETATM    8  N4  UNL     1      -5.075   1.889   0.868  1.00  0.00    -0.305 N 
ATOM      9  H4  UNL     1      -4.644   2.523   1.540  1.00  0.00     0.171 HD
HETATM   10  C12 UNL     1      -6.368   1.859   0.484  1.00  0.00     0.325 A 
HETATM   11  O2  UNL     1      -7.236   2.656   0.936  1.00  0.00    -0.247 OA
HETATM   12  N5  UNL     1      -6.584   0.891  -0.416  1.00  0.00    -0.305 N 
ATOM     13  H5  UNL     1      -7.473   0.664  -0.861  1.00  0.00     0.171 HD
HETATM   14  C13 UNL     1      -5.409   0.275  -0.622  1.00  0.00     0.080 A 
HETATM   15  C14 UNL     1      -5.053  -0.809  -1.292  1.00  0.00     0.116 C 
HETATM   16  N6  UNL     1      -3.709  -1.329  -1.184  1.00  0.00    -0.386 N 
ATOM     17  H6  UNL     1      -3.502  -2.307  -1.389  1.00  0.00     0.159 HD
HETATM   18  C15 UNL     1      -2.699  -0.440  -0.787  1.00  0.00     0.146 C 
ENDROOT
BRANCH   1  19
HETATM   19  C7  UNL     1      -0.373  -0.939  -1.137  1.00  0.00     0.044 C 
BRANCH  19  20
HETATM   20  C6  UNL     1       0.981  -1.426  -0.782  1.00  0.00     0.233 C 
BRANCH  20  21
HETATM   21  N2  UNL     1       1.598  -0.698   0.259  1.00  0.00    -0.073 N 
ATOM     22  H22 UNL     1       0.998  -0.664   1.083  1.00  0.00     0.277 HD
ATOM     23  H21 UNL     1       1.632   0.297   0.035  1.00  0.00     0.277 HD
BRANCH  21  24
HETATM   24  C5  UNL     1       2.917  -1.195   0.602  1.00  0.00     0.259 C 
BRANCH  24  25
HETATM   25  C4  UNL     1       3.952  -0.979  -0.452  1.00  0.00     0.260 C 
BRANCH  25  26
HETATM   26  N1  UNL     1       4.131   0.419  -0.708  1.00  0.00    -0.070 N 
ATOM     27  H12 UNL     1       3.256   0.865  -0.982  1.00  0.00     0.277 HD
ATOM     28  H11 UNL     1       4.662   0.578  -1.564  1.00  0.00     0.277 HD
BRANCH  26  29
HETATM   29  C3  UNL     1       4.739   1.089   0.431  1.00  0.00     0.259 C 
BRANCH  29  30
HETATM   30  C2  UNL     1       6.130   0.668   0.650  1.00  0.00    -0.010 C 
HETATM   31  C1  UNL     1       7.110   1.550   0.606  1.00  0.00     0.008 C 
ENDBRANCH  29  30
ENDBRANCH  26  29
ENDBRANCH  25  26
ENDBRANCH  24  25
ENDBRANCH  21  24
ENDBRANCH  20  21
ENDBRANCH  19  20
ENDBRANCH   1  19
TORSDOF 8
