REMARK  11 active torsions:
REMARK  status: ('A' for Active; 'I' for Inactive)
REMARK    1  A    between atoms: C1_4  and  N2_5 
REMARK    2  A    between atoms: N2_5  and  C2_7 
REMARK    3  A    between atoms: C2_7  and  C3_8 
REMARK    4  A    between atoms: C3_8  and  C4_9 
REMARK    5  A    between atoms: C4_9  and  C5_10 
REMARK    6  A    between atoms: C5_10  and  N3_11 
REMARK    7  A    between atoms: C6_12  and  O1_13 
REMARK    8  A    between atoms: C9_20  and  C10_21 
REMARK    9  A    between atoms: C10_21  and  C11_22 
REMARK   10  A    between atoms: C11_22  and  C12_23 
REMARK   11  A    between atoms: C12_23  and  N5_24 
ROOT
HETATM    1  N3  UNL     1      -0.287  -0.314  -0.121  1.00  0.00    -0.331 N 
HETATM    2  C6  UNL     1      -0.456  -1.587   0.413  1.00  0.00     0.242 C 
HETATM    3  C7  UNL     1      -0.202  -2.727  -0.551  1.00  0.00     0.176 C 
HETATM    4  N4  UNL     1       1.057  -2.553  -1.245  1.00  0.00    -0.352 N 
ATOM      5  H4  UNL     1       1.633  -3.358  -1.489  1.00  0.00     0.162 HD
HETATM    6  C8  UNL     1       1.468  -1.248  -1.576  1.00  0.00     0.264 C 
HETATM    7  O2  UNL     1       2.370  -1.101  -2.424  1.00  0.00    -0.266 OA
HETATM    8  C9  UNL     1       0.856  -0.082  -0.948  1.00  0.00     0.082 C 
ENDROOT
BRANCH   1   9
HETATM    9  C5  UNL     1      -1.313   0.633  -0.126  1.00  0.00     0.067 C 
BRANCH   9  10
HETATM   10  C4  UNL     1      -2.472   0.359  -1.021  1.00  0.00     0.046 C 
BRANCH  10  11
HETATM   11  C3  UNL     1      -3.526   1.441  -0.945  1.00  0.00     0.025 C 
BRANCH  11  12
HETATM   12  C2  UNL     1      -4.064   1.586   0.466  1.00  0.00     0.120 C 
BRANCH  12  13
HETATM   13  N2  UNL     1      -4.671   0.346   0.921  1.00  0.00    -0.386 N 
ATOM     14  H2  UNL     1      -4.240  -0.202   1.665  1.00  0.00     0.160 HD
BRANCH  13  15
HETATM   15  C1  UNL     1      -5.878  -0.086   0.306  1.00  0.00     0.168 C 
HETATM   16  N1  UNL     1      -6.861   0.751   0.296  1.00  0.00    -0.396 N 
ATOM     17  H12 UNL     1      -6.760   1.676   0.714  1.00  0.00     0.156 HD
ATOM     18  H11 UNL     1      -7.727   0.441  -0.145  1.00  0.00     0.156 HD
ENDBRANCH  13  15
ENDBRANCH  12  13
ENDBRANCH  11  12
ENDBRANCH  10  11
ENDBRANCH   9  10
ENDBRANCH   1   9
BRANCH   2  19
HETATM   19  O1  UNL     1      -1.728  -1.753   0.937  1.00  0.00    -0.375 OA
ATOM     20  H1  UNL     1      -1.843  -2.623   1.302  1.00  0.00     0.212 HD
ENDBRANCH   2  19
BRANCH   8  21
HETATM   21  C10 UNL     1       1.764   0.963  -0.396  1.00  0.00     0.068 C 
BRANCH  21  22
HETATM   22  C11 UNL     1       2.336   0.754   0.949  1.00  0.00     0.051 C 
BRANCH  22  23
HETATM   23  C12 UNL     1       3.213  -0.431   1.154  1.00  0.00     0.063 C 
BRANCH  23  24
HETATM   24  N5  UNL     1       4.378  -0.541   0.369  1.00  0.00    -0.347 N 
HETATM   25  C13 UNL     1       5.274   0.276   0.021  1.00  0.00     0.200 C 
HETATM   26  N6  UNL     1       5.265   1.662   0.418  1.00  0.00    -0.067 NA
HETATM   27  N7  UNL     1       6.390  -0.121  -0.802  1.00  0.00    -0.067 NA
ATOM     28  H5  UNL     1       4.529  -1.482   0.004  1.00  0.00     0.167 HD
ENDBRANCH  23  24
ENDBRANCH  22  23
ENDBRANCH  21  22
ENDBRANCH   8  21
TORSDOF 11
