REMARK  12 active torsions:
REMARK  status: ('A' for Active; 'I' for Inactive)
REMARK    1  A    between atoms: N3_4  and  C2_6 
REMARK    2  A    between atoms: C2_6  and  C3_7 
REMARK    3  A    between atoms: C3_7  and  N4_8 
REMARK    4  A    between atoms: C3_7  and  C4_12 
REMARK    5  A    between atoms: C4_12  and  C5_13 
REMARK    6  A    between atoms: C5_13  and  C6_14 
REMARK    7  A    between atoms: C6_14  and  C7_15 
REMARK    8  A    between atoms: C7_15  and  C8_16 
REMARK    9  A    between atoms: C8_16  and  N5_17 
REMARK   10  A    between atoms: C10_19  and  O1_20 
REMARK   11  A    between atoms: C11_22  and  O2_23 
REMARK   12  A    between atoms: C12_25  and  O3_26 
ROOT
HETATM    1  C6  UNL     1      -0.082   0.414  -0.673  1.00  0.00     0.005 C 
ENDROOT
BRANCH   1   2
HETATM    2  C5  UNL     1       1.223   1.185  -0.566  1.00  0.00     0.002 C 
BRANCH   2   3
HETATM    3  C4  UNL     1       2.387   0.328  -0.134  1.00  0.00     0.034 C 
BRANCH   3   4
HETATM    4  C3  UNL     1       3.594   1.240  -0.087  1.00  0.00     0.201 C 
BRANCH   4   5
HETATM    5  C2  UNL     1       4.842   0.505   0.335  1.00  0.00     0.154 C 
BRANCH   5   6
HETATM    6  N3  UNL     1       5.166  -0.594  -0.513  1.00  0.00    -0.365 N 
HETATM    7  C1  UNL     1       6.357  -1.045  -0.553  1.00  0.00     0.197 C 
HETATM    8  N1  UNL     1       7.362  -0.459   0.241  1.00  0.00    -0.067 NA
HETATM    9  N2  UNL     1       6.683  -2.131  -1.390  1.00  0.00    -0.067 NA
ATOM     10  H3  UNL     1       4.441  -1.021  -1.090  1.00  0.00     0.161 HD
ENDBRANCH   5   6
ENDBRANCH   4   5
BRANCH   4  11
HETATM   11  N4  UNL     1       3.276   2.340   0.766  1.00  0.00    -0.073 N 
ATOM     12  H43 UNL     1       3.209   2.039   1.738  1.00  0.00     0.274 HD
ATOM     13  H42 UNL     1       4.066   2.980   0.843  1.00  0.00     0.274 HD
ATOM     14  H41 UNL     1       2.432   2.837   0.481  1.00  0.00     0.274 HD
ENDBRANCH   4  11
ENDBRANCH   3   4
ENDBRANCH   2   3
ENDBRANCH   1   2
BRANCH   1  15
HETATM   15  C7  UNL     1      -0.476  -0.198   0.635  1.00  0.00     0.044 C 
BRANCH  15  16
HETATM   16  C8  UNL     1      -1.727  -0.992   0.633  1.00  0.00     0.058 C 
BRANCH  16  17
HETATM   17  N5  UNL     1      -2.938  -0.371   0.288  1.00  0.00    -0.388 N 
HETATM   18  C9  UNL     1      -3.181   0.036  -1.032  1.00  0.00     0.156 C 
HETATM   19  C10 UNL     1      -4.580  -0.433  -1.449  1.00  0.00     0.167 C 
HETATM   20  C11 UNL     1      -5.540   0.401  -0.604  1.00  0.00     0.178 C 
HETATM   21  C12 UNL     1      -5.246   0.252   0.860  1.00  0.00     0.167 C 
HETATM   22  C13 UNL     1      -4.039  -0.561   1.161  1.00  0.00     0.156 C 
BRANCH  19  23
HETATM   23  O1  UNL     1      -4.704  -1.784  -1.134  1.00  0.00    -0.391 OA
ATOM     24  H1  UNL     1      -5.571  -2.075  -1.392  1.00  0.00     0.210 HD
ENDBRANCH  19  23
BRANCH  20  25
HETATM   25  O2  UNL     1      -6.861   0.180  -0.939  1.00  0.00    -0.390 OA
ATOM     26  H2  UNL     1      -7.458   0.699  -0.413  1.00  0.00     0.210 HD
ENDBRANCH  20  25
BRANCH  21  27
HETATM   27  O3  UNL     1      -6.353  -0.427   1.422  1.00  0.00    -0.391 OA
ATOM     28  H3  UNL     1      -6.167  -0.521   2.349  1.00  0.00     0.210 HD
ENDBRANCH  21  27
ENDBRANCH  16  17
ENDBRANCH  15  16
ENDBRANCH   1  15
TORSDOF 12
