REMARK  13 active torsions:
REMARK  status: ('A' for Active; 'I' for Inactive)
REMARK    1  A    between atoms: C1_4  and  C2_5 
REMARK    2  A    between atoms: C1_4  and  N3_10 
REMARK    3  A    between atoms: C2_5  and  N2_6 
REMARK    4  A    between atoms: N3_10  and  C3_12 
REMARK    5  A    between atoms: C3_12  and  C4_13 
REMARK    6  A    between atoms: C4_13  and  C5_14 
REMARK    7  A    between atoms: C5_14  and  N4_15 
REMARK    8  A    between atoms: N4_15  and  C6_17 
REMARK    9  A    between atoms: C6_17  and  C7_21 
REMARK   10  A    between atoms: N6_24  and  C10_25 
REMARK   11  A    between atoms: C10_25  and  C11_26 
REMARK   12  A    between atoms: C11_26  and  C12_27 
REMARK   13  A    between atoms: C12_27  and  N7_28 
ROOT
HETATM    1  C6  UNL     1      -0.259  -0.502   1.572  1.00  0.00     0.122 C 
HETATM    2  N5  UNL     1      -0.125  -0.072   2.771  1.00  0.00    -0.384 N 
ATOM      3  H51 UNL     1      -0.792   0.582   3.180  1.00  0.00     0.157 HD
ATOM      4  H52 UNL     1       0.670  -0.391   3.325  1.00  0.00     0.157 HD
ENDROOT
BRANCH   1   5
HETATM    5  N4  UNL     1       0.666  -1.409   1.005  1.00  0.00    -0.375 N 
ATOM      6  H4  UNL     1       0.560  -2.413   1.153  1.00  0.00     0.161 HD
BRANCH   5   7
HETATM    7  C5  UNL     1       1.758  -0.901   0.217  1.00  0.00     0.123 C 
BRANCH   7   8
HETATM    8  C4  UNL     1       2.684  -0.156   1.154  1.00  0.00     0.039 C 
BRANCH   8   9
HETATM    9  C3  UNL     1       3.862   0.417   0.417  1.00  0.00     0.122 C 
BRANCH   9  10
HETATM   10  N3  UNL     1       4.624  -0.615  -0.209  1.00  0.00    -0.379 N 
ATOM     11  H3  UNL     1       4.302  -1.575  -0.088  1.00  0.00     0.160 HD
BRANCH  10  12
HETATM   12  C1  UNL     1       5.783  -0.414  -0.979  1.00  0.00     0.096 C 
HETATM   13  N1  UNL     1       5.677  -0.047  -2.201  1.00  0.00    -0.388 N 
ATOM     14  H12 UNL     1       6.518   0.099  -2.760  1.00  0.00     0.157 HD
ATOM     15  H11 UNL     1       4.751   0.096  -2.604  1.00  0.00     0.157 HD
BRANCH  12  16
HETATM   16  C2  UNL     1       7.122  -0.621  -0.396  1.00  0.00     0.304 C 
BRANCH  16  17
HETATM   17  N2  UNL     1       7.257   0.300   0.719  1.00  0.00    -0.073 N 
ATOM     18  H23 UNL     1       7.082   1.270   0.458  1.00  0.00     0.274 HD
ATOM     19  H22 UNL     1       6.506   0.210   1.403  1.00  0.00     0.274 HD
ATOM     20  H21 UNL     1       8.183   0.157   1.122  1.00  0.00     0.274 HD
ENDBRANCH  16  17
ENDBRANCH  12  16
ENDBRANCH  10  12
ENDBRANCH   9  10
ENDBRANCH   8   9
ENDBRANCH   7   8
ENDBRANCH   5   7
ENDBRANCH   1   5
BRANCH   1  21
HETATM   21  C7  UNL     1      -1.393  -0.047   0.781  1.00  0.00     0.078 A 
HETATM   22  C8  UNL     1      -1.598  -0.473  -0.526  1.00  0.00     0.050 A 
HETATM   23  C9  UNL     1      -2.666  -0.045  -1.275  1.00  0.00     0.094 A 
HETATM   24  N6  UNL     1      -3.543   0.813  -0.736  1.00  0.00    -0.353 N 
HETATM   25  C13 UNL     1      -3.343   1.222   0.522  1.00  0.00     0.183 A 
HETATM   26  N8  UNL     1      -2.309   0.813   1.262  1.00  0.00    -0.349 N 
ATOM     27  H8  UNL     1      -2.211   1.161   2.216  1.00  0.00     0.166 HD
BRANCH  24  28
HETATM   28  C10 UNL     1      -4.662   1.274  -1.512  1.00  0.00     0.130 C 
BRANCH  28  29
HETATM   29  C11 UNL     1      -5.824   0.347  -1.328  1.00  0.00     0.047 C 
BRANCH  29  30
HETATM   30  C12 UNL     1      -6.292   0.235   0.090  1.00  0.00     0.231 C 
BRANCH  30  31
HETATM   31  N7  UNL     1      -7.432  -0.700   0.091  1.00  0.00    -0.079 N 
ATOM     32  H73 UNL     1      -8.173  -0.431  -0.556  1.00  0.00     0.274 HD
ATOM     33  H72 UNL     1      -7.212  -1.602  -0.332  1.00  0.00     0.274 HD
ATOM     34  H71 UNL     1      -7.751  -0.776   1.057  1.00  0.00     0.274 HD
ENDBRANCH  30  31
ENDBRANCH  29  30
ENDBRANCH  28  29
ENDBRANCH  24  28
ENDBRANCH   1  21
TORSDOF 13
