REMARK  7 active torsions:
REMARK  status: ('A' for Active; 'I' for Inactive)
REMARK    1  A    between atoms: S1_2  and  C2_3 
REMARK    2  A    between atoms: C2_3  and  C3_4 
REMARK    3  A    between atoms: C4_7  and  N2_8 
REMARK    4  A    between atoms: N2_8  and  N3_10 
REMARK    5  A    between atoms: N3_10  and  C5_12 
REMARK    6  A    between atoms: C5_12  and  C6_13 
REMARK    7  A    between atoms: N5_17  and  O1_18 
ROOT
HETATM    1  C3  UNL     1      -2.506  -0.263  -0.374  1.00  0.00     0.161 A 
HETATM    2  N1  UNL     1      -2.019   0.911  -0.804  1.00  0.00    -0.172 N 
ATOM      3  H1  UNL     1      -2.546   1.762  -1.001  1.00  0.00     0.185 HD
HETATM    4  C4  UNL     1      -0.677   0.729  -0.923  1.00  0.00     0.713 A 
HETATM    5  N6  UNL     1      -0.413  -0.542  -0.561  1.00  0.00    -0.129 N 
ATOM      6  H6  UNL     1       0.514  -0.966  -0.550  1.00  0.00     0.205 HD
HETATM    7  N7  UNL     1      -1.531  -1.157  -0.223  1.00  0.00    -0.271 N 
ATOM      8  H7  UNL     1      -1.628  -2.123   0.091  1.00  0.00     0.189 HD
ENDROOT
BRANCH   4   9
HETATM    9  N2  UNL     1       0.095   1.663  -1.313  1.00  0.00    -0.131 N 
ATOM     10  H2  UNL     1      -0.324   2.565  -1.538  1.00  0.00     0.205 HD
BRANCH   9  11
HETATM   11  N3  UNL     1       1.450   1.536  -1.450  1.00  0.00    -0.295 N 
ATOM     12  H3  UNL     1       1.863   1.830  -2.335  1.00  0.00     0.186 HD
BRANCH  11  13
HETATM   13  C5  UNL     1       2.242   1.075  -0.551  1.00  0.00     0.139 C 
BRANCH  13  14
HETATM   14  C6  UNL     1       3.672   0.968  -0.764  1.00  0.00     0.075 A 
HETATM   15  N4  UNL     1       4.372   1.313  -1.876  1.00  0.00    -0.348 N 
HETATM   16  C7  UNL     1       5.673   1.052  -1.655  1.00  0.00     0.214 A 
ATOM     17  H4  UNL     1       3.978   1.703  -2.732  1.00  0.00     0.167 HD
HETATM   18  N5  UNL     1       5.823   0.545  -0.421  1.00  0.00    -0.223 N 
HETATM   19  C8  UNL     1       4.597   0.489   0.135  1.00  0.00     0.065 A 
HETATM   20  C9  UNL     1       4.355  -0.027   1.526  1.00  0.00     0.073 C 
BRANCH  18  21
HETATM   21  O1  UNL     1       6.995   0.154   0.173  1.00  0.00    -0.282 OA
ATOM     22  H1  UNL     1       7.101  -0.205   1.046  1.00  0.00     0.245 HD
ENDBRANCH  18  21
ENDBRANCH  13  14
ENDBRANCH  11  13
ENDBRANCH   9  11
ENDBRANCH   4   9
BRANCH   1  23
HETATM   23  C2  UNL     1      -3.967  -0.488  -0.113  1.00  0.00     0.225 C 
HETATM   24  N8  UNL     1      -4.391  -1.491  -1.057  1.00  0.00    -0.310 N 
HETATM   25  C10 UNL     1      -4.181  -2.769  -0.495  1.00  0.00     0.324 C 
ATOM     26  H8  UNL     1      -4.780  -1.307  -1.982  1.00  0.00     0.166 HD
HETATM   27  O2  UNL     1      -4.119  -3.907  -1.058  1.00  0.00    -0.247 OA
HETATM   28  N9  UNL     1      -4.037  -2.588   0.930  1.00  0.00    -0.276 N 
HETATM   29  C11 UNL     1      -4.164  -1.197   1.179  1.00  0.00     0.272 C 
ATOM     30  H9  UNL     1      -3.875  -3.318   1.623  1.00  0.00     0.173 HD
HETATM   31  O3  UNL     1      -4.398  -0.621   2.263  1.00  0.00    -0.269 OA
BRANCH  23  32
HETATM   32  S1  UNL     1      -4.903   1.037  -0.249  1.00  0.00    -0.124 SA
HETATM   33  C1  UNL     1      -4.422   2.164   1.061  1.00  0.00     0.093 C 
ENDBRANCH  23  32
ENDBRANCH   1  23
TORSDOF 7
