REMARK  6 active torsions:
REMARK  status: ('A' for Active; 'I' for Inactive)
REMARK    1  A    between atoms: C4_5  and  C5_6 
REMARK    2  A    between atoms: C5_6  and  N1_7 
REMARK    3  A    between atoms: C6_8  and  C7_9 
REMARK    4  A    between atoms: C8_10  and  N2_11 
REMARK    5  A    between atoms: C11_21  and  N7_22 
REMARK    6  A    between atoms: C14_27  and  N9_28 
ROOT
HETATM    1  N1  UNL     1       0.024   0.389   0.600  1.00  0.00    -0.299 N 
HETATM    2  C6  UNL     1      -0.915  -0.572   0.459  1.00  0.00     0.115 A 
HETATM    3  N5  UNL     1      -0.320  -1.766   0.279  1.00  0.00    -0.326 N 
ATOM      4  H5  UNL     1      -0.785  -2.664   0.146  1.00  0.00     0.169 HD
HETATM    5  C10 UNL     1       1.016  -1.544   0.309  1.00  0.00     0.154 A 
HETATM    6  N6  UNL     1       2.094  -2.340   0.187  1.00  0.00    -0.174 N 
ATOM      7  H6  UNL     1       1.947  -3.338   0.038  1.00  0.00     0.186 HD
HETATM    8  C11 UNL     1       3.354  -1.882   0.252  1.00  0.00     0.683 A 
HETATM    9  N8  UNL     1       3.576  -0.583   0.445  1.00  0.00    -0.175 N 
ATOM     10  H8  UNL     1       4.533  -0.233   0.494  1.00  0.00     0.186 HD
HETATM   11  C14 UNL     1       2.532   0.277   0.577  1.00  0.00     0.146 A 
HETATM   12  C15 UNL     1       1.235  -0.197   0.509  1.00  0.00     0.130 A 
ENDROOT
BRANCH   2  13
HETATM   13  C7  UNL     1      -2.341  -0.369   0.494  1.00  0.00     0.066 C 
HETATM   14  C8  UNL     1      -3.200  -1.365   0.348  1.00  0.00     0.094 C 
BRANCH  14  15
HETATM   15  N2  UNL     1      -4.586  -1.186   0.378  1.00  0.00    -0.343 N 
HETATM   16  C9  UNL     1      -5.359  -2.054  -0.181  1.00  0.00     0.200 C 
HETATM   17  N3  UNL     1      -6.749  -1.806  -0.109  1.00  0.00    -0.067 NA
HETATM   18  N4  UNL     1      -4.810  -3.196  -0.831  1.00  0.00    -0.067 NA
ATOM     19  H2  UNL     1      -4.986  -0.370   0.841  1.00  0.00     0.167 HD
ENDBRANCH  14  15
ENDBRANCH   2  13
BRANCH   1  20
HETATM   20  C5  UNL     1      -0.140   1.777   0.808  1.00  0.00     0.134 C 
BRANCH  20  21
HETATM   21  C4  UNL     1      -0.210   2.627  -0.198  1.00  0.00     0.098 A 
HETATM   22  C2  UNL     1      -0.348   3.985  -0.798  1.00  0.00     0.110 A 
HETATM   23  C1  UNL     1      -1.728   4.596  -0.605  1.00  0.00     0.053 C 
HETATM   24  C3  UNL     1       0.839   4.903  -0.583  1.00  0.00     0.053 C 
HETATM   25  O1  UNL     1      -0.198   2.853  -1.594  1.00  0.00    -0.334 OA
ENDBRANCH  20  21
ENDBRANCH   1  20
BRANCH  11  26
HETATM   26  N9  UNL     1       2.694   1.532   0.764  1.00  0.00    -0.383 N 
ATOM     27  H92 UNL     1       3.651   1.882   0.814  1.00  0.00     0.157 HD
ATOM     28  H91 UNL     1       1.910   2.177   0.863  1.00  0.00     0.157 HD
ENDBRANCH  11  26
BRANCH   8  29
HETATM   29  N7  UNL     1       4.492  -2.725   0.123  1.00  0.00    -0.214 N 
HETATM   30  C12 UNL     1       4.928  -4.154  -0.092  1.00  0.00     0.161 A 
HETATM   31  C13 UNL     1       5.878  -3.068   0.068  1.00  0.00     0.161 A 
ENDBRANCH   8  29
TORSDOF 6
