REMARK  7 active torsions:
REMARK  status: ('A' for Active; 'I' for Inactive)
REMARK    1  A    between atoms: C4_7  and  C5_8 
REMARK    2  A    between atoms: C5_8  and  C6_9 
REMARK    3  A    between atoms: C6_9  and  N2_10 
REMARK    4  A    between atoms: C6_9  and  C7_14 
REMARK    5  A    between atoms: C7_14  and  N3_15 
REMARK    6  A    between atoms: N3_15  and  C8_17 
REMARK    7  A    between atoms: C12_27  and  N7_28 
ROOT
HETATM    1  N3  UNL     1      -1.364  -1.538  -0.723  1.00  0.00    -0.372 N 
ATOM      2  H3  UNL     1      -1.410  -2.175   0.072  1.00  0.00     0.161 HD
ENDROOT
BRANCH   1   3
HETATM    3  C7  UNL     1      -0.296  -1.740  -1.642  1.00  0.00     0.154 C 
BRANCH   3   4
HETATM    4  C6  UNL     1       0.897  -0.830  -1.353  1.00  0.00     0.205 C 
BRANCH   4   5
HETATM    5  C5  UNL     1       1.442  -1.075   0.022  1.00  0.00     0.081 C 
BRANCH   5   6
HETATM    6  C4  UNL     1       2.500  -0.057   0.359  1.00  0.00     0.043 A 
HETATM    7  C3  UNL     1       3.786  -0.214  -0.036  1.00  0.00     0.254 A 
HETATM    8  N1  UNL     1       4.815   0.620   0.153  1.00  0.00    -0.321 N 
HETATM    9  O1  UNL     1       4.111  -1.285  -0.671  1.00  0.00    -0.268 OA
HETATM   10  C2  UNL     1       4.792   1.794   0.777  1.00  0.00     0.051 A 
ATOM     11  H1  UNL     1       5.716   0.323  -0.223  1.00  0.00     0.169 HD
HETATM   12  C1  UNL     1       6.022   2.650   0.927  1.00  0.00     0.076 C 
HETATM   13  S1  UNL     1       3.258   2.221   1.375  1.00  0.00    -0.062 SA
HETATM   14  C14 UNL     1       2.045   1.075   1.066  1.00  0.00     0.100 A 
HETATM   15  N9  UNL     1       0.694   1.164   1.445  1.00  0.00    -0.094 NA
ENDBRANCH   5   6
ENDBRANCH   4   5
BRANCH   4  16
HETATM   16  N2  UNL     1       1.872  -0.909  -2.394  1.00  0.00    -0.073 N 
ATOM     17  H23 UNL     1       2.651  -0.279  -2.202  1.00  0.00     0.274 HD
ATOM     18  H22 UNL     1       2.360  -1.804  -2.358  1.00  0.00     0.274 HD
ATOM     19  H21 UNL     1       1.501  -0.742  -3.329  1.00  0.00     0.274 HD
ENDBRANCH   4  16
ENDBRANCH   3   4
ENDBRANCH   1   3
BRANCH   1  20
HETATM   20  C8  UNL     1      -2.280  -0.632  -0.792  1.00  0.00     0.132 A 
HETATM   21  N4  UNL     1      -2.337   0.273  -1.791  1.00  0.00    -0.337 N 
HETATM   22  C9  UNL     1      -3.277   1.224  -1.874  1.00  0.00     0.182 A 
ATOM     23  H4  UNL     1      -1.627   0.231  -2.522  1.00  0.00     0.168 HD
HETATM   24  N5  UNL     1      -4.215   1.284  -0.918  1.00  0.00    -0.349 N 
HETATM   25  C10 UNL     1      -4.216   0.424   0.090  1.00  0.00     0.080 A 
ATOM     26  H5  UNL     1      -4.938   2.002  -0.967  1.00  0.00     0.166 HD
HETATM   27  C11 UNL     1      -5.201   0.510   1.067  1.00  0.00     0.138 A 
HETATM   28  C13 UNL     1      -3.264  -0.554   0.193  1.00  0.00     0.121 A 
HETATM   29  N6  UNL     1      -5.160  -0.383   2.067  1.00  0.00    -0.200 N 
HETATM   30  C12 UNL     1      -4.206  -1.325   2.125  1.00  0.00     0.676 A 
ATOM     31  H6  UNL     1      -5.869  -0.345   2.799  1.00  0.00     0.183 HD
HETATM   32  N8  UNL     1      -3.237  -1.446   1.207  1.00  0.00    -0.186 N 
ATOM     33  H8  UNL     1      -2.521  -2.170   1.270  1.00  0.00     0.184 HD
BRANCH  30  34
HETATM   34  N7  UNL     1      -4.226  -2.151   3.114  1.00  0.00    -0.234 N 
ATOM     35  H72 UNL     1      -4.963  -2.059   3.813  1.00  0.00     0.174 HD
ATOM     36  H71 UNL     1      -3.501  -2.867   3.158  1.00  0.00     0.174 HD
ENDBRANCH  30  34
ENDBRANCH   1  20
TORSDOF 7
