REMARK  7 active torsions:
REMARK  status: ('A' for Active; 'I' for Inactive)
REMARK    1  A    between atoms: C2_2  and  N1_3 
REMARK    2  A    between atoms: C3_6  and  N3_7 
REMARK    3  A    between atoms: C6_12  and  C7_13 
REMARK    4  A    between atoms: C7_13  and  O1_14 
REMARK    5  A    between atoms: C9_18  and  N6_19 
REMARK    6  A    between atoms: N6_19  and  C10_21 
REMARK    7  A    between atoms: C14_27  and  N8_28 
ROOT
HETATM    1  N3  UNL     1      -4.516   0.133   0.445  1.00  0.00    -0.277 N 
ATOM      2  H3  UNL     1      -4.627   1.122   0.669  1.00  0.00     0.179 HD
HETATM    3  C4  UNL     1      -5.652  -0.671   0.309  1.00  0.00     0.183 C 
HETATM    4  N4  UNL     1      -6.595  -1.357   0.184  1.00  0.00    -0.172 NA
ENDROOT
BRANCH   1   5
HETATM    5  C3  UNL     1      -3.332  -0.350   0.293  1.00  0.00     0.145 A 
HETATM    6  N2  UNL     1      -3.056  -1.611   0.002  1.00  0.00    -0.280 N 
HETATM    7  N1  UNL     1      -1.762  -1.826  -0.095  1.00  0.00    -0.274 N 
ATOM      8  H2  UNL     1      -3.764  -2.333  -0.132  1.00  0.00     0.189 HD
HETATM    9  C15 UNL     1      -1.165  -0.647   0.145  1.00  0.00     0.153 A 
HETATM   10  C5  UNL     1      -2.138   0.326   0.398  1.00  0.00     0.081 A 
HETATM   11  N10 UNL     1       0.128  -0.236   0.187  1.00  0.00    -0.174 N 
HETATM   12  C6  UNL     1      -1.786   1.630   0.674  1.00  0.00     0.068 A 
HETATM   13  N5  UNL     1      -0.479   1.967   0.700  1.00  0.00    -0.192 N 
HETATM   14  C9  UNL     1       0.463   1.040   0.458  1.00  0.00     0.685 A 
ATOM     15  H5  UNL     1      -0.206   2.928   0.904  1.00  0.00     0.184 HD
ATOM     16  H10 UNL     1       0.868  -0.914   0.008  1.00  0.00     0.186 HD
BRANCH   7  17
HETATM   17  C2  UNL     1      -1.101  -3.084  -0.400  1.00  0.00     0.146 C 
HETATM   18  C1  UNL     1      -0.942  -3.177  -1.890  1.00  0.00     0.028 C 
ENDBRANCH   7  17
BRANCH  12  19
HETATM   19  C7  UNL     1      -2.859   2.622   0.936  1.00  0.00     0.225 C 
BRANCH  19  20
HETATM   20  O1  UNL     1      -2.328   3.888   1.197  1.00  0.00    -0.390 OA
HETATM   21  C8  UNL     1      -3.296   4.828   1.443  1.00  0.00     0.201 C 
ENDBRANCH  19  20
ENDBRANCH  12  19
BRANCH  14  22
HETATM   22  N6  UNL     1       1.713   1.360   0.482  1.00  0.00    -0.176 N 
ATOM     23  H6  UNL     1       1.967   2.326   0.688  1.00  0.00     0.186 HD
BRANCH  22  24
HETATM   24  C10 UNL     1       2.744   0.427   0.235  1.00  0.00     0.138 A 
HETATM   25  C11 UNL     1       3.884   0.753  -0.491  1.00  0.00     0.074 A 
HETATM   26  C12 UNL     1       4.859  -0.201  -0.700  1.00  0.00     0.026 A 
HETATM   27  C13 UNL     1       6.076   0.190  -1.491  1.00  0.00     0.069 C 
HETATM   28  N7  UNL     1       4.710  -1.434  -0.208  1.00  0.00    -0.196 N 
HETATM   29  C14 UNL     1       3.610  -1.744   0.491  1.00  0.00     0.677 A 
ATOM     30  H7  UNL     1       5.432  -2.138  -0.364  1.00  0.00     0.184 HD
HETATM   31  N9  UNL     1       2.661  -0.828   0.700  1.00  0.00    -0.176 N 
ATOM     32  H9  UNL     1       1.836  -1.095   1.237  1.00  0.00     0.186 HD
BRANCH  29  33
HETATM   33  N8  UNL     1       3.446  -2.926   0.976  1.00  0.00    -0.234 N 
ATOM     34  H82 UNL     1       4.171  -3.626   0.816  1.00  0.00     0.174 HD
ATOM     35  H81 UNL     1       2.608  -3.162   1.508  1.00  0.00     0.174 HD
ENDBRANCH  29  33
ENDBRANCH  22  24
ENDBRANCH  14  22
ENDBRANCH   1   5
TORSDOF 7
