REMARK  6 active torsions:
REMARK  status: ('A' for Active; 'I' for Inactive)
REMARK    1  A    between atoms: C3_7  and  C4_8 
REMARK    2  A    between atoms: C4_8  and  N3_9 
REMARK    3  A    between atoms: N3_9  and  C5_10 
REMARK    4  A    between atoms: C6_13  and  N5_14 
REMARK    5  A    between atoms: C8_22  and  C9_23 
REMARK    6  A    between atoms: C9_23  and  C11_26 
ROOT
HETATM    1  C9  UNL     1      -4.223   1.153  -0.709  1.00  0.00     0.161 C 
HETATM    2  C10 UNL     1      -4.278   2.085  -1.750  1.00  0.00     0.071 C 
HETATM    3  N8  UNL     1      -4.351   2.864  -2.626  1.00  0.00    -0.196 NA
ENDROOT
BRANCH   1   4
HETATM    4  C8  UNL     1      -2.918   0.498  -0.437  1.00  0.00     0.098 A 
HETATM    5  N7  UNL     1      -2.850  -0.592   0.371  1.00  0.00    -0.338 N 
HETATM    6  C7  UNL     1      -1.787  -1.333   0.536  1.00  0.00     0.153 A 
ATOM      7  H7  UNL     1      -3.691  -0.851   0.887  1.00  0.00     0.167 HD
HETATM    8  N6  UNL     1      -1.826  -2.423   1.320  1.00  0.00    -0.174 N 
HETATM    9  C14 UNL     1      -0.614  -1.021  -0.127  1.00  0.00     0.139 A 
HETATM   10  C6  UNL     1      -0.682  -3.161   1.411  1.00  0.00     0.679 A 
ATOM     11  H6  UNL     1      -2.672  -2.687   1.824  1.00  0.00     0.186 HD
HETATM   12  N4  UNL     1       0.449  -2.859   0.779  1.00  0.00    -0.162 N 
HETATM   13  C5  UNL     1       0.542  -1.758  -0.031  1.00  0.00     0.223 A 
ATOM     14  H4  UNL     1       1.264  -3.460   0.900  1.00  0.00     0.187 HD
HETATM   15  N10 UNL     1      -0.658   0.068  -0.953  1.00  0.00    -0.315 N 
HETATM   16  C13 UNL     1      -1.754   0.803  -1.112  1.00  0.00     0.270 A 
ATOM     17  H10 UNL     1       0.184   0.327  -1.468  1.00  0.00     0.169 HD
HETATM   18  O1  UNL     1      -1.743   1.814  -1.911  1.00  0.00    -0.266 OA
BRANCH  10  19
HETATM   19  N5  UNL     1      -0.785  -4.226   2.174  1.00  0.00    -0.234 N 
ATOM     20  H52 UNL     1       0.070  -4.778   2.242  1.00  0.00     0.174 HD
ATOM     21  H51 UNL     1      -1.652  -4.458   2.659  1.00  0.00     0.174 HD
ENDBRANCH  10  19
BRANCH  13  22
HETATM   22  N3  UNL     1       1.578  -1.449  -0.528  1.00  0.00    -0.393 NA
BRANCH  22  23
HETATM   23  C4  UNL     1       2.607  -0.902  -1.193  1.00  0.00     0.234 C 
BRANCH  23  24
HETATM   24  C3  UNL     1       3.516  -0.031  -0.392  1.00  0.00     0.150 A 
HETATM   25  N2  UNL     1       3.693  -0.021   0.938  1.00  0.00    -0.282 N 
HETATM   26  N1  UNL     1       4.582   0.888   1.284  1.00  0.00    -0.288 N 
ATOM     27  H2  UNL     1       3.206  -0.634   1.592  1.00  0.00     0.188 HD
HETATM   28  C2  UNL     1       5.024   1.524   0.139  1.00  0.00     0.093 A 
ATOM     29  H1  UNL     1       4.891   1.088   2.235  1.00  0.00     0.188 HD
HETATM   30  C1  UNL     1       6.022   2.617   0.048  1.00  0.00     0.090 C 
HETATM   31  N11 UNL     1       4.328   0.905  -0.862  1.00  0.00    -0.328 N 
ATOM     32  H11 UNL     1       4.422   1.136  -1.851  1.00  0.00     0.169 HD
ENDBRANCH  23  24
ENDBRANCH  22  23
ENDBRANCH  13  22
ENDBRANCH   1   4
BRANCH   1  33
HETATM   33  C11 UNL     1      -4.809   1.682   0.641  1.00  0.00     0.149 C 
HETATM   34  C12 UNL     1      -5.008   0.611   1.594  1.00  0.00     0.060 C 
HETATM   35  N9  UNL     1      -5.172  -0.237   2.391  1.00  0.00    -0.197 NA
ENDBRANCH   1  33
TORSDOF 6
