REMARK  3 active torsions:
REMARK  status: ('A' for Active; 'I' for Inactive)
REMARK       I    between atoms: C2_2  and  N1_4 
REMARK       I    between atoms: C3_6  and  N2_7 
REMARK       I    between atoms: C3_6  and  N6_16 
REMARK       I    between atoms: C4_9  and  N4_11 
REMARK    1  A    between atoms: N4_11  and  N5_13 
REMARK    2  A    between atoms: N6_16  and  N7_18 
REMARK    3  A    between atoms: N7_18  and  N8_19 
ROOT
HETATM    1  C1  UNL     1      -1.489   3.096   0.914  1.00  0.00     0.118 C 
HETATM    2  C2  UNL     1      -0.616   2.228   0.105  1.00  0.00     0.232 C 
HETATM    3  O1  UNL     1      -0.458   2.498  -1.109  1.00  0.00    -0.273 OA
HETATM    4  N1  UNL     1       0.048   1.111   0.641  1.00  0.00    -0.159 N 
ATOM      5  H1  UNL     1       0.771   1.281   1.340  1.00  0.00     0.187 HD
HETATM    6  C3  UNL     1      -0.191  -0.115   0.312  1.00  0.00     0.700 C 
HETATM    7  N2  UNL     1       0.562  -1.122   0.943  1.00  0.00    -0.161 N 
ATOM      8  H2  UNL     1       0.052  -1.822   1.481  1.00  0.00     0.187 HD
HETATM    9  C4  UNL     1       1.840  -1.230   0.895  1.00  0.00     0.221 C 
HETATM   10  N3  UNL     1       2.459  -2.291   1.577  1.00  0.00    -0.061 NA
HETATM   11  N4  UNL     1       2.639  -0.312   0.175  1.00  0.00    -0.280 N 
ATOM     12  H4  UNL     1       3.432   0.121   0.649  1.00  0.00     0.189 HD
HETATM   13  N6  UNL     1      -1.188  -0.355  -0.656  1.00  0.00    -0.116 N 
ATOM     14  H6  UNL     1      -1.206   0.204  -1.509  1.00  0.00     0.203 HD
ENDROOT
BRANCH  13  15
HETATM   15  N7  UNL     1      -2.155  -1.351  -0.463  1.00  0.00    -0.015 NA
BRANCH  15  16
HETATM   16  N8  UNL     1      -2.759  -1.725  -1.644  1.00  0.00    -0.328 N 
ATOM     17  H82 UNL     1      -2.519  -1.315  -2.546  1.00  0.00     0.174 HD
ATOM     18  H81 UNL     1      -3.463  -2.450  -1.504  1.00  0.00     0.174 HD
ENDBRANCH  15  16
ENDBRANCH  13  15
BRANCH  11  19
HETATM   19  N5  UNL     1       2.391   0.028  -1.156  1.00  0.00    -0.343 N 
ATOM     20  H52 UNL     1       1.594  -0.414  -1.615  1.00  0.00     0.176 HD
ATOM     21  H51 UNL     1       2.967   0.690  -1.675  1.00  0.00     0.176 HD
ENDBRANCH  11  19
TORSDOF 3
