REMARK  2 active torsions:
REMARK  status: ('A' for Active; 'I' for Inactive)
REMARK    1  A    between atoms: C4_11  and  S1_12 
REMARK    2  A    between atoms: S1_12  and  N3_13 
ROOT
HETATM    1  N1  UNL     1       2.094  -2.021   0.677  1.00  0.00    -0.234 N 
ATOM      2  H11 UNL     1       1.520  -2.841   0.876  1.00  0.00     0.174 HD
ATOM      3  H12 UNL     1       3.109  -2.068   0.763  1.00  0.00     0.174 HD
HETATM    4  C1  UNL     1       1.535  -0.924   0.320  1.00  0.00     0.679 A 
HETATM    5  N2  UNL     1       2.345   0.233   0.039  1.00  0.00    -0.153 N 
ATOM      6  H2  UNL     1       3.358   0.157   0.134  1.00  0.00     0.187 HD
HETATM    7  C2  UNL     1       1.779   1.502  -0.374  1.00  0.00     0.312 A 
HETATM    8  O1  UNL     1       2.478   2.511  -0.620  1.00  0.00    -0.263 OA
HETATM    9  C3  UNL     1       0.324   1.590  -0.503  1.00  0.00     0.277 A 
HETATM   10  O2  UNL     1      -0.334   2.620  -0.865  1.00  0.00    -0.279 OA
HETATM   11  C4  UNL     1      -0.384   0.381  -0.195  1.00  0.00     0.192 A 
HETATM   12  N4  UNL     1       0.116  -0.858   0.200  1.00  0.00    -0.178 N 
ATOM     13  H4  UNL     1      -0.488  -1.658   0.389  1.00  0.00     0.185 HD
ENDROOT
BRANCH  11  14
HETATM   14  S1  UNL     1      -1.978   0.473  -0.336  1.00  0.00     0.166 S 
HETATM   15  O3  UNL     1      -1.871   0.118  -1.820  1.00  0.00    -0.229 OA
BRANCH  14  16
HETATM   16  N3  UNL     1      -2.791  -0.710   0.555  1.00  0.00    -0.344 NA
ATOM     17  H32 UNL     1      -2.862  -0.473   1.545  1.00  0.00     0.166 HD
ATOM     18  H31 UNL     1      -3.805  -0.651   0.465  1.00  0.00     0.166 HD
ENDBRANCH  14  16
ENDBRANCH  11  14
TORSDOF 2
