REMARK  0 active torsions:
REMARK  status: ('A' for Active; 'I' for Inactive)
REMARK       I    between atoms: C1_4  and  N3_6 
ROOT
HETATM    1  N1  UNL     1      -2.880  -0.955   1.328  1.00  0.00    -0.373 N 
ATOM      2  H11 UNL     1      -2.343  -1.211   2.156  1.00  0.00     0.158 HD
ATOM      3  H12 UNL     1      -3.845  -0.624   1.342  1.00  0.00     0.158 HD
HETATM    4  C1  UNL     1      -2.322  -1.048   0.156  1.00  0.00     0.187 C 
HETATM    5  N2  UNL     1      -3.064  -0.695  -0.988  1.00  0.00    -0.064 NA
HETATM    6  N3  UNL     1      -0.980  -1.509   0.136  1.00  0.00    -0.312 N 
ATOM      7  H3  UNL     1      -0.799  -2.513   0.157  1.00  0.00     0.170 HD
HETATM    8  C2  UNL     1       0.029  -0.681   0.091  1.00  0.00     0.180 C 
HETATM    9  N4  UNL     1      -0.261   0.710   0.063  1.00  0.00    -0.301 N 
ATOM     10  H4  UNL     1      -1.236   0.958  -0.104  1.00  0.00     0.171 HD
HETATM   11  C3  UNL     1       0.647   1.815   0.241  1.00  0.00     0.303 C 
HETATM   12  O1  UNL     1       0.166   2.956   0.080  1.00  0.00    -0.263 OA
HETATM   13  C4  UNL     1       2.063   1.786   0.587  1.00  0.00     0.306 C 
HETATM   14  O2  UNL     1       2.664   2.874   0.757  1.00  0.00    -0.276 OA
HETATM   15  C5  UNL     1       2.934   0.607   0.775  1.00  0.00     0.304 C 
HETATM   16  O3  UNL     1       4.035   0.846   1.324  1.00  0.00    -0.263 OA
HETATM   17  N5  UNL     1       2.634  -0.731   0.397  1.00  0.00    -0.284 N 
ATOM     18  H5  UNL     1       3.426  -1.372   0.348  1.00  0.00     0.172 HD
HETATM   19  C6  UNL     1       1.349  -1.289   0.076  1.00  0.00     0.292 C 
HETATM   20  O4  UNL     1       1.384  -2.493  -0.272  1.00  0.00    -0.264 OA
ENDROOT
TORSDOF 0
