REMARK  0 active torsions:
REMARK  status: ('A' for Active; 'I' for Inactive)
ROOT
HETATM    1  N1  UNL     1       0.309  -2.401   0.361  1.00  0.00    -0.080 NA
HETATM    2  C1  UNL     1       0.540  -0.993   0.287  1.00  0.00     0.151 A 
HETATM    3  C2  UNL     1      -0.528  -0.206   0.176  1.00  0.00     0.124 A 
HETATM    4  N2  UNL     1      -1.768  -0.720   0.136  1.00  0.00    -0.302 N 
ATOM      5  H2  UNL     1      -1.985  -1.715   0.185  1.00  0.00     0.171 HD
HETATM    6  C3  UNL     1      -2.689   0.263   0.022  1.00  0.00     0.326 A 
HETATM    7  O1  UNL     1      -3.941   0.116  -0.042  1.00  0.00    -0.247 OA
HETATM    8  N3  UNL     1      -1.998   1.421  -0.010  1.00  0.00    -0.291 N 
ATOM      9  H3  UNL     1      -2.410   2.351  -0.092  1.00  0.00     0.172 HD
HETATM   10  C4  UNL     1      -0.665   1.157   0.084  1.00  0.00     0.154 A 
HETATM   11  N4  UNL     1       0.261   2.057   0.083  1.00  0.00    -0.280 N 
ATOM     12  H4  UNL     1      -0.078   3.016   0.005  1.00  0.00     0.189 HD
HETATM   13  N5  UNL     1       1.657   1.935   0.171  1.00  0.00    -0.250 N 
ATOM     14  H5  UNL     1       2.185   2.807   0.194  1.00  0.00     0.192 HD
HETATM   15  C5  UNL     1       2.418   0.741   0.232  1.00  0.00     0.340 A 
HETATM   16  O2  UNL     1       3.645   0.915   0.181  1.00  0.00    -0.245 OA
HETATM   17  N6  UNL     1       1.918  -0.581   0.342  1.00  0.00    -0.294 N 
ATOM     18  H6  UNL     1       2.609  -1.320   0.474  1.00  0.00     0.172 HD
ENDROOT
TORSDOF 0
