REMARK  1 active torsions:
REMARK  status: ('A' for Active; 'I' for Inactive)
REMARK    1  A    between atoms: C3_7  and  N3_8 
REMARK       I    between atoms: N3_8  and  C4_10 
ROOT
HETATM    1  C1  UNL     1      -3.419   0.019  -0.124  1.00  0.00     0.166 C 
HETATM    2  N1  UNL     1      -1.982  -0.154   0.112  1.00  0.00    -0.255 N 
HETATM    3  C2  UNL     1      -1.555  -1.069   1.002  1.00  0.00     0.344 A 
HETATM    4  O1  UNL     1      -2.382  -1.758   1.615  1.00  0.00    -0.246 OA
HETATM    5  N2  UNL     1      -0.232  -1.226   1.217  1.00  0.00    -0.140 N 
ATOM      6  H2  UNL     1       0.088  -1.921   1.892  1.00  0.00     0.189 HD
HETATM    7  C3  UNL     1       0.669  -0.482   0.557  1.00  0.00     0.692 A 
HETATM    8  N6  UNL     1       0.221   0.426  -0.328  1.00  0.00    -0.140 N 
ATOM      9  H6  UNL     1       0.895   0.998  -0.838  1.00  0.00     0.189 HD
HETATM   10  C5  UNL     1      -1.105   0.601  -0.560  1.00  0.00     0.344 A 
HETATM   11  O2  UNL     1      -1.513   1.463  -1.399  1.00  0.00    -0.246 OA
ENDROOT
BRANCH   7  12
HETATM   12  N3  UNL     1       1.947  -0.660   0.790  1.00  0.00    -0.163 N 
HETATM   13  C4  UNL     1       2.928   0.109   0.109  1.00  0.00     0.200 C 
HETATM   14  N4  UNL     1       3.633  -0.467  -0.788  1.00  0.00    -0.373 N 
HETATM   15  N5  UNL     1       3.156   1.489   0.384  1.00  0.00    -0.063 NA
ATOM     16  H42 UNL     1       3.470  -1.454  -0.985  1.00  0.00     0.158 HD
ATOM     17  H41 UNL     1       4.337   0.085  -1.277  1.00  0.00     0.158 HD
ATOM     18  H3  UNL     1       2.241  -1.361   1.470  1.00  0.00     0.187 HD
ENDBRANCH   7  12
TORSDOF 1
