REMARK  1 active torsions:
REMARK  status: ('A' for Active; 'I' for Inactive)
REMARK       I    between atoms: C4_11  and  N4_12 
REMARK    1  A    between atoms: N4_12  and  N5_14 
ROOT
HETATM    1  C1  UNL     1       3.264   0.378  -0.226  1.00  0.00     0.148 C 
HETATM    2  N1  UNL     1       2.401  -0.740  -0.198  1.00  0.00    -0.376 N 
ATOM      3  H1  UNL     1       2.808  -1.632  -0.480  1.00  0.00     0.160 HD
HETATM    4  C2  UNL     1       1.185  -0.762   0.136  1.00  0.00     0.174 C 
HETATM    5  N2  UNL     1       0.561  -1.978   0.078  1.00  0.00    -0.290 N 
ATOM      6  H2  UNL     1       1.147  -2.807   0.174  1.00  0.00     0.172 HD
HETATM    7  C3  UNL     1      -0.758  -2.175  -0.095  1.00  0.00     0.340 C 
HETATM    8  O1  UNL     1      -1.087  -3.383  -0.191  1.00  0.00    -0.246 OA
HETATM    9  N3  UNL     1      -1.774  -1.276  -0.182  1.00  0.00    -0.140 N 
ATOM     10  H3  UNL     1      -2.695  -1.674  -0.368  1.00  0.00     0.189 HD
HETATM   11  C4  UNL     1      -1.740   0.059  -0.059  1.00  0.00     0.703 C 
HETATM   12  N4  UNL     1      -2.865   0.704  -0.259  1.00  0.00    -0.138 N 
ATOM     13  H4  UNL     1      -3.720   0.201  -0.496  1.00  0.00     0.205 HD
HETATM   14  N6  UNL     1      -0.667   0.810   0.250  1.00  0.00    -0.151 N 
ATOM     15  H6  UNL     1      -0.830   1.816   0.284  1.00  0.00     0.188 HD
HETATM   16  C5  UNL     1       0.606   0.413   0.524  1.00  0.00     0.303 C 
HETATM   17  O2  UNL     1       1.279   1.231   1.200  1.00  0.00    -0.263 OA
ENDROOT
BRANCH  12  18
HETATM   18  N5  UNL     1      -2.865   2.089  -0.140  1.00  0.00    -0.331 N 
ATOM     19  H52 UNL     1      -2.002   2.578   0.098  1.00  0.00     0.177 HD
ATOM     20  H51 UNL     1      -3.740   2.590  -0.295  1.00  0.00     0.177 HD
ENDBRANCH  12  18
TORSDOF 1
