REMARK  1 active torsions:
REMARK  status: ('A' for Active; 'I' for Inactive)
REMARK       I    between atoms: C1_4  and  N3_6 
REMARK    1  A    between atoms: N5_11  and  N6_12 
ROOT
HETATM    1  N1  UNL     1      -2.662  -0.884   1.572  1.00  0.00    -0.371 N 
ATOM      2  H11 UNL     1      -2.007  -1.265   2.255  1.00  0.00     0.158 HD
ATOM      3  H12 UNL     1      -3.670  -0.991   1.686  1.00  0.00     0.158 HD
HETATM    4  C1  UNL     1      -2.225  -0.255   0.546  1.00  0.00     0.224 C 
HETATM    5  N2  UNL     1      -3.126   0.269  -0.393  1.00  0.00    -0.060 NA
HETATM    6  N3  UNL     1      -0.833  -0.107   0.389  1.00  0.00    -0.159 N 
HETATM    7  N4  UNL     1      -0.034  -1.246   0.375  1.00  0.00    -0.226 N 
ATOM      8  H4  UNL     1      -0.460  -2.167   0.477  1.00  0.00     0.194 HD
HETATM    9  C2  UNL     1       1.385  -1.128   0.217  1.00  0.00     0.363 A 
HETATM   10  O1  UNL     1       2.130  -2.139   0.200  1.00  0.00    -0.243 OA
HETATM   11  N5  UNL     1       1.991   0.144   0.074  1.00  0.00    -0.182 N 
HETATM   12  C3  UNL     1       1.166   1.292   0.090  1.00  0.00     0.217 A 
HETATM   13  S1  UNL     1       1.866   2.750  -0.074  1.00  0.00    -0.037 SA
HETATM   14  N7  UNL     1      -0.261   1.154   0.250  1.00  0.00    -0.250 N 
ATOM     15  H7  UNL     1      -0.853   1.984   0.261  1.00  0.00     0.191 HD
ENDROOT
BRANCH  11  16
HETATM   16  N6  UNL     1       3.369   0.228  -0.077  1.00  0.00    -0.332 N 
ATOM     17  H62 UNL     1       3.964  -0.600  -0.089  1.00  0.00     0.177 HD
ATOM     18  H61 UNL     1       3.805   1.144  -0.180  1.00  0.00     0.177 HD
ENDBRANCH  11  16
TORSDOF 1
