REMARK  3 active torsions:
REMARK  status: ('A' for Active; 'I' for Inactive)
REMARK    1  A    between atoms: O1_2  and  C2_3 
REMARK    2  A    between atoms: C5_6  and  O2_7 
REMARK    3  A    between atoms: C10_13  and  O3_14 
ROOT
HETATM    1  C2  UNL     1      -1.563  -0.559  -0.444  1.00  0.00     0.171 C 
HETATM    2  C3  UNL     1      -2.249   0.282  -1.480  1.00  0.00     0.072 C 
HETATM    3  C4  UNL     1      -2.083   1.724  -1.127  1.00  0.00     0.044 C 
HETATM    4  C5  UNL     1      -0.950   1.746  -0.164  1.00  0.00     0.068 C 
HETATM    5  C6  UNL     1       0.383   1.317  -0.771  1.00  0.00     0.051 C 
HETATM    6  C7  UNL     1       0.463   0.282   0.323  1.00  0.00     0.000 C 
HETATM    7  C8  UNL     1       1.410   0.563   1.412  1.00  0.00     0.015 C 
HETATM    8  C9  UNL     1       2.802   0.403   0.819  1.00  0.00     0.032 C 
HETATM    9  C10 UNL     1       3.010  -0.917   0.157  1.00  0.00     0.120 C 
HETATM   10  C11 UNL     1       1.909  -1.340  -0.762  1.00  0.00     0.064 C 
HETATM   11  C12 UNL     1       0.569  -1.147  -0.146  1.00  0.00     0.137 C 
HETATM   12  O4  UNL     1      -0.492  -1.256  -0.995  1.00  0.00    -0.348 OA
HETATM   13  C13 UNL     1      -0.994   0.438   0.539  1.00  0.00     0.093 C 
ENDROOT
BRANCH   1  14
HETATM   14  O1  UNL     1      -2.481  -1.370   0.176  1.00  0.00    -0.359 OA
HETATM   15  C1  UNL     1      -3.063  -2.305  -0.638  1.00  0.00     0.205 C 
ENDBRANCH   1  14
BRANCH   4  16
HETATM   16  O2  UNL     1      -0.864   2.855   0.665  1.00  0.00    -0.389 OA
ATOM     17  H2  UNL     1      -0.140   2.869   1.280  1.00  0.00     0.210 HD
ENDBRANCH   4  16
BRANCH   9  18
HETATM   18  O3  UNL     1       4.189  -0.820  -0.605  1.00  0.00    -0.395 OA
ATOM     19  H3  UNL     1       4.322  -1.661  -1.027  1.00  0.00     0.210 HD
ENDBRANCH   9  18
TORSDOF 3
