REMARK  2 active torsions:
REMARK  status: ('A' for Active; 'I' for Inactive)
REMARK    1  A    between atoms: C7_8  and  O2_9 
REMARK    2  A    between atoms: C11_14  and  O3_15 
ROOT
HETATM    1  C1  UNL     1       3.835   0.249   1.027  1.00  0.00     0.040 C 
HETATM    2  C2  UNL     1       2.421   0.727   0.752  1.00  0.00     0.128 C 
HETATM    3  O1  UNL     1       1.482  -0.268   1.081  1.00  0.00    -0.368 OA
HETATM    4  C3  UNL     1       0.846   0.005  -0.100  1.00  0.00     0.126 C 
HETATM    5  C4  UNL     1       0.683  -1.231  -1.016  1.00  0.00     0.160 C 
HETATM    6  C5  UNL     1      -0.377  -1.963  -0.322  1.00  0.00     0.045 C 
HETATM    7  C6  UNL     1      -1.188  -0.854   0.345  1.00  0.00     0.054 C 
HETATM    8  C7  UNL     1      -2.627  -0.886   0.037  1.00  0.00     0.125 C 
HETATM    9  C8  UNL     1      -3.178   0.524   0.291  1.00  0.00     0.032 C 
HETATM   10  C9  UNL     1      -2.327   1.249   1.318  1.00  0.00     0.006 C 
HETATM   11  C10 UNL     1      -0.935   1.541   0.803  1.00  0.00     0.042 C 
HETATM   12  C11 UNL     1      -0.525   0.462  -0.112  1.00  0.00     0.098 C 
HETATM   13  O4  UNL     1       1.953  -1.686  -1.001  1.00  0.00    -0.382 OA
HETATM   14  C12 UNL     1       2.658  -0.531  -1.432  1.00  0.00     0.178 C 
HETATM   15  C13 UNL     1       1.991   0.640  -0.690  1.00  0.00     0.078 C 
ENDROOT
BRANCH   8  16
HETATM   16  O2  UNL     1      -2.891  -1.285  -1.270  1.00  0.00    -0.395 OA
ATOM     17  H2  UNL     1      -3.820  -1.306  -1.469  1.00  0.00     0.210 HD
ENDBRANCH   8  16
BRANCH  12  18
HETATM   18  O3  UNL     1      -0.958   0.647  -1.429  1.00  0.00    -0.386 OA
ATOM     19  H3  UNL     1      -1.859   0.947  -1.437  1.00  0.00     0.210 HD
ENDBRANCH  12  18
TORSDOF 2
