REMARK  4 active torsions:
REMARK  status: ('A' for Active; 'I' for Inactive)
REMARK    1  A    between atoms: C5_6  and  O1_7 
REMARK    2  A    between atoms: C5_6  and  C6_9 
REMARK    3  A    between atoms: C7_10  and  C8_11 
REMARK    4  A    between atoms: C8_11  and  O2_12 
ROOT
HETATM    1  N1  UNL     1       5.409   0.950   1.376  1.00  0.00    -0.197 NA
HETATM    2  C1  UNL     1       4.777   0.502   0.509  1.00  0.00     0.064 C 
HETATM    3  C2  UNL     1       3.980  -0.090  -0.585  1.00  0.00     0.093 C 
HETATM    4  C3  UNL     1       3.248   0.988  -1.304  1.00  0.00     0.023 C 
HETATM    5  C4  UNL     1       1.781   0.624  -1.398  1.00  0.00     0.053 C 
HETATM    6  C5  UNL     1       1.309   0.452   0.051  1.00  0.00     0.121 C 
HETATM    7  C12 UNL     1       1.860  -0.868   0.517  1.00  0.00     0.053 C 
HETATM    8  C13 UNL     1       3.149  -1.232  -0.132  1.00  0.00     0.023 C 
ENDROOT
BRANCH   6   9
HETATM    9  O1  UNL     1       1.856   1.504   0.807  1.00  0.00    -0.378 OA
ATOM     10  H1  UNL     1       1.564   1.397   1.705  1.00  0.00     0.211 HD
ENDBRANCH   6   9
BRANCH   6  11
HETATM   11  C6  UNL     1      -0.135   0.407   0.142  1.00  0.00    -0.063 C 
HETATM   12  C7  UNL     1      -1.344   0.391   0.215  1.00  0.00    -0.035 C 
BRANCH  12  13
HETATM   13  C8  UNL     1      -2.807   0.395   0.299  1.00  0.00     0.230 C 
HETATM   14  C9  UNL     1      -3.359  -0.759  -0.519  1.00  0.00     0.085 C 
HETATM   15  C10 UNL     1      -4.777  -0.824   0.064  1.00  0.00     0.033 C 
HETATM   16  C11 UNL     1      -4.526  -0.410   1.481  1.00  0.00     0.172 C 
HETATM   17  O3  UNL     1      -3.265   0.115   1.566  1.00  0.00    -0.345 OA
BRANCH  13  18
HETATM   18  O2  UNL     1      -3.363   1.556  -0.205  1.00  0.00    -0.355 OA
ATOM     19  H2  UNL     1      -4.311   1.559  -0.151  1.00  0.00     0.214 HD
ENDBRANCH  13  18
ENDBRANCH  12  13
ENDBRANCH   6  11
TORSDOF 4
