REMARK  1 active torsions:
REMARK  status: ('A' for Active; 'I' for Inactive)
REMARK    1  A    between atoms: N1_1  and  C1_5 
ROOT
HETATM    1  C1  UNL     1      -1.801   1.125  -0.552  1.00  0.00     0.193 C 
HETATM    2  C2  UNL     1      -1.851   0.691   0.926  1.00  0.00     0.021 C 
HETATM    3  C3  UNL     1      -0.464   1.261   1.281  1.00  0.00     0.022 C 
HETATM    4  C4  UNL     1       0.344   0.452   0.259  1.00  0.00     0.018 C 
HETATM    5  C5  UNL     1       1.709   1.022   0.009  1.00  0.00     0.136 C 
HETATM    6  C6  UNL     1       2.253   0.417  -1.273  1.00  0.00     0.038 C 
HETATM    7  C7  UNL     1       3.346  -0.564  -0.810  1.00  0.00     0.063 C 
HETATM    8  C8  UNL     1       2.785  -0.856   0.589  1.00  0.00     0.260 C 
HETATM    9  O1  UNL     1       2.541   0.463   1.008  1.00  0.00    -0.355 OA
HETATM   10  O2  UNL     1       1.588  -1.593   0.465  1.00  0.00    -0.355 OA
HETATM   11  C9  UNL     1       0.601  -0.830   1.032  1.00  0.00     0.136 C 
HETATM   12  C10 UNL     1      -0.661  -1.491   1.403  1.00  0.00     0.038 C 
HETATM   13  C11 UNL     1      -1.909  -0.784   0.928  1.00  0.00    -0.006 C 
HETATM   14  C12 UNL     1      -2.173  -1.382  -0.462  1.00  0.00     0.005 C 
HETATM   15  C13 UNL     1      -0.981  -1.031  -1.293  1.00  0.00     0.008 C 
HETATM   16  C14 UNL     1      -0.521   0.352  -0.927  1.00  0.00     0.030 C 
ENDROOT
BRANCH   1  17
HETATM   17  N1  UNL     1      -1.622   2.541  -0.676  1.00  0.00    -0.074 N 
ATOM     18  H13 UNL     1      -2.336   3.054  -0.160  1.00  0.00     0.274 HD
ATOM     19  H12 UNL     1      -0.799   2.860  -0.165  1.00  0.00     0.274 HD
ATOM     20  H11 UNL     1      -1.589   2.828  -1.654  1.00  0.00     0.274 HD
ENDBRANCH   1  17
TORSDOF 1
