REMARK  2 active torsions:
REMARK  status: ('A' for Active; 'I' for Inactive)
REMARK    1  A    between atoms: C8_8  and  O1_9 
REMARK    2  A    between atoms: C13_16  and  O3_17 
ROOT
HETATM    1  C1  UNL     1      -1.436  -2.330  -0.582  1.00  0.00     0.019 C 
HETATM    2  C2  UNL     1      -0.947  -0.975  -0.043  1.00  0.00    -0.003 A 
HETATM    3  C3  UNL     1      -1.568  -0.453   1.172  1.00  0.00     0.134 C 
HETATM    4  C4  UNL     1      -0.731   0.304   2.137  1.00  0.00     0.033 C 
HETATM    5  C5  UNL     1       0.730   0.152   2.037  1.00  0.00     0.008 C 
HETATM    6  C6  UNL     1       1.311  -0.209   0.728  1.00  0.00     0.002 C 
HETATM    7  C7  UNL     1       2.243   0.877   0.159  1.00  0.00     0.066 C 
HETATM    8  C8  UNL     1       2.494   0.393  -1.276  1.00  0.00     0.257 C 
HETATM    9  O2  UNL     1       2.500  -0.983  -1.363  1.00  0.00    -0.361 OA
HETATM   10  C9  UNL     1       1.261  -1.577  -1.249  1.00  0.00     0.182 C 
HETATM   11  C10 UNL     1       0.424  -0.642  -0.352  1.00  0.00    -0.000 A 
HETATM   12  C11 UNL     1      -0.582   0.096  -1.067  1.00  0.00     0.013 A 
HETATM   13  C12 UNL     1      -1.184   1.407  -0.705  1.00  0.00     0.067 C 
HETATM   14  C13 UNL     1      -2.560   1.172  -0.177  1.00  0.00     0.257 C 
HETATM   15  O4  UNL     1      -2.687   0.379   0.911  1.00  0.00    -0.355 OA
ENDROOT
BRANCH   8  16
HETATM   16  O1  UNL     1       3.811   0.815  -1.569  1.00  0.00    -0.371 OA
ATOM     17  H1  UNL     1       3.966   0.515  -2.457  1.00  0.00     0.212 HD
ENDBRANCH   8  16
BRANCH  14  18
HETATM   18  O3  UNL     1      -3.232   2.383   0.092  1.00  0.00    -0.371 OA
ATOM     19  H3  UNL     1      -4.108   2.233   0.428  1.00  0.00     0.212 HD
ENDBRANCH  14  18
TORSDOF 2
