REMARK  2 active torsions:
REMARK  status: ('A' for Active; 'I' for Inactive)
REMARK    1  A    between atoms: C2_2  and  O1_3 
REMARK    2  A    between atoms: C9_12  and  O3_13 
ROOT
HETATM    1  C1  UNL     1       3.134   0.196  -0.804  1.00  0.00     0.079 C 
HETATM    2  C2  UNL     1       2.033  -0.571  -0.121  1.00  0.00     0.165 C 
HETATM    3  O2  UNL     1       1.102  -1.105  -0.923  1.00  0.00    -0.349 OA
HETATM    4  C3  UNL     1      -0.191  -1.059  -0.642  1.00  0.00     0.136 C 
HETATM    5  C4  UNL     1      -0.678  -0.833   0.752  1.00  0.00     0.016 C 
HETATM    6  C5  UNL     1      -1.881  -1.696   0.897  1.00  0.00     0.007 C 
HETATM    7  C6  UNL     1      -2.682  -1.311  -0.363  1.00  0.00     0.001 C 
HETATM    8  C7  UNL     1      -2.298   0.034  -0.934  1.00  0.00     0.010 C 
HETATM    9  C8  UNL     1      -0.837   0.127  -1.378  1.00  0.00     0.047 C 
HETATM   10  C9  UNL     1      -0.121   1.323  -0.895  1.00  0.00     0.162 C 
HETATM   11  C10 UNL     1       0.571   1.352   0.372  1.00  0.00     0.117 A 
HETATM   12  C11 UNL     1       0.283   2.496   1.353  1.00  0.00     0.210 A 
HETATM   13  O4  UNL     1       1.342   2.624   0.470  1.00  0.00    -0.372 OA
HETATM   14  C12 UNL     1       1.321   0.242   0.935  1.00  0.00     0.087 C 
HETATM   15  C13 UNL     1       0.451  -0.830   1.657  1.00  0.00     0.020 C 
ENDROOT
BRANCH   2  16
HETATM   16  O1  UNL     1       2.675  -1.625   0.574  1.00  0.00    -0.365 OA
ATOM     17  H1  UNL     1       1.980  -2.109   1.005  1.00  0.00     0.213 HD
ENDBRANCH   2  16
BRANCH  10  18
HETATM   18  O3  UNL     1      -1.063   2.387  -0.915  1.00  0.00    -0.392 OA
ATOM     19  H3  UNL     1      -0.602   3.157  -0.604  1.00  0.00     0.210 HD
ENDBRANCH  10  18
TORSDOF 2
