REMARK  2 active torsions:
REMARK  status: ('A' for Active; 'I' for Inactive)
REMARK    1  A    between atoms: O1_1  and  C1_3 
REMARK    2  A    between atoms: C6_9  and  O2_10 
ROOT
HETATM    1  C1  UNL     1       1.968   0.170  -0.905  1.00  0.00     0.070 C 
HETATM    2  C2  UNL     1       2.887  -0.431   0.109  1.00  0.00     0.111 C 
HETATM    3  S1  UNL     1       2.017  -1.081   1.557  1.00  0.00    -0.165 SA
HETATM    4  C3  UNL     1       0.301  -1.351   1.111  1.00  0.00     0.089 C 
HETATM    5  C4  UNL     1      -0.165  -0.357   0.037  1.00  0.00     0.033 C 
HETATM    6  C5  UNL     1       0.735  -0.637  -1.172  1.00  0.00     0.055 C 
HETATM    7  C6  UNL     1       0.182   1.015   0.448  1.00  0.00     0.074 C 
HETATM    8  C7  UNL     1      -0.860   2.051   0.251  1.00  0.00     0.065 C 
HETATM    9  C8  UNL     1      -2.220   1.435   0.497  1.00  0.00     0.171 C 
HETATM   10  O3  UNL     1      -2.384   0.449  -0.478  1.00  0.00    -0.379 OA
HETATM   11  C9  UNL     1      -1.593  -0.638  -0.228  1.00  0.00     0.072 A 
HETATM   12  C10 UNL     1      -1.934  -1.873  -1.016  1.00  0.00     0.042 A 
HETATM   13  C11 UNL     1      -2.291  -1.787   0.459  1.00  0.00     0.042 A 
HETATM   14  C12 UNL     1       1.411   1.450  -0.343  1.00  0.00     0.077 C 
ENDROOT
BRANCH   1  15
HETATM   15  O1  UNL     1       2.703   0.442  -2.053  1.00  0.00    -0.389 OA
ATOM     16  H1  UNL     1       2.119   0.824  -2.698  1.00  0.00     0.210 HD
ENDBRANCH   1  15
BRANCH   7  17
HETATM   17  O2  UNL     1       0.577   1.060   1.803  1.00  0.00    -0.389 OA
ATOM     18  H2  UNL     1       0.801   1.944   2.068  1.00  0.00     0.210 HD
ENDBRANCH   7  17
TORSDOF 2
