REMARK  2 active torsions:
REMARK  status: ('A' for Active; 'I' for Inactive)
REMARK    1  A    between atoms: C3_3  and  C4_5 
REMARK    2  A    between atoms: C4_5  and  O1_6 
ROOT
HETATM    1  C4  UNL     1       0.889  -0.697  -0.781  1.00  0.00     0.206 C 
HETATM    2  C5  UNL     1       0.180   0.467  -1.355  1.00  0.00     0.075 C 
HETATM    3  C6  UNL     1      -0.590   1.323  -0.429  1.00  0.00     0.011 C 
HETATM    4  C7  UNL     1      -2.038   1.112  -0.316  1.00  0.00    -0.003 C 
HETATM    5  C8  UNL     1      -2.393   0.644   1.095  1.00  0.00    -0.004 C 
HETATM    6  C9  UNL     1      -3.565  -0.087   0.430  1.00  0.00     0.013 C 
HETATM    7  C10 UNL     1      -2.666  -0.120  -0.820  1.00  0.00     0.025 C 
HETATM    8  C11 UNL     1      -1.877  -1.369  -0.726  1.00  0.00     0.192 A 
HETATM    9  O2  UNL     1      -1.982  -2.316   0.241  1.00  0.00    -0.341 OA
HETATM   10  C12 UNL     1      -1.029  -1.319   0.427  1.00  0.00     0.195 A 
HETATM   11  C13 UNL     1      -1.414  -0.398   1.539  1.00  0.00     0.076 C 
HETATM   12  O3  UNL     1       0.269  -1.452   0.161  1.00  0.00    -0.311 OA
ENDROOT
BRANCH   1  13
HETATM   13  C3  UNL     1       2.225  -0.350  -0.197  1.00  0.00     0.081 C 
HETATM   14  C2  UNL     1       2.699   0.844  -0.026  1.00  0.00    -0.003 C 
HETATM   15  C1  UNL     1       4.038   1.080   0.566  1.00  0.00     0.038 C 
HETATM   16  N1  UNL     1       3.025  -1.454   0.201  1.00  0.00    -0.102 NA
ENDBRANCH   1  13
BRANCH   1  17
HETATM   17  O1  UNL     1       1.231  -1.526  -1.886  1.00  0.00    -0.361 OA
ATOM     18  H1  UNL     1       0.384  -1.746  -2.256  1.00  0.00     0.213 HD
ENDBRANCH   1  17
TORSDOF 2
