REMARK  2 active torsions:
REMARK  status: ('A' for Active; 'I' for Inactive)
REMARK    1  A    between atoms: O1_1  and  C1_3 
REMARK    2  A    between atoms: C13_17  and  O4_18 
ROOT
HETATM    1  C1  UNL     1      -1.899  -1.317   0.008  1.00  0.00     0.178 C 
HETATM    2  C2  UNL     1      -2.058   0.132   0.332  1.00  0.00     0.154 C 
HETATM    3  C3  UNL     1      -2.199   1.061  -0.821  1.00  0.00     0.035 C 
HETATM    4  C4  UNL     1      -1.360   2.331  -0.616  1.00  0.00     0.006 C 
HETATM    5  C5  UNL     1       0.098   2.014  -0.345  1.00  0.00     0.041 C 
HETATM    6  C6  UNL     1       0.197   0.731   0.327  1.00  0.00     0.093 C 
HETATM    7  O2  UNL     1      -0.961   0.513   1.077  1.00  0.00    -0.369 OA
HETATM    8  C7  UNL     1       1.264   0.555   1.388  1.00  0.00     0.157 C 
HETATM    9  C8  UNL     1       2.638   0.831   0.924  1.00  0.00     0.035 C 
HETATM   10  C9  UNL     1       3.045  -0.201  -0.120  1.00  0.00     0.003 C 
HETATM   11  C10 UNL     1       1.936  -0.279  -1.112  1.00  0.00     0.010 C 
HETATM   12  C11 UNL     1       0.571  -0.452  -0.533  1.00  0.00     0.054 C 
HETATM   13  C12 UNL     1       0.566  -1.464   0.623  1.00  0.00     0.160 C 
HETATM   14  O3  UNL     1       1.075  -0.803   1.709  1.00  0.00    -0.374 OA
HETATM   15  C13 UNL     1      -0.793  -2.004   0.744  1.00  0.00     0.178 C 
ENDROOT
BRANCH   1  16
HETATM   16  O1  UNL     1      -3.072  -1.958   0.498  1.00  0.00    -0.390 OA
ATOM     17  H1  UNL     1      -2.971  -2.880   0.292  1.00  0.00     0.210 HD
ENDBRANCH   1  16
BRANCH  15  18
HETATM   18  O4  UNL     1      -0.762  -3.332   0.248  1.00  0.00    -0.390 OA
ATOM     19  H4  UNL     1      -0.059  -3.768   0.715  1.00  0.00     0.210 HD
ENDBRANCH  15  18
TORSDOF 2
