REMARK  2 active torsions:
REMARK  status: ('A' for Active; 'I' for Inactive)
REMARK    1  A    between atoms: C11_13  and  O2_14 
REMARK    2  A    between atoms: C13_17  and  O3_18 
ROOT
HETATM    1  C1  UNL     1      -3.304  -0.295   0.982  1.00  0.00     0.017 C 
HETATM    2  C2  UNL     1      -2.369  -0.439   0.047  1.00  0.00    -0.057 C 
HETATM    3  C3  UNL     1      -2.059   0.767  -0.759  1.00  0.00     0.036 C 
HETATM    4  C4  UNL     1      -1.277   1.820  -0.014  1.00  0.00     0.005 C 
HETATM    5  C5  UNL     1       0.139   2.005  -0.410  1.00  0.00     0.007 C 
HETATM    6  C6  UNL     1       1.160   1.308   0.516  1.00  0.00     0.024 C 
HETATM    7  C7  UNL     1       2.450   1.257  -0.311  1.00  0.00     0.008 C 
HETATM    8  C8  UNL     1       2.267   0.441  -1.539  1.00  0.00     0.031 C 
HETATM    9  C9  UNL     1       1.340  -0.725  -1.406  1.00  0.00     0.277 C 
HETATM   10  N1  UNL     1       0.239  -0.550  -0.540  1.00  0.00     0.130 N 
HETATM   11  C10 UNL     1      -0.260  -1.821  -0.116  1.00  0.00     0.395 C 
HETATM   12  O1  UNL     1       0.393  -2.146   1.066  1.00  0.00    -0.322 OA
HETATM   13  C11 UNL     1       1.410  -1.160   1.253  1.00  0.00     0.293 C 
HETATM   14  C12 UNL     1       0.628  -0.002   0.771  1.00  0.00     0.285 C 
HETATM   15  C13 UNL     1      -1.730  -1.761  -0.104  1.00  0.00     0.205 C 
ENDROOT
BRANCH  13  16
HETATM   16  O2  UNL     1       1.558  -1.064   2.652  1.00  0.00    -0.369 OA
ATOM     17  H2  UNL     1       2.234  -0.408   2.776  1.00  0.00     0.212 HD
ENDBRANCH  13  16
BRANCH  15  18
HETATM   18  O3  UNL     1      -2.210  -2.653   0.837  1.00  0.00    -0.387 OA
ATOM     19  H3  UNL     1      -1.799  -3.504   0.740  1.00  0.00     0.210 HD
ENDBRANCH  15  18
TORSDOF 2
