REMARK  2 active torsions:
REMARK  status: ('A' for Active; 'I' for Inactive)
REMARK    1  A    between atoms: C4_5  and  O2_6 
REMARK    2  A    between atoms: C13_17  and  O4_18 
ROOT
HETATM    1  C1  UNL     1       3.681   0.745   0.874  1.00  0.00     0.015 C 
HETATM    2  C2  UNL     1       2.888  -0.261   0.051  1.00  0.00     0.034 C 
HETATM    3  C3  UNL     1       1.890  -0.923   0.954  1.00  0.00     0.178 C 
HETATM    4  O1  UNL     1       0.832  -0.028   1.136  1.00  0.00    -0.354 OA
HETATM    5  C4  UNL     1      -0.338  -0.756   1.059  1.00  0.00     0.168 C 
HETATM    6  C5  UNL     1      -1.387  -0.122   1.931  1.00  0.00     0.101 C 
HETATM    7  C6  UNL     1      -2.575   0.178   1.066  1.00  0.00     0.131 C 
HETATM    8  O3  UNL     1      -2.555   1.457   0.525  1.00  0.00    -0.385 OA
HETATM    9  C7  UNL     1      -3.303   1.400  -0.662  1.00  0.00     0.168 C 
HETATM   10  C8  UNL     1      -3.136   0.000  -1.202  1.00  0.00     0.034 C 
HETATM   11  C9  UNL     1      -2.344  -0.679  -0.157  1.00  0.00     0.026 C 
HETATM   12  C10 UNL     1      -0.897  -0.775  -0.351  1.00  0.00     0.055 C 
HETATM   13  C11 UNL     1      -0.244   0.265  -1.176  1.00  0.00     0.013 C 
HETATM   14  C12 UNL     1       1.079  -0.307  -1.692  1.00  0.00     0.033 C 
HETATM   15  C13 UNL     1       2.262   0.415  -1.140  1.00  0.00     0.124 C 
ENDROOT
BRANCH   5  16
HETATM   16  O2  UNL     1      -0.178  -2.077   1.512  1.00  0.00    -0.365 OA
ATOM     17  H2  UNL     1      -0.983  -2.578   1.459  1.00  0.00     0.213 HD
ENDBRANCH   5  16
BRANCH  15  18
HETATM   18  O4  UNL     1       2.008   1.745  -0.828  1.00  0.00    -0.395 OA
ATOM     19  H4  UNL     1       1.613   2.171  -1.579  1.00  0.00     0.210 HD
ENDBRANCH  15  18
TORSDOF 2
