REMARK  10 active torsions:
REMARK  status: ('A' for Active; 'I' for Inactive)
REMARK    1  A    between atoms: O1_2  and  C2_3 
REMARK    2  A    between atoms: C3_4  and  O2_5 
REMARK    3  A    between atoms: O2_5  and  C4_6 
REMARK    4  A    between atoms: C5_8  and  C6_9 
REMARK    5  A    between atoms: C6_9  and  N1_10 
REMARK    6  A    between atoms: C7_14  and  O4_15 
REMARK    7  A    between atoms: C8_17  and  O5_18 
REMARK    8  A    between atoms: C9_20  and  O6_21 
REMARK    9  A    between atoms: C10_24  and  C11_25 
REMARK   10  A    between atoms: C17_31  and  O8_32 
ROOT
HETATM    1  C4  UNL     1      -2.323   0.857   0.412  1.00  0.00     0.294 C 
HETATM    2  O3  UNL     1      -3.252   0.532  -0.576  1.00  0.00    -0.349 OA
HETATM    3  C5  UNL     1      -3.704  -0.764  -0.407  1.00  0.00     0.181 C 
HETATM    4  C7  UNL     1      -4.634  -0.756   0.789  1.00  0.00     0.180 C 
HETATM    5  C8  UNL     1      -3.765  -0.467   1.991  1.00  0.00     0.183 C 
HETATM    6  C9  UNL     1      -2.836   0.676   1.797  1.00  0.00     0.204 C 
ENDROOT
BRANCH   1   7
HETATM    7  O2  UNL     1      -1.164   0.164   0.132  1.00  0.00    -0.326 OA
BRANCH   7   8
HETATM    8  C3  UNL     1      -0.097   0.957  -0.230  1.00  0.00     0.295 C 
HETATM    9  C2  UNL     1       0.501   0.636  -1.553  1.00  0.00     0.207 C 
HETATM   10  C17 UNL     1       1.871   0.067  -1.138  1.00  0.00     0.181 C 
HETATM   11  C10 UNL     1       2.094   0.857   0.096  1.00  0.00     0.160 C 
HETATM   12  O7  UNL     1       0.889   0.809   0.744  1.00  0.00    -0.350 OA
BRANCH   9  13
HETATM   13  O1  UNL     1       0.771   1.747  -2.332  1.00  0.00    -0.383 OA
HETATM   14  C1  UNL     1       0.345   1.626  -3.636  1.00  0.00     0.202 C 
ENDBRANCH   9  13
BRANCH  10  15
HETATM   15  O8  UNL     1       1.668  -1.278  -0.939  1.00  0.00    -0.390 OA
ATOM     16  H8  UNL     1       2.513  -1.629  -0.683  1.00  0.00     0.210 HD
ENDBRANCH  10  15
BRANCH  11  17
HETATM   17  C11 UNL     1       3.256   0.481   0.928  1.00  0.00     0.017 C 
HETATM   18  C12 UNL     1       3.246  -0.883   1.501  1.00  0.00     0.007 C 
HETATM   19  C13 UNL     1       4.380  -1.757   0.965  1.00  0.00     0.000 C 
HETATM   20  C14 UNL     1       5.705  -1.170   1.408  1.00  0.00     0.000 C 
HETATM   21  C15 UNL     1       5.722   0.277   0.995  1.00  0.00     0.000 C 
HETATM   22  C16 UNL     1       4.541   0.643   0.118  1.00  0.00     0.007 C 
ENDBRANCH  11  17
ENDBRANCH   7   8
ENDBRANCH   1   7
BRANCH   6  23
HETATM   23  O6  UNL     1      -3.511   1.845   2.212  1.00  0.00    -0.388 OA
ATOM     24  H6  UNL     1      -3.839   1.729   3.096  1.00  0.00     0.210 HD
ENDBRANCH   6  23
BRANCH   3  25
HETATM   25  C6  UNL     1      -4.364  -1.318  -1.641  1.00  0.00     0.264 C 
BRANCH  25  26
HETATM   26  N1  UNL     1      -5.503  -0.570  -2.064  1.00  0.00    -0.077 N 
ATOM     27  H13 UNL     1      -6.177  -0.479  -1.304  1.00  0.00     0.274 HD
ATOM     28  H12 UNL     1      -5.261   0.412  -2.195  1.00  0.00     0.274 HD
ATOM     29  H11 UNL     1      -5.950  -0.945  -2.900  1.00  0.00     0.274 HD
ENDBRANCH  25  26
ENDBRANCH   3  25
BRANCH   5  30
HETATM   30  O5  UNL     1      -3.081  -1.665   2.284  1.00  0.00    -0.390 OA
ATOM     31  H5  UNL     1      -2.535  -1.483   3.040  1.00  0.00     0.210 HD
ENDBRANCH   5  30
BRANCH   4  32
HETATM   32  O4  UNL     1      -5.494   0.326   0.634  1.00  0.00    -0.390 OA
ATOM     33  H4  UNL     1      -6.077   0.331   1.384  1.00  0.00     0.210 HD
ENDBRANCH   4  32
TORSDOF 10
