REMARK  10 active torsions:
REMARK  status: ('A' for Active; 'I' for Inactive)
REMARK    1  A    between atoms: C2_2  and  C3_3 
REMARK    2  A    between atoms: C2_2  and  C4_6 
REMARK    3  A    between atoms: C3_3  and  O1_4 
REMARK    4  A    between atoms: C7_9  and  O2_10 
REMARK    5  A    between atoms: C10_14  and  O3_15 
REMARK    6  A    between atoms: O3_15  and  C11_16 
REMARK    7  A    between atoms: C12_18  and  O5_19 
REMARK    8  A    between atoms: C13_21  and  O6_22 
REMARK    9  A    between atoms: C14_24  and  O7_25 
REMARK   10  A    between atoms: C17_29  and  O8_30 
ROOT
HETATM    1  C4  UNL     1       3.598   0.301  -0.389  1.00  0.00     0.152 C 
HETATM    2  C5  UNL     1       3.592  -0.237   1.050  1.00  0.00     0.040 C 
HETATM    3  C6  UNL     1       2.843  -1.519   0.993  1.00  0.00     0.046 C 
HETATM    4  C7  UNL     1       1.704  -1.521  -0.010  1.00  0.00     0.110 C 
HETATM    5  C8  UNL     1       1.327  -0.175  -0.507  1.00  0.00     0.161 C 
HETATM    6  C9  UNL     1       0.228   0.482   0.331  1.00  0.00     0.067 C 
HETATM    7  C10 UNL     1      -0.983  -0.420   0.148  1.00  0.00     0.133 C 
HETATM    8  C15 UNL     1      -0.671  -1.671   0.883  1.00  0.00     0.042 C 
HETATM    9  C16 UNL     1      -1.854  -2.627   0.680  1.00  0.00     0.015 C 
HETATM   10  C17 UNL     1       0.611  -2.351   0.553  1.00  0.00     0.161 C 
HETATM   11  O9  UNL     1       2.317   0.755  -0.597  1.00  0.00    -0.373 OA
ENDROOT
BRANCH   7  12
HETATM   12  O3  UNL     1      -2.080   0.189   0.783  1.00  0.00    -0.353 OA
BRANCH  12  13
HETATM   13  C11 UNL     1      -3.054   0.416  -0.184  1.00  0.00     0.294 C 
HETATM   14  O4  UNL     1      -3.199   1.796  -0.259  1.00  0.00    -0.326 OA
HETATM   15  C12 UNL     1      -4.516   2.063  -0.568  1.00  0.00     0.291 C 
HETATM   16  C13 UNL     1      -5.350   0.854  -0.242  1.00  0.00     0.206 C 
HETATM   17  C14 UNL     1      -4.348  -0.147   0.288  1.00  0.00     0.207 C 
BRANCH  15  18
HETATM   18  O5  UNL     1      -4.575   2.343  -1.947  1.00  0.00    -0.368 OA
ATOM     19  H5  UNL     1      -5.482   2.527  -2.160  1.00  0.00     0.212 HD
ENDBRANCH  15  18
BRANCH  16  20
HETATM   20  O6  UNL     1      -6.312   1.178   0.701  1.00  0.00    -0.388 OA
ATOM     21  H6  UNL     1      -6.839   0.415   0.907  1.00  0.00     0.210 HD
ENDBRANCH  16  20
BRANCH  17  22
HETATM   22  O7  UNL     1      -4.427  -0.263   1.675  1.00  0.00    -0.388 OA
ATOM     23  H7  UNL     1      -5.253  -0.622   1.976  1.00  0.00     0.210 HD
ENDBRANCH  17  22
ENDBRANCH  12  13
ENDBRANCH   7  12
BRANCH  10  24
HETATM   24  O8  UNL     1       0.274  -3.445  -0.290  1.00  0.00    -0.392 OA
ATOM     25  H8  UNL     1      -0.426  -3.977   0.071  1.00  0.00     0.210 HD
ENDBRANCH  10  24
BRANCH   4  26
HETATM   26  O2  UNL     1       2.205  -2.228  -1.126  1.00  0.00    -0.385 OA
ATOM     27  H2  UNL     1       1.492  -2.229  -1.754  1.00  0.00     0.210 HD
ENDBRANCH   4  26
BRANCH   1  28
HETATM   28  C2  UNL     1       4.510   1.464  -0.387  1.00  0.00    -0.037 C 
HETATM   29  C1  UNL     1       5.573   1.438  -1.173  1.00  0.00     0.019 C 
BRANCH  28  30
HETATM   30  C3  UNL     1       4.239   2.639   0.482  1.00  0.00     0.200 C 
BRANCH  30  31
HETATM   31  O1  UNL     1       3.002   3.174   0.126  1.00  0.00    -0.397 OA
ATOM     32  H1  UNL     1       2.829   3.925   0.681  1.00  0.00     0.209 HD
ENDBRANCH  30  31
ENDBRANCH  28  30
ENDBRANCH   1  28
TORSDOF 10
