REMARK  4 active torsions:
REMARK  status: ('A' for Active; 'I' for Inactive)
REMARK    1  A    between atoms: S1_2  and  C2_3 
REMARK    2  A    between atoms: C2_3  and  N1_4 
REMARK    3  A    between atoms: C2_3  and  N3_13 
REMARK    4  A    between atoms: C10_16  and  O1_17 
ROOT
HETATM    1  C2  UNL     1       0.109   0.709  -0.549  1.00  0.00     0.140 C 
ENDROOT
BRANCH   1   2
HETATM    2  S1  UNL     1       0.322   1.248  -2.132  1.00  0.00    -0.099 SA
HETATM    3  C1  UNL     1      -0.943   1.581  -3.343  1.00  0.00     0.099 C 
ENDBRANCH   1   2
BRANCH   1   4
HETATM    4  N1  UNL     1      -1.155   0.442  -0.014  1.00  0.00    -0.360 N 
HETATM    5  C3  UNL     1      -1.414   0.245   1.362  1.00  0.00     0.126 C 
HETATM    6  C4  UNL     1      -1.805  -1.176   1.695  1.00  0.00     0.047 C 
HETATM    7  C5  UNL     1      -3.321  -1.289   1.691  1.00  0.00     0.234 C 
HETATM    8  N2  UNL     1      -3.866  -0.366   0.706  1.00  0.00    -0.074 N 
HETATM    9  C6  UNL     1      -3.371  -0.560  -0.585  1.00  0.00     0.252 C 
ATOM     10  H22 UNL     1      -4.885  -0.400   0.708  1.00  0.00     0.277 HD
ATOM     11  H21 UNL     1      -3.725   0.600   1.003  1.00  0.00     0.277 HD
HETATM   12  C7  UNL     1      -2.201   0.264  -1.057  1.00  0.00     0.152 C 
ENDBRANCH   1   4
BRANCH   1  13
HETATM   13  N3  UNL     1       1.344   0.730   0.141  1.00  0.00    -0.362 N 
HETATM   14  C8  UNL     1       2.566   1.096  -0.591  1.00  0.00     0.127 C 
HETATM   15  C9  UNL     1       3.455  -0.103  -0.764  1.00  0.00     0.051 C 
HETATM   16  C10 UNL     1       3.710  -0.763   0.577  1.00  0.00     0.121 C 
HETATM   17  C11 UNL     1       3.103   0.016   1.701  1.00  0.00     0.051 C 
HETATM   18  C12 UNL     1       1.624   0.374   1.479  1.00  0.00     0.127 C 
BRANCH  16  19
HETATM   19  O1  UNL     1       3.092  -2.005   0.542  1.00  0.00    -0.395 OA
ATOM     20  H1  UNL     1       3.252  -2.419   1.382  1.00  0.00     0.210 HD
ENDBRANCH  16  19
ENDBRANCH   1  13
TORSDOF 4
