REMARK  14 active torsions:
REMARK  status: ('A' for Active; 'I' for Inactive)
REMARK    1  A    between atoms: C2_2  and  C4_4 
REMARK    2  A    between atoms: C4_4  and  N1_5 
REMARK    3  A    between atoms: C10_12  and  C11_13 
REMARK    4  A    between atoms: C11_13  and  C12_14 
REMARK    5  A    between atoms: C12_14  and  C13_15 
REMARK    6  A    between atoms: C13_15  and  C14_16 
REMARK    7  A    between atoms: C14_16  and  N2_17 
REMARK       I    between atoms: N2_17  and  C15_19 
REMARK       I    between atoms: C15_19  and  N5_32 
REMARK       I    between atoms: N3_20  and  C16_22 
REMARK    8  A    between atoms: C16_22  and  C17_24 
REMARK    9  A    between atoms: C17_24  and  N4_25 
REMARK   10  A    between atoms: C17_24  and  C18_29 
REMARK   11  A    between atoms: C18_29  and  O2_30 
REMARK   12  A    between atoms: N5_32  and  C19_34 
REMARK   13  A    between atoms: C19_34  and  C20_35 
REMARK   14  A    between atoms: C27_47  and  C28_48 
ROOT
HETATM    1  C13 UNL     1       2.277   0.470   0.661  1.00  0.00     0.020 C 
ENDROOT
BRANCH   1   2
HETATM    2  C12 UNL     1       0.831   0.188   0.986  1.00  0.00     0.003 C 
BRANCH   2   3
HETATM    3  C11 UNL     1       0.026   0.043  -0.263  1.00  0.00     0.018 C 
BRANCH   3   4
HETATM    4  C10 UNL     1      -1.453  -0.237   0.065  1.00  0.00     0.100 C 
HETATM    5  C9  UNL     1      -1.927   0.919   0.821  1.00  0.00    -0.017 C 
HETATM    6  C8  UNL     1      -2.426   0.934   2.024  1.00  0.00    -0.028 C 
HETATM    7  C7  UNL     1      -2.624  -0.241   2.907  1.00  0.00     0.048 C 
HETATM    8  C6  UNL     1      -3.989  -0.864   2.726  1.00  0.00     0.103 C 
HETATM    9  C5  UNL     1      -4.948   0.018   2.005  1.00  0.00     0.146 C 
HETATM   10 CL1  UNL     1      -3.885  -2.499   2.034  1.00  0.00    -0.123 Cl
HETATM   11  N1  UNL     1      -5.792  -0.809   1.112  1.00  0.00    -0.349 N 
HETATM   12  C34 UNL     1      -5.627  -0.811  -0.274  1.00  0.00     0.243 C 
HETATM   13  C27 UNL     1      -4.686   0.029  -1.059  1.00  0.00     0.180 C 
HETATM   14  O5  UNL     1      -6.336  -1.602  -0.976  1.00  0.00    -0.271 OA
HETATM   15  N7  UNL     1      -3.531  -0.803  -1.357  1.00  0.00    -0.347 N 
HETATM   16  C26 UNL     1      -2.173  -0.541  -1.184  1.00  0.00     0.226 C 
ATOM     17  H7  UNL     1      -3.748  -1.718  -1.753  1.00  0.00     0.163 HD
HETATM   18  O4  UNL     1      -1.470  -0.576  -2.266  1.00  0.00    -0.273 OA
BRANCH  11  19
HETATM   19  C4  UNL     1      -6.794  -1.602   1.762  1.00  0.00     0.129 C 
BRANCH  19  20
HETATM   20  C2  UNL     1      -8.069  -0.873   2.009  1.00  0.00    -0.005 C 
HETATM   21  C1  UNL     1      -9.067  -1.801   2.721  1.00  0.00     0.011 C 
HETATM   22  C3  UNL     1      -8.700  -0.371   0.740  1.00  0.00     0.011 C 
ENDBRANCH  19  20
ENDBRANCH  11  19
BRANCH  13  23
HETATM   23  C28 UNL     1      -5.256   0.411  -2.430  1.00  0.00     0.018 C 
HETATM   24  C29 UNL     1      -6.504   1.218  -2.368  1.00  0.00     0.007 C 
HETATM   25  C30 UNL     1      -6.965   1.382  -3.831  1.00  0.00     0.000 C 
HETATM   26  C31 UNL     1      -6.002   2.272  -4.551  1.00  0.00     0.000 C 
HETATM   27  C32 UNL     1      -4.768   2.507  -3.741  1.00  0.00     0.000 C 
HETATM   28  C33 UNL     1      -4.210   1.231  -3.193  1.00  0.00     0.007 C 
ENDBRANCH  13  23
ENDBRANCH   3   4
ENDBRANCH   2   3
ENDBRANCH   1   2
BRANCH   1  29
HETATM   29  C14 UNL     1       2.893  -0.596  -0.187  1.00  0.00     0.138 C 
BRANCH  29  30
HETATM   30  N2  UNL     1       4.287  -0.387  -0.501  1.00  0.00    -0.226 N 
HETATM   31  C15 UNL     1       5.349  -0.498   0.437  1.00  0.00     0.677 C 
HETATM   32  N3  UNL     1       5.979  -1.634   0.440  1.00  0.00    -0.158 N 
HETATM   33  N5  UNL     1       5.671   0.556   1.301  1.00  0.00    -0.208 N 
HETATM   34  C16 UNL     1       5.657  -2.704  -0.412  1.00  0.00     0.268 C 
ATOM     35  H3  UNL     1       6.750  -1.756   1.097  1.00  0.00     0.187 HD
HETATM   36  O1  UNL     1       5.143  -2.464  -1.537  1.00  0.00    -0.270 OA
ATOM     37  H5  UNL     1       5.131   0.618   2.164  1.00  0.00     0.179 HD
ATOM     38  H2  UNL     1       4.526  -0.143  -1.462  1.00  0.00     0.177 HD
BRANCH  34  39
HETATM   39  C17 UNL     1       5.918  -4.104   0.004  1.00  0.00     0.298 C 
BRANCH  39  40
HETATM   40  N4  UNL     1       6.533  -4.094   1.296  1.00  0.00    -0.064 N 
ATOM     41  H43 UNL     1       7.373  -3.516   1.323  1.00  0.00     0.275 HD
ATOM     42  H42 UNL     1       5.985  -3.579   1.985  1.00  0.00     0.275 HD
ATOM     43  H41 UNL     1       6.712  -5.056   1.582  1.00  0.00     0.275 HD
ENDBRANCH  39  40
BRANCH  39  44
HETATM   44  C18 UNL     1       6.841  -4.716  -1.023  1.00  0.00     0.206 C 
BRANCH  44  45
HETATM   45  O2  UNL     1       7.172  -6.031  -0.703  1.00  0.00    -0.398 OA
ATOM     46  H2  UNL     1       7.753  -6.416  -1.349  1.00  0.00     0.209 HD
ENDBRANCH  44  45
ENDBRANCH  39  44
ENDBRANCH  34  39
BRANCH  33  47
HETATM   47  C19 UNL     1       6.687   1.567   1.101  1.00  0.00     0.125 C 
HETATM   48  C21 UNL     1       6.342   2.304  -0.147  1.00  0.00     0.041 C 
HETATM   49  C22 UNL     1       7.400   3.213  -0.673  1.00  0.00     0.003 C 
HETATM   50  C23 UNL     1       8.766   2.605  -0.696  1.00  0.00     0.000 C 
HETATM   51  C24 UNL     1       8.749   1.145  -0.295  1.00  0.00     0.003 C 
HETATM   52  C25 UNL     1       8.039   0.926   1.013  1.00  0.00     0.041 C 
BRANCH  47  53
HETATM   53  C20 UNL     1       6.645   2.474   2.304  1.00  0.00     0.260 C 
HETATM   54  N6  UNL     1       7.563   3.558   2.319  1.00  0.00    -0.060 NA
HETATM   55  O3  UNL     1       5.840   2.269   3.232  1.00  0.00    -0.274 OA
ENDBRANCH  47  53
ENDBRANCH  33  47
ENDBRANCH  29  30
ENDBRANCH   1  29
TORSDOF 14
