REMARK  3 active torsions:
REMARK  status: ('A' for Active; 'I' for Inactive)
REMARK    1  A    between atoms: O1_2  and  C2_3 
REMARK    2  A    between atoms: C2_3  and  C3_5 
REMARK    3  A    between atoms: C5_10  and  N3_11 
ROOT
HETATM    1  N3  UNL     1       3.814   0.060  -0.296  1.00  0.00    -0.126 N 
ATOM      2  H3  UNL     1       4.310   0.866  -0.676  1.00  0.00     0.197 HD
HETATM    3  C6  UNL     1       4.531  -1.059   0.134  1.00  0.00     0.196 C 
HETATM    4  N4  UNL     1       5.136  -1.998   0.486  1.00  0.00    -0.171 NA
ENDROOT
BRANCH   1   5
HETATM    5  C5  UNL     1       2.535   0.076  -0.214  1.00  0.00     0.694 A 
HETATM    6  N2  UNL     1       1.846   1.152  -0.627  1.00  0.00    -0.177 N 
HETATM    7  C4  UNL     1       0.514   1.217  -0.562  1.00  0.00     0.152 A 
ATOM      8  H2  UNL     1       2.359   1.949  -1.004  1.00  0.00     0.185 HD
HETATM    9  C3  UNL     1      -0.181   0.116  -0.042  1.00  0.00     0.125 A 
HETATM   10  N1  UNL     1      -0.227   2.347  -0.994  1.00  0.00    -0.081 NA
HETATM   11  C7  UNL     1       0.534  -0.975   0.375  1.00  0.00     0.134 A 
HETATM   12  N5  UNL     1       1.897  -0.975   0.281  1.00  0.00    -0.175 N 
HETATM   13  N6  UNL     1      -0.017  -2.012   0.858  1.00  0.00    -0.384 N 
ATOM     14  H5  UNL     1       2.427  -1.789   0.594  1.00  0.00     0.186 HD
ATOM     15  H62 UNL     1      -1.035  -2.012   0.928  1.00  0.00     0.157 HD
ATOM     16  H61 UNL     1       0.516  -2.825   1.169  1.00  0.00     0.157 HD
BRANCH   9  17
HETATM   17  C2  UNL     1      -1.647   0.214   0.017  1.00  0.00     0.300 C 
HETATM   18  O2  UNL     1      -2.210   1.280  -0.400  1.00  0.00    -0.259 OA
BRANCH  17  19
HETATM   19  O1  UNL     1      -2.507  -0.744   0.487  1.00  0.00    -0.322 OA
HETATM   20  C1  UNL     1      -3.910  -0.562   0.507  1.00  0.00     0.213 C 
ENDBRANCH  17  19
ENDBRANCH   9  17
ENDBRANCH   1   5
TORSDOF 3
