REMARK  3 active torsions:
REMARK  status: ('A' for Active; 'I' for Inactive)
REMARK    1  A    between atoms: N1_1  and  C1_4 
REMARK    2  A    between atoms: N5_17  and  N6_18 
REMARK    3  A    between atoms: N6_18  and  O3_20 
ROOT
HETATM    1  C1  UNL     1       2.101  -0.444  -0.001  1.00  0.00     0.680 A 
HETATM    2  N2  UNL     1       1.800   0.840   0.259  1.00  0.00    -0.154 N 
ATOM      3  H2  UNL     1       2.564   1.499   0.405  1.00  0.00     0.187 HD
HETATM    4  C2  UNL     1       0.532   1.296   0.335  1.00  0.00     0.292 A 
HETATM    5  O1  UNL     1       0.300   2.518   0.583  1.00  0.00    -0.265 OA
HETATM    6  C3  UNL     1      -0.522   0.429   0.143  1.00  0.00     0.176 A 
HETATM    7  C4  UNL     1      -0.210  -0.890  -0.123  1.00  0.00     0.160 A 
HETATM    8  N3  UNL     1       1.080  -1.298  -0.190  1.00  0.00    -0.174 N 
ATOM      9  H3  UNL     1       1.282  -2.278  -0.389  1.00  0.00     0.186 HD
HETATM   10  N4  UNL     1      -1.407  -1.499  -0.264  1.00  0.00    -0.290 N 
ATOM     11  H4  UNL     1      -1.538  -2.490  -0.469  1.00  0.00     0.172 HD
HETATM   12  C5  UNL     1      -2.402  -0.609  -0.095  1.00  0.00     0.349 A 
HETATM   13  O2  UNL     1      -3.647  -0.819  -0.155  1.00  0.00    -0.244 OA
HETATM   14  N5  UNL     1      -1.852   0.614   0.163  1.00  0.00    -0.176 N 
ENDROOT
BRANCH  14  15
HETATM   15  N6  UNL     1      -2.522   1.822   0.402  1.00  0.00    -0.199 N 
ATOM     16  H6  UNL     1      -2.584   2.231   1.334  1.00  0.00     0.216 HD
BRANCH  15  17
HETATM   17  O3  UNL     1      -3.045   2.374  -0.610  1.00  0.00    -0.274 OA
ATOM     18  H3  UNL     1      -3.499   3.193  -0.448  1.00  0.00     0.246 HD
ENDBRANCH  15  17
ENDBRANCH  14  15
BRANCH   1  19
HETATM   19  N1  UNL     1       3.343  -0.853  -0.068  1.00  0.00    -0.234 N 
ATOM     20  H12 UNL     1       4.118  -0.205   0.075  1.00  0.00     0.174 HD
ATOM     21  H11 UNL     1       3.571  -1.827  -0.265  1.00  0.00     0.174 HD
ENDBRANCH   1  19
TORSDOF 3
