REMARK  2 active torsions:
REMARK  status: ('A' for Active; 'I' for Inactive)
REMARK    1  A    between atoms: N1_1  and  N2_4 
REMARK       I    between atoms: N2_4  and  C1_6 
REMARK    2  A    between atoms: C1_6  and  C2_8 
ROOT
HETATM    1  C2  UNL     1       0.699  -0.007   0.190  1.00  0.00     0.191 A 
HETATM    2  N3  UNL     1       0.298  -0.584  -0.956  1.00  0.00    -0.279 N 
ATOM      3  H3  UNL     1       1.000  -0.960  -1.593  1.00  0.00     0.189 HD
HETATM    4  N4  UNL     1      -0.974  -0.678  -1.281  1.00  0.00    -0.281 N 
ATOM      5  H4  UNL     1      -1.259  -1.119  -2.155  1.00  0.00     0.188 HD
HETATM    6  C3  UNL     1      -1.894  -0.175  -0.427  1.00  0.00     0.168 A 
HETATM    7  N5  UNL     1      -3.243  -0.110  -0.457  1.00  0.00    -0.280 N 
ATOM      8  H5  UNL     1      -3.827  -0.470  -1.212  1.00  0.00     0.189 HD
HETATM    9  N6  UNL     1      -3.698   0.487   0.631  1.00  0.00    -0.263 N 
ATOM     10  H6  UNL     1      -4.683   0.654   0.838  1.00  0.00     0.190 HD
HETATM   11  C4  UNL     1      -2.672   0.842   1.424  1.00  0.00     0.290 A 
HETATM   12  O2  UNL     1      -2.726   1.425   2.532  1.00  0.00    -0.264 OA
HETATM   13  C5  UNL     1      -1.524   0.426   0.763  1.00  0.00     0.151 A 
HETATM   14  N7  UNL     1      -0.225   0.491   1.036  1.00  0.00    -0.329 N 
ATOM     15  H7  UNL     1       0.080   0.928   1.906  1.00  0.00     0.168 HD
ENDROOT
BRANCH   1  16
HETATM   16  C1  UNL     1       2.126   0.078   0.516  1.00  0.00     0.304 C 
HETATM   17  N2  UNL     1       3.069  -0.453  -0.389  1.00  0.00    -0.270 N 
ATOM     18  H2  UNL     1       2.724  -0.883  -1.247  1.00  0.00     0.189 HD
HETATM   19  O1  UNL     1       2.441   0.626   1.598  1.00  0.00    -0.263 OA
BRANCH  17  20
HETATM   20  N1  UNL     1       4.445  -0.423  -0.175  1.00  0.00    -0.342 N 
ATOM     21  H12 UNL     1       4.772   0.010   0.688  1.00  0.00     0.176 HD
ATOM     22  H11 UNL     1       5.127  -0.807  -0.829  1.00  0.00     0.176 HD
ENDBRANCH  17  20
ENDBRANCH   1  16
TORSDOF 2
