REMARK  3 active torsions:
REMARK  status: ('A' for Active; 'I' for Inactive)
REMARK    1  A    between atoms: O1_2  and  N1_3 
REMARK    2  A    between atoms: C2_5  and  C3_6 
REMARK    3  A    between atoms: C5_11  and  N4_12 
ROOT
HETATM    1  C3  UNL     1      -0.348  -0.132  -0.007  1.00  0.00     0.068 A 
HETATM    2  C4  UNL     1      -0.383  -1.015   1.042  1.00  0.00     0.147 A 
HETATM    3  N2  UNL     1       0.813  -1.224   1.787  1.00  0.00    -0.081 NA
HETATM    4  N3  UNL     1      -1.490  -1.682   1.394  1.00  0.00    -0.178 N 
ATOM      5  H3  UNL     1      -1.484  -2.332   2.180  1.00  0.00     0.185 HD
HETATM    6  C5  UNL     1      -2.616  -1.468   0.677  1.00  0.00     0.678 A 
HETATM    7  N5  UNL     1      -2.625  -0.621  -0.349  1.00  0.00    -0.175 N 
ATOM      8  H5  UNL     1      -3.496  -0.491  -0.864  1.00  0.00     0.186 HD
HETATM    9  C6  UNL     1      -1.515   0.088  -0.749  1.00  0.00     0.145 A 
HETATM   10  N6  UNL     1      -1.535   0.861  -1.684  1.00  0.00    -0.278 N 
ATOM     11  H6  UNL     1      -2.506   0.781  -1.985  1.00  0.00     0.179 HD
HETATM   12  C7  UNL     1      -1.093   1.702  -2.512  1.00  0.00     0.183 C 
HETATM   13  N7  UNL     1      -0.696   2.453  -3.280  1.00  0.00    -0.172 NA
ENDROOT
BRANCH   1  14
HETATM   14  C2  UNL     1       0.877   0.555  -0.324  1.00  0.00     0.132 C 
HETATM   15  N1  UNL     1       1.939   0.329   0.395  1.00  0.00    -0.277 N 
ATOM     16  H1  UNL     1       1.845  -0.338   1.161  1.00  0.00     0.193 HD
BRANCH  15  17
HETATM   17  O1  UNL     1       3.154   0.895   0.221  1.00  0.00    -0.286 OA
HETATM   18  C1  UNL     1       3.470   1.855  -0.727  1.00  0.00     0.237 C 
ENDBRANCH  15  17
ENDBRANCH   1  14
BRANCH   6  19
HETATM   19  N4  UNL     1      -3.685  -2.116   1.019  1.00  0.00    -0.234 N 
ATOM     20  H42 UNL     1      -3.678  -2.765   1.806  1.00  0.00     0.174 HD
ATOM     21  H41 UNL     1      -4.535  -1.955   0.478  1.00  0.00     0.174 HD
ENDBRANCH   6  19
TORSDOF 3
