REMARK  5 active torsions:
REMARK  status: ('A' for Active; 'I' for Inactive)
REMARK    1  A    between atoms: C4_4  and  C5_5 
REMARK       I    between atoms: C5_5  and  N1_7 
REMARK    2  A    between atoms: N1_7  and  N2_9 
REMARK    3  A    between atoms: C6_11  and  C7_12 
REMARK    4  A    between atoms: C9_19  and  C10_20 
REMARK       I    between atoms: C10_20  and  N5_22 
REMARK    5  A    between atoms: N5_22  and  N6_24 
ROOT
HETATM    1  C7  UNL     1      -2.115  -1.370  -0.387  1.00  0.00     0.086 A 
HETATM    2  N3  UNL     1      -2.381  -2.488  -1.098  1.00  0.00    -0.305 N 
ATOM      3  H3  UNL     1      -1.675  -3.166  -1.384  1.00  0.00     0.171 HD
HETATM    4  C8  UNL     1      -3.674  -2.596  -1.379  1.00  0.00     0.325 A 
HETATM    5  O2  UNL     1      -4.257  -3.501  -2.016  1.00  0.00    -0.247 OA
HETATM    6  N4  UNL     1      -4.251  -1.534  -0.843  1.00  0.00    -0.302 N 
ATOM      7  H4  UNL     1      -5.250  -1.332  -0.890  1.00  0.00     0.171 HD
HETATM    8  C9  UNL     1      -3.315  -0.734  -0.210  1.00  0.00     0.134 A 
ENDROOT
BRANCH   1   9
HETATM    9  C6  UNL     1      -0.804  -0.993   0.057  1.00  0.00     0.139 C 
HETATM   10  N2  UNL     1      -0.468   0.047   0.733  1.00  0.00    -0.307 N 
ATOM     11  H2  UNL     1      -1.186   0.716   1.011  1.00  0.00     0.186 HD
BRANCH  10  12
HETATM   12  N1  UNL     1       0.851   0.277   1.091  1.00  0.00    -0.266 N 
HETATM   13  C5  UNL     1       1.854   0.288   0.105  1.00  0.00     0.270 C 
HETATM   14  O1  UNL     1       1.510   0.084  -1.100  1.00  0.00    -0.266 OA
ATOM     15  H1  UNL     1       1.094   0.438   2.068  1.00  0.00     0.190 HD
BRANCH  13  16
HETATM   16  C4  UNL     1       3.289   0.531   0.443  1.00  0.00     0.041 A 
HETATM   17  C3  UNL     1       4.269   0.549  -0.470  1.00  0.00     0.031 A 
HETATM   18  C2  UNL     1       5.538   0.782  -0.032  1.00  0.00    -0.021 A 
HETATM   19  C1  UNL     1       6.798   0.850  -0.859  1.00  0.00     0.056 C 
HETATM   20  S1  UNL     1       5.336   0.972   1.646  1.00  0.00    -0.106 SA
HETATM   21  C11 UNL     1       3.649   0.751   1.748  1.00  0.00     0.067 A 
ENDBRANCH  13  16
ENDBRANCH  10  12
ENDBRANCH   1   9
BRANCH   8  22
HETATM   22  C10 UNL     1      -3.654   0.505   0.471  1.00  0.00     0.288 C 
HETATM   23  O3  UNL     1      -2.844   1.242   1.046  1.00  0.00    -0.264 OA
HETATM   24  N5  UNL     1      -5.010   0.924   0.493  1.00  0.00    -0.271 N 
ATOM     25  H5  UNL     1      -5.731   0.364   0.038  1.00  0.00     0.189 HD
BRANCH  24  26
HETATM   26  N6  UNL     1      -5.343   2.106   1.142  1.00  0.00    -0.342 N 
ATOM     27  H62 UNL     1      -4.610   2.654   1.592  1.00  0.00     0.176 HD
ATOM     28  H61 UNL     1      -6.317   2.407   1.158  1.00  0.00     0.176 HD
ENDBRANCH  24  26
ENDBRANCH   8  22
TORSDOF 5
