REMARK  7 active torsions:
REMARK  status: ('A' for Active; 'I' for Inactive)
REMARK    1  A    between atoms: C2_2  and  O1_3 
REMARK    2  A    between atoms: O1_3  and  C3_4 
REMARK    3  A    between atoms: C3_4  and  C4_6 
REMARK    4  A    between atoms: C5_9  and  N2_10 
REMARK    5  A    between atoms: N2_10  and  C6_12 
REMARK    6  A    between atoms: C9_17  and  N4_18 
REMARK    7  A    between atoms: N4_18  and  N5_20 
REMARK       I    between atoms: N5_20  and  C10_21 
ROOT
HETATM    1  C4  UNL     1       1.212   0.337  -0.359  1.00  0.00     0.152 A 
HETATM    2  N1  UNL     1       0.379  -0.715  -0.224  1.00  0.00    -0.184 N 
ATOM      3  H1  UNL     1       0.741  -1.668  -0.247  1.00  0.00     0.184 HD
HETATM    4  C5  UNL     1      -0.928  -0.490  -0.060  1.00  0.00     0.680 A 
HETATM    5  N3  UNL     1      -1.400   0.789  -0.030  1.00  0.00    -0.173 N 
ATOM      6  H3  UNL     1      -2.399   0.954   0.096  1.00  0.00     0.186 HD
HETATM    7  C9  UNL     1      -0.569   1.832  -0.164  1.00  0.00     0.173 A 
HETATM    8  C12 UNL     1       0.789   1.652  -0.337  1.00  0.00     0.126 A 
HETATM    9  N6  UNL     1       1.666   2.760  -0.480  1.00  0.00    -0.096 NA
ENDROOT
BRANCH   7  10
HETATM   10  N4  UNL     1      -0.978   3.065  -0.138  1.00  0.00    -0.213 N 
ATOM     11  H4  UNL     1      -0.291   3.811  -0.246  1.00  0.00     0.204 HD
BRANCH  10  12
HETATM   12  N5  UNL     1      -2.241   3.389   0.022  1.00  0.00    -0.286 NA
HETATM   13  C10 UNL     1      -3.537   3.723   0.186  1.00  0.00     0.308 C 
HETATM   14  C11 UNL     1      -4.459   3.695  -1.044  1.00  0.00     0.137 C 
HETATM   15  O3  UNL     1      -4.172   4.075   1.226  1.00  0.00    -0.256 OA
ENDBRANCH  10  12
ENDBRANCH   7  10
BRANCH   4  16
HETATM   16  N2  UNL     1      -1.728  -1.488   0.066  1.00  0.00    -0.222 N 
ATOM     17  H2  UNL     1      -2.715  -1.262   0.190  1.00  0.00     0.178 HD
BRANCH  16  18
HETATM   18  C6  UNL     1      -1.397  -2.869   0.053  1.00  0.00     0.091 C 
HETATM   19  C7  UNL     1      -0.652  -3.372   1.256  1.00  0.00     0.032 C 
HETATM   20  C8  UNL     1      -2.704  -3.647  -0.150  1.00  0.00     0.032 C 
ENDBRANCH  16  18
ENDBRANCH   4  16
BRANCH   1  21
HETATM   21  C3  UNL     1       2.640   0.074  -0.530  1.00  0.00     0.312 C 
HETATM   22  O2  UNL     1       3.450   1.048  -0.654  1.00  0.00    -0.258 OA
BRANCH  21  23
HETATM   23  O1  UNL     1       3.154  -1.191  -0.563  1.00  0.00    -0.317 OA
BRANCH  23  24
HETATM   24  C2  UNL     1       4.560  -1.423  -0.731  1.00  0.00     0.175 C 
HETATM   25  C1  UNL     1       5.341  -0.783   0.385  1.00  0.00     0.034 C 
ENDBRANCH  23  24
ENDBRANCH  21  23
ENDBRANCH   1  21
TORSDOF 7
