REMARK  8 active torsions:
REMARK  status: ('A' for Active; 'I' for Inactive)
REMARK    1  A    between atoms: C3_5  and  N2_6 
REMARK    2  A    between atoms: N2_6  and  O1_8 
REMARK    3  A    between atoms: C5_14  and  N4_15 
REMARK    4  A    between atoms: N4_15  and  N5_16 
REMARK       I    between atoms: N4_15  and  C10_22 
REMARK    5  A    between atoms: N5_16  and  C6_18 
REMARK    6  A    between atoms: C10_22  and  O4_24 
REMARK    7  A    between atoms: O4_24  and  C11_25 
REMARK    8  A    between atoms: C11_25  and  C12_26 
ROOT
HETATM    1  C1  UNL     1       1.316  -0.185  -2.559  1.00  0.00     0.071 C 
HETATM    2  C2  UNL     1       1.875  -0.188  -1.184  1.00  0.00     0.057 A 
HETATM    3  N1  UNL     1       3.188  -0.518  -1.069  1.00  0.00    -0.192 N 
ATOM      4  H1  UNL     1       3.730  -0.749  -1.901  1.00  0.00     0.184 HD
HETATM    5  C3  UNL     1       3.779  -0.540   0.155  1.00  0.00     0.705 A 
HETATM    6  N3  UNL     1       3.094  -0.241   1.264  1.00  0.00    -0.152 N 
ATOM      7  H3  UNL     1       3.544  -0.259   2.179  1.00  0.00     0.187 HD
HETATM    8  C4  UNL     1       1.808   0.081   1.140  1.00  0.00     0.290 A 
HETATM    9  O2  UNL     1       1.201   0.359   2.230  1.00  0.00    -0.265 OA
HETATM   10  C5  UNL     1       1.172   0.117  -0.068  1.00  0.00     0.152 A 
ENDROOT
BRANCH  10  11
HETATM   11  N4  UNL     1      -0.184   0.496  -0.105  1.00  0.00    -0.196 N 
HETATM   12  C10 UNL     1      -0.332   1.924   0.182  1.00  0.00     0.387 C 
HETATM   13  O3  UNL     1       0.625   2.668   0.455  1.00  0.00    -0.236 OA
BRANCH  11  14
HETATM   14  N5  UNL     1      -1.299  -0.186  -0.341  1.00  0.00    -0.316 N 
ATOM     15  H5  UNL     1      -2.003   0.313  -0.885  1.00  0.00     0.181 HD
BRANCH  14  16
HETATM   16  C6  UNL     1      -1.648  -1.453   0.033  1.00  0.00     0.035 C 
HETATM   17  C7  UNL     1      -0.930  -2.633  -0.575  1.00  0.00     0.039 C 
HETATM   18  C8  UNL     1      -3.118  -1.677  -0.405  1.00  0.00     0.039 C 
HETATM   19  C9  UNL     1      -1.723  -1.724   1.532  1.00  0.00     0.039 C 
ENDBRANCH  14  16
ENDBRANCH  11  14
BRANCH  12  20
HETATM   20  O4  UNL     1      -1.586   2.515   0.156  1.00  0.00    -0.296 OA
BRANCH  20  21
HETATM   21  C11 UNL     1      -1.715   3.919   0.433  1.00  0.00     0.249 C 
BRANCH  21  22
HETATM   22  C12 UNL     1      -3.156   4.256   0.325  1.00  0.00     0.257 C 
HETATM   23  O5  UNL     1      -3.511   5.421   0.516  1.00  0.00    -0.305 OA
ENDBRANCH  21  22
ENDBRANCH  20  21
ENDBRANCH  12  20
ENDBRANCH  10  11
BRANCH   5  24
HETATM   24  N2  UNL     1       5.046  -0.855   0.251  1.00  0.00    -0.098 N 
ATOM     25  H2  UNL     1       5.586  -1.081  -0.584  1.00  0.00     0.213 HD
BRANCH  24  26
HETATM   26  O1  UNL     1       5.643  -0.877   1.499  1.00  0.00    -0.276 OA
ATOM     27  H1  UNL     1       6.562  -1.106   1.569  1.00  0.00     0.245 HD
ENDBRANCH  24  26
ENDBRANCH   5  24
TORSDOF 8
