REMARK  3 active torsions:
REMARK  status: ('A' for Active; 'I' for Inactive)
REMARK    1  A    between atoms: S1_2  and  C2_3 
REMARK    2  A    between atoms: C4_8  and  C5_9 
REMARK       I    between atoms: C5_9  and  N3_11 
REMARK    3  A    between atoms: N3_11  and  N4_13 
ROOT
HETATM    1  C2  UNL     1       1.641  -1.267   0.027  1.00  0.00     0.147 A 
HETATM    2  N1  UNL     1       0.530  -1.920   0.406  1.00  0.00    -0.324 N 
ATOM      3  H1  UNL     1       0.590  -2.888   0.721  1.00  0.00     0.169 HD
HETATM    4  C3  UNL     1      -0.653  -1.301   0.370  1.00  0.00     0.139 A 
HETATM    5  N2  UNL     1      -1.821  -1.985   0.767  1.00  0.00    -0.081 NA
HETATM    6  C4  UNL     1      -0.764   0.043  -0.064  1.00  0.00     0.142 A 
HETATM    7  C6  UNL     1       0.387   0.690  -0.446  1.00  0.00     0.266 A 
HETATM    8  O2  UNL     1       0.350   1.866  -0.834  1.00  0.00    -0.267 OA
HETATM    9  N5  UNL     1       1.548   0.003  -0.384  1.00  0.00    -0.303 N 
ATOM     10  H5  UNL     1       2.404   0.480  -0.667  1.00  0.00     0.171 HD
ENDROOT
BRANCH   6  11
HETATM   11  C5  UNL     1      -2.090   0.612  -0.063  1.00  0.00     0.278 C 
HETATM   12  O1  UNL     1      -3.082  -0.122   0.326  1.00  0.00    -0.266 OA
HETATM   13  N3  UNL     1      -2.407   1.909  -0.451  1.00  0.00    -0.272 N 
ATOM     14  H3  UNL     1      -1.667   2.535  -0.767  1.00  0.00     0.189 HD
BRANCH  13  15
HETATM   15  N4  UNL     1      -3.763   2.377  -0.412  1.00  0.00    -0.342 N 
ATOM     16  H42 UNL     1      -4.491   1.738  -0.093  1.00  0.00     0.176 HD
ATOM     17  H41 UNL     1      -3.996   3.328  -0.697  1.00  0.00     0.176 HD
ENDBRANCH  13  15
ENDBRANCH   6  11
BRANCH   1  18
HETATM   18  S1  UNL     1       3.196  -2.159   0.101  1.00  0.00    -0.098 SA
HETATM   19  C1  UNL     1       4.486  -1.017  -0.467  1.00  0.00     0.099 C 
ENDBRANCH   1  18
TORSDOF 3
