REMARK  3 active torsions:
REMARK  status: ('A' for Active; 'I' for Inactive)
REMARK    1  A    between atoms: N1_2  and  C2_4 
REMARK    2  A    between atoms: C3_6  and  C4_7 
REMARK    3  A    between atoms: C6_14  and  N5_15 
ROOT
HETATM    1  C2  UNL     1      -1.276  -0.795   0.149  1.00  0.00     0.114 A 
HETATM    2  S1  UNL     1       0.257  -1.143   0.877  1.00  0.00    -0.060 SA
HETATM    3  C3  UNL     1       1.455  -0.022   0.482  1.00  0.00     0.113 A 
HETATM    4  C5  UNL     1       1.041   0.992  -0.350  1.00  0.00     0.140 A 
HETATM    5  N3  UNL     1       2.077   1.955  -0.687  1.00  0.00    -0.081 NA
HETATM    6  N4  UNL     1      -0.173   1.129  -0.830  1.00  0.00    -0.328 N 
ATOM      7  H4  UNL     1      -0.314   1.939  -1.434  1.00  0.00     0.168 HD
HETATM    8  C6  UNL     1      -1.269   0.349  -0.639  1.00  0.00     0.134 A 
ENDROOT
BRANCH   1   9
HETATM    9  N1  UNL     1      -2.282  -1.551   0.353  1.00  0.00    -0.386 N 
HETATM   10  C1  UNL     1      -3.571  -1.384  -0.172  1.00  0.00     0.147 C 
ATOM     11  H1  UNL     1      -2.134  -2.358   0.959  1.00  0.00     0.159 HD
ENDBRANCH   1   9
BRANCH   8  12
HETATM   12  N5  UNL     1      -2.316   0.707  -1.218  1.00  0.00    -0.383 N 
ATOM     13  H52 UNL     1      -3.139   0.121  -1.075  1.00  0.00     0.157 HD
ATOM     14  H51 UNL     1      -2.311   1.547  -1.797  1.00  0.00     0.157 HD
ENDBRANCH   8  12
BRANCH   3  15
HETATM   15  C4  UNL     1       2.853  -0.087   0.971  1.00  0.00     0.275 C 
HETATM   16  N2  UNL     1       3.262  -1.140   1.828  1.00  0.00    -0.057 NA
HETATM   17  O1  UNL     1       3.659   0.792   0.619  1.00  0.00    -0.270 OA
ENDBRANCH   3  15
TORSDOF 3
