REMARK  6 active torsions:
REMARK  status: ('A' for Active; 'I' for Inactive)
REMARK    1  A    between atoms: N1_2  and  C2_4 
REMARK    2  A    between atoms: C3_7  and  C4_8 
REMARK    3  A    between atoms: C4_8  and  N3_9 
REMARK    4  A    between atoms: C4_8  and  C5_13 
REMARK    5  A    between atoms: C5_13  and  C6_14 
REMARK    6  A    between atoms: C9_21  and  C10_22 
REMARK       I    between atoms: C10_22  and  N6_24 
ROOT
HETATM    1  C4  UNL     1       0.644  -1.057  -0.250  1.00  0.00     0.238 C 
ENDROOT
BRANCH   1   2
HETATM    2  C3  UNL     1       1.911  -0.502  -0.873  1.00  0.00     0.055 A 
HETATM    3  N2  UNL     1       2.437   0.661  -0.589  1.00  0.00    -0.338 N 
HETATM    4  C2  UNL     1       3.561   1.022  -1.209  1.00  0.00     0.144 A 
ATOM      5  H2  UNL     1       1.997   1.279   0.093  1.00  0.00     0.168 HD
HETATM    6  S1  UNL     1       3.893  -0.306  -2.221  1.00  0.00    -0.057 SA
HETATM    7  C12 UNL     1       2.561  -1.281  -1.803  1.00  0.00     0.007 A 
HETATM    8  C13 UNL     1       2.185  -2.650  -2.320  1.00  0.00     0.058 C 
BRANCH   4   9
HETATM    9  N1  UNL     1       4.270   2.112  -1.100  1.00  0.00    -0.375 N 
HETATM   10  C1  UNL     1       3.836   3.129  -0.192  1.00  0.00     0.148 C 
ATOM     11  H1  UNL     1       5.118   2.237  -1.652  1.00  0.00     0.161 HD
ENDBRANCH   4   9
ENDBRANCH   1   2
BRANCH   1  12
HETATM   12  N3  UNL     1       0.997  -2.199   0.561  1.00  0.00    -0.069 N 
ATOM     13  H33 UNL     1       1.519  -2.904   0.040  1.00  0.00     0.275 HD
ATOM     14  H32 UNL     1       1.712  -1.981   1.255  1.00  0.00     0.275 HD
ATOM     15  H31 UNL     1       0.145  -2.572   0.980  1.00  0.00     0.275 HD
ENDBRANCH   1  12
BRANCH   1  16
HETATM   16  C5  UNL     1       0.054   0.046   0.584  1.00  0.00     0.082 C 
BRANCH  16  17
HETATM   17  C6  UNL     1      -1.195  -0.302   1.275  1.00  0.00     0.002 A 
HETATM   18  C7  UNL     1      -1.302  -0.972   2.472  1.00  0.00     0.030 A 
HETATM   19  C8  UNL     1      -0.248  -1.472   3.396  1.00  0.00     0.070 C 
HETATM   20  N4  UNL     1      -2.608  -1.121   2.750  1.00  0.00    -0.304 N 
HETATM   21  N5  UNL     1      -3.358  -0.592   1.814  1.00  0.00    -0.295 N 
ATOM     22  H4  UNL     1      -2.970  -1.586   3.583  1.00  0.00     0.186 HD
HETATM   23  C9  UNL     1      -2.496  -0.076   0.885  1.00  0.00     0.124 A 
ATOM     24  H5  UNL     1      -4.377  -0.570   1.784  1.00  0.00     0.187 HD
BRANCH  23  25
HETATM   25  C10 UNL     1      -2.929   0.594  -0.328  1.00  0.00     0.269 C 
HETATM   26  O1  UNL     1      -2.120   1.040  -1.177  1.00  0.00    -0.266 OA
HETATM   27  N6  UNL     1      -4.304   0.766  -0.589  1.00  0.00    -0.360 N 
HETATM   28  C11 UNL     1      -4.753   1.437  -1.804  1.00  0.00     0.149 C 
ATOM     29  H6  UNL     1      -4.992   0.418   0.079  1.00  0.00     0.162 HD
ENDBRANCH  23  25
ENDBRANCH  16  17
ENDBRANCH   1  16
TORSDOF 6
