REMARK  5 active torsions:
REMARK  status: ('A' for Active; 'I' for Inactive)
REMARK    1  A    between atoms: C2_2  and  O1_3 
REMARK    2  A    between atoms: O1_3  and  C3_4 
REMARK    3  A    between atoms: C3_4  and  C4_6 
REMARK    4  A    between atoms: C5_7  and  S1_8 
REMARK    5  A    between atoms: C9_17  and  N3_18 
ROOT
HETATM    1  C4  UNL     1      -0.156  -0.292  -0.407  1.00  0.00     0.081 A 
HETATM    2  C5  UNL     1      -0.677  -1.576  -0.224  1.00  0.00     0.085 A 
HETATM    3  C7  UNL     1      -1.988  -1.683   0.174  1.00  0.00     0.264 A 
HETATM    4  O3  UNL     1      -2.539  -2.810   0.363  1.00  0.00    -0.267 OA
HETATM    5  N1  UNL     1      -2.743  -0.586   0.379  1.00  0.00    -0.307 N 
ATOM      6  H1  UNL     1      -3.712  -0.713   0.673  1.00  0.00     0.170 HD
HETATM    7  C8  UNL     1      -2.285   0.664   0.216  1.00  0.00     0.140 A 
HETATM    8  N2  UNL     1      -3.044   1.748   0.425  1.00  0.00    -0.176 N 
ATOM      9  H2  UNL     1      -4.014   1.633   0.720  1.00  0.00     0.186 HD
HETATM   10  C9  UNL     1      -2.543   2.997   0.251  1.00  0.00     0.680 A 
HETATM   11  N4  UNL     1      -1.286   3.161  -0.131  1.00  0.00    -0.155 N 
ATOM     12  H4  UNL     1      -0.910   4.100  -0.261  1.00  0.00     0.187 HD
HETATM   13  C10 UNL     1      -0.498   2.074  -0.349  1.00  0.00     0.274 A 
HETATM   14  O4  UNL     1       0.678   2.273  -0.706  1.00  0.00    -0.267 OA
HETATM   15  C11 UNL     1      -0.954   0.790  -0.188  1.00  0.00     0.095 A 
ENDROOT
BRANCH   1  16
HETATM   16  C3  UNL     1       1.216  -0.130  -0.824  1.00  0.00     0.296 C 
HETATM   17  O2  UNL     1       1.496  -0.088  -2.072  1.00  0.00    -0.259 OA
BRANCH  16  18
HETATM   18  O1  UNL     1       2.284  -0.013   0.045  1.00  0.00    -0.318 OA
BRANCH  18  19
HETATM   19  C2  UNL     1       3.618   0.144  -0.464  1.00  0.00     0.174 C 
HETATM   20  C1  UNL     1       4.608   0.250   0.664  1.00  0.00     0.034 C 
ENDBRANCH  18  19
ENDBRANCH  16  18
ENDBRANCH   1  16
BRANCH   2  21
HETATM   21  S1  UNL     1       0.329  -3.004  -0.498  1.00  0.00    -0.128 SA
HETATM   22  C6  UNL     1      -0.616  -4.515  -0.182  1.00  0.00     0.096 C 
ENDBRANCH   2  21
BRANCH  10  23
HETATM   23  N3  UNL     1      -3.285   4.030   0.456  1.00  0.00    -0.234 N 
ATOM     24  H32 UNL     1      -4.253   3.904   0.750  1.00  0.00     0.174 HD
ATOM     25  H31 UNL     1      -2.908   4.969   0.325  1.00  0.00     0.174 HD
ENDBRANCH  10  23
TORSDOF 5
