REMARK  9 active torsions:
REMARK  status: ('A' for Active; 'I' for Inactive)
REMARK    1  A    between atoms: C2_3  and  C3_4 
REMARK    2  A    between atoms: C3_4  and  N2_5 
REMARK       I    between atoms: N2_5  and  C4_7 
REMARK       I    between atoms: C4_7  and  N4_11 
REMARK    3  A    between atoms: C6_13  and  N5_14 
REMARK    4  A    between atoms: C6_13  and  C7_18 
REMARK    5  A    between atoms: C7_18  and  N6_19 
REMARK    6  A    between atoms: C9_26  and  N8_27 
REMARK    7  A    between atoms: N8_27  and  C10_29 
REMARK    8  A    between atoms: C10_29  and  C11_30 
REMARK    9  A    between atoms: C11_30  and  N9_31 
ROOT
HETATM    1  N1  UNL     1       5.273   4.385  -1.111  1.00  0.00    -0.197 NA
HETATM    2  C1  UNL     1       4.193   3.963  -1.020  1.00  0.00     0.060 C 
HETATM    3  C2  UNL     1       2.826   3.411  -0.883  1.00  0.00     0.144 C 
ENDROOT
BRANCH   3   4
HETATM    4  C3  UNL     1       2.776   1.979  -1.331  1.00  0.00     0.152 C 
BRANCH   4   5
HETATM    5  N2  UNL     1       1.498   1.352  -1.239  1.00  0.00    -0.225 N 
HETATM    6  C4  UNL     1       0.880   1.041  -0.002  1.00  0.00     0.688 C 
HETATM    7  N3  UNL     1       1.463   1.400   1.084  1.00  0.00    -0.234 N 
HETATM    8  N4  UNL     1      -0.367   0.339   0.036  1.00  0.00    -0.013 N 
ATOM      9  H32 UNL     1       2.352   1.900   1.057  1.00  0.00     0.174 HD
ATOM     10  H31 UNL     1       1.018   1.176   1.974  1.00  0.00     0.174 HD
HETATM   11  C5  UNL     1      -1.568   1.114   0.217  1.00  0.00     0.208 C 
HETATM   12  C9  UNL     1      -0.368  -1.073  -0.105  1.00  0.00     0.690 C 
HETATM   13  C6  UNL     1      -2.819   0.361  -0.120  1.00  0.00     0.180 C 
HETATM   14  C8  UNL     1      -2.768  -1.090   0.232  1.00  0.00     0.180 C 
HETATM   15  N7  UNL     1      -1.480  -1.694  -0.010  1.00  0.00    -0.223 N 
ATOM     16  H7  UNL     1      -1.455  -2.708  -0.115  1.00  0.00     0.177 HD
ATOM     17  H2  UNL     1       1.007   1.117  -2.102  1.00  0.00     0.177 HD
BRANCH  13  18
HETATM   18  N5  UNL     1      -3.061   0.506  -1.543  1.00  0.00    -0.066 N 
ATOM     19  H53 UNL     1      -3.096   1.481  -1.840  1.00  0.00     0.275 HD
ATOM     20  H52 UNL     1      -2.263   0.219  -2.110  1.00  0.00     0.275 HD
ATOM     21  H51 UNL     1      -3.913  -0.007  -1.772  1.00  0.00     0.275 HD
ENDBRANCH  13  18
BRANCH  13  22
HETATM   22  C7  UNL     1      -3.977   0.990   0.625  1.00  0.00     0.271 C 
BRANCH  22  23
HETATM   23  N6  UNL     1      -5.221   0.317   0.350  1.00  0.00    -0.077 N 
ATOM     24  H63 UNL     1      -5.405   0.273  -0.652  1.00  0.00     0.274 HD
ATOM     25  H62 UNL     1      -5.153  -0.682   0.545  1.00  0.00     0.274 HD
ATOM     26  H61 UNL     1      -6.001   0.741   0.852  1.00  0.00     0.274 HD
ENDBRANCH  22  23
ENDBRANCH  13  22
BRANCH  12  27
HETATM   27  N8  UNL     1       0.810  -1.821  -0.345  1.00  0.00    -0.224 N 
ATOM     28  H8  UNL     1       1.302  -1.673  -1.226  1.00  0.00     0.177 HD
BRANCH  27  29
HETATM   29  C10 UNL     1       1.357  -2.784   0.587  1.00  0.00     0.165 C 
BRANCH  29  30
HETATM   30  C11 UNL     1       2.625  -3.416   0.034  1.00  0.00     0.249 C 
BRANCH  30  31
HETATM   31  N9  UNL     1       3.168  -4.380   0.972  1.00  0.00    -0.078 N 
ATOM     32  H93 UNL     1       3.321  -3.967   1.892  1.00  0.00     0.274 HD
ATOM     33  H92 UNL     1       2.477  -5.084   1.233  1.00  0.00     0.274 HD
ATOM     34  H91 UNL     1       4.018  -4.804   0.601  1.00  0.00     0.274 HD
ENDBRANCH  30  31
ENDBRANCH  29  30
ENDBRANCH  27  29
ENDBRANCH  12  27
ENDBRANCH   4   5
ENDBRANCH   3   4
TORSDOF 9
