REMARK  8 active torsions:
REMARK  status: ('A' for Active; 'I' for Inactive)
REMARK    1  A    between atoms: N1_1  and  C1_4 
REMARK    2  A    between atoms: C4_10  and  N3_11 
REMARK    3  A    between atoms: N3_11  and  C5_13 
REMARK    4  A    between atoms: C5_13  and  C6_14 
REMARK    5  A    between atoms: C6_14  and  O2_15 
REMARK    6  A    between atoms: O2_15  and  C7_16 
REMARK    7  A    between atoms: C7_16  and  C8_17 
REMARK    8  A    between atoms: C8_17  and  O3_18 
ROOT
HETATM    1  C1  UNL     1      -4.577   1.360   0.316  1.00  0.00     0.680 A 
HETATM    2  N2  UNL     1      -3.552   2.201   0.088  1.00  0.00    -0.155 N 
ATOM      3  H2  UNL     1      -3.683   3.212   0.057  1.00  0.00     0.187 HD
HETATM    4  C2  UNL     1      -2.334   1.631  -0.098  1.00  0.00     0.277 A 
HETATM    5  O1  UNL     1      -1.352   2.391  -0.314  1.00  0.00    -0.267 OA
HETATM    6  C3  UNL     1      -2.149   0.265  -0.056  1.00  0.00     0.121 A 
HETATM    7  C4  UNL     1      -0.898  -0.327  -0.246  1.00  0.00     0.124 A 
HETATM    8  N4  UNL     1      -0.754  -1.664  -0.199  1.00  0.00    -0.294 N 
ATOM      9  H4  UNL     1       0.167  -2.078  -0.340  1.00  0.00     0.172 HD
HETATM   10  C9  UNL     1      -1.820  -2.464   0.034  1.00  0.00     0.327 A 
HETATM   11  O4  UNL     1      -1.639  -3.708   0.070  1.00  0.00    -0.247 OA
HETATM   12  N5  UNL     1      -3.028  -1.895   0.218  1.00  0.00    -0.293 N 
ATOM     13  H5  UNL     1      -3.831  -2.499   0.394  1.00  0.00     0.172 HD
HETATM   14  C10 UNL     1      -3.218  -0.572   0.180  1.00  0.00     0.144 A 
HETATM   15  N6  UNL     1      -4.425   0.016   0.363  1.00  0.00    -0.176 N 
ATOM     16  H6  UNL     1      -5.241  -0.570   0.541  1.00  0.00     0.186 HD
ENDROOT
BRANCH   7  17
HETATM   17  N3  UNL     1       0.066   0.471  -0.461  1.00  0.00    -0.373 N 
ATOM     18  H3  UNL     1      -0.149   1.468  -0.477  1.00  0.00     0.161 HD
BRANCH  17  19
HETATM   19  C5  UNL     1       1.457   0.085  -0.688  1.00  0.00     0.147 C 
BRANCH  19  20
HETATM   20  C6  UNL     1       2.155  -0.129   0.655  1.00  0.00     0.187 C 
BRANCH  20  21
HETATM   21  O2  UNL     1       3.365  -0.484   0.715  1.00  0.00    -0.387 OA
BRANCH  21  22
HETATM   22  C7  UNL     1       4.599  -0.305   0.499  1.00  0.00     0.193 C 
BRANCH  22  23
HETATM   23  C8  UNL     1       5.145  -0.154  -0.895  1.00  0.00     0.190 C 
BRANCH  23  24
HETATM   24  O3  UNL     1       4.663   0.905  -1.594  1.00  0.00    -0.399 OA
ATOM     25  H3  UNL     1       5.008   1.000  -2.474  1.00  0.00     0.209 HD
ENDBRANCH  23  24
ENDBRANCH  22  23
ENDBRANCH  21  22
ENDBRANCH  20  21
ENDBRANCH  19  20
ENDBRANCH  17  19
ENDBRANCH   7  17
BRANCH   1  26
HETATM   26  N1  UNL     1      -5.773   1.860   0.502  1.00  0.00    -0.234 N 
ATOM     27  H12 UNL     1      -5.888   2.873   0.467  1.00  0.00     0.174 HD
ATOM     28  H11 UNL     1      -6.550   1.222   0.675  1.00  0.00     0.174 HD
ENDBRANCH   1  26
TORSDOF 8
