REMARK  6 active torsions:
REMARK  status: ('A' for Active; 'I' for Inactive)
REMARK    1  A    between atoms: C2_2  and  N1_3 
REMARK    2  A    between atoms: N2_6  and  C5_7 
REMARK    3  A    between atoms: C5_7  and  C6_8 
REMARK    4  A    between atoms: C6_8  and  C7_9 
REMARK       I    between atoms: C7_9  and  N3_11 
REMARK    5  A    between atoms: C10_14  and  C11_15 
REMARK       I    between atoms: C11_15  and  N4_17 
REMARK    6  A    between atoms: N4_17  and  C12_19 
ROOT
HETATM    1  C7  UNL     1       0.850   1.303  -0.801  1.00  0.00     0.221 C 
HETATM    2  O1  UNL     1       0.801   1.974  -1.862  1.00  0.00    -0.273 OA
HETATM    3  N3  UNL     1       2.087   1.219  -0.115  1.00  0.00    -0.351 N 
HETATM    4  C8  UNL     1       2.277   0.478   1.118  1.00  0.00     0.127 C 
HETATM    5  C9  UNL     1       3.760   0.200   1.142  1.00  0.00     0.035 C 
HETATM    6  C10 UNL     1       4.301   1.508   0.593  1.00  0.00     0.098 C 
HETATM    7  C15 UNL     1       3.349   1.839  -0.506  1.00  0.00     0.139 C 
ENDROOT
BRANCH   1   8
HETATM    8  C6  UNL     1      -0.338   0.604  -0.256  1.00  0.00     0.131 C 
BRANCH   8   9
HETATM    9  C5  UNL     1      -1.496   0.881  -1.163  1.00  0.00     0.247 C 
BRANCH   9  10
HETATM   10  N2  UNL     1      -2.718   0.266  -0.758  1.00  0.00    -0.062 N 
HETATM   11  C4  UNL     1      -2.728   0.045   0.682  1.00  0.00     0.265 C 
HETATM   12  C3  UNL     1      -4.010  -0.641   1.106  1.00  0.00     0.265 C 
HETATM   13  N1  UNL     1      -4.954  -0.554   0.036  1.00  0.00    -0.063 N 
HETATM   14  C17 UNL     1      -4.481  -1.292  -1.123  1.00  0.00     0.265 C 
HETATM   15  C19 UNL     1      -5.063   0.846  -0.371  1.00  0.00     0.265 C 
HETATM   16  C16 UNL     1      -2.996  -1.000  -1.384  1.00  0.00     0.265 C 
HETATM   17  C18 UNL     1      -3.810   1.168  -1.145  1.00  0.00     0.265 C 
BRANCH  13  18
HETATM   18  C2  UNL     1      -6.271  -1.008   0.355  1.00  0.00     0.233 C 
HETATM   19  C1  UNL     1      -6.620  -0.925   1.809  1.00  0.00     0.035 C 
ENDBRANCH  13  18
ENDBRANCH   9  10
ENDBRANCH   8   9
ENDBRANCH   1   8
BRANCH   6  20
HETATM   20  C11 UNL     1       5.712   1.443   0.210  1.00  0.00     0.241 C 
HETATM   21  O2  UNL     1       6.580   2.206   0.755  1.00  0.00    -0.272 OA
HETATM   22  N4  UNL     1       6.169   0.546  -0.764  1.00  0.00    -0.159 N 
ATOM     23  H4  UNL     1       5.908   0.661  -1.743  1.00  0.00     0.187 HD
BRANCH  22  24
HETATM   24  C12 UNL     1       6.932  -0.435  -0.391  1.00  0.00     0.685 A 
HETATM   25  N5  UNL     1       7.428  -1.360  -1.262  1.00  0.00    -0.199 N 
HETATM   26  C13 UNL     1       8.169  -2.230  -0.572  1.00  0.00     0.144 A 
ATOM     27  H5  UNL     1       7.261  -1.383  -2.268  1.00  0.00     0.183 HD
HETATM   28  C14 UNL     1       8.129  -1.838   0.741  1.00  0.00     0.112 A 
HETATM   29 BR1  UNL     1       8.987  -2.672   2.226  1.00  0.00    -0.029 Br
HETATM   30  N6  UNL     1       7.359  -0.720   0.852  1.00  0.00    -0.183 N 
ATOM     31  H6  UNL     1       7.149  -0.203   1.706  1.00  0.00     0.185 HD
ENDBRANCH  22  24
ENDBRANCH   6  20
TORSDOF 6
