REMARK  7 active torsions:
REMARK  status: ('A' for Active; 'I' for Inactive)
REMARK    1  A    between atoms: C2_2  and  C3_3 
REMARK    2  A    between atoms: C3_3  and  C4_4 
REMARK    3  A    between atoms: N3_16  and  C9_17 
REMARK    4  A    between atoms: C9_17  and  C10_18 
REMARK    5  A    between atoms: C11_19  and  C12_20 
REMARK    6  A    between atoms: N4_24  and  C16_26 
REMARK    7  A    between atoms: C16_26  and  C17_27 
ROOT
HETATM    1  C4  UNL     1      -1.927  -0.518  -0.251  1.00  0.00     0.127 C 
HETATM    2  N1  UNL     1      -3.058   0.286   0.169  1.00  0.00    -0.295 N 
ATOM      3  H1  UNL     1      -3.956   0.430  -0.293  1.00  0.00     0.174 HD
HETATM    4  S1  UNL     1      -2.485   0.925   1.640  1.00  0.00     0.316 S 
HETATM    5  O1  UNL     1      -3.033   2.280   1.970  1.00  0.00    -0.183 OA
HETATM    6  O2  UNL     1      -2.683   0.106   2.851  1.00  0.00    -0.183 OA
HETATM    7  N2  UNL     1      -0.794   0.981   1.170  1.00  0.00    -0.286 N 
ATOM      8  H2  UNL     1      -0.014   1.353   1.712  1.00  0.00     0.174 HD
HETATM    9  C5  UNL     1      -0.742   0.391  -0.142  1.00  0.00     0.122 C 
HETATM   10  C6  UNL     1      -1.037   1.436  -1.243  1.00  0.00     0.042 C 
HETATM   11  C7  UNL     1      -1.730   2.657  -0.904  1.00  0.00     0.014 C 
HETATM   12  C8  UNL     1       0.315   1.814  -1.846  1.00  0.00     0.248 C 
HETATM   13  N3  UNL     1       1.285   1.198  -1.008  1.00  0.00    -0.023 N 
HETATM   14  C13 UNL     1       2.355   0.532  -1.786  1.00  0.00     0.269 C 
HETATM   15  C14 UNL     1       2.745  -0.447  -0.682  1.00  0.00     0.267 C 
HETATM   16  N4  UNL     1       1.423  -1.024  -0.292  1.00  0.00    -0.037 N 
HETATM   17  C15 UNL     1       1.439  -2.225  -1.157  1.00  0.00     0.275 C 
HETATM   18  C19 UNL     1       0.548  -0.036  -0.669  1.00  0.00     0.423 C 
ENDROOT
BRANCH   1  19
HETATM   19  C3  UNL     1      -2.036  -1.804   0.381  1.00  0.00     0.028 C 
BRANCH  19  20
HETATM   20  C2  UNL     1      -3.300  -2.562  -0.001  1.00  0.00    -0.002 C 
HETATM   21  C1  UNL     1      -3.224  -3.894   0.746  1.00  0.00     0.005 C 
ENDBRANCH  19  20
ENDBRANCH   1  19
BRANCH  13  22
HETATM   22  C9  UNL     1       1.919   1.937  -0.032  1.00  0.00     0.333 C 
BRANCH  22  23
HETATM   23  C10 UNL     1       1.740   3.407  -0.233  1.00  0.00    -0.078 C 
HETATM   24  C11 UNL     1       1.590   4.618  -0.374  1.00  0.00    -0.094 C 
BRANCH  24  25
HETATM   25  C12 UNL     1       1.434   6.053  -0.556  1.00  0.00     0.178 C 
HETATM   26 BR1  UNL     1       0.277   6.683   0.875  1.00  0.00    -0.083 Br
ENDBRANCH  24  25
ENDBRANCH  22  23
ENDBRANCH  13  22
BRANCH  16  27
HETATM   27  C16 UNL     1       1.584  -1.377   1.074  1.00  0.00     0.239 C 
BRANCH  27  28
HETATM   28  C17 UNL     1       1.777  -2.864   1.319  1.00  0.00     0.023 C 
HETATM   29  C18 UNL     1       1.939  -3.022   2.842  1.00  0.00     0.007 C 
ENDBRANCH  27  28
ENDBRANCH  16  27
TORSDOF 7
