REMARK  6 active torsions:
REMARK  status: ('A' for Active; 'I' for Inactive)
REMARK    1  A    between atoms: C2_2  and  N1_3 
REMARK    2  A    between atoms: C2_2  and  C20_31 
REMARK       I    between atoms: N1_3  and  C3_5 
REMARK    3  A    between atoms: C3_5  and  C4_7 
REMARK    4  A    between atoms: C4_7  and  C5_8 
REMARK    5  A    between atoms: C4_7  and  N3_13 
REMARK    6  A    between atoms: C5_8  and  N2_9 
REMARK       I    between atoms: N3_13  and  C9_15 
REMARK       I    between atoms: C9_15  and  N6_26 
REMARK       I    between atoms: N4_16  and  C10_18 
REMARK       I    between atoms: C10_18  and  N5_20 
REMARK       I    between atoms: C20_31  and  N7_33 
ROOT
HETATM    1  N3  UNL     1      -0.775  -1.309  -0.645  1.00  0.00    -0.211 N 
ATOM      2  H3  UNL     1      -1.163  -1.441  -1.579  1.00  0.00     0.178 HD
HETATM    3  C9  UNL     1      -1.667  -1.077   0.422  1.00  0.00     0.680 C 
HETATM    4  N4  UNL     1      -2.789  -0.533   0.209  1.00  0.00    -0.141 N 
ATOM      5  H4  UNL     1      -3.417  -0.376   0.997  1.00  0.00     0.189 HD
HETATM    6  C10 UNL     1      -3.202  -0.137  -1.075  1.00  0.00     0.336 C 
HETATM    7  O2  UNL     1      -3.535  -1.001  -1.967  1.00  0.00    -0.246 OA
HETATM    8  N5  UNL     1      -3.268   1.232  -1.438  1.00  0.00    -0.334 N 
HETATM    9  C11 UNL     1      -3.678   1.658  -2.755  1.00  0.00     0.127 C 
HETATM   10  C12 UNL     1      -4.766   2.712  -2.660  1.00  0.00     0.020 C 
HETATM   11  C13 UNL     1      -4.451   3.744  -1.603  1.00  0.00     0.003 C 
HETATM   12  C14 UNL     1      -4.173   3.098  -0.268  1.00  0.00     0.020 C 
HETATM   13  C15 UNL     1      -2.925   2.231  -0.459  1.00  0.00     0.127 C 
HETATM   14  N6  UNL     1      -1.393  -1.443   1.786  1.00  0.00    -0.218 N 
HETATM   15  C16 UNL     1      -1.388  -2.849   2.205  1.00  0.00     0.141 C 
HETATM   16  C17 UNL     1      -1.564  -2.839   3.704  1.00  0.00     0.022 C 
HETATM   17  C18 UNL     1      -1.806  -1.413   4.081  1.00  0.00     0.022 C 
HETATM   18  C19 UNL     1      -1.100  -0.663   2.943  1.00  0.00     0.141 C 
ENDROOT
BRANCH   1  19
HETATM   19  C4  UNL     1       0.670  -1.370  -0.484  1.00  0.00     0.217 C 
BRANCH  19  20
HETATM   20  C3  UNL     1       1.196  -0.044  -0.076  1.00  0.00     0.243 C 
HETATM   21  N1  UNL     1       2.567   0.182   0.174  1.00  0.00    -0.346 N 
ATOM     22  H1  UNL     1       3.210  -0.602   0.067  1.00  0.00     0.163 HD
HETATM   23  O1  UNL     1       0.401   0.905   0.051  1.00  0.00    -0.271 OA
BRANCH  21  24
HETATM   24  C2  UNL     1       3.113   1.462   0.574  1.00  0.00     0.172 C 
HETATM   25  C1  UNL     1       4.058   2.000  -0.500  1.00  0.00     0.042 C 
BRANCH  24  26
HETATM   26  C20 UNL     1       3.827   1.418   1.845  1.00  0.00     0.241 C 
HETATM   27  O3  UNL     1       3.957   0.345   2.485  1.00  0.00    -0.271 OA
HETATM   28  N7  UNL     1       4.397   2.596   2.397  1.00  0.00    -0.359 N 
HETATM   29  C21 UNL     1       5.128   2.572   3.664  1.00  0.00     0.152 C 
HETATM   30  C22 UNL     1       4.282   3.884   1.741  1.00  0.00     0.152 C 
ENDBRANCH  24  26
ENDBRANCH  21  24
ENDBRANCH  19  20
BRANCH  19  31
HETATM   31  C5  UNL     1       1.272  -1.839  -1.775  1.00  0.00     0.271 C 
BRANCH  31  32
HETATM   32  N2  UNL     1       0.865  -3.098  -2.272  1.00  0.00    -0.076 N 
HETATM   33  C6  UNL     1       2.002  -3.883  -2.780  1.00  0.00     0.271 C 
HETATM   34  C7  UNL     1       0.002  -2.892  -3.436  1.00  0.00     0.271 C 
HETATM   35  C8  UNL     1       0.174  -3.972  -1.368  1.00  0.00     0.271 C 
ENDBRANCH  31  32
ENDBRANCH  19  31
ENDBRANCH   1  19
TORSDOF 6
