REMARK  7 active torsions:
REMARK  status: ('A' for Active; 'I' for Inactive)
REMARK    1  A    between atoms: C2_2  and  C4_4 
REMARK    2  A    between atoms: C2_2  and  N6_24 
REMARK    3  A    between atoms: C4_4  and  N1_5 
REMARK    4  A    between atoms: N1_5  and  C7_8 
REMARK    5  A    between atoms: C7_8  and  C8_9 
REMARK       I    between atoms: C8_9  and  N2_11 
REMARK    6  A    between atoms: N2_11  and  C9_13 
REMARK       I    between atoms: N6_24  and  C15_26 
REMARK       I    between atoms: C15_26  and  N9_31 
REMARK    7  A    between atoms: N9_31  and  C17_33 
ROOT
HETATM    1  N6  UNL     1       2.212  -0.674  -1.036  1.00  0.00    -0.216 N 
ATOM      2  H6  UNL     1       1.578  -0.832  -1.820  1.00  0.00     0.178 HD
HETATM    3  C15 UNL     1       3.573  -0.546  -1.352  1.00  0.00     0.684 C 
HETATM    4  N7  UNL     1       4.214  -1.563  -1.796  1.00  0.00    -0.126 N 
ATOM      5  H7  UNL     1       5.200  -1.408  -2.006  1.00  0.00     0.197 HD
HETATM    6  C16 UNL     1       3.748  -2.831  -2.025  1.00  0.00     0.196 C 
HETATM    7  N8  UNL     1       3.336  -3.892  -2.211  1.00  0.00    -0.171 NA
HETATM    8  N9  UNL     1       4.285   0.658  -1.232  1.00  0.00    -0.217 N 
ATOM      9  H9  UNL     1       3.846   1.489  -1.629  1.00  0.00     0.178 HD
ENDROOT
BRANCH   1  10
HETATM   10  C2  UNL     1       1.603  -0.607   0.283  1.00  0.00     0.064 C 
HETATM   11  C1  UNL     1       1.730   0.779   0.802  1.00  0.00     0.040 C 
HETATM   12  C3  UNL     1       2.378  -1.609   1.131  1.00  0.00     0.040 C 
BRANCH  10  13
HETATM   13  C4  UNL     1       0.170  -0.995   0.129  1.00  0.00     0.267 C 
BRANCH  13  14
HETATM   14  N1  UNL     1      -0.722  -1.033   1.172  1.00  0.00    -0.064 N 
HETATM   15  C5  UNL     1      -1.337  -2.380   1.281  1.00  0.00     0.272 C 
HETATM   16  C6  UNL     1      -0.376  -0.687   2.510  1.00  0.00     0.272 C 
BRANCH  14  17
HETATM   17  C7  UNL     1      -1.877  -0.161   0.872  1.00  0.00     0.339 C 
BRANCH  17  18
HETATM   18  C8  UNL     1      -2.617  -0.559  -0.320  1.00  0.00     0.262 C 
HETATM   19  O1  UNL     1      -2.318  -1.546  -1.036  1.00  0.00    -0.271 OA
HETATM   20  N2  UNL     1      -3.742   0.240  -0.667  1.00  0.00    -0.157 N 
ATOM     21  H2  UNL     1      -3.587   1.164  -1.071  1.00  0.00     0.187 HD
BRANCH  20  22
HETATM   22  C9  UNL     1      -4.954  -0.170  -0.486  1.00  0.00     0.703 A 
HETATM   23  N3  UNL     1      -5.251  -1.372   0.039  1.00  0.00    -0.130 N 
HETATM   24  N4  UNL     1      -6.560  -1.492   0.093  1.00  0.00    -0.274 N 
ATOM     25  H3  UNL     1      -4.575  -2.073   0.344  1.00  0.00     0.205 HD
HETATM   26  C10 UNL     1      -7.090  -0.373  -0.395  1.00  0.00     0.115 A 
ATOM     27  H4  UNL     1      -7.076  -2.298   0.446  1.00  0.00     0.189 HD
HETATM   28  N5  UNL     1      -6.107   0.458  -0.759  1.00  0.00    -0.169 N 
HETATM   29  C14 UNL     1      -8.529   0.029  -0.568  1.00  0.00     0.079 C 
HETATM   30  C11 UNL     1      -6.310   1.768  -1.330  1.00  0.00     0.149 C 
HETATM   31  C12 UNL     1      -7.735   2.207  -1.307  1.00  0.00     0.021 C 
HETATM   32  C13 UNL     1      -8.580   1.516  -0.279  1.00  0.00     0.009 C 
ENDBRANCH  20  22
ENDBRANCH  17  18
ENDBRANCH  14  17
ENDBRANCH  13  14
ENDBRANCH  10  13
ENDBRANCH   1  10
BRANCH   8  33
HETATM   33  C17 UNL     1       5.566   0.844  -0.609  1.00  0.00     0.043 C 
HETATM   34  C18 UNL     1       5.635   0.497   0.836  1.00  0.00     0.039 C 
HETATM   35  C19 UNL     1       6.001   2.278  -0.766  1.00  0.00     0.031 C 
HETATM   36  C20 UNL     1       7.501   2.253  -0.726  1.00  0.00     0.002 C 
HETATM   37  C21 UNL     1       7.906   0.796  -0.794  1.00  0.00     0.002 C 
HETATM   38  C22 UNL     1       6.672   0.113  -1.344  1.00  0.00     0.031 C 
ENDBRANCH   8  33
TORSDOF 7
