REMARK  1 active torsions:
REMARK  status: ('A' for Active; 'I' for Inactive)
REMARK    1  A    between atoms: C7_11  and  N2_12 
ROOT
HETATM    1  C1  UNL     1      -3.834  -0.413   0.254  1.00  0.00     0.050 C 
HETATM    2  C2  UNL     1      -2.493   0.261   0.266  1.00  0.00    -0.038 A 
HETATM    3  C3  UNL     1      -2.506   1.618   0.420  1.00  0.00     0.018 A 
HETATM    4 BR1  UNL     1      -4.111   2.608   0.609  1.00  0.00    -0.051 Br
HETATM    5  C4  UNL     1      -1.308   2.277   0.436  1.00  0.00     0.039 A 
HETATM    6  C5  UNL     1      -0.147   1.553   0.298  1.00  0.00     0.023 A 
HETATM    7  S1  UNL     1       1.391   2.316   0.310  1.00  0.00    -0.051 SA
HETATM    8  C6  UNL     1       2.678   1.227   0.124  1.00  0.00     0.187 A 
HETATM    9  N1  UNL     1       4.037   1.312   0.068  1.00  0.00    -0.167 N 
ATOM     10  H1  UNL     1       4.588   2.167   0.138  1.00  0.00     0.186 HD
HETATM   11  C7  UNL     1       4.519   0.079  -0.095  1.00  0.00     0.693 A 
HETATM   12  N3  UNL     1       3.470  -0.744  -0.137  1.00  0.00    -0.122 N 
ATOM     13  H3  UNL     1       3.530  -1.755  -0.254  1.00  0.00     0.206 HD
HETATM   14  N4  UNL     1       2.320  -0.053  -0.003  1.00  0.00    -0.207 N 
HETATM   15  C8  UNL     1       1.055  -0.532   0.004  1.00  0.00     0.138 A 
HETATM   16  S2  UNL     1       0.953  -2.181  -0.178  1.00  0.00    -0.057 SA
HETATM   17  C9  UNL     1      -0.099   0.161   0.138  1.00  0.00     0.028 A 
HETATM   18  C10 UNL     1      -1.329  -0.523   0.121  1.00  0.00    -0.040 A 
HETATM   19  C11 UNL     1      -1.456  -1.967  -0.036  1.00  0.00     0.050 C 
ENDROOT
BRANCH  11  20
HETATM   20  N2  UNL     1       5.780  -0.269  -0.195  1.00  0.00    -0.233 N 
ATOM     21  H22 UNL     1       6.582   0.360  -0.163  1.00  0.00     0.174 HD
ATOM     22  H21 UNL     1       6.149  -1.212  -0.320  1.00  0.00     0.174 HD
ENDBRANCH  11  20
TORSDOF 1
