REMARK  1 active torsions:
REMARK  status: ('A' for Active; 'I' for Inactive)
REMARK    1  A    between atoms: C12_20  and  C13_21 
ROOT
HETATM    1  N1  UNL     1      -4.546  -3.931   0.956  1.00  0.00    -0.190 NA
HETATM    2  C1  UNL     1      -3.907  -2.994   0.750  1.00  0.00     0.118 C 
HETATM    3  C2  UNL     1      -3.115  -1.832   0.511  1.00  0.00     0.125 A 
HETATM    4  N2  UNL     1      -1.795  -1.883   0.274  1.00  0.00    -0.345 N 
ATOM      5  H2  UNL     1      -1.335  -2.793   0.263  1.00  0.00     0.167 HD
HETATM    6  C3  UNL     1      -1.061  -0.794   0.052  1.00  0.00     0.061 A 
HETATM    7  C4  UNL     1      -1.696   0.437   0.065  1.00  0.00     0.068 A 
HETATM    8  C5  UNL     1      -3.048   0.562   0.305  1.00  0.00     0.006 A 
HETATM    9  C6  UNL     1      -3.674   1.784   0.328  1.00  0.00     0.014 A 
HETATM   10  C7  UNL     1      -5.037   1.817   0.582  1.00  0.00     0.001 A 
HETATM   11  C8  UNL     1      -5.761   0.668   0.808  1.00  0.00     0.001 A 
HETATM   12  C9  UNL     1      -5.126  -0.536   0.783  1.00  0.00     0.015 A 
HETATM   13  C10 UNL     1      -3.767  -0.609   0.533  1.00  0.00     0.014 A 
HETATM   14  N3  UNL     1      -0.949   1.600  -0.270  1.00  0.00    -0.364 N 
ATOM     15  H3  UNL     1      -1.453   2.435  -0.570  1.00  0.00     0.161 HD
HETATM   16  C11 UNL     1       0.459   1.647  -0.205  1.00  0.00     0.233 C 
HETATM   17  N4  UNL     1       1.164   2.185  -1.350  1.00  0.00    -0.110 NA
HETATM   18  N5  UNL     1       2.500   1.721  -1.182  1.00  0.00    -0.300 N 
ATOM     19  H5  UNL     1       3.335   2.181  -1.544  1.00  0.00     0.182 HD
HETATM   20  C12 UNL     1       2.486   0.601  -0.483  1.00  0.00     0.067 C 
HETATM   21  C19 UNL     1       1.084   0.276  -0.238  1.00  0.00     0.013 C 
HETATM   22  C20 UNL     1       0.383  -0.821  -0.115  1.00  0.00     0.045 C 
ENDROOT
BRANCH  20  23
HETATM   23  C13 UNL     1       3.648  -0.177  -0.100  1.00  0.00     0.031 A 
HETATM   24  C14 UNL     1       3.654  -1.280   0.702  1.00  0.00     0.017 A 
HETATM   25  C15 UNL     1       4.813  -1.969   1.060  1.00  0.00     0.001 A 
HETATM   26  C16 UNL     1       6.019  -1.515   0.583  1.00  0.00     0.003 A 
HETATM   27  C17 UNL     1       6.065  -0.403  -0.230  1.00  0.00     0.043 A 
HETATM   28  C18 UNL     1       4.898   0.244  -0.558  1.00  0.00     0.129 A 
HETATM   29  F1  UNL     1       4.970   1.340  -1.363  1.00  0.00    -0.205 F 
ENDBRANCH  20  23
TORSDOF 1
