REMARK  1 active torsions:
REMARK  status: ('A' for Active; 'I' for Inactive)
REMARK    1  A    between atoms: C2_2  and  N1_5 
REMARK       I    between atoms: N1_5  and  C5_7 
REMARK       I    between atoms: C5_7  and  N3_11 
ROOT
HETATM    1  N1  UNL     1      -1.232  -0.301  -0.054  1.00  0.00    -0.218 N 
ATOM      2  H1  UNL     1      -0.955  -0.766  -0.918  1.00  0.00     0.178 HD
HETATM    3  C5  UNL     1      -0.223  -0.340   0.925  1.00  0.00     0.680 C 
HETATM    4  N2  UNL     1      -0.594  -0.139   2.079  1.00  0.00    -0.234 N 
ATOM      5  H21 UNL     1       0.138  -0.167   2.789  1.00  0.00     0.174 HD
ATOM      6  H22 UNL     1      -1.574  -0.013   2.333  1.00  0.00     0.174 HD
HETATM    7  N3  UNL     1       1.145  -0.516   0.571  1.00  0.00    -0.141 N 
HETATM    8  C6  UNL     1       1.900   0.709   0.296  1.00  0.00     0.074 A 
HETATM    9  C7  UNL     1       1.185   1.893   0.493  1.00  0.00     0.032 A 
HETATM   10  C8  UNL     1       1.831   3.103   0.276  1.00  0.00     0.002 A 
HETATM   11  C9  UNL     1       3.147   3.166  -0.124  1.00  0.00     0.002 A 
HETATM   12  C10 UNL     1       3.826   1.979  -0.310  1.00  0.00     0.021 A 
HETATM   13  C11 UNL     1       3.181   0.787  -0.094  1.00  0.00     0.035 A 
HETATM   14  S1  UNL     1       4.128  -0.672  -0.363  1.00  0.00    -0.068 SA
HETATM   15  C12 UNL     1       3.041  -2.020   0.057  1.00  0.00     0.107 A 
HETATM   16  N4  UNL     1       3.510  -3.265  -0.011  1.00  0.00    -0.345 N 
ATOM     17  H4  UNL     1       4.480  -3.392  -0.300  1.00  0.00     0.167 HD
HETATM   18  C13 UNL     1       2.804  -4.349   0.270  1.00  0.00     0.182 A 
HETATM   19  N5  UNL     1       1.542  -4.202   0.649  1.00  0.00    -0.341 N 
ATOM     20  H5  UNL     1       0.982  -5.025   0.870  1.00  0.00     0.167 HD
HETATM   21  C14 UNL     1       0.989  -2.970   0.745  1.00  0.00     0.135 A 
HETATM   22 CL1  UNL     1      -0.678  -2.896   1.285  1.00  0.00    -0.062 Cl
HETATM   23  C15 UNL     1       1.702  -1.824   0.456  1.00  0.00     0.129 A 
ENDROOT
BRANCH   1  24
HETATM   24  C2  UNL     1      -2.530   0.227  -0.122  1.00  0.00     0.036 C 
HETATM   25  C1  UNL     1      -3.541  -0.271   0.887  1.00  0.00     0.038 C 
HETATM   26  C3  UNL     1      -2.709   1.726  -0.122  1.00  0.00     0.038 C 
HETATM   27  C4  UNL     1      -3.150  -0.187  -1.487  1.00  0.00     0.038 C 
ENDBRANCH   1  24
TORSDOF 1
