REMARK  1 active torsions:
REMARK  status: ('A' for Active; 'I' for Inactive)
REMARK    1  A    between atoms: C4_6  and  N2_7 
ROOT
HETATM    1  N2  UNL     1      -1.828   1.357   2.118  1.00  0.00    -0.284 N 
ATOM      2  H2  UNL     1      -1.593   2.295   2.443  1.00  0.00     0.176 HD
HETATM    3  C5  UNL     1      -2.642   0.553   2.918  1.00  0.00     0.180 C 
HETATM    4  N3  UNL     1      -3.317  -0.133   3.584  1.00  0.00    -0.172 NA
ENDROOT
BRANCH   1   5
HETATM    5  C4  UNL     1      -1.306   0.909   0.846  1.00  0.00     0.337 C 
HETATM    6  N1  UNL     1      -2.426   0.604   0.003  1.00  0.00    -0.363 N 
HETATM    7  C2  UNL     1      -2.092   0.091  -1.287  1.00  0.00     0.074 C 
ATOM      8  H1  UNL     1      -3.391   0.743   0.303  1.00  0.00     0.159 HD
HETATM    9  C1  UNL     1      -2.343   1.219  -2.296  1.00  0.00     0.050 C 
HETATM   10  C3  UNL     1      -3.061  -1.032  -1.607  1.00  0.00     0.050 C 
HETATM   11  S1  UNL     1      -0.411  -0.474  -1.463  1.00  0.00    -0.093 SA
HETATM   12  C6  UNL     1       0.425  -0.442   0.106  1.00  0.00     0.176 C 
HETATM   13  O1  UNL     1      -0.502  -0.194   1.106  1.00  0.00    -0.319 OA
HETATM   14  C7  UNL     1       1.574   0.515   0.148  1.00  0.00     0.025 A 
HETATM   15  C13 UNL     1       1.125  -1.743   0.447  1.00  0.00     0.106 C 
HETATM   16  C8  UNL     1       1.826   1.729  -0.459  1.00  0.00     0.038 A 
HETATM   17  C12 UNL     1       2.485  -0.068   1.003  1.00  0.00     0.080 A 
HETATM   18  C9  UNL     1       3.002   2.399  -0.227  1.00  0.00     0.034 A 
HETATM   19 CL1  UNL     1       3.275   3.936  -1.020  1.00  0.00    -0.084 Cl
HETATM   20  C10 UNL     1       3.915   1.829   0.622  1.00  0.00     0.026 A 
HETATM   21  C11 UNL     1       3.674   0.619   1.232  1.00  0.00     0.039 A 
HETATM   22  O2  UNL     1       2.005  -1.280   1.484  1.00  0.00    -0.336 OA
HETATM   23  C14 UNL     1       0.180  -2.779   0.970  1.00  0.00     0.051 C 
HETATM   24  C15 UNL     1       2.006  -2.234  -0.665  1.00  0.00     0.051 C 
ENDBRANCH   1   5
TORSDOF 1
