REMARK  7 active torsions:
REMARK  status: ('A' for Active; 'I' for Inactive)
REMARK    1  A    between atoms: C2_2  and  N1_3 
REMARK       I    between atoms: C3_5  and  N3_7 
REMARK    2  A    between atoms: N3_7  and  C4_9 
REMARK    3  A    between atoms: N5_15  and  C8_17 
REMARK    4  A    between atoms: C8_17  and  C9_18 
REMARK    5  A    between atoms: C9_18  and  C10_19 
REMARK    6  A    between atoms: C10_19  and  C11_20 
REMARK    7  A    between atoms: C11_20  and  N6_21 
ROOT
HETATM    1  C4  UNL     1       5.381  -0.669  -1.523  1.00  0.00     0.685 A 
HETATM    2  N4  UNL     1       4.405  -1.578  -1.397  1.00  0.00    -0.189 N 
ATOM      3  H4  UNL     1       4.470  -2.561  -1.661  1.00  0.00     0.184 HD
HETATM    4  C5  UNL     1       3.327  -0.980  -0.866  1.00  0.00     0.082 A 
HETATM    5  C6  UNL     1       2.048  -1.390  -0.509  1.00  0.00     0.080 A 
HETATM    6  C7  UNL     1       1.137  -0.507   0.031  1.00  0.00     0.103 A 
HETATM    7  N5  UNL     1      -0.029  -0.965   0.336  1.00  0.00    -0.376 N 
ATOM      8  H5  UNL     1      -0.278  -1.943   0.187  1.00  0.00     0.161 HD
HETATM    9  N7  UNL     1       1.505   0.771   0.212  1.00  0.00    -0.344 N 
ATOM     10  H7  UNL     1       0.826   1.418   0.613  1.00  0.00     0.167 HD
HETATM   11  C18 UNL     1       2.720   1.242  -0.107  1.00  0.00     0.036 A 
HETATM   12  C19 UNL     1       3.105   2.667   0.103  1.00  0.00     0.070 C 
HETATM   13  C20 UNL     1       3.639   0.366  -0.649  1.00  0.00     0.098 A 
HETATM   14  N8  UNL     1       4.910   0.522  -1.065  1.00  0.00    -0.187 N 
ATOM     15  H8  UNL     1       5.436   1.395  -1.041  1.00  0.00     0.184 HD
ENDROOT
BRANCH   7  16
HETATM   16  C8  UNL     1      -0.973  -0.010   0.906  1.00  0.00     0.121 C 
BRANCH  16  17
HETATM   17  C9  UNL     1      -2.340  -0.683   1.089  1.00  0.00     0.021 C 
BRANCH  17  18
HETATM   18  C10 UNL     1      -3.274   0.333   1.675  1.00  0.00     0.029 C 
BRANCH  18  19
HETATM   19  C11 UNL     1      -4.651  -0.159   1.919  1.00  0.00     0.237 C 
BRANCH  19  20
HETATM   20  N6  UNL     1      -5.373  -0.624   0.795  1.00  0.00    -0.071 N 
HETATM   21  C12 UNL     1      -5.084  -2.011   0.488  1.00  0.00     0.272 C 
HETATM   22  C13 UNL     1      -6.802  -0.583   1.154  1.00  0.00     0.237 C 
HETATM   23  C14 UNL     1      -7.683  -0.653  -0.058  1.00  0.00     0.028 C 
HETATM   24  C15 UNL     1      -7.676   0.728  -0.699  1.00  0.00     0.003 C 
HETATM   25  C16 UNL     1      -6.287   1.302  -0.438  1.00  0.00     0.028 C 
HETATM   26  C17 UNL     1      -5.242   0.180  -0.393  1.00  0.00     0.237 C 
ENDBRANCH  19  20
ENDBRANCH  18  19
ENDBRANCH  17  18
ENDBRANCH  16  17
ENDBRANCH   7  16
BRANCH   1  27
HETATM   27  N3  UNL     1       6.576  -0.877  -2.000  1.00  0.00    -0.163 N 
HETATM   28  C3  UNL     1       7.499   0.196  -2.068  1.00  0.00     0.202 C 
HETATM   29  N1  UNL     1       8.522   0.245  -1.253  1.00  0.00    -0.364 N 
HETATM   30  N2  UNL     1       7.312   1.216  -3.021  1.00  0.00    -0.063 NA
ATOM     31  H1  UNL     1       9.177   1.024  -1.316  1.00  0.00     0.162 HD
ATOM     32  H3  UNL     1       6.845  -1.807  -2.322  1.00  0.00     0.187 HD
BRANCH  29  33
HETATM   33  C2  UNL     1       8.739  -0.788  -0.264  1.00  0.00     0.118 C 
HETATM   34  C1  UNL     1       8.998  -0.088   1.059  1.00  0.00     0.026 C 
ENDBRANCH  29  33
ENDBRANCH   1  27
TORSDOF 7
