REMARK  2 active torsions:
REMARK  status: ('A' for Active; 'I' for Inactive)
REMARK    1  A    between atoms: C2_2  and  N1_3 
REMARK       I    between atoms: C3_5  and  N2_6 
REMARK       I    between atoms: C3_5  and  N7_18 
REMARK    2  A    between atoms: N7_18  and  C9_20 
ROOT
HETATM    1  N1  UNL     1      -2.221   0.863   0.933  1.00  0.00    -0.226 N 
ATOM      2  H1  UNL     1      -3.063   0.487   1.369  1.00  0.00     0.177 HD
HETATM    3  C3  UNL     1      -1.525   0.143   0.154  1.00  0.00     0.688 C 
HETATM    4  N2  UNL     1      -0.380   0.653  -0.442  1.00  0.00    -0.022 N 
ATOM      5  H2  UNL     1      -0.560   1.304  -1.206  1.00  0.00     0.203 HD
HETATM    6  C4  UNL     1       0.843   0.455  -0.208  1.00  0.00     0.701 A 
HETATM    7  N3  UNL     1       1.793   1.093  -0.955  1.00  0.00    -0.175 N 
ATOM      8  H3  UNL     1       1.619   1.745  -1.720  1.00  0.00     0.185 HD
HETATM    9  C5  UNL     1       2.996   0.707  -0.501  1.00  0.00     0.170 A 
HETATM   10  N4  UNL     1       4.281   1.116  -0.979  1.00  0.00    -0.079 NA
HETATM   11  C6  UNL     1       2.760  -0.173   0.531  1.00  0.00     0.173 A 
HETATM   12  C7  UNL     1       3.782  -0.829   1.302  1.00  0.00     0.122 C 
HETATM   13  N5  UNL     1       4.607  -1.360   1.938  1.00  0.00    -0.190 NA
HETATM   14  N6  UNL     1       1.415  -0.330   0.713  1.00  0.00    -0.174 N 
HETATM   15  C8  UNL     1       0.844  -1.183   1.712  1.00  0.00     0.176 C 
HETATM   16  N7  UNL     1      -1.935  -1.179  -0.104  1.00  0.00    -0.226 N 
ATOM     17  H7  UNL     1      -2.134  -1.788   0.689  1.00  0.00     0.177 HD
ENDROOT
BRANCH   1  18
HETATM   18  C2  UNL     1      -1.805   2.223   1.194  1.00  0.00     0.133 C 
HETATM   19  C1  UNL     1      -1.714   3.039  -0.062  1.00  0.00     0.027 C 
ENDBRANCH   1  18
BRANCH  16  20
HETATM   20  C9  UNL     1      -2.088  -1.716  -1.440  1.00  0.00     0.133 C 
HETATM   21  C10 UNL     1      -2.535  -3.150  -1.400  1.00  0.00     0.027 C 
ENDBRANCH  16  20
TORSDOF 2
