REMARK  4 active torsions:
REMARK  status: ('A' for Active; 'I' for Inactive)
REMARK    1  A    between atoms: C5_5  and  N1_6 
REMARK    2  A    between atoms: N1_6  and  C6_8 
REMARK    3  A    between atoms: C6_8  and  C7_9 
REMARK    4  A    between atoms: C11_18  and  N5_19 
ROOT
HETATM    1  C1  UNL     1       4.743   2.442  -0.042  1.00  0.00     0.019 C 
HETATM    2  C2  UNL     1       3.956   1.531  -0.106  1.00  0.00    -0.059 C 
HETATM    3  C3  UNL     1       3.039   0.445  -0.200  1.00  0.00     0.105 A 
HETATM    4  C4  UNL     1       1.660   0.618  -0.083  1.00  0.00     0.088 A 
HETATM    5  C5  UNL     1       0.813  -0.466  -0.180  1.00  0.00     0.119 A 
HETATM    6  N4  UNL     1       1.356  -1.673  -0.389  1.00  0.00    -0.177 N 
ATOM      7  H4  UNL     1       0.743  -2.485  -0.464  1.00  0.00     0.185 HD
HETATM    8  C11 UNL     1       2.684  -1.845  -0.503  1.00  0.00     0.678 A 
HETATM    9  N6  UNL     1       3.510  -0.791  -0.408  1.00  0.00    -0.184 N 
ATOM     10  H6  UNL     1       4.516  -0.935  -0.496  1.00  0.00     0.185 HD
ENDROOT
BRANCH   5  11
HETATM   11  N1  UNL     1      -0.457  -0.366  -0.081  1.00  0.00    -0.370 N 
ATOM     12  H1  UNL     1      -1.056  -1.188  -0.158  1.00  0.00     0.161 HD
BRANCH  11  13
HETATM   13  C6  UNL     1      -1.018   0.941   0.143  1.00  0.00     0.179 C 
BRANCH  13  14
HETATM   14  C7  UNL     1      -2.479   0.965   0.267  1.00  0.00     0.045 A 
HETATM   15  C8  UNL     1      -3.240   2.117   0.481  1.00  0.00     0.115 A 
HETATM   16  N2  UNL     1      -4.532   1.763   0.540  1.00  0.00    -0.360 N 
HETATM   17  C9  UNL     1      -4.592   0.428   0.370  1.00  0.00     0.182 A 
ATOM     18  H2  UNL     1      -5.324   2.389   0.687  1.00  0.00     0.166 HD
HETATM   19  N3  UNL     1      -3.331  -0.055   0.202  1.00  0.00    -0.348 N 
HETATM   20  C10 UNL     1      -3.034  -1.451  -0.006  1.00  0.00     0.157 C 
ENDBRANCH  13  14
ENDBRANCH  11  13
ENDBRANCH   5  11
BRANCH   8  21
HETATM   21  N5  UNL     1       3.137  -3.058  -0.707  1.00  0.00    -0.234 N 
ATOM     22  H52 UNL     1       2.509  -3.859  -0.779  1.00  0.00     0.174 HD
ATOM     23  H51 UNL     1       4.145  -3.189  -0.794  1.00  0.00     0.174 HD
ENDBRANCH   8  21
TORSDOF 4
