REMARK  4 active torsions:
REMARK  status: ('A' for Active; 'I' for Inactive)
REMARK       I    between atoms: N1_1  and  C1_4 
REMARK    1  A    between atoms: N3_6  and  N4_8 
REMARK       I    between atoms: N4_8  and  C2_9 
REMARK    2  A    between atoms: C2_9  and  C3_11 
REMARK    3  A    between atoms: C3_11  and  N5_12 
REMARK    4  A    between atoms: C7_21  and  N8_22 
ROOT
HETATM    1  N5  UNL     1       0.650  -0.336   0.016  1.00  0.00    -0.317 N 
HETATM    2  C4  UNL     1       0.177  -0.392   1.249  1.00  0.00     0.185 A 
HETATM    3  N6  UNL     1       1.166  -0.419   2.151  1.00  0.00    -0.345 N 
ATOM      4  H6  UNL     1       1.055  -0.436   3.165  1.00  0.00     0.167 HD
HETATM    5  C5  UNL     1       2.385  -0.420   1.451  1.00  0.00     0.147 A 
HETATM    6  C6  UNL     1       3.681  -0.478   1.848  1.00  0.00     0.290 A 
HETATM    7  O2  UNL     1       3.980  -0.491   3.048  1.00  0.00    -0.265 OA
HETATM    8  N7  UNL     1       4.588  -0.517   0.855  1.00  0.00    -0.154 N 
ATOM      9  H7  UNL     1       5.578  -0.550   1.099  1.00  0.00     0.187 HD
HETATM   10  C7  UNL     1       4.238  -0.514  -0.470  1.00  0.00     0.680 A 
HETATM   11  N9  UNL     1       2.973  -0.441  -0.839  1.00  0.00    -0.174 N 
ATOM     12  H9  UNL     1       2.735  -0.424  -1.831  1.00  0.00     0.186 HD
HETATM   13  C8  UNL     1       1.969  -0.387   0.107  1.00  0.00     0.157 A 
ENDROOT
BRANCH   1  14
HETATM   14  C3  UNL     1      -0.052   0.081  -1.145  1.00  0.00     0.252 C 
BRANCH  14  15
HETATM   15  C2  UNL     1      -0.804   1.406  -0.543  1.00  0.00     0.330 C 
HETATM   16  N4  UNL     1      -2.100   1.115  -0.576  1.00  0.00    -0.283 NA
HETATM   17  O1  UNL     1      -0.176   2.339  -0.184  1.00  0.00    -0.253 OA
BRANCH  16  18
HETATM   18  N3  UNL     1      -3.404   0.829  -0.605  1.00  0.00    -0.203 N 
HETATM   19  C1  UNL     1      -4.504   0.473  -0.062  1.00  0.00     0.211 C 
HETATM   20  N1  UNL     1      -5.581   1.233   0.102  1.00  0.00    -0.372 N 
HETATM   21  N2  UNL     1      -4.705  -0.936   0.333  1.00  0.00    -0.062 NA
ATOM     22  H12 UNL     1      -6.459   0.949   0.536  1.00  0.00     0.158 HD
ATOM     23  H11 UNL     1      -5.442   2.206  -0.171  1.00  0.00     0.158 HD
ATOM     24  H3  UNL     1      -3.657   0.970  -1.583  1.00  0.00     0.205 HD
ENDBRANCH  16  18
ENDBRANCH  14  15
ENDBRANCH   1  14
BRANCH  10  25
HETATM   25  N8  UNL     1       5.133  -0.751  -1.362  1.00  0.00    -0.234 N 
ATOM     26  H82 UNL     1       6.111  -0.807  -1.077  1.00  0.00     0.174 HD
ATOM     27  H81 UNL     1       4.873  -0.749  -2.348  1.00  0.00     0.174 HD
ENDBRANCH  10  25
TORSDOF 4
