REMARK  6 active torsions:
REMARK  status: ('A' for Active; 'I' for Inactive)
REMARK    1  A    between atoms: C3_4  and  C4_5 
REMARK    2  A    between atoms: C4_5  and  O1_6 
REMARK    3  A    between atoms: C4_5  and  C5_8 
REMARK    4  A    between atoms: C5_8  and  N2_9 
REMARK    5  A    between atoms: C5_8  and  C6_13 
REMARK    6  A    between atoms: C9_21  and  N5_22 
ROOT
HETATM    1  C1  UNL     1      -2.207   1.694   2.246  1.00  0.00     0.157 C 
HETATM    2  N1  UNL     1      -1.512   0.925   1.221  1.00  0.00    -0.346 N 
HETATM    3  C2  UNL     1      -0.195   0.947   0.930  1.00  0.00     0.103 A 
HETATM    4  C3  UNL     1       0.065   0.070  -0.112  1.00  0.00     0.008 A 
HETATM    5  C7  UNL     1      -1.156  -0.476  -0.431  1.00  0.00     0.087 A 
HETATM    6  C8  UNL     1      -1.529  -1.395  -1.375  1.00  0.00     0.274 A 
HETATM    7  O3  UNL     1      -0.673  -1.896  -2.142  1.00  0.00    -0.267 OA
HETATM    8  N4  UNL     1      -2.796  -1.795  -1.522  1.00  0.00    -0.155 N 
ATOM      9  H4  UNL     1      -3.046  -2.482  -2.233  1.00  0.00     0.187 HD
HETATM   10  C9  UNL     1      -3.740  -1.270  -0.708  1.00  0.00     0.680 A 
HETATM   11  N6  UNL     1      -3.395  -0.359   0.232  1.00  0.00    -0.176 N 
ATOM     12  H6  UNL     1      -4.125   0.022   0.833  1.00  0.00     0.186 HD
HETATM   13  C10 UNL     1      -2.135   0.063   0.406  1.00  0.00     0.139 A 
ENDROOT
BRANCH   4  14
HETATM   14  C4  UNL     1       1.353  -0.247  -0.761  1.00  0.00     0.193 C 
BRANCH  14  15
HETATM   15  O1  UNL     1       1.723  -1.587  -0.658  1.00  0.00    -0.388 OA
ATOM     16  H1  UNL     1       2.552  -1.791  -1.076  1.00  0.00     0.210 HD
ENDBRANCH  14  15
BRANCH  14  17
HETATM   17  C5  UNL     1       2.464   0.672  -0.290  1.00  0.00     0.304 C 
BRANCH  17  18
HETATM   18  N2  UNL     1       2.835   0.440   1.090  1.00  0.00    -0.064 N 
ATOM     19  H23 UNL     1       2.022   0.505   1.703  1.00  0.00     0.275 HD
ATOM     20  H22 UNL     1       3.080  -0.538   1.243  1.00  0.00     0.275 HD
ATOM     21  H21 UNL     1       3.582   1.058   1.407  1.00  0.00     0.275 HD
ENDBRANCH  17  18
BRANCH  17  22
HETATM   22  C6  UNL     1       3.675   0.529  -1.114  1.00  0.00     0.264 C 
HETATM   23  N3  UNL     1       4.922   0.221  -0.536  1.00  0.00    -0.060 NA
HETATM   24  O2  UNL     1       3.592   0.685  -2.349  1.00  0.00    -0.274 OA
ENDBRANCH  17  22
ENDBRANCH  14  17
ENDBRANCH   4  14
BRANCH  10  25
HETATM   25  N5  UNL     1      -4.943  -1.678  -0.879  1.00  0.00    -0.234 N 
ATOM     26  H52 UNL     1      -5.203  -2.364  -1.587  1.00  0.00     0.174 HD
ATOM     27  H51 UNL     1      -5.655  -1.282  -0.265  1.00  0.00     0.174 HD
ENDBRANCH  10  25
TORSDOF 6
