REMARK  5 active torsions:
REMARK  status: ('A' for Active; 'I' for Inactive)
REMARK    1  A    between atoms: O1_2  and  C2_3 
REMARK    2  A    between atoms: C3_6  and  N2_7 
REMARK       I    between atoms: N2_7  and  C4_8 
REMARK    3  A    between atoms: C4_8  and  C5_10 
REMARK    4  A    between atoms: C5_10  and  N3_12 
REMARK       I    between atoms: N3_12  and  C7_14 
REMARK    5  A    between atoms: C8_19  and  N7_20 
ROOT
HETATM    1  C2  UNL     1       3.619   0.292  -1.201  1.00  0.00     0.241 A 
HETATM    2  N1  UNL     1       2.344   0.246  -0.858  1.00  0.00    -0.281 N 
ATOM      3  H1  UNL     1       1.714   0.916  -1.300  1.00  0.00     0.173 HD
HETATM    4  C3  UNL     1       1.798  -0.634   0.049  1.00  0.00     0.280 A 
HETATM    5  N6  UNL     1       2.647  -1.537   0.649  1.00  0.00    -0.149 N 
ATOM      6  H6  UNL     1       2.307  -2.215   1.331  1.00  0.00     0.188 HD
HETATM    7  C8  UNL     1       3.935  -1.487   0.299  1.00  0.00     0.682 A 
HETATM    8  N8  UNL     1       4.426  -0.623  -0.583  1.00  0.00    -0.155 N 
ATOM      9  H8  UNL     1       5.422  -0.643  -0.803  1.00  0.00     0.188 HD
ENDROOT
BRANCH   4  10
HETATM   10  N2  UNL     1       0.621  -0.665   0.265  1.00  0.00    -0.332 NA
HETATM   11  C4  UNL     1      -0.660  -0.782   0.576  1.00  0.00     0.317 C 
HETATM   12  O2  UNL     1      -1.071  -1.782   1.253  1.00  0.00    -0.255 OA
BRANCH  11  13
HETATM   13  C5  UNL     1      -1.734   0.229   0.163  1.00  0.00     0.187 C 
HETATM   14  C6  UNL     1      -1.825   1.134   1.362  1.00  0.00     0.043 C 
BRANCH  13  15
HETATM   15  N3  UNL     1      -2.855  -0.416  -0.260  1.00  0.00    -0.353 N 
HETATM   16  C7  UNL     1      -4.156  -0.306   0.172  1.00  0.00     0.197 C 
HETATM   17  N4  UNL     1      -4.772   1.009   0.015  1.00  0.00    -0.067 NA
HETATM   18  N5  UNL     1      -4.573  -0.837   1.426  1.00  0.00    -0.067 NA
ATOM     19  H3  UNL     1      -2.707  -1.085  -1.015  1.00  0.00     0.162 HD
ENDBRANCH  13  15
ENDBRANCH  11  13
ENDBRANCH   4  10
BRANCH   1  20
HETATM   20  O1  UNL     1       4.100   1.185  -2.099  1.00  0.00    -0.327 OA
HETATM   21  C1  UNL     1       3.491   2.193  -2.808  1.00  0.00     0.213 C 
ENDBRANCH   1  20
BRANCH   7  22
HETATM   22  N7  UNL     1       4.771  -2.318   0.863  1.00  0.00    -0.234 N 
ATOM     23  H72 UNL     1       4.394  -2.981   1.540  1.00  0.00     0.174 HD
ATOM     24  H71 UNL     1       5.755  -2.280   0.596  1.00  0.00     0.174 HD
ENDBRANCH   7  22
TORSDOF 5
