REMARK  5 active torsions:
REMARK  status: ('A' for Active; 'I' for Inactive)
REMARK    1  A    between atoms: C2_2  and  C3_3 
REMARK    2  A    between atoms: C4_4  and  C5_5 
REMARK    3  A    between atoms: C5_5  and  C6_6 
REMARK    4  A    between atoms: C6_6  and  N1_7 
REMARK    5  A    between atoms: N1_7  and  C7_10 
ROOT
HETATM    1  C6  UNL     1      -0.926  -0.833  -0.525  1.00  0.00     0.236 C 
ENDROOT
BRANCH   1   2
HETATM    2  C5  UNL     1       0.418  -1.243  -1.083  1.00  0.00     0.054 C 
BRANCH   2   3
HETATM    3  C4  UNL     1       1.444  -1.060  -0.024  1.00  0.00    -0.025 C 
HETATM    4  C3  UNL     1       2.448  -0.240  -0.238  1.00  0.00    -0.005 C 
BRANCH   4   5
HETATM    5  C2  UNL     1       3.460  -0.062   0.810  1.00  0.00    -0.011 C 
HETATM    6  C1  UNL     1       4.483   0.750   0.638  1.00  0.00     0.011 C 
ENDBRANCH   4   5
ENDBRANCH   2   3
ENDBRANCH   1   2
BRANCH   1   7
HETATM    7  N1  UNL     1      -0.881   0.541  -0.122  1.00  0.00    -0.071 N 
ATOM      8  H12 UNL     1      -0.114   0.699   0.532  1.00  0.00     0.277 HD
ATOM      9  H11 UNL     1      -0.572   1.132  -0.894  1.00  0.00     0.277 HD
BRANCH   7  10
HETATM   10  C7  UNL     1      -2.118   1.026   0.422  1.00  0.00     0.186 A 
HETATM   11  C8  UNL     1      -3.358   1.065  -0.430  1.00  0.00     0.035 A 
HETATM   12  C9  UNL     1      -3.249   0.141   0.740  1.00  0.00     0.035 A 
ENDBRANCH   7  10
ENDBRANCH   1   7
TORSDOF 5
