REMARK  6 active torsions:
REMARK  status: ('A' for Active; 'I' for Inactive)
REMARK    1  A    between atoms: C2_2  and  C3_3 
REMARK    2  A    between atoms: C3_3  and  C4_4 
REMARK    3  A    between atoms: C4_4  and  C5_5 
REMARK    4  A    between atoms: C5_5  and  N1_6 
REMARK    5  A    between atoms: N1_6  and  C6_9 
REMARK    6  A    between atoms: C6_9  and  C7_10 
ROOT
HETATM    1  N1  UNL     1      -0.554  -1.122   0.052  1.00  0.00    -0.074 N 
ATOM      2  H11 UNL     1      -0.070  -1.769   0.675  1.00  0.00     0.277 HD
ATOM      3  H12 UNL     1      -1.097  -1.828  -0.446  1.00  0.00     0.277 HD
ENDROOT
BRANCH   1   4
HETATM    4  C5  UNL     1       0.352  -0.327  -0.820  1.00  0.00     0.243 C 
BRANCH   4   5
HETATM    5  C4  UNL     1       1.471   0.083   0.104  1.00  0.00     0.112 C 
BRANCH   5   6
HETATM    6  C3  UNL     1       2.699  -0.106  -0.067  1.00  0.00    -0.155 C 
BRANCH   6   7
HETATM    7  C2  UNL     1       4.023  -0.320  -0.272  1.00  0.00     0.040 C 
HETATM    8  C1  UNL     1       4.989   0.027   0.568  1.00  0.00     0.020 C 
ENDBRANCH   6   7
ENDBRANCH   5   6
ENDBRANCH   4   5
ENDBRANCH   1   4
BRANCH   1   9
HETATM    9  C6  UNL     1      -1.379  -0.110   0.755  1.00  0.00     0.237 C 
BRANCH   9  10
HETATM   10  C7  UNL     1      -2.399   0.323  -0.240  1.00  0.00     0.011 A 
HETATM   11  C8  UNL     1      -3.463   1.315  -0.111  1.00  0.00     0.007 A 
HETATM   12  C9  UNL     1      -3.803  -0.089   0.270  1.00  0.00     0.007 A 
ENDBRANCH   9  10
ENDBRANCH   1   9
TORSDOF 6
