REMARK  4 active torsions:
REMARK  status: ('A' for Active; 'I' for Inactive)
REMARK    1  A    between atoms: C2_2  and  C3_3 
REMARK    2  A    between atoms: C3_3  and  C4_4 
REMARK    3  A    between atoms: C4_4  and  N1_5 
REMARK    4  A    between atoms: N1_5  and  C5_7 
ROOT
HETATM    1  N1  UNL     1       0.253  -0.595   0.955  1.00  0.00    -0.417 N 
ATOM      2  H1  UNL     1       0.236  -1.556   1.295  1.00  0.00     0.153 HD
ENDROOT
BRANCH   1   3
HETATM    3  C4  UNL     1       1.269   0.340   1.335  1.00  0.00     0.118 C 
BRANCH   3   4
HETATM    4  C3  UNL     1       2.157   0.686   0.143  1.00  0.00     0.045 C 
BRANCH   4   5
HETATM    5  C2  UNL     1       2.828  -0.504  -0.399  1.00  0.00    -0.035 C 
HETATM    6  C1  UNL     1       4.162  -0.609  -0.443  1.00  0.00     0.007 C 
ENDBRANCH   4   5
ENDBRANCH   3   4
ENDBRANCH   1   3
BRANCH   1   7
HETATM    7  C5  UNL     1      -0.735  -0.078   0.063  1.00  0.00     0.076 C 
HETATM    8  C6  UNL     1      -1.547   1.042   0.606  1.00  0.00     0.024 C 
HETATM    9  C7  UNL     1      -2.882   0.953  -0.101  1.00  0.00     0.002 C 
HETATM   10  C8  UNL     1      -3.045  -0.497  -0.498  1.00  0.00     0.002 C 
HETATM   11  C9  UNL     1      -1.747  -1.173  -0.187  1.00  0.00     0.024 C 
ENDBRANCH   1   7
TORSDOF 4
