REMARK  4 active torsions:
REMARK  status: ('A' for Active; 'I' for Inactive)
REMARK    1  A    between atoms: N1_2  and  C2_4 
REMARK    2  A    between atoms: C2_4  and  C3_5 
REMARK    3  A    between atoms: C3_5  and  N2_6 
REMARK    4  A    between atoms: N2_6  and  C4_8 
ROOT
HETATM    1  N2  UNL     1       0.103  -1.000  -0.182  1.00  0.00    -0.388 N 
ATOM      2  H2  UNL     1       0.100  -1.999  -0.389  1.00  0.00     0.159 HD
ENDROOT
BRANCH   1   3
HETATM    3  C3  UNL     1       1.363  -0.316  -0.017  1.00  0.00     0.139 C 
BRANCH   3   4
HETATM    4  C2  UNL     1       2.542  -1.246  -0.188  1.00  0.00     0.137 C 
BRANCH   4   5
HETATM    5  N1  UNL     1       3.728  -0.428   0.003  1.00  0.00    -0.406 N 
HETATM    6  C1  UNL     1       3.979   0.566  -0.762  1.00  0.00     0.112 C 
ATOM      7  H1  UNL     1       4.373  -0.651   0.762  1.00  0.00     0.158 HD
ENDBRANCH   4   5
ENDBRANCH   3   4
ENDBRANCH   1   3
BRANCH   1   8
HETATM    8  C4  UNL     1      -1.131  -0.312  -0.062  1.00  0.00     0.028 A 
HETATM    9  C5  UNL     1      -2.339  -0.956  -0.217  1.00  0.00     0.029 A 
HETATM   10  C6  UNL     1      -3.529  -0.240  -0.091  1.00  0.00     0.002 A 
HETATM   11  C7  UNL     1      -3.555   1.108   0.188  1.00  0.00     0.000 A 
HETATM   12  C8  UNL     1      -2.346   1.743   0.341  1.00  0.00     0.002 A 
HETATM   13  C9  UNL     1      -1.177   1.044   0.218  1.00  0.00     0.029 A 
ENDBRANCH   1   8
TORSDOF 4
