REMARK  12 active torsions:
REMARK  status: ('A' for Active; 'I' for Inactive)
REMARK    1  A    between atoms: C2_2  and  C4_4 
REMARK    2  A    between atoms: C5_5  and  C6_6 
REMARK    3  A    between atoms: C9_9  and  O1_10 
REMARK    4  A    between atoms: O1_10  and  C10_11 
REMARK    5  A    between atoms: C10_11  and  C11_13 
REMARK    6  A    between atoms: C11_13  and  C12_14 
REMARK    7  A    between atoms: C12_14  and  C13_15 
REMARK    8  A    between atoms: C13_15  and  N1_18 
REMARK    9  A    between atoms: C24_30  and  C25_31 
REMARK   10  A    between atoms: C25_31  and  C27_33 
REMARK   11  A    between atoms: C27_33  and  C28_34 
REMARK   12  A    between atoms: C28_34  and  C29_35 
ROOT
HETATM    1  C6  UNL     1      -1.031  -0.592   0.510  1.00  0.00    -0.010 C 
HETATM    2  C7  UNL     1      -0.475   0.635   1.127  1.00  0.00     0.017 C 
HETATM    3  C8  UNL     1       1.016   0.814   0.984  1.00  0.00     0.034 C 
HETATM    4  C9  UNL     1       1.799  -0.430   0.801  1.00  0.00     0.140 C 
HETATM    5  C16 UNL     1       1.285  -1.082  -0.467  1.00  0.00    -0.016 C 
HETATM    6  C17 UNL     1       2.126  -0.449  -1.593  1.00  0.00     0.018 C 
HETATM    7  C18 UNL     1       1.750  -2.521  -0.421  1.00  0.00     0.018 C 
HETATM    8  C19 UNL     1      -0.169  -0.908  -0.712  1.00  0.00     0.009 C 
HETATM    9  C20 UNL     1      -0.439   0.065  -1.797  1.00  0.00     0.011 C 
HETATM   10  C21 UNL     1      -1.752  -0.305  -2.448  1.00  0.00     0.034 C 
HETATM   11  C22 UNL     1      -2.637  -0.858  -1.404  1.00  0.00    -0.084 C 
HETATM   12  C23 UNL     1      -3.646  -1.608  -1.845  1.00  0.00     0.015 C 
HETATM   13  C24 UNL     1      -2.436  -0.603   0.074  1.00  0.00     0.030 C 
ENDROOT
BRANCH   4  14
HETATM   14  O1  UNL     1       3.162  -0.003   0.614  1.00  0.00    -0.315 OA
BRANCH  14  15
HETATM   15  C10 UNL     1       4.202  -0.448   1.415  1.00  0.00     0.259 C 
HETATM   16  O2  UNL     1       3.906  -1.256   2.331  1.00  0.00    -0.265 OA
BRANCH  15  17
HETATM   17  C11 UNL     1       5.613   0.009   1.202  1.00  0.00     0.113 C 
BRANCH  17  18
HETATM   18  C12 UNL     1       5.715   0.964   0.057  1.00  0.00     0.047 C 
BRANCH  18  19
HETATM   19  C13 UNL     1       7.179   1.364  -0.072  1.00  0.00     0.117 C 
HETATM   20  C14 UNL     1       7.371   2.334  -1.213  1.00  0.00     0.045 C 
HETATM   21  C15 UNL     1       7.969   0.120  -0.374  1.00  0.00     0.045 C 
BRANCH  19  22
HETATM   22  N1  UNL     1       7.678   1.905   1.176  1.00  0.00    -0.071 N 
ATOM     23  H13 UNL     1       7.103   2.680   1.508  1.00  0.00     0.275 HD
ATOM     24  H12 UNL     1       7.530   1.260   1.952  1.00  0.00     0.275 HD
ATOM     25  H11 UNL     1       8.658   2.173   1.090  1.00  0.00     0.275 HD
ENDBRANCH  19  22
ENDBRANCH  18  19
ENDBRANCH  17  18
ENDBRANCH  15  17
ENDBRANCH  14  15
ENDBRANCH   4  14
BRANCH   1  26
HETATM   26  C5  UNL     1      -0.809  -1.688   1.543  1.00  0.00    -0.015 C 
HETATM   27  C4  UNL     1      -1.178  -2.937   1.360  1.00  0.00     0.003 C 
BRANCH  27  28
HETATM   28  C2  UNL     1      -1.009  -4.019   2.272  1.00  0.00    -0.072 C 
HETATM   29  C1  UNL     1      -1.406  -5.244   2.012  1.00  0.00     0.018 C 
HETATM   30  C3  UNL     1      -0.352  -3.749   3.574  1.00  0.00     0.047 C 
ENDBRANCH  27  28
ENDBRANCH   1  26
BRANCH  13  31
HETATM   31  C25 UNL     1      -3.396   0.489   0.394  1.00  0.00    -0.009 C 
HETATM   32  C26 UNL     1      -3.589   0.745   1.857  1.00  0.00     0.011 C 
BRANCH  31  33
HETATM   33  C27 UNL     1      -3.427   1.672  -0.502  1.00  0.00     0.009 C 
BRANCH  33  34
HETATM   34  C28 UNL     1      -4.459   2.669  -0.039  1.00  0.00     0.028 C 
BRANCH  34  35
HETATM   35  C29 UNL     1      -5.806   2.021  -0.090  1.00  0.00    -0.025 C 
HETATM   36  C30 UNL     1      -6.779   2.489  -0.849  1.00  0.00    -0.091 C 
HETATM   37  C31 UNL     1      -8.093   1.827  -0.876  1.00  0.00     0.042 C 
HETATM   38  C32 UNL     1      -6.545   3.689  -1.677  1.00  0.00     0.042 C 
ENDBRANCH  34  35
ENDBRANCH  33  34
ENDBRANCH  31  33
ENDBRANCH  13  31
TORSDOF 12
