REMARK  12 active torsions:
REMARK  status: ('A' for Active; 'I' for Inactive)
REMARK    1  A    between atoms: C2_2  and  C3_3 
REMARK    2  A    between atoms: C6_6  and  C7_7 
REMARK    3  A    between atoms: C7_7  and  C8_8 
REMARK    4  A    between atoms: C7_7  and  C14_14 
REMARK    5  A    between atoms: C7_7  and  S1_18 
REMARK    6  A    between atoms: C8_8  and  C9_9 
REMARK    7  A    between atoms: C9_9  and  C10_10 
REMARK    8  A    between atoms: S1_18  and  C18_19 
REMARK    9  A    between atoms: C18_19  and  C19_20 
REMARK   10  A    between atoms: C19_20  and  C20_21 
REMARK   11  A    between atoms: C29_30  and  O1_32 
REMARK   12  A    between atoms: C31_34  and  O2_35 
ROOT
HETATM    1  C7  UNL     1      -0.789   1.062  -1.178  1.00  0.00     0.049 C 
ENDROOT
BRANCH   1   2
HETATM    2  C6  UNL     1      -1.267  -0.260  -0.745  1.00  0.00    -0.057 C 
HETATM    3  C5  UNL     1      -2.333  -0.550   0.230  1.00  0.00     0.051 C 
HETATM    4  C3  UNL     1      -2.091  -1.723   1.139  1.00  0.00     0.006 C 
HETATM    5  C4  UNL     1      -1.435  -1.290   2.431  1.00  0.00     0.022 C 
HETATM    6  C31 UNL     1      -1.276  -2.818   0.542  1.00  0.00     0.168 C 
HETATM    7  C29 UNL     1      -1.140  -2.748  -0.962  1.00  0.00     0.099 C 
HETATM    8  C28 UNL     1      -0.727  -1.385  -1.295  1.00  0.00     0.017 C 
HETATM    9  C30 UNL     1      -2.351  -3.280  -1.625  1.00  0.00     0.053 C 
BRANCH   4  10
HETATM   10  C2  UNL     1      -3.468  -2.224   1.518  1.00  0.00    -0.025 C 
HETATM   11  C1  UNL     1      -3.963  -2.037   2.724  1.00  0.00     0.008 C 
ENDBRANCH   4  10
BRANCH   6  12
HETATM   12  O2  UNL     1      -1.847  -4.076   0.838  1.00  0.00    -0.391 OA
ATOM     13  H2  UNL     1      -1.327  -4.774   0.457  1.00  0.00     0.210 HD
ENDBRANCH   6  12
BRANCH   7  14
HETATM   14  O1  UNL     1      -0.075  -3.628  -1.284  1.00  0.00    -0.384 OA
ATOM     15  H1  UNL     1      -0.343  -4.513  -1.068  1.00  0.00     0.211 HD
ENDBRANCH   7  14
ENDBRANCH   1   2
BRANCH   1  16
HETATM   16  C8  UNL     1      -0.349   1.945  -0.064  1.00  0.00     0.033 C 
BRANCH  16  17
HETATM   17  C9  UNL     1      -1.118   2.456   1.037  1.00  0.00     0.029 C 
BRANCH  17  18
HETATM   18  C10 UNL     1      -2.281   3.319   0.796  1.00  0.00    -0.025 C 
HETATM   19  C11 UNL     1      -2.311   4.598   1.182  1.00  0.00    -0.091 C 
HETATM   20  C12 UNL     1      -3.500   5.456   0.928  1.00  0.00     0.042 C 
HETATM   21  C13 UNL     1      -1.142   5.179   1.873  1.00  0.00     0.042 C 
ENDBRANCH  17  18
ENDBRANCH  16  17
ENDBRANCH   1  16
BRANCH   1  22
HETATM   22  C14 UNL     1      -1.724   1.797  -2.081  1.00  0.00     0.000 C 
HETATM   23  C15 UNL     1      -2.114   1.310  -3.386  1.00  0.00    -0.090 C 
HETATM   24  C16 UNL     1      -1.071   1.049  -4.421  1.00  0.00     0.042 C 
HETATM   25  C17 UNL     1      -3.122   0.203  -3.393  1.00  0.00     0.042 C 
ENDBRANCH   1  22
BRANCH   1  26
HETATM   26  S1  UNL     1       0.809   0.775  -2.075  1.00  0.00    -0.150 SA
BRANCH  26  27
HETATM   27  C18 UNL     1       2.243   0.545  -1.111  1.00  0.00     0.076 C 
BRANCH  27  28
HETATM   28  C19 UNL     1       2.433  -0.629  -0.245  1.00  0.00     0.020 C 
BRANCH  28  29
HETATM   29  C20 UNL     1       3.739  -0.681   0.492  1.00  0.00     0.018 C 
HETATM   30  C21 UNL     1       4.964  -0.773  -0.299  1.00  0.00    -0.083 C 
HETATM   31  C22 UNL     1       5.052  -1.002  -1.759  1.00  0.00     0.043 C 
HETATM   32  C23 UNL     1       6.097  -0.679   0.438  1.00  0.00    -0.024 C 
HETATM   33  C24 UNL     1       5.945  -0.506   1.894  1.00  0.00     0.028 C 
HETATM   34  C25 UNL     1       5.064  -1.682   2.350  1.00  0.00     0.009 C 
HETATM   35  C26 UNL     1       3.772  -1.756   1.564  1.00  0.00    -0.010 C 
HETATM   36  C27 UNL     1       2.626  -1.665   2.526  1.00  0.00     0.010 C 
ENDBRANCH  28  29
ENDBRANCH  27  28
ENDBRANCH  26  27
ENDBRANCH   1  26
TORSDOF 12
