REMARK  14 active torsions:
REMARK  status: ('A' for Active; 'I' for Inactive)
REMARK    1  A    between atoms: C2_2  and  C3_3 
REMARK    2  A    between atoms: C5_5  and  C6_6 
REMARK    3  A    between atoms: C6_6  and  C7_7 
REMARK    4  A    between atoms: C8_8  and  C9_9 
REMARK    5  A    between atoms: C9_9  and  C11_11 
REMARK    6  A    between atoms: C11_11  and  C12_12 
REMARK    7  A    between atoms: C12_12  and  C13_13 
REMARK    8  A    between atoms: C13_13  and  C14_14 
REMARK    9  A    between atoms: C15_15  and  C17_17 
REMARK   10  A    between atoms: C17_17  and  C18_18 
REMARK   11  A    between atoms: C18_18  and  C19_19 
REMARK   12  A    between atoms: C20_20  and  C22_22 
REMARK   13  A    between atoms: C22_22  and  O1_23 
REMARK   14  A    between atoms: C30_34  and  O4_36 
ROOT
HETATM    1  C13 UNL     1      -0.736  -1.422   0.768  1.00  0.00     0.054 C 
ENDROOT
BRANCH   1   2
HETATM    2  C12 UNL     1       0.705  -1.367   1.398  1.00  0.00    -0.022 C 
BRANCH   2   3
HETATM    3  C11 UNL     1       1.734  -1.730   0.563  1.00  0.00     0.003 C 
BRANCH   3   4
HETATM    4  C9  UNL     1       3.027  -1.847   0.949  1.00  0.00    -0.063 C 
HETATM    5  C10 UNL     1       2.656  -0.600   2.277  1.00  0.00     0.048 C 
BRANCH   4   6
HETATM    6  C8  UNL     1       4.252  -1.955   1.330  1.00  0.00     0.003 C 
HETATM    7  C7  UNL     1       5.444  -2.176   0.881  1.00  0.00    -0.026 C 
BRANCH   7   8
HETATM    8  C6  UNL     1       6.068  -2.442  -0.403  1.00  0.00     0.031 C 
BRANCH   8   9
HETATM    9  C5  UNL     1       7.029  -1.257  -0.715  1.00  0.00    -0.008 C 
HETATM   10  C4  UNL     1       6.137  -0.037  -0.896  1.00  0.00     0.009 C 
HETATM   11  C3  UNL     1       6.912   1.189  -1.215  1.00  0.00    -0.012 C 
HETATM   12  C32 UNL     1       8.093   1.415  -0.340  1.00  0.00     0.042 C 
HETATM   13  C30 UNL     1       8.666   0.242   0.378  1.00  0.00     0.055 C 
HETATM   14  C29 UNL     1       7.755  -0.918   0.595  1.00  0.00     0.042 C 
HETATM   15  C31 UNL     1       8.944   0.771   1.826  1.00  0.00     0.045 C 
BRANCH  11  16
HETATM   16  C2  UNL     1       7.186   1.434  -2.671  1.00  0.00     0.000 C 
HETATM   17  C1  UNL     1       7.952   0.395  -3.360  1.00  0.00     0.005 C 
ENDBRANCH  11  16
BRANCH  13  18
HETATM   18  O4  UNL     1       9.928  -0.113  -0.115  1.00  0.00    -0.390 OA
ATOM     19  H4  UNL     1      10.509   0.626  -0.253  1.00  0.00     0.210 HD
ENDBRANCH  13  18
ENDBRANCH   8   9
ENDBRANCH   7   8
ENDBRANCH   4   6
ENDBRANCH   3   4
ENDBRANCH   2   3
ENDBRANCH   1   2
BRANCH   1  20
HETATM   20  C14 UNL     1      -1.422  -0.967   1.959  1.00  0.00    -0.021 C 
HETATM   21  C15 UNL     1      -2.707  -0.850   2.096  1.00  0.00    -0.087 C 
HETATM   22  C16 UNL     1      -3.194  -0.331   3.438  1.00  0.00     0.043 C 
BRANCH  21  23
HETATM   23  C17 UNL     1      -3.768  -1.154   1.164  1.00  0.00     0.037 C 
BRANCH  23  24
HETATM   24  C18 UNL     1      -4.667   0.051   0.983  1.00  0.00     0.032 C 
BRANCH  24  25
HETATM   25  C19 UNL     1      -5.882  -0.383   0.292  1.00  0.00    -0.020 C 
HETATM   26  C20 UNL     1      -6.479   0.385  -0.596  1.00  0.00    -0.040 C 
HETATM   27  C21 UNL     1      -5.988   1.714  -0.966  1.00  0.00     0.047 C 
BRANCH  26  28
HETATM   28  C22 UNL     1      -7.828  -0.108  -1.062  1.00  0.00     0.187 C 
HETATM   29  C23 UNL     1      -8.184   0.192  -2.446  1.00  0.00     0.025 C 
HETATM   30  C24 UNL     1      -9.283   0.875  -2.773  1.00  0.00     0.010 C 
HETATM   31  C25 UNL     1     -10.196   1.362  -1.728  1.00  0.00     0.081 C 
HETATM   32  C26 UNL     1     -11.613   1.356  -2.272  1.00  0.00     0.051 C 
HETATM   33  C27 UNL     1      -9.927   2.773  -1.259  1.00  0.00     0.051 C 
HETATM   34  O2  UNL     1     -10.135   0.526  -0.564  1.00  0.00    -0.304 OA
HETATM   35  C28 UNL     1      -8.878   0.246  -0.069  1.00  0.00     0.303 C 
HETATM   36  O3  UNL     1      -8.546   0.257   1.149  1.00  0.00    -0.261 OA
BRANCH  28  37
HETATM   37  O1  UNL     1      -7.804  -1.546  -1.009  1.00  0.00    -0.372 OA
ATOM     38  H1  UNL     1      -8.653  -1.856  -1.302  1.00  0.00     0.212 HD
ENDBRANCH  28  37
ENDBRANCH  26  28
ENDBRANCH  24  25
ENDBRANCH  23  24
ENDBRANCH  21  23
ENDBRANCH   1  20
TORSDOF 14
