REMARK  12 active torsions:
REMARK  status: ('A' for Active; 'I' for Inactive)
REMARK    1  A    between atoms: C4_4  and  C5_5 
REMARK    2  A    between atoms: C5_5  and  C6_6 
REMARK    3  A    between atoms: C7_7  and  C9_9 
REMARK    4  A    between atoms: C9_9  and  C10_10 
REMARK    5  A    between atoms: C10_10  and  C11_11 
REMARK    6  A    between atoms: C12_12  and  C14_14 
REMARK    7  A    between atoms: C14_14  and  C15_15 
REMARK    8  A    between atoms: C15_15  and  O2_17 
REMARK    9  A    between atoms: O2_17  and  C16_18 
REMARK   10  A    between atoms: C19_21  and  C21_23 
REMARK   11  A    between atoms: C21_23  and  O3_24 
REMARK   12  A    between atoms: C31_35  and  O4_37 
ROOT
HETATM    1  C16 UNL     1      -2.246   0.083  -1.232  1.00  0.00     0.132 C 
HETATM    2  C17 UNL     1      -2.535  -1.315  -1.620  1.00  0.00     0.033 C 
HETATM    3  C18 UNL     1      -2.732  -2.332  -0.578  1.00  0.00     0.014 C 
HETATM    4  C19 UNL     1      -4.164  -2.754  -0.316  1.00  0.00    -0.023 C 
HETATM    5  C20 UNL     1      -5.048  -2.646  -1.525  1.00  0.00     0.017 C 
HETATM    6  C22 UNL     1      -4.737  -2.160   0.917  1.00  0.00     0.012 C 
HETATM    7  C23 UNL     1      -5.423  -0.864   0.832  1.00  0.00     0.009 C 
HETATM    8  C24 UNL     1      -4.668   0.336   0.420  1.00  0.00     0.024 C 
HETATM    9  C25 UNL     1      -3.324   0.497   1.057  1.00  0.00     0.003 C 
HETATM   10  C26 UNL     1      -2.148   0.437   0.187  1.00  0.00     0.038 C 
HETATM   11  C27 UNL     1      -3.429   1.723   1.935  1.00  0.00    -0.041 C 
HETATM   12  C28 UNL     1      -3.855   1.363   3.366  1.00  0.00     0.015 C 
HETATM   13  C29 UNL     1      -2.195   2.538   2.049  1.00  0.00     0.015 C 
HETATM   14  C30 UNL     1      -4.530   2.570   1.367  1.00  0.00     0.046 C 
HETATM   15  C31 UNL     1      -5.461   1.582   0.722  1.00  0.00     0.059 C 
HETATM   16  C32 UNL     1      -6.655   1.366   1.588  1.00  0.00     0.046 C 
ENDROOT
BRANCH   1  17
HETATM   17  O2  UNL     1      -0.980   0.470  -1.819  1.00  0.00    -0.316 OA
BRANCH  17  18
HETATM   18  C15 UNL     1      -0.857   1.443  -2.771  1.00  0.00     0.263 C 
HETATM   19  O1  UNL     1      -1.875   2.030  -3.165  1.00  0.00    -0.265 OA
BRANCH  18  20
HETATM   20  C14 UNL     1       0.454   1.810  -3.340  1.00  0.00     0.144 C 
BRANCH  20  21
HETATM   21  C12 UNL     1       1.557   1.093  -2.623  1.00  0.00    -0.078 C 
HETATM   22  C11 UNL     1       2.508   1.766  -1.991  1.00  0.00    -0.024 C 
HETATM   23  C13 UNL     1       1.572  -0.390  -2.636  1.00  0.00     0.043 C 
BRANCH  22  24
HETATM   24  C10 UNL     1       3.605   1.064  -1.286  1.00  0.00     0.031 C 
BRANCH  24  25
HETATM   25  C9  UNL     1       4.920   1.504  -1.906  1.00  0.00     0.037 C 
BRANCH  25  26
HETATM   26  C7  UNL     1       6.095   0.831  -1.223  1.00  0.00    -0.087 C 
HETATM   27  C6  UNL     1       6.984   1.575  -0.645  1.00  0.00    -0.021 C 
HETATM   28  C8  UNL     1       6.134  -0.647  -1.277  1.00  0.00     0.043 C 
BRANCH  27  29
HETATM   29  C5  UNL     1       8.216   1.297   0.088  1.00  0.00     0.054 C 
BRANCH  29  30
HETATM   30  C4  UNL     1       8.585  -0.105   0.258  1.00  0.00    -0.021 C 
HETATM   31  C2  UNL     1       8.685  -0.632   1.472  1.00  0.00    -0.091 C 
HETATM   32  C1  UNL     1       8.416   0.223   2.651  1.00  0.00     0.042 C 
HETATM   33  C3  UNL     1       9.060  -2.054   1.687  1.00  0.00     0.042 C 
ENDBRANCH  29  30
ENDBRANCH  27  29
ENDBRANCH  25  26
ENDBRANCH  24  25
ENDBRANCH  22  24
ENDBRANCH  20  21
ENDBRANCH  18  20
ENDBRANCH  17  18
ENDBRANCH   1  17
BRANCH   4  34
HETATM   34  C21 UNL     1      -4.093  -4.277  -0.044  1.00  0.00     0.173 C 
BRANCH  34  35
HETATM   35  O3  UNL     1      -3.558  -4.909  -1.177  1.00  0.00    -0.400 OA
ATOM     36  H3  UNL     1      -3.514  -5.843  -1.010  1.00  0.00     0.209 HD
ENDBRANCH  34  35
ENDBRANCH   4  34
BRANCH  15  37
HETATM   37  O4  UNL     1      -5.936   2.213  -0.453  1.00  0.00    -0.390 OA
ATOM     38  H4  UNL     1      -6.436   2.998  -0.263  1.00  0.00     0.210 HD
ENDBRANCH  15  37
TORSDOF 12
