REMARK  11 active torsions:
REMARK  status: ('A' for Active; 'I' for Inactive)
REMARK    1  A    between atoms: C10_10  and  C12_12 
REMARK    2  A    between atoms: C13_13  and  C14_14 
REMARK    3  A    between atoms: C14_14  and  O1_15 
REMARK    4  A    between atoms: C15_17  and  C16_18 
REMARK    5  A    between atoms: C16_18  and  C19_21 
REMARK    6  A    between atoms: C19_21  and  C20_22 
REMARK    7  A    between atoms: C21_23  and  C23_25 
REMARK    8  A    between atoms: C23_25  and  C24_26 
REMARK    9  A    between atoms: C24_26  and  C25_27 
REMARK   10  A    between atoms: C30_34  and  C31_35 
REMARK   11  A    between atoms: C31_35  and  C32_36 
ROOT
HETATM    1  C12 UNL     1      -1.558   0.917   0.906  1.00  0.00    -0.004 C 
HETATM    2  C13 UNL     1      -0.514   0.434   1.401  1.00  0.00     0.034 C 
ENDROOT
BRANCH   1   3
HETATM    3  C10 UNL     1      -2.165   1.946   0.095  1.00  0.00     0.065 C 
HETATM    4  C8  UNL     1      -3.264   2.687   0.829  1.00  0.00     0.003 C 
HETATM    5  C7  UNL     1      -4.503   1.920   1.099  1.00  0.00     0.009 C 
HETATM    6  C9  UNL     1      -3.521   4.048   0.222  1.00  0.00     0.011 C 
HETATM    7  C6  UNL     1      -5.473   1.973  -0.072  1.00  0.00     0.040 C 
HETATM    8  C5  UNL     1      -5.196   0.856  -0.971  1.00  0.00     0.078 C 
HETATM    9  C4  UNL     1      -5.941   1.035  -2.304  1.00  0.00     0.043 C 
HETATM   10  O3  UNL     1      -3.867   0.574  -1.222  1.00  0.00    -0.308 OA
HETATM   11  C30 UNL     1      -5.829  -0.494  -0.529  1.00  0.00     0.049 C 
HETATM   12  C3  UNL     1      -5.923  -0.361  -2.907  1.00  0.00     0.037 C 
HETATM   13  C2  UNL     1      -5.577  -1.251  -1.758  1.00  0.00    -0.082 C 
HETATM   14  C1  UNL     1      -5.098  -2.468  -1.856  1.00  0.00     0.015 C 
HETATM   15  C29 UNL     1      -2.690   1.245  -1.137  1.00  0.00     0.272 C 
HETATM   16  O2  UNL     1      -1.959   1.291  -2.181  1.00  0.00    -0.264 OA
HETATM   17  C11 UNL     1      -1.147   2.941  -0.427  1.00  0.00     0.031 C 
BRANCH  11  18
HETATM   18  C31 UNL     1      -7.194  -0.320  -0.051  1.00  0.00     0.011 C 
BRANCH  18  19
HETATM   19  C32 UNL     1      -7.933  -1.570   0.274  1.00  0.00    -0.004 C 
HETATM   20  C33 UNL     1      -8.253  -2.531  -0.793  1.00  0.00     0.005 C 
ENDBRANCH  18  19
ENDBRANCH  11  18
ENDBRANCH   1   3
BRANCH   2  21
HETATM   21  C14 UNL     1       0.914   0.707   1.419  1.00  0.00     0.066 C 
HETATM   22  C15 UNL     1       1.711  -0.114   2.122  1.00  0.00     0.043 C 
BRANCH  21  23
HETATM   23  O1  UNL     1       1.431   1.765   0.753  1.00  0.00    -0.361 OA
ATOM     24  H1  UNL     1       2.364   1.943   0.765  1.00  0.00     0.217 HD
ENDBRANCH  21  23
BRANCH  22  25
HETATM   25  C16 UNL     1       3.103  -0.099   2.299  1.00  0.00    -0.056 C 
HETATM   26  C17 UNL     1       3.656  -1.018   3.147  1.00  0.00    -0.024 C 
HETATM   27  C18 UNL     1       2.792  -1.993   3.851  1.00  0.00     0.036 C 
BRANCH  25  28
HETATM   28  C19 UNL     1       4.109   0.748   1.640  1.00  0.00     0.065 C 
BRANCH  28  29
HETATM   29  C20 UNL     1       4.208   0.541   0.171  1.00  0.00    -0.020 C 
HETATM   30  C21 UNL     1       5.162  -0.158  -0.438  1.00  0.00    -0.087 C 
HETATM   31  C22 UNL     1       5.056  -0.238  -1.957  1.00  0.00     0.043 C 
BRANCH  30  32
HETATM   32  C23 UNL     1       6.313  -0.841   0.139  1.00  0.00     0.037 C 
BRANCH  32  33
HETATM   33  C24 UNL     1       7.634  -0.382  -0.463  1.00  0.00     0.031 C 
BRANCH  33  34
HETATM   34  C25 UNL     1       8.706  -1.166   0.183  1.00  0.00    -0.024 C 
HETATM   35  C26 UNL     1       9.495  -1.989  -0.492  1.00  0.00    -0.091 C 
HETATM   36  C27 UNL     1       9.330  -2.163  -1.974  1.00  0.00     0.042 C 
HETATM   37  C28 UNL     1      10.551  -2.759   0.223  1.00  0.00     0.042 C 
ENDBRANCH  33  34
ENDBRANCH  32  33
ENDBRANCH  30  32
ENDBRANCH  28  29
ENDBRANCH  25  28
ENDBRANCH  22  25
ENDBRANCH   2  21
TORSDOF 11
