REMARK  7 active torsions:
REMARK  status: ('A' for Active; 'I' for Inactive)
REMARK    1  A    between atoms: N1_1  and  C1_4 
REMARK    2  A    between atoms: C1_4  and  C2_5 
REMARK    3  A    between atoms: C2_5  and  N2_6 
REMARK    4  A    between atoms: N2_6  and  C3_8 
REMARK    5  A    between atoms: C3_8  and  C4_10 
REMARK    6  A    between atoms: C3_8  and  C9_23 
REMARK    7  A    between atoms: C4_10  and  N3_11 
ROOT
HETATM    1  C4  UNL     1       0.391  -0.763   0.968  1.00  0.00     0.182 C 
ENDROOT
BRANCH   1   2
HETATM    2  C3  UNL     1       1.211   0.495   0.852  1.00  0.00     0.154 C 
HETATM    3 CL1  UNL     1       0.018   1.837   1.145  1.00  0.00    -0.091 Cl
BRANCH   2   4
HETATM    4  N2  UNL     1       1.736   0.762  -0.424  1.00  0.00    -0.372 N 
ATOM      5  H2  UNL     1       1.453   1.608  -0.920  1.00  0.00     0.161 HD
BRANCH   4   6
HETATM    6  C2  UNL     1       2.647  -0.125  -1.024  1.00  0.00     0.101 C 
BRANCH   6   7
HETATM    7  C1  UNL     1       3.991  -0.227  -0.407  1.00  0.00     0.097 C 
BRANCH   7   8
HETATM    8  N1  UNL     1       4.933   0.624  -0.559  1.00  0.00    -0.407 N 
ATOM      9  H12 UNL     1       4.728   1.428  -1.153  1.00  0.00     0.155 HD
ATOM     10  H11 UNL     1       5.858   0.554  -0.134  1.00  0.00     0.155 HD
ENDBRANCH   7   8
ENDBRANCH   6   7
ENDBRANCH   4   6
ENDBRANCH   2   4
BRANCH   2  11
HETATM   11  C9  UNL     1       2.174   0.663   2.010  1.00  0.00     0.223 C 
HETATM   12 CL2  UNL     1       2.742   2.348   2.039  1.00  0.00    -0.104 Cl
HETATM   13 CL3  UNL     1       1.190   0.460   3.504  1.00  0.00    -0.104 Cl
ENDBRANCH   2  11
ENDBRANCH   1   2
BRANCH   1  14
HETATM   14  N3  UNL     1      -0.769  -0.788   0.117  1.00  0.00    -0.323 N 
HETATM   15  C5  UNL     1      -0.872  -1.251  -1.149  1.00  0.00     0.185 A 
HETATM   16  N4  UNL     1      -2.132  -1.104  -1.613  1.00  0.00    -0.346 N 
HETATM   17  C6  UNL     1      -2.872  -0.537  -0.649  1.00  0.00     0.122 A 
ATOM     18  H4  UNL     1      -2.464  -1.377  -2.538  1.00  0.00     0.167 HD
HETATM   19  C7  UNL     1      -4.140  -0.078  -0.315  1.00  0.00     0.161 A 
HETATM   20  C8  UNL     1      -2.017  -0.347   0.416  1.00  0.00     0.154 A 
HETATM   21  N5  UNL     1      -5.279  -0.113  -1.156  1.00  0.00    -0.079 NA
HETATM   22  N6  UNL     1      -4.026   0.377   0.939  1.00  0.00    -0.284 N 
HETATM   23  N7  UNL     1      -2.784   0.227   1.386  1.00  0.00    -0.282 N 
ATOM     24  H6  UNL     1      -4.790   0.784   1.479  1.00  0.00     0.188 HD
ATOM     25  H7  UNL     1      -2.455   0.499   2.312  1.00  0.00     0.188 HD
ENDBRANCH   1  14
TORSDOF 7
