REMARK  9 active torsions:
REMARK  status: ('A' for Active; 'I' for Inactive)
REMARK    1  A    between atoms: O1_1  and  C1_3 
REMARK    2  A    between atoms: C2_4  and  C3_5 
REMARK    3  A    between atoms: C3_5  and  C4_6 
REMARK    4  A    between atoms: C4_6  and  C5_7 
REMARK    5  A    between atoms: C6_12  and  C7_13 
REMARK    6  A    between atoms: C7_13  and  S1_14 
REMARK    7  A    between atoms: S1_14  and  C8_15 
REMARK    8  A    between atoms: C9_20  and  C10_21 
REMARK    9  A    between atoms: C11_26  and  O2_27 
ROOT
HETATM    1  C1  UNL     1      -2.383  -2.134  -0.094  1.00  0.00     0.179 C 
HETATM    2  C2  UNL     1      -2.461  -0.745   0.514  1.00  0.00     0.217 C 
HETATM    3  N1  UNL     1      -1.206  -0.097   0.240  1.00  0.00    -0.061 N 
ATOM      4  H11 UNL     1      -0.814   0.362   1.062  1.00  0.00     0.278 HD
ATOM      5  H12 UNL     1      -1.312   0.732  -0.345  1.00  0.00     0.278 HD
HETATM    6  C6  UNL     1      -0.311  -1.068  -0.332  1.00  0.00     0.227 C 
HETATM    7  C11 UNL     1      -0.882  -2.413   0.061  1.00  0.00     0.180 C 
ENDROOT
BRANCH   6   8
HETATM    8  C7  UNL     1       1.096  -0.868   0.175  1.00  0.00     0.118 C 
BRANCH   8   9
HETATM    9  S1  UNL     1       1.599   0.815  -0.316  1.00  0.00    -0.090 SA
BRANCH   9  10
HETATM   10  C8  UNL     1       3.261   1.181   0.227  1.00  0.00     0.160 A 
HETATM   11  N2  UNL     1       3.636   1.725   1.394  1.00  0.00    -0.278 N 
HETATM   12  N3  UNL     1       4.971   1.845   1.434  1.00  0.00    -0.282 N 
ATOM     13  H2  UNL     1       3.000   2.006   2.140  1.00  0.00     0.189 HD
HETATM   14  C9  UNL     1       5.466   1.374   0.278  1.00  0.00     0.164 A 
ATOM     15  H3  UNL     1       5.515   2.227   2.207  1.00  0.00     0.188 HD
HETATM   16  N4  UNL     1       4.414   0.971  -0.452  1.00  0.00    -0.320 N 
ATOM     17  H4  UNL     1       4.474   0.564  -1.385  1.00  0.00     0.169 HD
BRANCH  14  18
HETATM   18  C10 UNL     1       6.901   1.305  -0.127  1.00  0.00     0.421 C 
HETATM   19  F2  UNL     1       7.267  -0.006  -0.363  1.00  0.00    -0.206 F 
HETATM   20  F3  UNL     1       7.100   1.986  -1.320  1.00  0.00    -0.206 F 
ENDBRANCH  14  18
ENDBRANCH   9  10
ENDBRANCH   8   9
ENDBRANCH   6   8
BRANCH   7  21
HETATM   21  O2  UNL     1      -0.476  -3.431  -0.788  1.00  0.00    -0.391 OA
ATOM     22  H2  UNL     1       0.453  -3.604  -0.692  1.00  0.00     0.210 HD
ENDBRANCH   7  21
BRANCH   2  23
HETATM   23  C3  UNL     1      -3.568   0.073  -0.109  1.00  0.00     0.038 C 
BRANCH  23  24
HETATM   24  C4  UNL     1      -3.570   1.431   0.556  1.00  0.00     0.033 C 
BRANCH  24  25
HETATM   25  C5  UNL     1      -4.655   2.325  -0.010  1.00  0.00     0.222 C 
HETATM   26  F1  UNL     1      -4.593   3.539   0.644  1.00  0.00    -0.255 F 
ENDBRANCH  24  25
ENDBRANCH  23  24
ENDBRANCH   2  23
BRANCH   1  27
HETATM   27  O1  UNL     1      -3.137  -3.014   0.677  1.00  0.00    -0.391 OA
ATOM     28  H1  UNL     1      -3.088  -3.883   0.297  1.00  0.00     0.210 HD
ENDBRANCH   1  27
TORSDOF 9
