REMARK  7 active torsions:
REMARK  status: ('A' for Active; 'I' for Inactive)
REMARK    1  A    between atoms: C2_2  and  O1_3 
REMARK    2  A    between atoms: C5_10  and  N1_11 
REMARK    3  A    between atoms: C6_15  and  C7_16 
REMARK    4  A    between atoms: C7_16  and  C8_17 
REMARK    5  A    between atoms: C8_17  and  C9_18 
REMARK    6  A    between atoms: C11_21  and  N4_22 
REMARK    7  A    between atoms: N4_22  and  O3_23 
ROOT
HETATM    1  N1  UNL     1      -1.248  -1.216  -0.029  1.00  0.00    -0.231 N 
HETATM    2  N2  UNL     1      -1.302  -2.132  -0.985  1.00  0.00    -0.015 NA
HETATM    3  N3  UNL     1       0.032  -2.159  -0.973  1.00  0.00    -0.271 N 
ATOM      4  H3  UNL     1       0.735  -2.681  -1.496  1.00  0.00     0.185 HD
HETATM    5  C6  UNL     1       0.088  -1.240  -0.014  1.00  0.00     0.112 A 
ENDROOT
BRANCH   1   6
HETATM    6  C5  UNL     1      -2.265  -0.490   0.696  1.00  0.00     0.284 C 
HETATM    7  C2  UNL     1      -3.567  -0.397  -0.065  1.00  0.00     0.107 C 
HETATM    8  C1  UNL     1      -3.376   0.016  -1.494  1.00  0.00     0.051 C 
HETATM    9  C3  UNL     1      -4.226   0.790   0.649  1.00  0.00     0.154 C 
HETATM   10  C4  UNL     1      -3.027   1.577   1.081  1.00  0.00     0.359 C 
HETATM   11  F1  UNL     1      -3.186   1.994   2.382  1.00  0.00    -0.176 F 
HETATM   12  F2  UNL     1      -2.952   2.737   0.302  1.00  0.00    -0.176 F 
HETATM   13  O2  UNL     1      -1.905   0.819   0.877  1.00  0.00    -0.296 OA
BRANCH   7  14
HETATM   14  O1  UNL     1      -4.336  -1.533   0.071  1.00  0.00    -0.385 OA
ATOM     15  H1  UNL     1      -4.457  -1.795   0.976  1.00  0.00     0.210 HD
ENDBRANCH   7  14
ENDBRANCH   1   6
BRANCH   5  16
HETATM   16  C7  UNL     1       1.106  -0.499   0.788  1.00  0.00     0.079 C 
BRANCH  16  17
HETATM   17  C8  UNL     1       2.487  -0.913   0.399  1.00  0.00     0.015 C 
BRANCH  17  18
HETATM   18  C9  UNL     1       3.497  -0.171   1.199  1.00  0.00     0.029 A 
HETATM   19  C10 UNL     1       3.482   1.349   1.030  1.00  0.00     0.110 A 
HETATM   20 CL1  UNL     1       2.724   2.093  -0.372  1.00  0.00    -0.123 Cl
HETATM   21  C11 UNL     1       4.678   0.513   0.678  1.00  0.00     0.130 A 
BRANCH  21  22
HETATM   22  N4  UNL     1       5.095   0.383  -0.704  1.00  0.00    -0.097 NA
BRANCH  22  23
HETATM   23  O3  UNL     1       6.212   1.115  -0.924  1.00  0.00    -0.296 OA
ATOM     24  H3  UNL     1       6.485   1.030  -1.830  1.00  0.00     0.238 HD
ENDBRANCH  22  23
ENDBRANCH  21  22
ENDBRANCH  17  18
ENDBRANCH  16  17
ENDBRANCH   5  16
TORSDOF 7
