REMARK  9 active torsions:
REMARK  status: ('A' for Active; 'I' for Inactive)
REMARK    1  A    between atoms: C3_3  and  O1_4 
REMARK    2  A    between atoms: C4_6  and  O2_7 
REMARK    3  A    between atoms: C5_9  and  O3_10 
REMARK    4  A    between atoms: N1_12  and  C6_13 
REMARK    5  A    between atoms: C6_13  and  C7_14 
REMARK    6  A    between atoms: C7_14  and  C8_15 
REMARK    7  A    between atoms: C8_15  and  C9_16 
REMARK    8  A    between atoms: C9_16  and  N2_17 
REMARK    9  A    between atoms: C15_23  and  C16_24 
ROOT
HETATM    1  C6  UNL     1       2.083   0.347  -0.097  1.00  0.00     0.276 C 
ENDROOT
BRANCH   1   2
HETATM    2  N1  UNL     1       3.335  -0.299  -0.263  1.00  0.00     0.126 N 
HETATM    3  C2  UNL     1       4.482   0.578  -0.114  1.00  0.00     0.253 C 
HETATM    4  C1  UNL     1       4.396   1.772  -0.998  1.00  0.00     0.046 C 
HETATM    5  C3  UNL     1       5.606  -0.372  -0.427  1.00  0.00     0.184 C 
HETATM    6  C4  UNL     1       5.107  -1.636   0.287  1.00  0.00     0.208 C 
HETATM    7  C5  UNL     1       3.645  -1.358   0.636  1.00  0.00     0.388 C 
BRANCH   5   8
HETATM    8  O1  UNL     1       5.630  -0.624  -1.783  1.00  0.00    -0.391 OA
ATOM      9  H1  UNL     1       6.340  -1.224  -1.981  1.00  0.00     0.210 HD
ENDBRANCH   5   8
BRANCH   6  10
HETATM   10  O2  UNL     1       5.885  -1.823   1.403  1.00  0.00    -0.388 OA
ATOM     11  H2  UNL     1       5.576  -2.605   1.845  1.00  0.00     0.210 HD
ENDBRANCH   6  10
BRANCH   7  12
HETATM   12  O3  UNL     1       3.623  -0.975   1.972  1.00  0.00    -0.366 OA
ATOM     13  H3  UNL     1       2.714  -0.802   2.189  1.00  0.00     0.212 HD
ENDBRANCH   7  12
ENDBRANCH   1   2
BRANCH   1  14
HETATM   14  C7  UNL     1       0.983  -0.693  -0.208  1.00  0.00     0.032 C 
BRANCH  14  15
HETATM   15  C8  UNL     1      -0.370  -0.040  -0.030  1.00  0.00     0.021 C 
BRANCH  15  16
HETATM   16  C9  UNL     1      -1.456  -1.087  -0.109  1.00  0.00     0.118 C 
BRANCH  16  17
HETATM   17  N2  UNL     1      -2.774  -0.516   0.057  1.00  0.00    -0.399 N 
HETATM   18  C10 UNL     1      -3.006  -0.006   1.358  1.00  0.00     0.118 C 
HETATM   19  C11 UNL     1      -4.453  -0.033   1.812  1.00  0.00     0.019 C 
HETATM   20  C12 UNL     1      -5.032   1.339   1.438  1.00  0.00     0.002 C 
HETATM   21  C13 UNL     1      -5.239   1.303  -0.060  1.00  0.00     0.002 C 
HETATM   22  C14 UNL     1      -3.890   1.539  -0.696  1.00  0.00     0.036 C 
HETATM   23  C15 UNL     1      -3.194   0.249  -1.049  1.00  0.00     0.181 C 
BRANCH  23  24
HETATM   24  C16 UNL     1      -4.140  -0.557  -1.899  1.00  0.00     0.196 C 
HETATM   25  O4  UNL     1      -4.675  -0.051  -2.924  1.00  0.00    -0.646 OA
HETATM   26  O5  UNL     1      -4.460  -1.870  -1.595  1.00  0.00    -0.646 OA
ENDBRANCH  23  24
ENDBRANCH  16  17
ENDBRANCH  15  16
ENDBRANCH  14  15
ENDBRANCH   1  14
TORSDOF 9
