REMARK  7 active torsions:
REMARK  status: ('A' for Active; 'I' for Inactive)
REMARK    1  A    between atoms: C2_2  and  O1_4 
REMARK    2  A    between atoms: O1_4  and  N1_5 
REMARK       I    between atoms: C4_7  and  N2_8 
REMARK       I    between atoms: C4_7  and  N4_12 
REMARK    3  A    between atoms: N4_12  and  C6_14 
REMARK    4  A    between atoms: C6_14  and  C7_15 
REMARK    5  A    between atoms: C6_14  and  C8_18 
REMARK    6  A    between atoms: C7_15  and  O2_16 
REMARK       I    between atoms: C8_18  and  N5_20 
REMARK    7  A    between atoms: N5_20  and  C9_22 
ROOT
HETATM    1  N1  UNL     1       3.059  -0.173  -0.026  1.00  0.00    -0.096 N 
ATOM      2  H1  UNL     1       3.102  -0.841  -0.796  1.00  0.00     0.213 HD
HETATM    3  C4  UNL     1       2.167   0.760  -0.081  1.00  0.00     0.707 C 
HETATM    4  N2  UNL     1       2.147   1.679   1.034  1.00  0.00    -0.124 N 
ATOM      5  H2  UNL     1       2.029   1.363   1.996  1.00  0.00     0.197 HD
HETATM    6  C5  UNL     1       2.300   3.030   0.708  1.00  0.00     0.196 C 
HETATM    7  N3  UNL     1       2.422   4.144   0.424  1.00  0.00    -0.171 NA
HETATM    8  N4  UNL     1       1.296   0.850  -1.180  1.00  0.00    -0.208 N 
ATOM      9  H4  UNL     1       1.466   1.616  -1.831  1.00  0.00     0.178 HD
ENDROOT
BRANCH   1  10
HETATM   10  O1  UNL     1       3.942  -0.319   0.993  1.00  0.00    -0.262 OA
BRANCH  10  11
HETATM   11  C2  UNL     1       5.316  -0.099   0.739  1.00  0.00     0.144 C 
HETATM   12  C1  UNL     1       5.733   1.070   1.605  1.00  0.00     0.042 C 
HETATM   13  C3  UNL     1       6.136  -1.345   1.087  1.00  0.00     0.042 C 
ENDBRANCH  10  11
ENDBRANCH   1  10
BRANCH   8  14
HETATM   14  C6  UNL     1       0.190  -0.018  -1.490  1.00  0.00     0.215 C 
BRANCH  14  15
HETATM   15  C7  UNL     1       0.723  -1.439  -1.618  1.00  0.00     0.199 C 
BRANCH  15  16
HETATM   16  O2  UNL     1      -0.264  -2.363  -1.942  1.00  0.00    -0.398 OA
ATOM     17  H2  UNL     1       0.068  -3.249  -2.022  1.00  0.00     0.209 HD
ENDBRANCH  15  16
ENDBRANCH  14  15
BRANCH  14  18
HETATM   18  C8  UNL     1      -0.878   0.088  -0.480  1.00  0.00     0.244 C 
HETATM   19  O3  UNL     1      -0.656   0.856   0.505  1.00  0.00    -0.271 OA
HETATM   20  N5  UNL     1      -2.115  -0.587  -0.520  1.00  0.00    -0.337 N 
ATOM     21  H5  UNL     1      -2.318  -1.210  -1.302  1.00  0.00     0.164 HD
BRANCH  20  22
HETATM   22  C9  UNL     1      -3.087  -0.418   0.507  1.00  0.00     0.122 C 
HETATM   23  C10 UNL     1      -2.467  -0.810   1.791  1.00  0.00     0.091 C 
HETATM   24  N6  UNL     1      -1.985  -1.102   2.809  1.00  0.00    -0.195 NA
HETATM   25  C11 UNL     1      -3.679   0.928   0.660  1.00  0.00     0.046 C 
HETATM   26  C12 UNL     1      -4.509   1.396  -0.491  1.00  0.00     0.004 C 
HETATM   27  C13 UNL     1      -5.385   0.356  -1.102  1.00  0.00     0.000 C 
HETATM   28  C14 UNL     1      -4.924  -1.045  -0.955  1.00  0.00     0.004 C 
HETATM   29  C15 UNL     1      -4.252  -1.390   0.326  1.00  0.00     0.046 C 
ENDBRANCH  20  22
ENDBRANCH  14  18
ENDBRANCH   8  14
TORSDOF 7
