REMARK  10 active torsions:
REMARK  status: ('A' for Active; 'I' for Inactive)
REMARK    1  A    between atoms: C2_2  and  C3_3 
REMARK    2  A    between atoms: C3_3  and  C4_4 
REMARK    3  A    between atoms: C4_4  and  C5_5 
REMARK    4  A    between atoms: C5_5  and  S1_6 
REMARK    5  A    between atoms: S1_6  and  C6_7 
REMARK    6  A    between atoms: C8_11  and  C9_12 
REMARK    7  A    between atoms: C12_15  and  O3_16 
REMARK    8  A    between atoms: C13_18  and  N1_19 
REMARK    9  A    between atoms: C14_23  and  O4_24 
REMARK   10  A    between atoms: C15_26  and  O5_27 
ROOT
HETATM    1  C6  UNL     1       0.613  -1.395  -0.492  1.00  0.00     0.217 C 
HETATM    2  O1  UNL     1       0.283  -0.086  -0.345  1.00  0.00    -0.340 OA
HETATM    3  C7  UNL     1      -0.973   0.049   0.227  1.00  0.00     0.303 C 
HETATM    4  O2  UNL     1      -1.672   1.208  -0.076  1.00  0.00    -0.350 OA
HETATM    5  C8  UNL     1      -2.934   0.958   0.459  1.00  0.00     0.159 C 
HETATM    6  C12 UNL     1      -3.234  -0.491   0.280  1.00  0.00     0.191 C 
HETATM    7  C13 UNL     1      -1.922  -0.982  -0.331  1.00  0.00     0.228 C 
HETATM    8  C14 UNL     1      -1.545  -2.323   0.203  1.00  0.00     0.194 C 
HETATM    9  C15 UNL     1      -0.091  -2.265   0.578  1.00  0.00     0.188 C 
ENDROOT
BRANCH   1  10
HETATM   10  S1  UNL     1       2.268  -1.846  -0.711  1.00  0.00    -0.135 SA
BRANCH  10  11
HETATM   11  C5  UNL     1       3.547  -1.692   0.430  1.00  0.00     0.076 C 
BRANCH  11  12
HETATM   12  C4  UNL     1       4.519  -0.586   0.211  1.00  0.00     0.010 C 
BRANCH  12  13
HETATM   13  C3  UNL     1       4.102   0.815   0.214  1.00  0.00     0.000 C 
BRANCH  13  14
HETATM   14  C2  UNL     1       5.260   1.764  -0.093  1.00  0.00    -0.005 C 
HETATM   15  C1  UNL     1       6.362   1.699   0.890  1.00  0.00     0.005 C 
ENDBRANCH  13  14
ENDBRANCH  12  13
ENDBRANCH  11  12
ENDBRANCH  10  11
ENDBRANCH   1  10
BRANCH   9  16
HETATM   16  O5  UNL     1       0.440  -3.536   0.409  1.00  0.00    -0.389 OA
ATOM     17  H5  UNL     1       0.008  -4.070   1.066  1.00  0.00     0.210 HD
ENDBRANCH   9  16
BRANCH   8  18
HETATM   18  O4  UNL     1      -1.836  -3.282  -0.743  1.00  0.00    -0.390 OA
ATOM     19  H4  UNL     1      -1.596  -4.136  -0.403  1.00  0.00     0.210 HD
ENDBRANCH   8  18
BRANCH   7  20
HETATM   20  N1  UNL     1      -2.100  -0.894  -1.747  1.00  0.00    -0.060 N 
ATOM     21  H13 UNL     1      -2.392   0.046  -2.015  1.00  0.00     0.275 HD
ATOM     22  H12 UNL     1      -1.200  -0.937  -2.226  1.00  0.00     0.275 HD
ATOM     23  H11 UNL     1      -2.742  -1.591  -2.124  1.00  0.00     0.275 HD
ENDBRANCH   7  20
BRANCH   5  24
HETATM   24  C9  UNL     1      -3.942   1.849  -0.186  1.00  0.00     0.009 C 
HETATM   25  C10 UNL     1      -3.589   3.289   0.086  1.00  0.00     0.012 C 
HETATM   26  C11 UNL     1      -5.361   1.532   0.248  1.00  0.00     0.012 C 
ENDBRANCH   5  24
BRANCH   6  27
HETATM   27  O3  UNL     1      -3.500  -1.203   1.415  1.00  0.00    -0.390 OA
ATOM     28  H3  UNL     1      -3.691  -2.127   1.301  1.00  0.00     0.210 HD
ENDBRANCH   6  27
TORSDOF 10
