REMARK  9 active torsions:
REMARK  status: ('A' for Active; 'I' for Inactive)
REMARK    1  A    between atoms: C2_2  and  N1_3 
REMARK    2  A    between atoms: C4_7  and  N3_8 
REMARK    3  A    between atoms: C5_13  and  S1_14 
REMARK    4  A    between atoms: S1_14  and  C6_15 
REMARK    5  A    between atoms: C6_15  and  C7_16 
REMARK       I    between atoms: C7_16  and  N5_18 
REMARK    6  A    between atoms: N5_18  and  C8_20 
REMARK    7  A    between atoms: C8_20  and  C9_21 
REMARK    8  A    between atoms: C9_21  and  O2_22 
REMARK    9  A    between atoms: C9_21  and  C10_24 
ROOT
HETATM    1  N1  UNL     1      -4.983   1.118   0.027  1.00  0.00    -0.279 N 
HETATM    2  N2  UNL     1      -4.747  -0.140  -0.274  1.00  0.00    -0.292 N 
ATOM      3  H2  UNL     1      -5.469  -0.809  -0.541  1.00  0.00     0.187 HD
HETATM    4  C3  UNL     1      -3.448  -0.437  -0.188  1.00  0.00     0.122 A 
HETATM    5  C4  UNL     1      -2.664  -1.551  -0.395  1.00  0.00     0.132 A 
HETATM    6  N4  UNL     1      -1.329  -1.493  -0.221  1.00  0.00    -0.321 N 
ATOM      7  H4  UNL     1      -0.772  -2.333  -0.380  1.00  0.00     0.169 HD
HETATM    8  C5  UNL     1      -0.713  -0.369   0.154  1.00  0.00     0.146 A 
HETATM    9  N6  UNL     1      -1.447   0.733   0.364  1.00  0.00    -0.332 N 
ATOM     10  H6  UNL     1      -0.987   1.597   0.652  1.00  0.00     0.168 HD
HETATM   11  C11 UNL     1      -2.802   0.715   0.198  1.00  0.00     0.106 A 
HETATM   12  C12 UNL     1      -3.782   1.666   0.325  1.00  0.00     0.149 A 
HETATM   13 CL1  UNL     1      -3.544   3.332   0.798  1.00  0.00    -0.060 Cl
ENDROOT
BRANCH   8  14
HETATM   14  S1  UNL     1       1.075  -0.295   0.334  1.00  0.00    -0.085 SA
BRANCH  14  15
HETATM   15  C6  UNL     1       1.843  -1.841  -0.169  1.00  0.00     0.185 C 
BRANCH  15  16
HETATM   16  C7  UNL     1       3.315  -1.700  -0.061  1.00  0.00     0.227 C 
HETATM   17  O1  UNL     1       3.939  -2.255   0.866  1.00  0.00    -0.273 OA
HETATM   18  N5  UNL     1       4.000  -0.930  -1.016  1.00  0.00    -0.358 N 
ATOM     19  H5  UNL     1       3.452  -0.488  -1.754  1.00  0.00     0.162 HD
BRANCH  18  20
HETATM   20  C8  UNL     1       5.422  -0.725  -1.021  1.00  0.00     0.159 C 
BRANCH  20  21
HETATM   21  C9  UNL     1       5.948  -0.061   0.239  1.00  0.00     0.200 C 
BRANCH  21  22
HETATM   22  O2  UNL     1       7.308   0.099   0.089  1.00  0.00    -0.388 OA
ATOM     23  H2  UNL     1       7.637   0.514   0.877  1.00  0.00     0.210 HD
ENDBRANCH  21  22
BRANCH  21  24
HETATM   24  C10 UNL     1       5.274   1.282   0.371  1.00  0.00     0.383 C 
HETATM   25  F1  UNL     1       5.709   1.944   1.507  1.00  0.00    -0.212 F 
HETATM   26  F2  UNL     1       5.489   2.101  -0.705  1.00  0.00    -0.212 F 
ENDBRANCH  21  24
ENDBRANCH  20  21
ENDBRANCH  18  20
ENDBRANCH  15  16
ENDBRANCH  14  15
ENDBRANCH   8  14
BRANCH   5  27
HETATM   27  N3  UNL     1      -3.182  -2.676  -0.755  1.00  0.00    -0.383 N 
ATOM     28  H32 UNL     1      -4.193  -2.720  -0.887  1.00  0.00     0.157 HD
ATOM     29  H31 UNL     1      -2.602  -3.501  -0.908  1.00  0.00     0.157 HD
ENDBRANCH   5  27
BRANCH   1  30
HETATM   30  C2  UNL     1      -6.273   1.812   0.029  1.00  0.00     0.146 C 
HETATM   31  C1  UNL     1      -6.904   1.737   1.397  1.00  0.00     0.028 C 
ENDBRANCH   1  30
TORSDOF 9
