REMARK  9 active torsions:
REMARK  status: ('A' for Active; 'I' for Inactive)
REMARK    1  A    between atoms: C2_2  and  N1_3 
REMARK    2  A    between atoms: N1_3  and  C3_6 
REMARK    3  A    between atoms: N2_8  and  C5_9 
REMARK    4  A    between atoms: C6_12  and  N4_13 
REMARK    5  A    between atoms: C9_20  and  C10_21 
REMARK    6  A    between atoms: N6_24  and  C11_25 
REMARK    7  A    between atoms: C11_25  and  C12_26 
REMARK    8  A    between atoms: C12_26  and  C13_27 
REMARK    9  A    between atoms: C13_27  and  O1_28 
ROOT
HETATM    1  C5  UNL     1       0.669  -0.404  -0.918  1.00  0.00     0.683 A 
HETATM    2  N3  UNL     1      -0.356  -0.375  -1.784  1.00  0.00    -0.175 N 
ATOM      3  H3  UNL     1      -0.180  -0.666  -2.746  1.00  0.00     0.186 HD
HETATM    4  C6  UNL     1      -1.600   0.014  -1.459  1.00  0.00     0.145 A 
HETATM    5  C7  UNL     1      -1.896   0.421  -0.155  1.00  0.00     0.125 A 
HETATM    6  C8  UNL     1      -0.850   0.391   0.739  1.00  0.00     0.153 A 
HETATM    7  N5  UNL     1      -1.363   0.834   1.935  1.00  0.00    -0.325 N 
ATOM      8  H5  UNL     1      -0.842   0.928   2.807  1.00  0.00     0.169 HD
HETATM    9  C9  UNL     1      -2.657   1.121   1.766  1.00  0.00     0.152 A 
HETATM   10  N6  UNL     1      -2.982   0.864   0.457  1.00  0.00    -0.326 N 
HETATM   11  N7  UNL     1       0.351  -0.004   0.350  1.00  0.00    -0.174 N 
ATOM     12  H7  UNL     1       1.095  -0.011   1.048  1.00  0.00     0.186 HD
ENDROOT
BRANCH   1  13
HETATM   13  N2  UNL     1       1.990  -0.774  -1.214  1.00  0.00    -0.213 N 
HETATM   14  C4  UNL     1       2.777  -1.937  -0.855  1.00  0.00     0.177 C 
HETATM   15  C3  UNL     1       3.989  -1.148  -0.260  1.00  0.00     0.239 C 
HETATM   16  C15 UNL     1       4.273  -0.185  -1.381  1.00  0.00     0.220 C 
HETATM   17  C14 UNL     1       2.908   0.079  -1.998  1.00  0.00     0.180 C 
HETATM   18  F3  UNL     1       5.164  -0.741  -2.281  1.00  0.00    -0.245 F 
BRANCH  15  19
HETATM   19  N1  UNL     1       5.045  -2.032   0.072  1.00  0.00    -0.067 N 
ATOM     20  H12 UNL     1       5.781  -1.993  -0.633  1.00  0.00     0.277 HD
ATOM     21  H11 UNL     1       4.751  -3.002  -0.042  1.00  0.00     0.277 HD
BRANCH  19  22
HETATM   22  C2  UNL     1       5.594  -1.817   1.397  1.00  0.00     0.228 C 
HETATM   23  C1  UNL     1       6.344  -0.495   1.463  1.00  0.00     0.034 C 
ENDBRANCH  19  22
ENDBRANCH  15  19
ENDBRANCH   1  13
BRANCH   4  24
HETATM   24  N4  UNL     1      -2.538   0.025  -2.300  1.00  0.00    -0.383 N 
ATOM     25  H42 UNL     1      -2.322  -0.272  -3.252  1.00  0.00     0.157 HD
ATOM     26  H41 UNL     1      -3.483   0.320  -2.053  1.00  0.00     0.157 HD
ENDBRANCH   4  24
BRANCH  10  27
HETATM   27  C11 UNL     1      -4.284   1.141  -0.064  1.00  0.00     0.133 C 
BRANCH  27  28
HETATM   28  C12 UNL     1      -5.232  -0.023  -0.028  1.00  0.00     0.046 C 
BRANCH  28  29
HETATM   29  C13 UNL     1      -6.606   0.466  -0.521  1.00  0.00     0.165 C 
BRANCH  29  30
HETATM   30  O1  UNL     1      -6.569   0.978  -1.809  1.00  0.00    -0.401 OA
ATOM     31  H1  UNL     1      -7.417   1.280  -2.113  1.00  0.00     0.209 HD
ENDBRANCH  29  30
ENDBRANCH  28  29
ENDBRANCH  27  28
ENDBRANCH  10  27
BRANCH   9  32
HETATM   32  C10 UNL     1      -3.647   1.658   2.768  1.00  0.00     0.420 C 
HETATM   33  F1  UNL     1      -3.601   3.068   2.715  1.00  0.00    -0.206 F 
HETATM   34  F2  UNL     1      -3.378   1.225   4.046  1.00  0.00    -0.206 F 
ENDBRANCH   9  32
TORSDOF 9
