REMARK  9 active torsions:
REMARK  status: ('A' for Active; 'I' for Inactive)
REMARK    1  A    between atoms: C2_7  and  C3_8 
REMARK    2  A    between atoms: C3_8  and  C4_9 
REMARK    3  A    between atoms: C4_9  and  C5_10 
REMARK    4  A    between atoms: C5_10  and  C6_11 
REMARK    5  A    between atoms: C6_11  and  N3_12 
REMARK    6  A    between atoms: N6_23  and  C10_24 
REMARK    7  A    between atoms: C11_26  and  C12_27 
REMARK    8  A    between atoms: C12_27  and  O2_28 
REMARK    9  A    between atoms: C13_30  and  O3_31 
ROOT
HETATM    1  N1  UNL     1       1.490  -4.034  -0.704  1.00  0.00    -0.383 N 
ATOM      2  H11 UNL     1       0.783  -4.709  -0.996  1.00  0.00     0.157 HD
ATOM      3  H12 UNL     1       2.462  -4.342  -0.740  1.00  0.00     0.157 HD
HETATM    4  C1  UNL     1       1.194  -2.842  -0.304  1.00  0.00     0.131 A 
HETATM    5  N2  UNL     1       2.130  -1.949   0.083  1.00  0.00    -0.330 N 
ATOM      6  H2  UNL     1       3.109  -2.233   0.056  1.00  0.00     0.168 HD
HETATM    7  C2  UNL     1       1.840  -0.714   0.499  1.00  0.00     0.084 A 
HETATM    8  N4  UNL     1       0.538  -0.343   0.533  1.00  0.00    -0.330 N 
ATOM      9  H4  UNL     1       0.309   0.599   0.850  1.00  0.00     0.168 HD
HETATM   10  C7  UNL     1      -0.466  -1.159   0.168  1.00  0.00     0.143 A 
HETATM   11  C8  UNL     1      -0.123  -2.424  -0.255  1.00  0.00     0.122 A 
HETATM   12  N5  UNL     1      -1.268  -3.049  -0.562  1.00  0.00    -0.346 N 
ATOM     13  H5  UNL     1      -1.343  -4.006  -0.906  1.00  0.00     0.167 HD
HETATM   14  C9  UNL     1      -2.312  -2.209  -0.343  1.00  0.00     0.188 A 
HETATM   15  N6  UNL     1      -1.819  -1.032   0.112  1.00  0.00    -0.294 N 
ENDROOT
BRANCH  15  16
HETATM   16  C10 UNL     1      -2.527   0.162   0.482  1.00  0.00     0.306 C 
HETATM   17  O1  UNL     1      -3.831  -0.158   0.760  1.00  0.00    -0.350 OA
HETATM   18  C11 UNL     1      -4.629   0.271  -0.272  1.00  0.00     0.182 C 
HETATM   19  C13 UNL     1      -3.997   1.588  -0.656  1.00  0.00     0.226 C 
HETATM   20  C14 UNL     1      -2.523   1.219  -0.590  1.00  0.00     0.314 C 
HETATM   21  F1  UNL     1      -2.200   0.609  -1.779  1.00  0.00    -0.198 F 
HETATM   22  F2  UNL     1      -1.726   2.287  -0.289  1.00  0.00    -0.198 F 
BRANCH  18  23
HETATM   23  C12 UNL     1      -6.047   0.423   0.210  1.00  0.00     0.199 C 
BRANCH  23  24
HETATM   24  O2  UNL     1      -6.467  -0.829   0.663  1.00  0.00    -0.398 OA
ATOM     25  H2  UNL     1      -7.362  -0.733   0.967  1.00  0.00     0.209 HD
ENDBRANCH  23  24
ENDBRANCH  18  23
BRANCH  19  26
HETATM   26  O3  UNL     1      -4.301   2.579   0.283  1.00  0.00    -0.387 OA
ATOM     27  H3  UNL     1      -3.903   3.407   0.041  1.00  0.00     0.210 HD
ENDBRANCH  19  26
ENDBRANCH  15  16
BRANCH   7  28
HETATM   28  C3  UNL     1       2.926   0.217   0.911  1.00  0.00     0.076 C 
BRANCH  28  29
HETATM   29  C4  UNL     1       3.410   1.019  -0.277  1.00  0.00     0.009 C 
BRANCH  29  30
HETATM   30  C5  UNL     1       4.505   1.956   0.159  1.00  0.00     0.027 C 
BRANCH  30  31
HETATM   31  C6  UNL     1       5.673   1.186   0.732  1.00  0.00     0.229 C 
BRANCH  31  32
HETATM   32  N3  UNL     1       6.167   0.293  -0.320  1.00  0.00    -0.079 N 
ATOM     33  H33 UNL     1       5.440  -0.312  -0.703  1.00  0.00     0.274 HD
ATOM     34  H32 UNL     1       6.399   0.784  -1.183  1.00  0.00     0.274 HD
ATOM     35  H31 UNL     1       6.955  -0.227   0.067  1.00  0.00     0.274 HD
ENDBRANCH  31  32
ENDBRANCH  30  31
ENDBRANCH  29  30
ENDBRANCH  28  29
ENDBRANCH   7  28
TORSDOF 9
