REMARK  4 active torsions:
REMARK  status: ('A' for Active; 'I' for Inactive)
REMARK    1  A    between atoms: C1_4  and  C2_6 
REMARK    2  A    between atoms: C2_6  and  C3_7 
REMARK    3  A    between atoms: C3_7  and  N3_8 
REMARK    4  A    between atoms: N3_8  and  C4_10 
ROOT
HETATM    1  C4  UNL     1       1.630  -0.367   0.136  1.00  0.00     0.694 A 
HETATM    2  N4  UNL     1       2.568  -1.241   0.264  1.00  0.00    -0.118 N 
ATOM      3  H4  UNL     1       2.324  -2.162   0.628  1.00  0.00     0.207 HD
HETATM    4  N5  UNL     1       3.898  -0.994  -0.068  1.00  0.00    -0.228 N 
ATOM      5  H5  UNL     1       4.603  -1.721   0.051  1.00  0.00     0.209 HD
HETATM    6  N6  UNL     1       4.255   0.262  -0.566  1.00  0.00    -0.281 N 
ATOM      7  H6  UNL     1       5.218   0.483  -0.820  1.00  0.00     0.189 HD
HETATM    8  C5  UNL     1       3.210   1.217  -0.701  1.00  0.00     0.216 A 
HETATM    9  N7  UNL     1       1.990   0.912  -0.371  1.00  0.00    -0.185 N 
ATOM     10  H7  UNL     1       1.262   1.618  -0.480  1.00  0.00     0.185 HD
ENDROOT
BRANCH   1  11
HETATM   11  N3  UNL     1       0.257  -0.657   0.490  1.00  0.00    -0.224 N 
ATOM     12  H3  UNL     1       0.063  -1.388   1.175  1.00  0.00     0.177 HD
BRANCH  11  13
HETATM   13  C3  UNL     1      -0.839   0.060  -0.100  1.00  0.00     0.145 C 
BRANCH  13  14
HETATM   14  C2  UNL     1      -2.135  -0.468   0.468  1.00  0.00     0.092 C 
BRANCH  14  15
HETATM   15  C1  UNL     1      -3.321   0.202  -0.072  1.00  0.00     0.088 C 
HETATM   16  N1  UNL     1      -4.116   0.823   0.721  1.00  0.00    -0.391 N 
ATOM     17  H12 UNL     1      -4.942   1.289   0.345  1.00  0.00     0.157 HD
ATOM     18  H11 UNL     1      -3.927   0.852   1.723  1.00  0.00     0.157 HD
HETATM   19  N2  UNL     1      -3.581   0.162  -1.450  1.00  0.00    -0.088 NA
ENDBRANCH  14  15
ENDBRANCH  13  14
ENDBRANCH  11  13
ENDBRANCH   1  11
TORSDOF 4
