REMARK  6 active torsions:
REMARK  status: ('A' for Active; 'I' for Inactive)
REMARK    1  A    between atoms: N1_2  and  C2_5 
REMARK    2  A    between atoms: C2_5  and  C3_6 
REMARK    3  A    between atoms: C3_6  and  N2_7 
REMARK    4  A    between atoms: N2_7  and  O1_8 
REMARK    5  A    between atoms: N2_7  and  C4_10 
REMARK    6  A    between atoms: C5_13  and  N4_14 
ROOT
HETATM    1  C4  UNL     1       1.665  -0.524   0.118  1.00  0.00     0.733 A 
HETATM    2  N3  UNL     1       2.184   0.719   0.012  1.00  0.00    -0.018 N 
ATOM      3  H3  UNL     1       1.693   1.591   0.212  1.00  0.00     0.203 HD
HETATM    4  C5  UNL     1       3.458   0.610  -0.402  1.00  0.00     0.705 A 
HETATM    5  N5  UNL     1       3.755  -0.692  -0.562  1.00  0.00    -0.117 N 
ATOM      6  H5  UNL     1       4.644  -1.087  -0.867  1.00  0.00     0.206 HD
HETATM    7  N6  UNL     1       2.658  -1.352  -0.242  1.00  0.00    -0.115 N 
ATOM      8  H6  UNL     1       2.575  -2.368  -0.265  1.00  0.00     0.206 HD
ENDROOT
BRANCH   1   9
HETATM    9  N2  UNL     1       0.360  -0.911   0.519  1.00  0.00    -0.087 N 
BRANCH   9  10
HETATM   10  C3  UNL     1      -0.661   0.047   0.894  1.00  0.00     0.202 C 
BRANCH  10  11
HETATM   11  C2  UNL     1      -1.817  -0.133  -0.047  1.00  0.00     0.254 C 
BRANCH  11  12
HETATM   12  N1  UNL     1      -2.913   0.755   0.203  1.00  0.00    -0.077 N 
HETATM   13  C1  UNL     1      -3.947   0.464  -0.779  1.00  0.00     0.267 C 
ATOM     14  H12 UNL     1      -2.636   1.737   0.209  1.00  0.00     0.276 HD
ATOM     15  H11 UNL     1      -3.253   0.706   1.164  1.00  0.00     0.276 HD
ENDBRANCH  11  12
ENDBRANCH  10  11
ENDBRANCH   9  10
BRANCH   9  16
HETATM   16  O1  UNL     1       0.038  -2.214   0.559  1.00  0.00    -0.274 OA
ATOM     17  H1  UNL     1       0.707  -2.842   0.313  1.00  0.00     0.245 HD
ENDBRANCH   9  16
ENDBRANCH   1   9
BRANCH   4  18
HETATM   18  N4  UNL     1       4.258   1.580  -0.612  1.00  0.00    -0.233 N 
ATOM     19  H42 UNL     1       4.033   2.567  -0.491  1.00  0.00     0.174 HD
ATOM     20  H41 UNL     1       5.225   1.497  -0.926  1.00  0.00     0.174 HD
ENDBRANCH   4  18
TORSDOF 6
