REMARK  6 active torsions:
REMARK  status: ('A' for Active; 'I' for Inactive)
REMARK    1  A    between atoms: N1_2  and  C2_5 
REMARK    2  A    between atoms: C2_5  and  C3_6 
REMARK    3  A    between atoms: C3_6  and  N2_7 
REMARK    4  A    between atoms: N2_7  and  C4_9 
REMARK    5  A    between atoms: N6_14  and  C5_15 
REMARK    6  A    between atoms: C5_15  and  N7_16 
ROOT
HETATM    1  C4  UNL     1       1.122   0.547   0.333  1.00  0.00     0.707 A 
HETATM    2  N3  UNL     1       1.000   1.170   1.512  1.00  0.00    -0.117 N 
ATOM      3  H3  UNL     1       0.115   1.393   1.967  1.00  0.00     0.202 HD
HETATM    4  N4  UNL     1       2.201   1.455   2.002  1.00  0.00     0.007 NA
HETATM    5  N5  UNL     1       3.111   1.012   1.135  1.00  0.00     0.011 NA
HETATM    6  N6  UNL     1       2.439   0.455   0.113  1.00  0.00    -0.083 N 
ENDROOT
BRANCH   1   7
HETATM    7  N2  UNL     1       0.139   0.133  -0.419  1.00  0.00    -0.222 N 
ATOM      8  H2  UNL     1       0.317  -0.337  -1.306  1.00  0.00     0.177 HD
BRANCH   7   9
HETATM    9  C3  UNL     1      -1.222   0.365   0.051  1.00  0.00     0.165 C 
BRANCH   9  10
HETATM   10  C2  UNL     1      -2.211  -0.047  -1.000  1.00  0.00     0.252 C 
BRANCH  10  11
HETATM   11  N1  UNL     1      -3.578   0.169  -0.595  1.00  0.00    -0.077 N 
HETATM   12  C1  UNL     1      -4.008  -0.683   0.473  1.00  0.00     0.267 C 
ATOM     13  H12 UNL     1      -4.206   0.087  -1.394  1.00  0.00     0.276 HD
ATOM     14  H11 UNL     1      -3.731   1.149  -0.356  1.00  0.00     0.276 HD
ENDBRANCH  10  11
ENDBRANCH   9  10
ENDBRANCH   7   9
ENDBRANCH   1   7
BRANCH   6  15
HETATM   15  C5  UNL     1       3.066  -0.149  -1.042  1.00  0.00     0.394 C 
BRANCH  15  16
HETATM   16  N7  UNL     1       3.328  -1.564  -0.814  1.00  0.00    -0.061 N 
ATOM     17  H73 UNL     1       3.877  -1.713   0.033  1.00  0.00     0.276 HD
ATOM     18  H72 UNL     1       2.482  -2.064  -0.541  1.00  0.00     0.276 HD
ATOM     19  H71 UNL     1       3.770  -1.990  -1.629  1.00  0.00     0.276 HD
ENDBRANCH  15  16
ENDBRANCH   6  15
TORSDOF 6
