REMARK  5 active torsions:
REMARK  status: ('A' for Active; 'I' for Inactive)
REMARK    1  A    between atoms: N2_3  and  C2_5 
REMARK    2  A    between atoms: C2_5  and  C3_6 
REMARK    3  A    between atoms: C3_6  and  C4_7 
REMARK    4  A    between atoms: C4_7  and  N3_8 
REMARK    5  A    between atoms: C5_13  and  N7_14 
ROOT
HETATM    1  N1  UNL     1       4.135   1.238  -1.502  1.00  0.00    -0.172 NA
HETATM    2  C1  UNL     1       3.670   0.654  -0.602  1.00  0.00     0.177 C 
HETATM    3  N2  UNL     1       3.135  -0.043   0.480  1.00  0.00    -0.329 N 
ATOM      4  H2  UNL     1       3.631  -0.050   1.371  1.00  0.00     0.171 HD
ENDROOT
BRANCH   3   5
HETATM    5  C2  UNL     1       1.905  -0.745   0.354  1.00  0.00     0.133 C 
BRANCH   5   6
HETATM    6  C3  UNL     1       0.688   0.149   0.177  1.00  0.00     0.042 C 
BRANCH   6   7
HETATM    7  C4  UNL     1      -0.512  -0.768   0.066  1.00  0.00     0.167 C 
BRANCH   7   8
HETATM    8  N3  UNL     1      -1.749  -0.035  -0.113  1.00  0.00    -0.109 N 
HETATM    9  N4  UNL     1      -2.289   0.337  -1.277  1.00  0.00     0.009 NA
HETATM   10  N5  UNL     1      -3.415   0.988  -1.006  1.00  0.00     0.007 NA
HETATM   11  N6  UNL     1      -3.623   1.052   0.299  1.00  0.00    -0.117 N 
HETATM   12  C5  UNL     1      -2.577   0.409   0.854  1.00  0.00     0.703 A 
ATOM     13  H6  UNL     1      -4.406   1.493   0.781  1.00  0.00     0.202 HD
BRANCH  12  14
HETATM   14  N7  UNL     1      -2.321   0.199   2.105  1.00  0.00    -0.232 N 
ATOM     15  H72 UNL     1      -1.529  -0.288   2.525  1.00  0.00     0.174 HD
ATOM     16  H71 UNL     1      -2.947   0.535   2.837  1.00  0.00     0.174 HD
ENDBRANCH  12  14
ENDBRANCH   7   8
ENDBRANCH   6   7
ENDBRANCH   5   6
ENDBRANCH   3   5
TORSDOF 5
