REMARK  5 active torsions:
REMARK  status: ('A' for Active; 'I' for Inactive)
REMARK    1  A    between atoms: C2_3  and  C3_4 
REMARK    2  A    between atoms: C3_4  and  C4_5 
REMARK    3  A    between atoms: C4_5  and  N2_6 
REMARK    4  A    between atoms: N2_6  and  N3_8 
REMARK    5  A    between atoms: N3_8  and  C5_10 
ROOT
HETATM    1  N1  UNL     1      -5.029   1.199  -0.022  1.00  0.00    -0.197 NA
HETATM    2  C1  UNL     1      -4.054   0.546  -0.064  1.00  0.00     0.059 C 
HETATM    3  C2  UNL     1      -2.849  -0.286  -0.105  1.00  0.00     0.125 C 
ENDROOT
BRANCH   3   4
HETATM    4  C3  UNL     1      -1.826   0.355   0.796  1.00  0.00     0.035 C 
BRANCH   4   5
HETATM    5  C4  UNL     1      -0.530  -0.426   0.831  1.00  0.00     0.141 C 
BRANCH   5   6
HETATM    6  N2  UNL     1       0.047  -0.517  -0.476  1.00  0.00    -0.322 N 
ATOM      7  H2  UNL     1      -0.431  -0.079  -1.263  1.00  0.00     0.180 HD
BRANCH   6   8
HETATM    8  N3  UNL     1       1.231  -1.182  -0.695  1.00  0.00    -0.134 N 
ATOM      9  H3  UNL     1       1.189  -2.124  -1.085  1.00  0.00     0.205 HD
BRANCH   8  10
HETATM   10  C5  UNL     1       2.393  -0.681  -0.435  1.00  0.00     0.722 A 
HETATM   11  N4  UNL     1       3.574  -1.273  -0.624  1.00  0.00    -0.115 N 
HETATM   12  N5  UNL     1       4.555  -0.467  -0.247  1.00  0.00     0.006 NA
ATOM     13  H4  UNL     1       3.703  -2.211  -1.004  1.00  0.00     0.202 HD
HETATM   14  N6  UNL     1       3.980   0.652   0.186  1.00  0.00     0.006 NA
HETATM   15  N7  UNL     1       2.657   0.531   0.075  1.00  0.00    -0.115 N 
ATOM     16  H7  UNL     1       1.967   1.236   0.333  1.00  0.00     0.202 HD
ENDBRANCH   8  10
ENDBRANCH   6   8
ENDBRANCH   5   6
ENDBRANCH   4   5
ENDBRANCH   3   4
TORSDOF 5
