REMARK  7 active torsions:
REMARK  status: ('A' for Active; 'I' for Inactive)
REMARK    1  A    between atoms: N1_1  and  C1_5 
REMARK    2  A    between atoms: C1_5  and  C2_6 
REMARK    3  A    between atoms: C2_6  and  C3_7 
REMARK    4  A    between atoms: C3_7  and  N2_8 
REMARK    5  A    between atoms: N2_8  and  C4_10 
REMARK    6  A    between atoms: C5_15  and  C6_16 
REMARK    7  A    between atoms: C6_16  and  N5_17 
ROOT
HETATM    1  C4  UNL     1       0.813   0.107  -0.576  1.00  0.00     0.240 A 
HETATM    2  N3  UNL     1       1.091   0.269   0.728  1.00  0.00    -0.263 N 
ATOM      3  H3  UNL     1       0.412   0.376   1.481  1.00  0.00     0.190 HD
HETATM    4  N4  UNL     1       2.397   0.265   0.855  1.00  0.00    -0.279 N 
ATOM      5  H4  UNL     1       2.911   0.368   1.730  1.00  0.00     0.189 HD
HETATM    6  C5  UNL     1       2.934   0.104  -0.345  1.00  0.00     0.167 A 
HETATM    7  O1  UNL     1       1.944   0.011  -1.199  1.00  0.00    -0.262 OA
ENDROOT
BRANCH   1   8
HETATM    8  N2  UNL     1      -0.396   0.063  -1.072  1.00  0.00    -0.355 N 
ATOM      9  H2  UNL     1      -0.530  -0.062  -2.075  1.00  0.00     0.163 HD
BRANCH   8  10
HETATM   10  C3  UNL     1      -1.546   0.191  -0.201  1.00  0.00     0.125 C 
BRANCH  10  11
HETATM   11  C2  UNL     1      -2.784  -0.203  -0.960  1.00  0.00     0.047 C 
BRANCH  11  12
HETATM   12  C1  UNL     1      -4.031  -0.102  -0.138  1.00  0.00     0.231 C 
BRANCH  12  13
HETATM   13  N1  UNL     1      -4.045  -0.923   1.030  1.00  0.00    -0.079 N 
ATOM     14  H13 UNL     1      -3.863  -1.895   0.781  1.00  0.00     0.274 HD
ATOM     15  H12 UNL     1      -3.225  -0.732   1.606  1.00  0.00     0.274 HD
ATOM     16  H11 UNL     1      -4.895  -0.854   1.590  1.00  0.00     0.274 HD
ENDBRANCH  12  13
ENDBRANCH  11  12
ENDBRANCH  10  11
ENDBRANCH   8  10
ENDBRANCH   1   8
BRANCH   6  17
HETATM   17  C6  UNL     1       4.368   0.032  -0.742  1.00  0.00     0.315 C 
BRANCH  17  18
HETATM   18  N5  UNL     1       5.198   0.169   0.444  1.00  0.00    -0.072 N 
ATOM     19  H53 UNL     1       4.984   1.015   0.971  1.00  0.00     0.274 HD
ATOM     20  H52 UNL     1       4.960  -0.513   1.164  1.00  0.00     0.274 HD
ATOM     21  H51 UNL     1       6.180   0.120   0.172  1.00  0.00     0.274 HD
ENDBRANCH  17  18
ENDBRANCH   6  17
TORSDOF 7
