REMARK  7 active torsions:
REMARK  status: ('A' for Active; 'I' for Inactive)
REMARK    1  A    between atoms: N1_2  and  C2_4 
REMARK       I    between atoms: N2_6  and  C3_8 
REMARK    2  A    between atoms: C3_8  and  C4_10 
REMARK    3  A    between atoms: C4_10  and  C5_11 
REMARK    4  A    between atoms: C5_11  and  N3_12 
REMARK    5  A    between atoms: N3_12  and  C6_13 
REMARK    6  A    between atoms: C6_13  and  C7_14 
REMARK    7  A    between atoms: C8_15  and  C9_16 
ROOT
HETATM    1  C5  UNL     1      -0.365  -0.155  -0.929  1.00  0.00     0.271 C 
ENDROOT
BRANCH   1   2
HETATM    2  C4  UNL     1       0.956   0.453  -1.219  1.00  0.00     0.133 C 
BRANCH   2   3
HETATM    3  C3  UNL     1       1.962   0.396  -0.158  1.00  0.00     0.225 C 
HETATM    4  N2  UNL     1       3.069   1.308  -0.222  1.00  0.00    -0.307 N 
HETATM    5  C2  UNL     1       4.266   0.857  -0.381  1.00  0.00     0.151 C 
ATOM      6  H2  UNL     1       2.908   2.312  -0.142  1.00  0.00     0.171 HD
HETATM    7 BR1  UNL     1       5.788   1.986  -0.477  1.00  0.00    -0.011 Br
HETATM    8  O1  UNL     1       1.945  -0.388   0.809  1.00  0.00    -0.273 OA
BRANCH   5   9
HETATM    9  N1  UNL     1       4.469  -0.539  -0.492  1.00  0.00    -0.375 N 
HETATM   10  C1  UNL     1       5.251  -1.198   0.538  1.00  0.00     0.148 C 
ATOM     11  H1  UNL     1       4.078  -1.066  -1.272  1.00  0.00     0.161 HD
ENDBRANCH   5   9
ENDBRANCH   2   3
ENDBRANCH   1   2
BRANCH   1  12
HETATM   12  N3  UNL     1      -1.143   0.432   0.113  1.00  0.00     0.025 N 
HETATM   13  C10 UNL     1      -1.494  -0.454   1.198  1.00  0.00     0.295 C 
HETATM   14  C11 UNL     1      -1.302   0.742   2.071  1.00  0.00     0.206 C 
HETATM   15 BR3  UNL     1      -0.350   0.433   3.714  1.00  0.00    -0.069 Br
HETATM   16  N4  UNL     1      -0.444   1.233   0.996  1.00  0.00    -0.028 NA
BRANCH  12  17
HETATM   17  C6  UNL     1      -2.289   1.208  -0.385  1.00  0.00     0.354 C 
BRANCH  17  18
HETATM   18  C7  UNL     1      -3.450   0.330  -0.585  1.00  0.00    -0.076 C 
HETATM   19  C8  UNL     1      -4.412  -0.387  -0.748  1.00  0.00    -0.094 C 
BRANCH  19  20
HETATM   20  C9  UNL     1      -5.590  -1.239  -0.935  1.00  0.00     0.178 C 
HETATM   21 BR2  UNL     1      -5.461  -2.782   0.227  1.00  0.00    -0.083 Br
ENDBRANCH  19  20
ENDBRANCH  17  18
ENDBRANCH  12  17
ENDBRANCH   1  12
TORSDOF 7
