REMARK  4 active torsions:
REMARK  status: ('A' for Active; 'I' for Inactive)
REMARK       I    between atoms: C1_2  and  N1_3 
REMARK    1  A    between atoms: C1_2  and  C13_21 
REMARK    2  A    between atoms: N1_3  and  C2_5 
REMARK    3  A    between atoms: C2_5  and  C3_6 
REMARK    4  A    between atoms: C5_8  and  N2_9 
ROOT
HETATM    1  C3  UNL     1       0.802  -0.580  -0.327  1.00  0.00     0.205 C 
HETATM    2  C4  UNL     1      -0.531  -1.232  -0.139  1.00  0.00     0.061 C 
HETATM    3  C5  UNL     1      -1.441  -0.162   0.385  1.00  0.00     0.112 C 
HETATM    4  C12 UNL     1      -0.493   0.978   0.673  1.00  0.00     0.257 C 
HETATM    5  N3  UNL     1       0.514   0.839  -0.348  1.00  0.00    -0.067 N 
ATOM      6  H31 UNL     1       0.248   1.207  -1.262  1.00  0.00     0.277 HD
ATOM      7  H32 UNL     1       1.329   1.441  -0.228  1.00  0.00     0.277 HD
ENDROOT
BRANCH   1   8
HETATM    8  C2  UNL     1       1.775  -0.861   0.765  1.00  0.00     0.155 C 
BRANCH   8   9
HETATM    9  N1  UNL     1       3.050  -0.237   0.585  1.00  0.00    -0.359 N 
HETATM   10  C1  UNL     1       4.060  -0.424   1.550  1.00  0.00     0.221 C 
HETATM   11  O1  UNL     1       3.856  -1.127   2.561  1.00  0.00    -0.273 OA
ATOM     12  H1  UNL     1       3.227   0.340  -0.237  1.00  0.00     0.162 HD
BRANCH  10  13
HETATM   13  C13 UNL     1       5.380   0.215   1.374  1.00  0.00     0.078 A 
HETATM   14  C14 UNL     1       5.966   0.275  -0.010  1.00  0.00     0.015 A 
HETATM   15  C15 UNL     1       5.401   1.494   0.621  1.00  0.00     0.015 A 
ENDBRANCH  10  13
ENDBRANCH   8   9
ENDBRANCH   1   8
BRANCH   3  16
HETATM   16  N2  UNL     1      -2.460   0.285  -0.454  1.00  0.00    -0.375 N 
HETATM   17  C6  UNL     1      -2.179   0.900  -1.682  1.00  0.00     0.096 C 
HETATM   18  C7  UNL     1      -3.555   1.373  -2.136  1.00  0.00     0.210 C 
HETATM   19  F1  UNL     1      -3.629   2.726  -1.844  1.00  0.00    -0.244 F 
HETATM   20  C8  UNL     1      -4.557   0.668  -1.249  1.00  0.00     0.073 C 
HETATM   21  C9  UNL     1      -3.661  -0.409  -0.606  1.00  0.00     0.035 A 
HETATM   22  C10 UNL     1      -3.871  -1.791  -1.018  1.00  0.00     0.033 A 
HETATM   23  C11 UNL     1      -4.249  -1.312   0.402  1.00  0.00     0.033 A 
ENDBRANCH   3  16
TORSDOF 4
