REMARK  6 active torsions:
REMARK  status: ('A' for Active; 'I' for Inactive)
REMARK    1  A    between atoms: O1_1  and  C1_3 
REMARK    2  A    between atoms: C1_3  and  C2_4 
REMARK    3  A    between atoms: C2_4  and  C3_5 
REMARK    4  A    between atoms: C2_4  and  N2_14 
REMARK    5  A    between atoms: C3_5  and  O2_6 
REMARK    6  A    between atoms: C3_5  and  C4_8 
ROOT
HETATM    1  C2  UNL     1      -0.378  -0.035   0.404  1.00  0.00     0.141 C 
ENDROOT
BRANCH   1   2
HETATM    2  C1  UNL     1      -0.032  -1.255   1.248  1.00  0.00     0.192 C 
BRANCH   2   3
HETATM    3  O1  UNL     1       1.288  -1.341   1.598  1.00  0.00    -0.399 OA
ATOM      4  H1  UNL     1       1.504  -2.102   2.124  1.00  0.00     0.209 HD
ENDBRANCH   2   3
ENDBRANCH   1   2
BRANCH   1   5
HETATM    5  C3  UNL     1       0.532   0.094  -0.781  1.00  0.00     0.188 C 
BRANCH   5   6
HETATM    6  O2  UNL     1       0.335  -1.014  -1.604  1.00  0.00    -0.388 OA
ATOM      7  H2  UNL     1       0.911  -0.932  -2.355  1.00  0.00     0.210 HD
ENDBRANCH   5   6
BRANCH   5   8
HETATM    8  C4  UNL     1       1.967   0.239  -0.424  1.00  0.00     0.017 C 
HETATM    9  N1  UNL     1       2.903  -0.533  -0.776  1.00  0.00    -0.374 N 
HETATM   10  C5  UNL     1       4.172  -0.157  -0.292  1.00  0.00     0.061 C 
ATOM     11  H1  UNL     1       2.753  -1.356  -1.359  1.00  0.00     0.164 HD
HETATM   12  C6  UNL     1       3.925   0.975   0.650  1.00  0.00     0.050 C 
HETATM   13  C7  UNL     1       2.502   1.348   0.408  1.00  0.00     0.060 C 
ENDBRANCH   5   8
ENDBRANCH   1   5
BRANCH   1  14
HETATM   14  N2  UNL     1      -1.741  -0.065   0.132  1.00  0.00    -0.383 N 
HETATM   15  C8  UNL     1      -2.349  -1.076  -0.608  1.00  0.00     0.124 C 
HETATM   16  C9  UNL     1      -3.842  -0.722  -0.471  1.00  0.00     0.041 C 
HETATM   17  C10 UNL     1      -3.791   0.797  -0.603  1.00  0.00     0.097 C 
HETATM   18 BR1  UNL     1      -5.278   1.626   0.316  1.00  0.00    -0.086 Br
HETATM   19  C11 UNL     1      -2.514   1.114   0.155  1.00  0.00     0.074 C 
ENDBRANCH   1  14
TORSDOF 6
