REMARK  4 active torsions:
REMARK  status: ('A' for Active; 'I' for Inactive)
REMARK       I    between atoms: C2_2  and  N1_4 
REMARK    1  A    between atoms: N1_4  and  C3_6 
REMARK    2  A    between atoms: C3_6  and  C5_8 
REMARK       I    between atoms: C5_8  and  N2_10 
REMARK    3  A    between atoms: C8_13  and  C9_14 
REMARK    4  A    between atoms: C11_18  and  C12_19 
ROOT
HETATM    1  C5  UNL     1       1.058   0.179   0.486  1.00  0.00     0.242 C 
HETATM    2  O2  UNL     1       1.474   0.830   1.479  1.00  0.00    -0.271 OA
HETATM    3  N2  UNL     1      -0.215  -0.426   0.589  1.00  0.00    -0.340 N 
HETATM    4  C6  UNL     1      -0.931  -0.198   1.871  1.00  0.00     0.127 C 
HETATM    5  C7  UNL     1      -2.203   0.579   1.541  1.00  0.00     0.035 C 
HETATM    6  C8  UNL     1      -2.258   0.841   0.049  1.00  0.00     0.090 C 
HETATM    7  C10 UNL     1      -2.246  -0.464  -0.674  1.00  0.00     0.047 C 
HETATM    8  C11 UNL     1      -0.925  -1.170  -0.373  1.00  0.00     0.145 C 
ENDROOT
BRANCH   1   9
HETATM    9  C3  UNL     1       1.954   0.129  -0.681  1.00  0.00     0.172 C 
HETATM   10  C4  UNL     1       2.601  -1.256  -0.864  1.00  0.00     0.042 C 
BRANCH   9  11
HETATM   11  N1  UNL     1       3.123   1.012  -0.471  1.00  0.00    -0.348 N 
HETATM   12  C2  UNL     1       3.507   1.972  -1.411  1.00  0.00     0.214 C 
HETATM   13  C1  UNL     1       4.678   2.835  -1.166  1.00  0.00     0.117 C 
HETATM   14  O1  UNL     1       2.853   2.116  -2.490  1.00  0.00    -0.274 OA
ATOM     15  H1  UNL     1       3.666   0.917   0.387  1.00  0.00     0.163 HD
ENDBRANCH   9  11
ENDBRANCH   1   9
BRANCH   8  16
HETATM   16  C12 UNL     1      -1.213  -2.598  -0.203  1.00  0.00     0.090 C 
HETATM   17  C13 UNL     1      -2.005  -3.065   0.955  1.00  0.00     0.079 C 
HETATM   18  F1  UNL     1      -0.128  -3.461  -0.418  1.00  0.00    -0.214 F 
ENDBRANCH   8  16
BRANCH   6  19
HETATM   19  C9  UNL     1      -3.414   1.632  -0.360  1.00  0.00     0.177 C 
HETATM   20  O3  UNL     1      -4.229   1.160  -1.187  1.00  0.00    -0.648 OA
HETATM   21  O4  UNL     1      -3.672   2.914   0.127  1.00  0.00    -0.648 OA
ENDBRANCH   6  19
TORSDOF 4
