REMARK  4 active torsions:
REMARK  status: ('A' for Active; 'I' for Inactive)
REMARK    1  A    between atoms: C3_3  and  C4_4 
REMARK    2  A    between atoms: C4_4  and  C6_6 
REMARK    3  A    between atoms: C4_4  and  C7_9 
REMARK    4  A    between atoms: C10_15  and  C12_17 
ROOT
HETATM    1  C7  UNL     1      -0.336  -0.471  -0.637  1.00  0.00     0.193 C 
HETATM    2  O2  UNL     1      -0.486   0.540  -1.629  1.00  0.00    -0.353 OA
HETATM    3  C8  UNL     1      -1.283   1.519  -0.989  1.00  0.00     0.427 C 
HETATM    4  N2  UNL     1      -2.241   0.687  -0.355  1.00  0.00     0.053 N 
HETATM    5  C9  UNL     1      -3.242   1.277   0.412  1.00  0.00     0.299 C 
HETATM    6 CL1  UNL     1      -3.003  -0.282  -1.615  1.00  0.00     0.121 Cl
HETATM    7  C10 UNL     1      -1.370  -0.267   0.369  1.00  0.00     0.259 C 
HETATM    8  C11 UNL     1      -2.277  -1.511   0.493  1.00  0.00     0.064 C 
ENDROOT
BRANCH   1   9
HETATM    9  C4  UNL     1       1.092  -0.555  -0.349  1.00  0.00     0.081 C 
HETATM   10  C5  UNL     1       1.723  -0.754  -1.767  1.00  0.00     0.032 C 
BRANCH   9  11
HETATM   11  C3  UNL     1       1.776   0.638   0.157  1.00  0.00    -0.010 C 
HETATM   12  C2  UNL     1       2.856   1.206  -0.362  1.00  0.00    -0.034 C 
HETATM   13  C1  UNL     1       3.484   2.404   0.208  1.00  0.00     0.036 C 
ENDBRANCH   9  11
BRANCH   9  14
HETATM   14  C6  UNL     1       1.575  -1.749   0.367  1.00  0.00     0.245 C 
HETATM   15  N1  UNL     1       1.038  -3.048   0.215  1.00  0.00    -0.061 NA
HETATM   16  O1  UNL     1       2.531  -1.624   1.172  1.00  0.00    -0.276 OA
ENDBRANCH   9  14
ENDBRANCH   1   9
BRANCH   7  17
HETATM   17  C12 UNL     1      -1.024   0.199   1.691  1.00  0.00     0.215 C 
HETATM   18  O3  UNL     1      -1.300   1.357   2.160  1.00  0.00    -0.646 OA
HETATM   19  O4  UNL     1      -0.342  -0.628   2.569  1.00  0.00    -0.646 OA
ENDBRANCH   7  17
TORSDOF 4
