REMARK  4 active torsions:
REMARK  status: ('A' for Active; 'I' for Inactive)
REMARK    1  A    between atoms: C1_2  and  C2_4 
REMARK    2  A    between atoms: C4_6  and  C5_7 
REMARK       I    between atoms: N2_10  and  C6_11 
REMARK    3  A    between atoms: C6_11  and  C7_13 
REMARK    4  A    between atoms: C11_17  and  C12_18 
ROOT
HETATM    1  C2  UNL     1       2.470   0.693   0.815  1.00  0.00     0.095 C 
HETATM    2  C3  UNL     1       3.001  -0.721   0.865  1.00  0.00     0.051 C 
HETATM    3  C4  UNL     1       2.022  -1.569   0.125  1.00  0.00     0.189 C 
HETATM    4  N2  UNL     1       0.896  -0.661  -0.149  1.00  0.00    -0.336 N 
HETATM    5  C6  UNL     1      -0.483  -0.989  -0.145  1.00  0.00     0.225 C 
HETATM    6  O4  UNL     1      -0.805  -2.174   0.111  1.00  0.00    -0.273 OA
HETATM    7  C13 UNL     1       1.565   0.603  -0.415  1.00  0.00     0.140 C 
ENDROOT
BRANCH   3   8
HETATM    8  C5  UNL     1       2.553  -2.086  -1.149  1.00  0.00     0.197 C 
HETATM    9  O2  UNL     1       3.523  -2.879  -1.193  1.00  0.00    -0.646 OA
HETATM   10  O3  UNL     1       1.981  -1.702  -2.350  1.00  0.00    -0.646 OA
ENDBRANCH   3   8
BRANCH   5  11
HETATM   11  C7  UNL     1      -1.586  -0.039  -0.421  1.00  0.00     0.084 C 
HETATM   12  C8  UNL     1      -1.534   1.027   0.637  1.00  0.00     0.014 C 
HETATM   13  C9  UNL     1      -2.894   1.110   1.290  1.00  0.00     0.001 C 
HETATM   14  C10 UNL     1      -3.839   0.371   0.366  1.00  0.00     0.008 C 
HETATM   15  C11 UNL     1      -2.915  -0.692  -0.184  1.00  0.00     0.027 C 
BRANCH  15  16
HETATM   16  C12 UNL     1      -3.534  -1.258  -1.435  1.00  0.00     0.227 C 
HETATM   17  F1  UNL     1      -4.748  -1.825  -1.059  1.00  0.00    -0.255 F 
ENDBRANCH  15  16
ENDBRANCH   5  11
BRANCH   1  18
HETATM   18  C1  UNL     1       3.523   1.682   0.557  1.00  0.00     0.236 C 
HETATM   19  N1  UNL     1       3.179   3.056   0.482  1.00  0.00    -0.062 NA
HETATM   20  O1  UNL     1       4.709   1.301   0.408  1.00  0.00    -0.276 OA
ENDBRANCH   1  18
TORSDOF 4
