REMARK  5 active torsions:
REMARK  status: ('A' for Active; 'I' for Inactive)
REMARK    1  A    between atoms: C2_2  and  C3_3 
REMARK    2  A    between atoms: C2_2  and  N2_6 
REMARK       I    between atoms: N2_6  and  C5_8 
REMARK       I    between atoms: C5_8  and  N5_13 
REMARK    3  A    between atoms: N5_13  and  C7_15 
REMARK    4  A    between atoms: N6_19  and  C11_20 
REMARK    5  A    between atoms: C11_20  and  C12_21 
ROOT
HETATM    1  C3  UNL     1       4.313   0.046   0.130  1.00  0.00     0.149 C 
HETATM    2  C4  UNL     1       4.820  -1.012  -0.740  1.00  0.00     0.061 C 
HETATM    3  N1  UNL     1       5.209  -1.858  -1.444  1.00  0.00    -0.197 NA
ENDROOT
BRANCH   1   4
HETATM    4  C2  UNL     1       3.228   0.771  -0.643  1.00  0.00     0.108 C 
HETATM    5  C1  UNL     1       3.781   1.366  -1.915  1.00  0.00     0.034 C 
BRANCH   4   6
HETATM    6  N2  UNL     1       2.117  -0.105  -0.941  1.00  0.00    -0.221 N 
HETATM    7  C5  UNL     1       1.423  -0.788   0.080  1.00  0.00     0.685 C 
HETATM    8  N3  UNL     1       1.896  -1.881   0.548  1.00  0.00    -0.126 N 
HETATM    9  N5  UNL     1       0.210  -0.295   0.605  1.00  0.00    -0.195 N 
HETATM   10  C6  UNL     1       1.265  -2.613   1.560  1.00  0.00     0.196 C 
ATOM     11  H3  UNL     1       2.773  -2.235   0.166  1.00  0.00     0.197 HD
HETATM   12  N4  UNL     1       0.747  -3.218   2.423  1.00  0.00    -0.171 NA
ATOM     13  H5  UNL     1       0.016  -0.348   1.605  1.00  0.00     0.180 HD
ATOM     14  H2  UNL     1       1.829  -0.232  -1.911  1.00  0.00     0.178 HD
BRANCH   9  15
HETATM   15  C7  UNL     1      -0.745   0.283  -0.297  1.00  0.00     0.308 C 
HETATM   16  C8  UNL     1      -1.207  -0.722  -1.362  1.00  0.00     0.040 C 
HETATM   17  C9  UNL     1      -1.908  -1.733  -0.529  1.00  0.00     0.036 C 
HETATM   18  C14 UNL     1      -2.273   0.150  -2.020  1.00  0.00     0.036 C 
HETATM   19  C10 UNL     1      -2.372  -0.916   0.682  1.00  0.00     0.240 C 
HETATM   20  N6  UNL     1      -2.065   0.449   0.336  1.00  0.00    -0.043 N 
HETATM   21  C13 UNL     1      -2.871   0.820  -0.791  1.00  0.00     0.240 C 
BRANCH  20  22
HETATM   22  C11 UNL     1      -2.059   1.358   1.414  1.00  0.00     0.271 C 
BRANCH  22  23
HETATM   23  C12 UNL     1      -3.211   1.101   2.350  1.00  0.00     0.250 C 
HETATM   24  F1  UNL     1      -4.381   1.248   1.629  1.00  0.00    -0.254 F 
ENDBRANCH  22  23
ENDBRANCH  20  22
ENDBRANCH   9  15
ENDBRANCH   4   6
ENDBRANCH   1   4
TORSDOF 5
