REMARK  3 active torsions:
REMARK  status: ('A' for Active; 'I' for Inactive)
REMARK    1  A    between atoms: C4_4  and  N1_5 
REMARK    2  A    between atoms: N1_5  and  C5_7 
REMARK    3  A    between atoms: C5_7  and  C6_8 
ROOT
HETATM    1  C6  UNL     1      -1.102   0.346  -0.854  1.00  0.00     0.028 C 
HETATM    2  C7  UNL     1      -1.485  -0.930  -0.211  1.00  0.00     0.009 C 
HETATM    3  C8  UNL     1      -2.529  -0.651   0.834  1.00  0.00     0.028 C 
HETATM    4  C9  UNL     1      -3.745  -0.094   0.133  1.00  0.00     0.232 C 
HETATM    5  N2  UNL     1      -3.429   1.074  -0.657  1.00  0.00    -0.075 N 
ATOM      6  H21 UNL     1      -4.049   1.850  -0.424  1.00  0.00     0.277 HD
ATOM      7  H22 UNL     1      -3.693   0.936  -1.632  1.00  0.00     0.277 HD
HETATM    8  C10 UNL     1      -2.046   1.471  -0.550  1.00  0.00     0.238 C 
ENDROOT
BRANCH   1   9
HETATM    9  C5  UNL     1       0.312   0.863  -0.400  1.00  0.00     0.120 C 
BRANCH   9  10
HETATM   10  N1  UNL     1       1.295  -0.098  -0.681  1.00  0.00    -0.416 N 
ATOM     11  H1  UNL     1       1.575  -0.275  -1.646  1.00  0.00     0.153 HD
BRANCH  10  12
HETATM   12  C4  UNL     1       1.896  -0.820   0.374  1.00  0.00     0.080 A 
HETATM   13  C2  UNL     1       3.366  -0.417   0.730  1.00  0.00     0.006 A 
HETATM   14  C1  UNL     1       3.898   0.739  -0.013  1.00  0.00     0.012 C 
HETATM   15  C3  UNL     1       3.056  -1.706   0.037  1.00  0.00     0.031 A 
ENDBRANCH  10  12
ENDBRANCH   9  10
ENDBRANCH   1   9
TORSDOF 3
