REMARK  6 active torsions:
REMARK  status: ('A' for Active; 'I' for Inactive)
REMARK    1  A    between atoms: N1_1  and  C1_5 
REMARK    2  A    between atoms: C1_5  and  C2_6 
REMARK    3  A    between atoms: C2_6  and  C3_7 
REMARK    4  A    between atoms: C3_7  and  O1_8 
REMARK    5  A    between atoms: O1_8  and  C4_9 
REMARK    6  A    between atoms: C5_10  and  C6_11 
ROOT
HETATM    1  O1  UNL     1       1.473  -0.327  -0.056  1.00  0.00    -0.304 OA
ENDROOT
BRANCH   1   2
HETATM    2  C3  UNL     1       2.334   0.061  -1.127  1.00  0.00     0.189 C 
BRANCH   2   3
HETATM    3  C2  UNL     1       3.715  -0.506  -0.953  1.00  0.00     0.055 C 
BRANCH   3   4
HETATM    4  C1  UNL     1       4.361  -0.044   0.322  1.00  0.00     0.231 C 
BRANCH   4   5
HETATM    5  N1  UNL     1       5.674  -0.564   0.519  1.00  0.00    -0.079 N 
ATOM      6  H13 UNL     1       5.670  -1.583   0.466  1.00  0.00     0.274 HD
ATOM      7  H12 UNL     1       6.269  -0.354  -0.283  1.00  0.00     0.274 HD
ATOM      8  H11 UNL     1       6.113  -0.250   1.385  1.00  0.00     0.274 HD
ENDBRANCH   4   5
ENDBRANCH   3   4
ENDBRANCH   2   3
ENDBRANCH   1   2
BRANCH   1   9
HETATM    9  C4  UNL     1       0.170   0.073  -0.004  1.00  0.00     0.054 C 
HETATM   10  C5  UNL     1      -0.977   0.446   0.047  1.00  0.00    -0.071 C 
BRANCH  10  11
HETATM   11  C6  UNL     1      -2.360   0.923   0.110  1.00  0.00     0.067 C 
HETATM   12  C7  UNL     1      -2.921   0.477   1.442  1.00  0.00     0.017 C 
HETATM   13  C8  UNL     1      -4.314   0.013   1.100  1.00  0.00     0.001 C 
HETATM   14  C9  UNL     1      -4.081  -0.684  -0.235  1.00  0.00     0.001 C 
HETATM   15  C10 UNL     1      -3.227   0.333  -0.958  1.00  0.00     0.017 C 
ENDBRANCH  10  11
ENDBRANCH   1   9
TORSDOF 6
