REMARK  13 active torsions:
REMARK  status: ('A' for Active; 'I' for Inactive)
REMARK    1  A    between atoms: C2_2  and  C3_3 
REMARK    2  A    between atoms: C3_3  and  C4_4 
REMARK    3  A    between atoms: C4_4  and  C5_5 
REMARK    4  A    between atoms: C5_5  and  C6_6 
REMARK    5  A    between atoms: C6_6  and  C7_7 
REMARK    6  A    between atoms: C7_7  and  O1_8 
REMARK    7  A    between atoms: O1_8  and  C8_9 
REMARK    8  A    between atoms: C9_10  and  C10_11 
REMARK    9  A    between atoms: C10_11  and  O2_12 
REMARK   10  A    between atoms: C14_21  and  O4_22 
REMARK   11  A    between atoms: C20_30  and  O5_31 
REMARK   12  A    between atoms: C21_33  and  O6_34 
REMARK   13  A    between atoms: C22_36  and  O7_37 
ROOT
HETATM    1  C8  UNL     1       1.001   0.658   0.341  1.00  0.00     0.183 C 
HETATM    2  C9  UNL     1       1.027  -0.785   0.714  1.00  0.00     0.179 C 
HETATM    3  O3  UNL     1      -0.218  -1.361   0.819  1.00  0.00    -0.347 OA
HETATM    4  C11 UNL     1      -1.178  -0.647   1.437  1.00  0.00     0.347 C 
HETATM    5  N1  UNL     1      -2.339  -1.556   1.621  1.00  0.00    -0.040 N 
ATOM      6  H11 UNL     1      -2.567  -1.739   2.598  1.00  0.00     0.280 HD
ATOM      7  H12 UNL     1      -2.148  -2.523   1.360  1.00  0.00     0.280 HD
HETATM    8  C12 UNL     1      -3.378  -0.978   0.904  1.00  0.00     0.222 C 
HETATM    9  C13 UNL     1      -3.089  -1.258  -0.493  1.00  0.00     0.068 C 
HETATM   10  C14 UNL     1      -3.801  -0.442  -1.525  1.00  0.00     0.135 C 
HETATM   11  C16 UNL     1      -4.388   0.734  -0.721  1.00  0.00     0.091 C 
HETATM   12  C17 UNL     1      -3.252   1.637  -0.459  1.00  0.00    -0.012 C 
HETATM   13  C18 UNL     1      -3.593   2.833   0.444  1.00  0.00     0.063 C 
HETATM   14  N2  UNL     1      -1.957   1.087  -0.243  1.00  0.00    -0.385 N 
ATOM     15  H2  UNL     1      -1.369   0.942  -1.064  1.00  0.00     0.159 HD
HETATM   16  C19 UNL     1      -1.430   0.734   0.978  1.00  0.00     0.169 C 
HETATM   17  C20 UNL     1      -0.060   1.431   1.106  1.00  0.00     0.176 C 
HETATM   18  C21 UNL     1      -5.303   0.198   0.287  1.00  0.00     0.161 C 
HETATM   19  C22 UNL     1      -4.846  -1.143   0.961  1.00  0.00     0.178 C 
ENDROOT
BRANCH   1  20
HETATM   20  O1  UNL     1       2.225   1.203   0.415  1.00  0.00    -0.381 OA
BRANCH  20  21
HETATM   21  C7  UNL     1       2.757   1.837  -0.639  1.00  0.00     0.168 C 
BRANCH  21  22
HETATM   22  C6  UNL     1       3.015   0.939  -1.799  1.00  0.00     0.026 C 
BRANCH  22  23
HETATM   23  C5  UNL     1       4.050  -0.118  -1.526  1.00  0.00     0.002 C 
BRANCH  23  24
HETATM   24  C4  UNL     1       5.400   0.480  -1.170  1.00  0.00     0.000 C 
BRANCH  24  25
HETATM   25  C3  UNL     1       6.429  -0.589  -0.912  1.00  0.00    -0.000 C 
BRANCH  25  26
HETATM   26  C2  UNL     1       6.063  -1.504   0.218  1.00  0.00    -0.005 C 
HETATM   27  C1  UNL     1       7.188  -2.514   0.356  1.00  0.00     0.005 C 
ENDBRANCH  25  26
ENDBRANCH  24  25
ENDBRANCH  23  24
ENDBRANCH  22  23
ENDBRANCH  21  22
ENDBRANCH  20  21
ENDBRANCH   1  20
BRANCH   2  28
HETATM   28  C10 UNL     1       1.950  -1.140   1.843  1.00  0.00     0.198 C 
BRANCH  28  29
HETATM   29  O2  UNL     1       1.540  -0.797   3.096  1.00  0.00    -0.398 OA
ATOM     30  H2  UNL     1       2.124  -1.022   3.811  1.00  0.00     0.209 HD
ENDBRANCH  28  29
ENDBRANCH   2  28
BRANCH  17  31
HETATM   31  O5  UNL     1       0.223   1.648   2.424  1.00  0.00    -0.391 OA
ATOM     32  H5  UNL     1      -0.440   2.131   2.902  1.00  0.00     0.210 HD
ENDBRANCH  17  31
BRANCH  19  33
HETATM   33  O7  UNL     1      -5.335  -1.190   2.263  1.00  0.00    -0.391 OA
ATOM     34  H7  UNL     1      -6.278  -1.296   2.300  1.00  0.00     0.210 HD
ENDBRANCH  19  33
BRANCH  10  35
HETATM   35  O4  UNL     1      -3.013   0.099  -2.505  1.00  0.00    -0.390 OA
HETATM   36  C15 UNL     1      -3.474  -0.098  -3.789  1.00  0.00     0.202 C 
ENDBRANCH  10  35
BRANCH  18  37
HETATM   37  O6  UNL     1      -6.597   0.041  -0.130  1.00  0.00    -0.392 OA
ATOM     38  H6  UNL     1      -7.191  -0.307   0.525  1.00  0.00     0.210 HD
ENDBRANCH  18  37
TORSDOF 13
