REMARK  15 active torsions:
REMARK  status: ('A' for Active; 'I' for Inactive)
REMARK    1  A    between atoms: C3_3  and  C4_4 
REMARK    2  A    between atoms: C6_6  and  C7_7 
REMARK    3  A    between atoms: C6_6  and  O4_20 
REMARK    4  A    between atoms: C7_7  and  C8_8 
REMARK    5  A    between atoms: C8_8  and  C9_9 
REMARK    6  A    between atoms: C9_9  and  C10_10 
REMARK    7  A    between atoms: C10_10  and  O1_11 
REMARK    8  A    between atoms: C10_10  and  C11_13 
REMARK    9  A    between atoms: C11_13  and  C12_14 
REMARK   10  A    between atoms: C12_14  and  O2_15 
REMARK   11  A    between atoms: C12_14  and  C13_17 
REMARK   12  A    between atoms: C13_17  and  O3_18 
REMARK   13  A    between atoms: C20_29  and  O7_30 
REMARK   14  A    between atoms: C21_32  and  O8_33 
REMARK   15  A    between atoms: C22_35  and  O9_36 
ROOT
HETATM    1  C4  UNL     1      -1.979   2.745  -0.111  1.00  0.00     0.017 C 
HETATM    2  C5  UNL     1      -0.504   2.563  -0.437  1.00  0.00     0.049 C 
HETATM    3  C6  UNL     1      -0.092   1.351   0.498  1.00  0.00     0.087 C 
HETATM    4  C15 UNL     1      -1.291   0.525   0.145  1.00  0.00     0.164 C 
HETATM    5  O5  UNL     1      -1.476  -0.630   0.793  1.00  0.00    -0.344 OA
HETATM    6  C16 UNL     1      -2.565  -1.324   0.297  1.00  0.00     0.196 C 
HETATM    7  C17 UNL     1      -3.834  -0.535   0.198  1.00  0.00     0.072 C 
HETATM    8  C18 UNL     1      -3.624   0.859  -0.363  1.00  0.00     0.013 C 
HETATM    9  C19 UNL     1      -2.487   1.438   0.420  1.00  0.00     0.026 C 
HETATM   10  O6  UNL     1      -2.826  -2.357   1.226  1.00  0.00    -0.320 OA
HETATM   11  C20 UNL     1      -3.560  -3.308   0.530  1.00  0.00     0.292 C 
HETATM   12  C21 UNL     1      -3.157  -3.229  -0.915  1.00  0.00     0.207 C 
HETATM   13  C22 UNL     1      -2.211  -2.037  -0.968  1.00  0.00     0.214 C 
ENDROOT
BRANCH   3  14
HETATM   14  C7  UNL     1       1.166   0.895  -0.167  1.00  0.00     0.041 C 
BRANCH  14  15
HETATM   15  C8  UNL     1       1.884  -0.260   0.403  1.00  0.00     0.006 C 
BRANCH  15  16
HETATM   16  C9  UNL     1       3.141  -0.573  -0.458  1.00  0.00     0.032 C 
BRANCH  16  17
HETATM   17  C10 UNL     1       3.861  -1.758   0.144  1.00  0.00     0.120 C 
BRANCH  17  18
HETATM   18  O1  UNL     1       2.906  -2.820   0.122  1.00  0.00    -0.395 OA
ATOM     19  H1  UNL     1       3.358  -3.565   0.500  1.00  0.00     0.210 HD
ENDBRANCH  17  18
BRANCH  17  20
HETATM   20  C11 UNL     1       5.020  -2.256  -0.635  1.00  0.00     0.065 C 
BRANCH  20  21
HETATM   21  C12 UNL     1       6.140  -1.321  -0.879  1.00  0.00     0.144 C 
BRANCH  21  22
HETATM   22  O2  UNL     1       5.724  -0.221  -1.584  1.00  0.00    -0.393 OA
ATOM     23  H2  UNL     1       6.443   0.379  -1.741  1.00  0.00     0.210 HD
ENDBRANCH  21  22
BRANCH  21  24
HETATM   24  C13 UNL     1       6.900  -0.952   0.380  1.00  0.00     0.195 C 
BRANCH  24  25
HETATM   25  O3  UNL     1       6.135  -0.191   1.253  1.00  0.00    -0.398 OA
ATOM     26  H3  UNL     1       6.611   0.040   2.042  1.00  0.00     0.209 HD
ENDBRANCH  24  25
ENDBRANCH  21  24
ENDBRANCH  20  21
ENDBRANCH  17  20
ENDBRANCH  16  17
ENDBRANCH  15  16
ENDBRANCH  14  15
ENDBRANCH   3  14
BRANCH   3  27
HETATM   27  O4  UNL     1      -0.055   1.907   1.696  1.00  0.00    -0.382 OA
HETATM   28  C14 UNL     1       0.213   1.334   2.859  1.00  0.00     0.202 C 
ENDBRANCH   3  27
BRANCH   1  29
HETATM   29  C3  UNL     1      -2.751   3.276  -1.230  1.00  0.00    -0.026 C 
HETATM   30  C2  UNL     1      -3.347   4.458  -1.141  1.00  0.00    -0.035 C 
HETATM   31  C1  UNL     1      -3.232   5.255   0.105  1.00  0.00     0.036 C 
ENDBRANCH   1  29
BRANCH  13  32
HETATM   32  O9  UNL     1      -0.927  -2.570  -0.914  1.00  0.00    -0.387 OA
ATOM     33  H9  UNL     1      -0.702  -3.023  -1.718  1.00  0.00     0.210 HD
ENDBRANCH  13  32
BRANCH  11  34
HETATM   34  O7  UNL     1      -4.938  -3.164   0.716  1.00  0.00    -0.368 OA
ATOM     35  H7  UNL     1      -5.440  -3.815   0.240  1.00  0.00     0.212 HD
ENDBRANCH  11  34
BRANCH  12  36
HETATM   36  O8  UNL     1      -4.206  -3.109  -1.794  1.00  0.00    -0.388 OA
ATOM     37  H8  UNL     1      -3.951  -3.059  -2.708  1.00  0.00     0.210 HD
ENDBRANCH  12  36
TORSDOF 15
