REMARK  14 active torsions:
REMARK  status: ('A' for Active; 'I' for Inactive)
REMARK    1  A    between atoms: C2_2  and  C3_3 
REMARK    2  A    between atoms: C4_4  and  C5_5 
REMARK    3  A    between atoms: C5_5  and  C6_6 
REMARK    4  A    between atoms: C6_6  and  C7_7 
REMARK    5  A    between atoms: C7_7  and  N1_8 
REMARK    6  A    between atoms: N1_8  and  C8_11 
REMARK    7  A    between atoms: C11_14  and  O1_15 
REMARK    8  A    between atoms: O1_15  and  C12_16 
REMARK    9  A    between atoms: C13_18  and  C15_20 
REMARK   10  A    between atoms: C17_23  and  O4_24 
REMARK   11  A    between atoms: C18_26  and  O5_27 
REMARK   12  A    between atoms: C19_29  and  O6_30 
REMARK   13  A    between atoms: C20_32  and  O7_33 
REMARK   14  A    between atoms: C21_35  and  O8_36 
ROOT
HETATM    1  C8  UNL     1       1.697  -0.698  -0.489  1.00  0.00     0.217 C 
HETATM    2  C9  UNL     1       1.125   0.222  -1.524  1.00  0.00     0.038 C 
HETATM    3  C10 UNL     1      -0.268   0.693  -1.177  1.00  0.00     0.037 C 
HETATM    4  C11 UNL     1      -1.223  -0.447  -0.936  1.00  0.00     0.156 C 
HETATM    5  C20 UNL     1      -0.515  -1.706  -0.487  1.00  0.00     0.178 C 
HETATM    6  C21 UNL     1       0.631  -1.290   0.406  1.00  0.00     0.179 C 
ENDROOT
BRANCH   4   7
HETATM    7  O1  UNL     1      -2.157  -0.031  -0.012  1.00  0.00    -0.351 OA
BRANCH   7   8
HETATM    8  C12 UNL     1      -3.457  -0.010  -0.501  1.00  0.00     0.293 C 
HETATM    9  O2  UNL     1      -4.240  -0.927   0.132  1.00  0.00    -0.338 OA
HETATM   10  C13 UNL     1      -5.559  -0.628   0.296  1.00  0.00     0.148 C 
HETATM   11  C14 UNL     1      -6.133  -1.750   1.151  1.00  0.00     0.057 C 
HETATM   12  C17 UNL     1      -5.753   0.643   1.081  1.00  0.00     0.191 C 
HETATM   13  C18 UNL     1      -4.790   1.721   0.726  1.00  0.00     0.183 C 
HETATM   14  C19 UNL     1      -3.952   1.396  -0.489  1.00  0.00     0.204 C 
BRANCH  10  15
HETATM   15  C15 UNL     1      -6.343  -0.677  -0.957  1.00  0.00     0.159 C 
HETATM   16  C16 UNL     1      -7.763  -0.402  -1.117  1.00  0.00     0.094 C 
HETATM   17  O3  UNL     1      -5.724  -0.984  -1.966  1.00  0.00    -0.295 OA
ENDBRANCH  10  15
BRANCH  12  18
HETATM   18  O4  UNL     1      -7.090   1.020   1.085  1.00  0.00    -0.389 OA
ATOM     19  H4  UNL     1      -7.212   1.822   1.580  1.00  0.00     0.210 HD
ENDBRANCH  12  18
BRANCH  13  20
HETATM   20  O5  UNL     1      -5.459   2.922   0.549  1.00  0.00    -0.390 OA
ATOM     21  H5  UNL     1      -4.844   3.610   0.322  1.00  0.00     0.210 HD
ENDBRANCH  13  20
BRANCH  14  22
HETATM   22  O6  UNL     1      -2.895   2.306  -0.541  1.00  0.00    -0.388 OA
ATOM     23  H6  UNL     1      -3.210   3.202  -0.533  1.00  0.00     0.210 HD
ENDBRANCH  14  22
ENDBRANCH   7   8
ENDBRANCH   4   7
BRANCH   5  24
HETATM   24  O7  UNL     1      -0.022  -2.388  -1.609  1.00  0.00    -0.390 OA
ATOM     25  H7  UNL     1       0.423  -3.179  -1.327  1.00  0.00     0.210 HD
ENDBRANCH   5  24
BRANCH   6  26
HETATM   26  O8  UNL     1       0.204  -0.399   1.368  1.00  0.00    -0.391 OA
ATOM     27  H8  UNL     1      -0.466  -0.771   1.930  1.00  0.00     0.210 HD
ENDBRANCH   6  26
BRANCH   1  28
HETATM   28  N1  UNL     1       2.714  -0.139   0.344  1.00  0.00    -0.068 N 
ATOM     29  H12 UNL     1       2.940  -0.780   1.105  1.00  0.00     0.277 HD
ATOM     30  H11 UNL     1       2.341   0.645   0.879  1.00  0.00     0.277 HD
BRANCH  28  31
HETATM   31  C7  UNL     1       3.910   0.254  -0.349  1.00  0.00     0.233 C 
BRANCH  31  32
HETATM   32  C6  UNL     1       4.861   0.831   0.675  1.00  0.00     0.031 C 
BRANCH  32  33
HETATM   33  C5  UNL     1       6.129   1.275   0.014  1.00  0.00     0.028 C 
BRANCH  33  34
HETATM   34  C4  UNL     1       6.782   0.128  -0.631  1.00  0.00    -0.031 C 
HETATM   35  C3  UNL     1       7.975  -0.335  -0.360  1.00  0.00    -0.031 C 
BRANCH  35  36
HETATM   36  C2  UNL     1       8.879   0.221   0.653  1.00  0.00     0.022 C 
HETATM   37  C1  UNL     1       9.158  -0.898   1.662  1.00  0.00     0.009 C 
ENDBRANCH  35  36
ENDBRANCH  33  34
ENDBRANCH  32  33
ENDBRANCH  31  32
ENDBRANCH  28  31
ENDBRANCH   1  28
TORSDOF 14
