REMARK  18 active torsions:
REMARK  status: ('A' for Active; 'I' for Inactive)
REMARK    1  A    between atoms: C2_2  and  C3_3 
REMARK    2  A    between atoms: C3_3  and  N1_4 
REMARK    3  A    between atoms: N2_7  and  C6_8 
REMARK    4  A    between atoms: C6_8  and  C7_9 
REMARK    5  A    between atoms: C7_9  and  C8_10 
REMARK    6  A    between atoms: C8_10  and  C9_11 
REMARK    7  A    between atoms: C9_11  and  N3_12 
REMARK    8  A    between atoms: N3_12  and  C10_15 
REMARK    9  A    between atoms: C10_15  and  C11_16 
REMARK   10  A    between atoms: C11_16  and  C12_17 
REMARK   11  A    between atoms: C12_17  and  N4_18 
REMARK       I    between atoms: N4_18  and  C13_20 
REMARK       I    between atoms: C13_20  and  N6_24 
REMARK   12  A    between atoms: N6_24  and  C14_26 
REMARK   13  A    between atoms: C14_26  and  C15_27 
REMARK   14  A    between atoms: C15_27  and  C16_28 
REMARK   15  A    between atoms: C16_28  and  C17_29 
REMARK   16  A    between atoms: C17_29  and  N7_30 
REMARK   17  A    between atoms: N7_30  and  S1_32 
REMARK   18  A    between atoms: S1_32  and  N8_33 
ROOT
HETATM    1  C12 UNL     1      -2.513   0.696  -1.480  1.00  0.00     0.139 C 
ENDROOT
BRANCH   1   2
HETATM    2  C11 UNL     1      -1.551   1.785  -0.994  1.00  0.00     0.048 C 
BRANCH   2   3
HETATM    3  C10 UNL     1      -0.138   1.271  -1.106  1.00  0.00     0.234 C 
BRANCH   3   4
HETATM    4  N3  UNL     1       0.804   2.266  -0.676  1.00  0.00    -0.075 N 
ATOM      5  H32 UNL     1       0.680   3.125  -1.212  1.00  0.00     0.277 HD
ATOM      6  H31 UNL     1       1.747   2.010  -0.969  1.00  0.00     0.277 HD
BRANCH   4   7
HETATM    7  C9  UNL     1       0.780   2.546   0.713  1.00  0.00     0.232 C 
BRANCH   7   8
HETATM    8  C8  UNL     1       1.266   1.446   1.599  1.00  0.00     0.029 C 
BRANCH   8   9
HETATM    9  C7  UNL     1       2.677   1.031   1.440  1.00  0.00     0.029 C 
BRANCH   9  10
HETATM   10  C6  UNL     1       3.093   0.507   0.121  1.00  0.00     0.237 C 
BRANCH  10  11
HETATM   11  N2  UNL     1       4.488   0.096   0.143  1.00  0.00    -0.062 N 
HETATM   12  C5  UNL     1       5.359   1.161   0.597  1.00  0.00     0.266 C 
HETATM   13  C4  UNL     1       6.768   0.868   0.169  1.00  0.00     0.271 C 
HETATM   14  N1  UNL     1       6.884  -0.625   0.097  1.00  0.00    -0.042 N 
HETATM   15  C19 UNL     1       6.194  -1.079   1.274  1.00  0.00     0.271 C 
HETATM   16  C21 UNL     1       6.259  -0.955  -1.149  1.00  0.00     0.271 C 
HETATM   17  C18 UNL     1       4.711  -1.120   0.900  1.00  0.00     0.266 C 
HETATM   18  C20 UNL     1       4.938  -0.196  -1.233  1.00  0.00     0.266 C 
BRANCH  14  19
HETATM   19  C3  UNL     1       8.285  -0.878   0.144  1.00  0.00     0.202 C 
BRANCH  19  20
HETATM   20  C2  UNL     1       8.774  -2.240   0.133  1.00  0.00     0.015 C 
HETATM   21  C1  UNL     1       8.117  -3.369   0.086  1.00  0.00     0.013 C 
ENDBRANCH  19  20
ENDBRANCH  14  19
ENDBRANCH  10  11
ENDBRANCH   9  10
ENDBRANCH   8   9
ENDBRANCH   7   8
ENDBRANCH   4   7
ENDBRANCH   3   4
ENDBRANCH   2   3
ENDBRANCH   1   2
BRANCH   1  22
HETATM   22  N4  UNL     1      -3.879   1.149  -1.400  1.00  0.00    -0.227 N 
HETATM   23  C13 UNL     1      -4.463   1.356  -0.129  1.00  0.00     0.667 C 
HETATM   24  N5  UNL     1      -4.343   2.441   0.527  1.00  0.00    -0.235 N 
HETATM   25  N6  UNL     1      -5.235   0.278   0.436  1.00  0.00    -0.227 N 
ATOM     26  H52 UNL     1      -3.797   3.204   0.127  1.00  0.00     0.174 HD
ATOM     27  H51 UNL     1      -4.764   2.590   1.444  1.00  0.00     0.174 HD
ATOM     28  H6  UNL     1      -4.907  -0.687   0.393  1.00  0.00     0.177 HD
ATOM     29  H4  UNL     1      -4.418   1.318  -2.250  1.00  0.00     0.177 HD
BRANCH  25  30
HETATM   30  C14 UNL     1      -6.488   0.615   1.065  1.00  0.00     0.138 C 
BRANCH  30  31
HETATM   31  C15 UNL     1      -7.444   1.089   0.032  1.00  0.00     0.022 C 
BRANCH  31  32
HETATM   32  C16 UNL     1      -7.730   0.196  -1.095  1.00  0.00     0.022 C 
BRANCH  32  33
HETATM   33  C17 UNL     1      -8.372  -1.097  -0.862  1.00  0.00     0.133 C 
BRANCH  33  34
HETATM   34  N7  UNL     1      -7.660  -2.051  -0.098  1.00  0.00    -0.303 N 
ATOM     35  H7  UNL     1      -6.740  -1.935   0.326  1.00  0.00     0.173 HD
BRANCH  34  36
HETATM   36  S1  UNL     1      -8.688  -3.482  -0.029  1.00  0.00     0.312 S 
HETATM   37  O1  UNL     1      -9.491  -3.491  -1.290  1.00  0.00    -0.183 OA
HETATM   38  O2  UNL     1      -7.775  -4.685   0.049  1.00  0.00    -0.183 OA
BRANCH  36  39
HETATM   39  N8  UNL     1      -9.678  -3.336   1.352  1.00  0.00    -0.312 N 
ATOM     40  H82 UNL     1      -9.666  -2.556   2.009  1.00  0.00     0.170 HD
ATOM     41  H81 UNL     1     -10.273  -4.164   1.392  1.00  0.00     0.170 HD
ENDBRANCH  36  39
ENDBRANCH  34  36
ENDBRANCH  33  34
ENDBRANCH  32  33
ENDBRANCH  31  32
ENDBRANCH  30  31
ENDBRANCH  25  30
ENDBRANCH   1  22
TORSDOF 18
