REMARK  18 active torsions:
REMARK  status: ('A' for Active; 'I' for Inactive)
REMARK    1  A    between atoms: C2_2  and  C3_3 
REMARK    2  A    between atoms: C3_3  and  C4_4 
REMARK    3  A    between atoms: C4_4  and  C5_5 
REMARK    4  A    between atoms: C5_5  and  C6_6 
REMARK    5  A    between atoms: C6_6  and  C7_7 
REMARK    6  A    between atoms: C7_7  and  N1_8 
REMARK       I    between atoms: N1_8  and  C8_10 
REMARK    7  A    between atoms: C8_10  and  C9_12 
REMARK    8  A    between atoms: C17_20  and  C18_21 
REMARK    9  A    between atoms: C18_21  and  N2_22 
REMARK   10  A    between atoms: C18_21  and  N3_26 
REMARK   11  A    between atoms: N3_26  and  C19_29 
REMARK   12  A    between atoms: C19_29  and  C20_30 
REMARK   13  A    between atoms: C20_30  and  C21_31 
REMARK   14  A    between atoms: C21_31  and  C22_32 
REMARK   15  A    between atoms: C22_32  and  N4_33 
REMARK       I    between atoms: N4_33  and  C23_35 
REMARK   16  A    between atoms: C23_35  and  C24_37 
REMARK   17  A    between atoms: C24_37  and  N5_38 
REMARK   18  A    between atoms: N5_38  and  N6_40 
ROOT
HETATM    1  C18 UNL     1       2.160   0.632  -0.590  1.00  0.00     0.385 C 
ENDROOT
BRANCH   1   2
HETATM    2  C17 UNL     1       0.921  -0.052  -1.053  1.00  0.00     0.053 C 
HETATM    3  C12 UNL     1       0.547   0.215  -2.467  1.00  0.00    -0.006 C 
HETATM    4  C11 UNL     1      -0.696  -0.610  -2.800  1.00  0.00     0.011 C 
HETATM    5  C13 UNL     1      -0.031   1.610  -2.690  1.00  0.00     0.010 C 
HETATM    6  C10 UNL     1      -1.708   0.072  -1.860  1.00  0.00     0.003 C 
HETATM    7  C9  UNL     1      -1.411  -0.536  -0.505  1.00  0.00     0.087 C 
HETATM    8  C14 UNL     1      -1.280   1.505  -1.801  1.00  0.00    -0.009 C 
HETATM    9  C16 UNL     1      -0.202   0.313  -0.102  1.00  0.00     0.007 C 
HETATM   10  C15 UNL     1      -0.722   1.704  -0.386  1.00  0.00     0.011 C 
BRANCH   7  11
HETATM   11  C8  UNL     1      -2.511  -0.446   0.458  1.00  0.00     0.222 C 
HETATM   12  N1  UNL     1      -3.783  -0.948   0.107  1.00  0.00    -0.361 N 
ATOM     13  H1  UNL     1      -3.898  -1.366  -0.816  1.00  0.00     0.162 HD
HETATM   14  O1  UNL     1      -2.331   0.067   1.576  1.00  0.00    -0.273 OA
BRANCH  12  15
HETATM   15  C7  UNL     1      -4.922  -0.903   0.976  1.00  0.00     0.122 C 
BRANCH  15  16
HETATM   16  C6  UNL     1      -5.296   0.499   1.304  1.00  0.00     0.020 C 
BRANCH  16  17
HETATM   17  C5  UNL     1      -6.479   0.525   2.228  1.00  0.00     0.002 C 
BRANCH  17  18
HETATM   18  C4  UNL     1      -7.665  -0.143   1.608  1.00  0.00     0.000 C 
BRANCH  18  19
HETATM   19  C3  UNL     1      -8.031   0.546   0.332  1.00  0.00    -0.000 C 
BRANCH  19  20
HETATM   20  C2  UNL     1      -9.246  -0.081  -0.330  1.00  0.00    -0.005 C 
HETATM   21  C1  UNL     1     -10.458  -0.028   0.551  1.00  0.00     0.005 C 
ENDBRANCH  19  20
ENDBRANCH  18  19
ENDBRANCH  17  18
ENDBRANCH  16  17
ENDBRANCH  15  16
ENDBRANCH  12  15
ENDBRANCH   7  11
ENDBRANCH   1   2
BRANCH   1  22
HETATM   22  N2  UNL     1       2.378   0.263   0.816  1.00  0.00    -0.050 N 
ATOM     23  H23 UNL     1       1.571   0.462   1.407  1.00  0.00     0.276 HD
ATOM     24  H22 UNL     1       2.405  -0.746   0.961  1.00  0.00     0.276 HD
ATOM     25  H21 UNL     1       3.227   0.732   1.133  1.00  0.00     0.276 HD
ENDBRANCH   1  22
BRANCH   1  26
HETATM   26  N3  UNL     1       3.329   0.366  -1.385  1.00  0.00    -0.046 N 
ATOM     27  H32 UNL     1       3.209   0.703  -2.340  1.00  0.00     0.279 HD
ATOM     28  H31 UNL     1       4.110   0.957  -1.101  1.00  0.00     0.279 HD
BRANCH  26  29
HETATM   29  C19 UNL     1       3.700  -1.036  -1.367  1.00  0.00     0.235 C 
BRANCH  29  30
HETATM   30  C20 UNL     1       4.940  -1.260  -2.201  1.00  0.00     0.029 C 
BRANCH  30  31
HETATM   31  C21 UNL     1       6.114  -0.460  -1.681  1.00  0.00     0.021 C 
BRANCH  31  32
HETATM   32  C22 UNL     1       6.456  -0.829  -0.260  1.00  0.00     0.122 C 
BRANCH  32  33
HETATM   33  N4  UNL     1       7.579  -0.055   0.233  1.00  0.00    -0.360 N 
HETATM   34  C23 UNL     1       8.093  -0.217   1.548  1.00  0.00     0.236 C 
HETATM   35  O2  UNL     1       7.534  -1.070   2.291  1.00  0.00    -0.272 OA
ATOM     36  H4  UNL     1       8.015   0.629  -0.385  1.00  0.00     0.162 HD
BRANCH  34  37
HETATM   37  C24 UNL     1       9.238   0.614   1.961  1.00  0.00     0.243 C 
BRANCH  37  38
HETATM   38  N5  UNL     1       9.656   0.357   3.303  1.00  0.00    -0.314 N 
ATOM     39  H5  UNL     1       9.630   1.124   3.974  1.00  0.00     0.182 HD
BRANCH  38  40
HETATM   40  N6  UNL     1      10.101  -0.901   3.743  1.00  0.00    -0.253 N 
HETATM   41  N7  UNL     1      11.135  -1.471   3.316  1.00  0.00    -0.331 N 
ATOM     42  H72 UNL     1      11.674  -0.976   2.605  1.00  0.00     0.178 HD
ATOM     43  H71 UNL     1      11.458  -2.384   3.635  1.00  0.00     0.178 HD
ATOM     44  H6  UNL     1       9.549  -1.381   4.454  1.00  0.00     0.207 HD
ENDBRANCH  38  40
ENDBRANCH  37  38
ENDBRANCH  34  37
ENDBRANCH  32  33
ENDBRANCH  31  32
ENDBRANCH  30  31
ENDBRANCH  29  30
ENDBRANCH  26  29
ENDBRANCH   1  26
TORSDOF 18
