REMARK  18 active torsions:
REMARK  status: ('A' for Active; 'I' for Inactive)
REMARK    1  A    between atoms: C2_2  and  C3_3 
REMARK    2  A    between atoms: C3_3  and  C4_4 
REMARK    3  A    between atoms: C4_4  and  C5_5 
REMARK       I    between atoms: C5_5  and  N1_7 
REMARK    4  A    between atoms: N1_7  and  C6_9 
REMARK    5  A    between atoms: C6_9  and  C7_10 
REMARK    6  A    between atoms: C7_10  and  C8_11 
REMARK    7  A    between atoms: C8_11  and  N2_12 
REMARK       I    between atoms: N2_12  and  C9_14 
REMARK       I    between atoms: C9_14  and  N3_16 
REMARK    8  A    between atoms: N3_16  and  C10_18 
REMARK    9  A    between atoms: C10_18  and  C11_19 
REMARK   10  A    between atoms: C11_19  and  N4_22 
REMARK   11  A    between atoms: N4_22  and  C14_25 
REMARK   12  A    between atoms: C14_25  and  C15_26 
REMARK   13  A    between atoms: C15_26  and  N5_27 
REMARK   14  A    between atoms: N5_27  and  C18_30 
REMARK   15  A    between atoms: C18_30  and  C19_31 
REMARK   16  A    between atoms: C19_31  and  C20_32 
REMARK   17  A    between atoms: C20_32  and  N6_33 
REMARK       I    between atoms: N6_33  and  C21_35 
REMARK   18  A    between atoms: C21_35  and  C22_37 
ROOT
HETATM    1  C11 UNL     1      -0.065   0.930  -1.183  1.00  0.00     0.150 C 
HETATM    2  C12 UNL     1      -0.593   1.554  -2.532  1.00  0.00     0.052 C 
HETATM    3  C13 UNL     1      -0.100  -0.524  -1.421  1.00  0.00     0.052 C 
ENDROOT
BRANCH   1   4
HETATM    4  C10 UNL     1       1.263   1.586  -1.032  1.00  0.00     0.103 C 
BRANCH   4   5
HETATM    5  N3  UNL     1       2.085   1.305   0.067  1.00  0.00    -0.320 N 
HETATM    6  C9  UNL     1       2.726   0.136   0.483  1.00  0.00     0.319 C 
HETATM    7  N2  UNL     1       3.506   0.101   1.686  1.00  0.00    -0.343 N 
HETATM    8  O2  UNL     1       2.653  -0.915  -0.163  1.00  0.00    -0.247 OA
ATOM      9  H2  UNL     1       3.578   0.949   2.248  1.00  0.00     0.164 HD
ATOM     10  H3  UNL     1       2.246   2.105   0.679  1.00  0.00     0.169 HD
BRANCH   7  11
HETATM   11  C8  UNL     1       4.194  -1.089   2.134  1.00  0.00     0.126 C 
BRANCH  11  12
HETATM   12  C7  UNL     1       5.235  -1.577   1.148  1.00  0.00     0.039 C 
BRANCH  12  13
HETATM   13  C6  UNL     1       6.296  -0.547   0.897  1.00  0.00     0.124 C 
BRANCH  13  14
HETATM   14  N1  UNL     1       7.246  -1.079  -0.057  1.00  0.00    -0.361 N 
HETATM   15  C5  UNL     1       8.359  -0.260  -0.440  1.00  0.00     0.217 C 
HETATM   16  O1  UNL     1       8.447   0.868   0.074  1.00  0.00    -0.274 OA
ATOM     17  H1  UNL     1       7.127  -2.014  -0.447  1.00  0.00     0.162 HD
BRANCH  15  18
HETATM   18  C4  UNL     1       9.317  -0.819  -1.414  1.00  0.00     0.103 C 
BRANCH  18  19
HETATM   19  C3  UNL     1      10.510   0.056  -1.635  1.00  0.00     0.009 C 
BRANCH  19  20
HETATM   20  C2  UNL     1      11.338   0.286  -0.399  1.00  0.00    -0.004 C 
HETATM   21  C1  UNL     1      12.514   1.185  -0.801  1.00  0.00     0.005 C 
ENDBRANCH  19  20
ENDBRANCH  18  19
ENDBRANCH  15  18
ENDBRANCH  13  14
ENDBRANCH  12  13
ENDBRANCH  11  12
ENDBRANCH   7  11
ENDBRANCH   4   5
ENDBRANCH   1   4
BRANCH   1  22
HETATM   22  N4  UNL     1      -1.028   1.346  -0.219  1.00  0.00    -0.061 N 
ATOM     23  H42 UNL     1      -0.574   1.605   0.657  1.00  0.00     0.278 HD
ATOM     24  H41 UNL     1      -1.429   2.248  -0.475  1.00  0.00     0.278 HD
BRANCH  22  25
HETATM   25  C14 UNL     1      -2.048   0.388   0.007  1.00  0.00     0.261 C 
BRANCH  25  26
HETATM   26  C15 UNL     1      -3.115   0.882   0.973  1.00  0.00     0.264 C 
BRANCH  26  27
HETATM   27  N5  UNL     1      -4.098  -0.213   1.134  1.00  0.00    -0.073 N 
HETATM   28  C16 UNL     1      -3.325  -1.440   1.485  1.00  0.00     0.272 C 
HETATM   29  C17 UNL     1      -4.848   0.129   2.305  1.00  0.00     0.272 C 
BRANCH  27  30
HETATM   30  C18 UNL     1      -4.733  -0.477  -0.077  1.00  0.00     0.238 C 
BRANCH  30  31
HETATM   31  C19 UNL     1      -6.161  -0.796  -0.174  1.00  0.00     0.047 C 
BRANCH  31  32
HETATM   32  C20 UNL     1      -7.133   0.273   0.169  1.00  0.00     0.124 C 
BRANCH  32  33
HETATM   33  N6  UNL     1      -8.495  -0.263  -0.017  1.00  0.00    -0.359 N 
HETATM   34  C21 UNL     1      -9.635   0.536   0.227  1.00  0.00     0.250 C 
HETATM   35  O3  UNL     1      -9.473   1.727   0.609  1.00  0.00    -0.271 OA
ATOM     36  H6  UNL     1      -8.616  -1.227  -0.327  1.00  0.00     0.162 HD
BRANCH  34  37
HETATM   37  C22 UNL     1     -11.002  -0.020   0.036  1.00  0.00     0.302 A 
HETATM   38  C23 UNL     1     -12.149   0.519   0.741  1.00  0.00     0.276 A 
HETATM   39  N7  UNL     1     -11.952   0.833  -0.659  1.00  0.00    -0.058 N 
ATOM     40  H72 UNL     1     -11.886   1.693  -1.203  1.00  0.00     0.278 HD
ATOM     41  H71 UNL     1     -12.516   0.746  -1.504  1.00  0.00     0.278 HD
ENDBRANCH  34  37
ENDBRANCH  32  33
ENDBRANCH  31  32
ENDBRANCH  30  31
ENDBRANCH  27  30
ENDBRANCH  26  27
ENDBRANCH  25  26
ENDBRANCH  22  25
ENDBRANCH   1  22
TORSDOF 18
