REMARK  18 active torsions:
REMARK  status: ('A' for Active; 'I' for Inactive)
REMARK    1  A    between atoms: C2_2  and  C3_3 
REMARK    2  A    between atoms: C3_3  and  N1_4 
REMARK       I    between atoms: N1_4  and  C4_6 
REMARK       I    between atoms: C4_6  and  N2_8 
REMARK    3  A    between atoms: N2_8  and  C5_10 
REMARK    4  A    between atoms: C5_10  and  C6_11 
REMARK    5  A    between atoms: C6_11  and  C7_12 
REMARK    6  A    between atoms: C7_12  and  N3_13 
REMARK    7  A    between atoms: N3_13  and  C8_14 
REMARK    8  A    between atoms: C8_14  and  C9_15 
REMARK       I    between atoms: C9_15  and  N4_17 
REMARK    9  A    between atoms: N4_17  and  C10_19 
REMARK   10  A    between atoms: C10_19  and  C11_20 
REMARK   11  A    between atoms: C11_20  and  N5_21 
REMARK   12  A    between atoms: N5_21  and  C12_24 
REMARK   13  A    between atoms: C12_24  and  C13_25 
REMARK   14  A    between atoms: C13_25  and  C14_26 
REMARK   15  A    between atoms: C14_26  and  C15_27 
REMARK   16  A    between atoms: C15_27  and  N6_28 
REMARK   17  A    between atoms: C19_35  and  N7_36 
REMARK   18  A    between atoms: C20_38  and  C21_39 
ROOT
HETATM    1  N3  UNL     1      -0.361   0.496   0.070  1.00  0.00    -0.031 N 
HETATM    2  C16 UNL     1      -0.885  -0.066   1.253  1.00  0.00     0.250 C 
HETATM    3  C17 UNL     1      -1.841   1.107   1.401  1.00  0.00     0.095 C 
HETATM    4  C18 UNL     1      -1.144   1.700   0.253  1.00  0.00     0.131 C 
HETATM    5  C19 UNL     1      -1.177   2.837  -0.383  1.00  0.00     0.120 C 
ENDROOT
BRANCH   1   6
HETATM    6  C7  UNL     1      -0.449  -0.059  -1.213  1.00  0.00     0.246 C 
BRANCH   6   7
HETATM    7  C6  UNL     1      -1.711  -0.285  -1.919  1.00  0.00     0.048 C 
BRANCH   7   8
HETATM    8  C5  UNL     1      -2.619  -1.283  -1.305  1.00  0.00     0.126 C 
BRANCH   8   9
HETATM    9  N2  UNL     1      -3.842  -1.465  -2.102  1.00  0.00    -0.343 N 
HETATM   10  C4  UNL     1      -4.814  -2.418  -1.634  1.00  0.00     0.316 C 
HETATM   11  N1  UNL     1      -6.012  -2.640  -2.349  1.00  0.00    -0.343 N 
HETATM   12  O1  UNL     1      -4.598  -3.062  -0.578  1.00  0.00    -0.247 OA
ATOM     13  H1  UNL     1      -6.180  -2.114  -3.206  1.00  0.00     0.164 HD
ATOM     14  H2  UNL     1      -3.996  -0.933  -2.959  1.00  0.00     0.164 HD
BRANCH  11  15
HETATM   15  C3  UNL     1      -6.998  -3.580  -1.909  1.00  0.00     0.124 C 
BRANCH  15  16
HETATM   16  C2  UNL     1      -7.599  -3.290  -0.569  1.00  0.00     0.015 C 
HETATM   17  C1  UNL     1      -8.613  -4.391  -0.296  1.00  0.00     0.006 C 
ENDBRANCH  15  16
ENDBRANCH  11  15
ENDBRANCH   8   9
ENDBRANCH   7   8
ENDBRANCH   6   7
ENDBRANCH   1   6
BRANCH   1  18
HETATM   18  C8  UNL     1       1.081   0.808   0.321  1.00  0.00     0.346 C 
BRANCH  18  19
HETATM   19  C9  UNL     1       1.736  -0.419   0.779  1.00  0.00     0.244 C 
HETATM   20  O2  UNL     1       1.127  -1.511   0.901  1.00  0.00    -0.272 OA
HETATM   21  N4  UNL     1       3.139  -0.443   1.123  1.00  0.00    -0.358 N 
ATOM     22  H4  UNL     1       3.711   0.398   1.048  1.00  0.00     0.162 HD
BRANCH  21  23
HETATM   23  C10 UNL     1       3.704  -1.676   1.571  1.00  0.00     0.150 C 
BRANCH  23  24
HETATM   24  C11 UNL     1       5.175  -1.473   1.875  1.00  0.00     0.251 C 
BRANCH  24  25
HETATM   25  N5  UNL     1       5.862  -1.061   0.686  1.00  0.00    -0.074 N 
ATOM     26  H52 UNL     1       5.712  -1.719  -0.078  1.00  0.00     0.277 HD
ATOM     27  H51 UNL     1       5.428  -0.236   0.271  1.00  0.00     0.277 HD
BRANCH  25  28
HETATM   28  C12 UNL     1       7.255  -0.852   0.931  1.00  0.00     0.232 C 
BRANCH  28  29
HETATM   29  C13 UNL     1       7.954  -2.136   1.233  1.00  0.00     0.029 C 
BRANCH  29  30
HETATM   30  C14 UNL     1       7.787  -3.090   0.084  1.00  0.00     0.029 C 
BRANCH  30  31
HETATM   31  C15 UNL     1       8.374  -2.501  -1.162  1.00  0.00     0.229 C 
BRANCH  31  32
HETATM   32  N6  UNL     1       9.782  -2.222  -1.018  1.00  0.00    -0.079 N 
ATOM     33  H63 UNL     1       9.960  -1.628  -0.208  1.00  0.00     0.274 HD
ATOM     34  H62 UNL     1      10.296  -3.053  -0.724  1.00  0.00     0.274 HD
ATOM     35  H61 UNL     1      10.182  -1.821  -1.866  1.00  0.00     0.274 HD
ENDBRANCH  31  32
ENDBRANCH  30  31
ENDBRANCH  29  30
ENDBRANCH  28  29
ENDBRANCH  25  28
ENDBRANCH  24  25
ENDBRANCH  23  24
ENDBRANCH  21  23
ENDBRANCH  18  19
ENDBRANCH   1  18
BRANCH   5  36
HETATM   36  N7  UNL     1      -2.048   3.909  -0.021  1.00  0.00    -0.377 N 
HETATM   37  C20 UNL     1      -1.884   4.528   1.084  1.00  0.00     0.065 C 
ATOM     38  H7  UNL     1      -2.805   4.182  -0.648  1.00  0.00     0.164 HD
BRANCH  37  39
HETATM   39  C21 UNL     1      -2.670   5.638   1.616  1.00  0.00     0.024 C 
HETATM   40  C22 UNL     1      -2.181   7.026   1.279  1.00  0.00     0.010 C 
HETATM   41  C23 UNL     1      -3.060   6.957   0.038  1.00  0.00     0.001 C 
HETATM   42  C24 UNL     1      -3.902   5.931   0.808  1.00  0.00     0.010 C 
ENDBRANCH  37  39
ENDBRANCH   5  36
TORSDOF 18
