REMARK  18 active torsions:
REMARK  status: ('A' for Active; 'I' for Inactive)
REMARK    1  A    between atoms: C2_2  and  C3_3 
REMARK    2  A    between atoms: C2_2  and  C14_23 
REMARK    3  A    between atoms: C3_3  and  N1_4 
REMARK    4  A    between atoms: N1_4  and  C6_7 
REMARK    5  A    between atoms: C6_7  and  C7_8 
REMARK    6  A    between atoms: C7_8  and  N2_9 
REMARK       I    between atoms: N2_9  and  C8_11 
REMARK       I    between atoms: C8_11  and  N3_13 
REMARK    7  A    between atoms: N3_13  and  C9_15 
REMARK    8  A    between atoms: C9_15  and  C10_16 
REMARK    9  A    between atoms: C10_16  and  C11_17 
REMARK   10  A    between atoms: C11_17  and  C12_18 
REMARK       I    between atoms: C12_18  and  N4_20 
REMARK       I    between atoms: C14_23  and  N5_25 
REMARK   11  A    between atoms: N5_25  and  C15_26 
REMARK   12  A    between atoms: C15_26  and  C16_27 
REMARK   13  A    between atoms: C16_27  and  C17_28 
REMARK   14  A    between atoms: C17_28  and  N6_29 
REMARK   15  A    between atoms: N6_29  and  C18_31 
REMARK   16  A    between atoms: C18_31  and  C19_35 
REMARK   17  A    between atoms: C19_35  and  C20_36 
REMARK   18  A    between atoms: C19_35  and  C22_38 
ROOT
HETATM    1  C3  UNL     1       0.907  -0.700   1.734  1.00  0.00     0.219 C 
ENDROOT
BRANCH   1   2
HETATM    2  C2  UNL     1       0.031   0.050   2.626  1.00  0.00     0.060 C 
HETATM    3  C1  UNL     1       0.369   0.221   3.864  1.00  0.00     0.032 C 
BRANCH   2   4
HETATM    4  C14 UNL     1      -1.310   0.626   2.282  1.00  0.00     0.321 C 
HETATM    5  O3  UNL     1      -1.770   1.290   3.274  1.00  0.00    -0.251 OA
HETATM    6  N5  UNL     1      -1.833   0.372   1.093  1.00  0.00    -0.411 NA
BRANCH   6   7
HETATM    7  C15 UNL     1      -2.519   0.174  -0.138  1.00  0.00     0.223 C 
BRANCH   7   8
HETATM    8  C16 UNL     1      -3.707  -0.782   0.109  1.00  0.00     0.053 C 
BRANCH   8   9
HETATM    9  C17 UNL     1      -4.607  -0.130   1.183  1.00  0.00     0.123 C 
BRANCH   9  10
HETATM   10  N6  UNL     1      -5.684  -0.966   1.495  1.00  0.00    -0.380 N 
ATOM     11  H6  UNL     1      -5.724  -1.296   2.459  1.00  0.00     0.160 HD
BRANCH  10  12
HETATM   12  C18 UNL     1      -6.723  -1.413   0.651  1.00  0.00     0.074 C 
HETATM   13  N7  UNL     1      -6.705  -2.296  -0.174  1.00  0.00    -0.389 N 
ATOM     14  H72 UNL     1      -5.806  -2.725  -0.392  1.00  0.00     0.157 HD
ATOM     15  H71 UNL     1      -7.456  -2.619  -0.784  1.00  0.00     0.157 HD
BRANCH  12  16
HETATM   16  C19 UNL     1      -8.075  -0.768   0.978  1.00  0.00     0.052 C 
BRANCH  16  17
HETATM   17  C20 UNL     1      -7.985   0.679   1.156  1.00  0.00     0.008 C 
HETATM   18  C21 UNL     1      -7.586   1.549   0.027  1.00  0.00     0.006 C 
ENDBRANCH  16  17
BRANCH  16  19
HETATM   19  C22 UNL     1      -8.493  -1.447   2.292  1.00  0.00     0.008 C 
HETATM   20  C23 UNL     1      -9.829  -0.916   2.731  1.00  0.00     0.006 C 
ENDBRANCH  16  19
ENDBRANCH  12  16
ENDBRANCH  10  12
ENDBRANCH   9  10
ENDBRANCH   8   9
ENDBRANCH   7   8
ENDBRANCH   6   7
ENDBRANCH   2   4
ENDBRANCH   1   2
BRANCH   1  21
HETATM   21  N1  UNL     1       1.627  -0.055   0.708  1.00  0.00    -0.049 N 
HETATM   22  C4  UNL     1       1.418  -0.693  -0.605  1.00  0.00     0.278 C 
HETATM   23  C5  UNL     1       1.514   1.354   0.556  1.00  0.00     0.278 C 
BRANCH  21  24
HETATM   24  C6  UNL     1       3.055  -0.306   1.057  1.00  0.00     0.286 C 
BRANCH  24  25
HETATM   25  C7  UNL     1       3.855  -1.070   0.126  1.00  0.00     0.093 C 
BRANCH  25  26
HETATM   26  N2  UNL     1       4.154  -0.588  -1.147  1.00  0.00    -0.321 N 
HETATM   27  C8  UNL     1       4.896   0.696  -1.260  1.00  0.00     0.319 C 
HETATM   28  O1  UNL     1       5.071   1.393  -0.283  1.00  0.00    -0.247 OA
HETATM   29  N3  UNL     1       5.345   0.938  -2.556  1.00  0.00    -0.343 N 
ATOM     30  H3  UNL     1       5.124   0.216  -3.242  1.00  0.00     0.164 HD
ATOM     31  H2  UNL     1       3.871  -1.103  -1.981  1.00  0.00     0.169 HD
BRANCH  29  32
HETATM   32  C9  UNL     1       6.070   2.057  -3.050  1.00  0.00     0.125 C 
BRANCH  32  33
HETATM   33  C10 UNL     1       7.268   2.353  -2.124  1.00  0.00     0.029 C 
BRANCH  33  34
HETATM   34  C11 UNL     1       8.062   1.135  -1.926  1.00  0.00     0.104 C 
BRANCH  34  35
HETATM   35  C12 UNL     1       8.693   0.552  -3.122  1.00  0.00     0.217 C 
HETATM   36  O2  UNL     1       9.101   1.333  -3.984  1.00  0.00    -0.274 OA
HETATM   37  N4  UNL     1       8.818  -0.885  -3.243  1.00  0.00    -0.365 N 
HETATM   38  C13 UNL     1       9.484  -1.440  -4.392  1.00  0.00     0.149 C 
ATOM     39  H4  UNL     1       8.438  -1.498  -2.522  1.00  0.00     0.161 HD
ENDBRANCH  34  35
ENDBRANCH  33  34
ENDBRANCH  32  33
ENDBRANCH  29  32
ENDBRANCH  25  26
ENDBRANCH  24  25
ENDBRANCH  21  24
ENDBRANCH   1  21
TORSDOF 18
