REMARK  22 active torsions:
REMARK  status: ('A' for Active; 'I' for Inactive)
REMARK    1  A    between atoms: N1_2  and  C3_4 
REMARK    2  A    between atoms: N1_2  and  C9_15 
REMARK    3  A    between atoms: C3_4  and  C4_5 
REMARK    4  A    between atoms: C5_6  and  C6_7 
REMARK    5  A    between atoms: C7_8  and  C8_9 
REMARK    6  A    between atoms: C8_9  and  O1_13 
REMARK    7  A    between atoms: C9_15  and  C10_16 
REMARK    8  A    between atoms: C10_16  and  C11_17 
REMARK    9  A    between atoms: C11_17  and  N3_18 
REMARK       I    between atoms: N3_18  and  C12_20 
REMARK       I    between atoms: C12_20  and  N4_22 
REMARK   10  A    between atoms: N4_22  and  C13_24 
REMARK   11  A    between atoms: C13_24  and  C14_25 
REMARK   12  A    between atoms: C14_25  and  C15_26 
REMARK   13  A    between atoms: C15_26  and  C16_27 
REMARK   14  A    between atoms: C16_27  and  C17_28 
REMARK   15  A    between atoms: C17_28  and  N5_29 
REMARK   16  A    between atoms: N5_29  and  C18_31 
REMARK   17  A    between atoms: C18_31  and  C19_32 
REMARK   18  A    between atoms: C19_32  and  N6_33 
REMARK   19  A    between atoms: N6_33  and  C22_36 
REMARK   20  A    between atoms: C22_36  and  C23_37 
REMARK   21  A    between atoms: C23_37  and  C24_38 
REMARK   22  A    between atoms: C24_38  and  N7_39 
ROOT
HETATM    1  N3  UNL     1      -2.697  -0.179  -1.053  1.00  0.00    -0.343 N 
ATOM      2  H3  UNL     1      -2.576   0.472  -0.277  1.00  0.00     0.164 HD
HETATM    3  C12 UNL     1      -1.815  -1.257  -1.162  1.00  0.00     0.316 C 
HETATM    4  O2  UNL     1      -1.882  -2.093  -2.080  1.00  0.00    -0.247 OA
HETATM    5  N4  UNL     1      -0.781  -1.399  -0.162  1.00  0.00    -0.343 N 
ATOM      6  H4  UNL     1      -0.717  -0.724   0.600  1.00  0.00     0.164 HD
ENDROOT
BRANCH   1   7
HETATM    7  C11 UNL     1      -3.759   0.053  -1.976  1.00  0.00     0.126 C 
BRANCH   7   8
HETATM    8  C10 UNL     1      -4.778  -1.024  -2.048  1.00  0.00     0.048 C 
BRANCH   8   9
HETATM    9  C9  UNL     1      -5.507  -1.353  -0.805  1.00  0.00     0.239 C 
BRANCH   9  10
HETATM   10  N1  UNL     1      -6.282  -0.326  -0.181  1.00  0.00    -0.065 N 
HETATM   11  C1  UNL     1      -5.461   0.202   0.930  1.00  0.00     0.273 C 
HETATM   12  C2  UNL     1      -7.487  -0.887   0.443  1.00  0.00     0.273 C 
BRANCH  10  13
HETATM   13  C3  UNL     1      -6.670   0.775  -0.988  1.00  0.00     0.330 C 
BRANCH  13  14
HETATM   14  C4  UNL     1      -8.108   1.068  -0.740  1.00  0.00    -0.065 C 
HETATM   15  C5  UNL     1      -9.273   1.329  -0.550  1.00  0.00    -0.013 C 
BRANCH  15  16
HETATM   16  C6  UNL     1     -10.630   1.660  -0.338  1.00  0.00    -0.006 C 
HETATM   17  C7  UNL     1     -11.785   1.964  -0.165  1.00  0.00    -0.009 C 
BRANCH  17  18
HETATM   18  C8  UNL     1     -13.152   2.349   0.029  1.00  0.00     0.191 C 
HETATM   19  N2  UNL     1     -13.536   3.253   0.861  1.00  0.00    -0.373 N 
ATOM     20  H22 UNL     1     -12.822   3.724   1.416  1.00  0.00     0.158 HD
ATOM     21  H21 UNL     1     -14.509   3.527   0.999  1.00  0.00     0.158 HD
BRANCH  18  22
HETATM   22  O1  UNL     1     -14.123   1.708  -0.726  1.00  0.00    -0.340 OA
ATOM     23  H1  UNL     1     -15.029   1.963  -0.597  1.00  0.00     0.220 HD
ENDBRANCH  18  22
ENDBRANCH  17  18
ENDBRANCH  15  16
ENDBRANCH  13  14
ENDBRANCH  10  13
ENDBRANCH   9  10
ENDBRANCH   8   9
ENDBRANCH   7   8
ENDBRANCH   1   7
BRANCH   5  24
HETATM   24  C13 UNL     1       0.162  -2.489  -0.233  1.00  0.00     0.124 C 
BRANCH  24  25
HETATM   25  C14 UNL     1       1.123  -2.369   0.932  1.00  0.00     0.020 C 
BRANCH  25  26
HETATM   26  C15 UNL     1       1.875  -1.079   0.878  1.00  0.00     0.007 C 
BRANCH  26  27
HETATM   27  C16 UNL     1       2.812  -0.970   2.038  1.00  0.00     0.044 C 
BRANCH  27  28
HETATM   28  C17 UNL     1       3.843  -2.047   2.067  1.00  0.00     0.060 C 
BRANCH  28  29
HETATM   29  N5  UNL     1       4.692  -2.183   0.986  1.00  0.00    -0.381 N 
ATOM     30  H5  UNL     1       4.565  -3.002   0.392  1.00  0.00     0.164 HD
BRANCH  29  31
HETATM   31  C18 UNL     1       5.710  -1.293   0.638  1.00  0.00     0.087 C 
BRANCH  31  32
HETATM   32  C19 UNL     1       5.351   0.044   0.092  1.00  0.00     0.281 C 
BRANCH  32  33
HETATM   33  N6  UNL     1       6.615   0.779  -0.217  1.00  0.00    -0.070 N 
HETATM   34  C20 UNL     1       6.283   1.946  -0.966  1.00  0.00     0.272 C 
HETATM   35  C21 UNL     1       7.356  -0.129  -1.075  1.00  0.00     0.272 C 
BRANCH  33  36
HETATM   36  C22 UNL     1       7.348   0.976   0.986  1.00  0.00     0.238 C 
BRANCH  36  37
HETATM   37  C23 UNL     1       8.112   2.235   1.136  1.00  0.00     0.055 C 
BRANCH  37  38
HETATM   38  C24 UNL     1       9.189   2.442   0.104  1.00  0.00     0.231 C 
BRANCH  38  39
HETATM   39  N7  UNL     1      10.140   1.323   0.209  1.00  0.00    -0.079 N 
ATOM     40  H73 UNL     1      10.513   1.209   1.151  1.00  0.00     0.274 HD
ATOM     41  H72 UNL     1       9.688   0.412   0.130  1.00  0.00     0.274 HD
ATOM     42  H71 UNL     1      10.869   1.463  -0.490  1.00  0.00     0.274 HD
ENDBRANCH  38  39
ENDBRANCH  37  38
ENDBRANCH  36  37
ENDBRANCH  33  36
ENDBRANCH  32  33
ENDBRANCH  31  32
ENDBRANCH  29  31
ENDBRANCH  28  29
ENDBRANCH  27  28
ENDBRANCH  26  27
ENDBRANCH  25  26
ENDBRANCH  24  25
ENDBRANCH   5  24
TORSDOF 22
