REMARK  18 active torsions:
REMARK  status: ('A' for Active; 'I' for Inactive)
REMARK    1  A    between atoms: N1_2  and  C4_5 
REMARK    2  A    between atoms: C4_5  and  C5_6 
REMARK    3  A    between atoms: C5_6  and  C6_7 
REMARK    4  A    between atoms: C6_7  and  C7_8 
REMARK    5  A    between atoms: C7_8  and  C8_9 
REMARK    6  A    between atoms: C8_9  and  N2_10 
REMARK    7  A    between atoms: N3_13  and  C11_14 
REMARK    8  A    between atoms: C11_14  and  C12_15 
REMARK    9  A    between atoms: C12_15  and  C13_16 
REMARK   10  A    between atoms: C13_16  and  C14_17 
REMARK   11  A    between atoms: C14_17  and  N4_18 
REMARK       I    between atoms: N4_18  and  C15_20 
REMARK       I    between atoms: C15_20  and  N5_22 
REMARK   12  A    between atoms: N5_22  and  C16_24 
REMARK   13  A    between atoms: C16_24  and  C17_25 
REMARK   14  A    between atoms: C17_25  and  C18_26 
REMARK   15  A    between atoms: C18_26  and  N6_27 
REMARK   16  A    between atoms: N6_27  and  C19_29 
REMARK   17  A    between atoms: C19_29  and  C20_30 
REMARK   18  A    between atoms: C23_37  and  O2_38 
ROOT
HETATM    1  C12 UNL     1       1.102   0.678  -0.655  1.00  0.00     0.030 C 
ENDROOT
BRANCH   1   2
HETATM    2  C11 UNL     1       0.393   1.562   0.313  1.00  0.00     0.243 C 
BRANCH   2   3
HETATM    3  N3  UNL     1      -1.018   1.527   0.147  1.00  0.00    -0.011 N 
HETATM    4  C10 UNL     1      -1.550   2.401  -0.860  1.00  0.00     0.270 C 
HETATM    5  C9  UNL     1      -2.935   1.787  -1.115  1.00  0.00     0.270 C 
HETATM    6  N2  UNL     1      -2.970   0.620  -0.288  1.00  0.00    -0.011 N 
HETATM    7  C22 UNL     1      -3.119   1.024   1.071  1.00  0.00     0.270 C 
HETATM    8  C23 UNL     1      -1.544   0.235  -0.296  1.00  0.00     0.531 C 
HETATM    9  C21 UNL     1      -1.775   1.701   1.366  1.00  0.00     0.270 C 
BRANCH   6  10
HETATM   10  C8  UNL     1      -3.807  -0.439  -0.722  1.00  0.00     0.243 C 
BRANCH  10  11
HETATM   11  C7  UNL     1      -5.263  -0.113  -0.665  1.00  0.00     0.028 C 
BRANCH  11  12
HETATM   12  C6  UNL     1      -6.033  -1.329  -1.154  1.00  0.00     0.003 C 
BRANCH  12  13
HETATM   13  C5  UNL     1      -7.529  -1.111  -1.141  1.00  0.00     0.028 C 
BRANCH  13  14
HETATM   14  C4  UNL     1      -8.042  -0.811   0.239  1.00  0.00     0.236 C 
BRANCH  14  15
HETATM   15  N1  UNL     1      -9.452  -0.600   0.298  1.00  0.00    -0.079 N 
HETATM   16  C1  UNL     1     -10.234  -1.599  -0.362  1.00  0.00     0.271 C 
HETATM   17  C2  UNL     1      -9.860   0.697  -0.206  1.00  0.00     0.271 C 
HETATM   18  C3  UNL     1      -9.829  -0.632   1.719  1.00  0.00     0.271 C 
ENDBRANCH  14  15
ENDBRANCH  13  14
ENDBRANCH  12  13
ENDBRANCH  11  12
ENDBRANCH  10  11
ENDBRANCH   6  10
BRANCH   8  19
HETATM   19  O2  UNL     1      -1.311  -0.768   0.641  1.00  0.00    -0.348 OA
ATOM     20  H2  UNL     1      -0.394  -1.016   0.636  1.00  0.00     0.214 HD
ENDBRANCH   8  19
ENDBRANCH   2   3
ENDBRANCH   1   2
BRANCH   1  21
HETATM   21  C13 UNL     1       2.619   0.763  -0.426  1.00  0.00     0.021 C 
BRANCH  21  22
HETATM   22  C14 UNL     1       3.341  -0.126  -1.400  1.00  0.00     0.124 C 
BRANCH  22  23
HETATM   23  N4  UNL     1       4.760  -0.132  -1.289  1.00  0.00    -0.343 N 
HETATM   24  C15 UNL     1       5.404  -0.540  -0.097  1.00  0.00     0.316 C 
HETATM   25  O1  UNL     1       4.783  -0.919   0.927  1.00  0.00    -0.247 OA
HETATM   26  N5  UNL     1       6.838  -0.533  -0.018  1.00  0.00    -0.343 N 
ATOM     27  H5  UNL     1       7.380  -0.223  -0.825  1.00  0.00     0.164 HD
ATOM     28  H4  UNL     1       5.324   0.164  -2.085  1.00  0.00     0.164 HD
BRANCH  26  29
HETATM   29  C16 UNL     1       7.527  -0.951   1.169  1.00  0.00     0.129 C 
BRANCH  29  30
HETATM   30  C17 UNL     1       9.051  -0.823   0.940  1.00  0.00     0.064 C 
BRANCH  30  31
HETATM   31  C18 UNL     1       9.379   0.608   0.696  1.00  0.00     0.062 C 
BRANCH  31  32
HETATM   32  N6  UNL     1      10.737   0.890   0.522  1.00  0.00    -0.376 N 
ATOM     33  H6  UNL     1      11.259   1.420   1.220  1.00  0.00     0.164 HD
BRANCH  32  34
HETATM   34  C19 UNL     1      11.352   0.424  -0.634  1.00  0.00     0.132 C 
BRANCH  34  35
HETATM   35  C20 UNL     1      11.642  -1.021  -0.763  1.00  0.00     0.125 C 
HETATM   36  N7  UNL     1      12.099  -1.655   0.220  1.00  0.00    -0.387 N 
ATOM     37  H72 UNL     1      12.231  -1.171   1.108  1.00  0.00     0.157 HD
ATOM     38  H71 UNL     1      12.299  -2.651   0.131  1.00  0.00     0.157 HD
HETATM   39  N8  UNL     1      11.456  -1.700  -2.010  1.00  0.00    -0.082 NA
ENDBRANCH  34  35
ENDBRANCH  32  34
ENDBRANCH  31  32
ENDBRANCH  30  31
ENDBRANCH  29  30
ENDBRANCH  26  29
ENDBRANCH  22  23
ENDBRANCH  21  22
ENDBRANCH   1  21
TORSDOF 18
