REMARK  18 active torsions:
REMARK  status: ('A' for Active; 'I' for Inactive)
REMARK    1  A    between atoms: N1_1  and  C1_5 
REMARK    2  A    between atoms: C1_5  and  C2_6 
REMARK    3  A    between atoms: C2_6  and  C3_7 
REMARK    4  A    between atoms: C3_7  and  C4_8 
REMARK    5  A    between atoms: C4_8  and  N2_9 
REMARK    6  A    between atoms: N2_9  and  C5_12 
REMARK    7  A    between atoms: C5_12  and  C6_13 
REMARK    8  A    between atoms: C6_13  and  C7_14 
REMARK    9  A    between atoms: C7_14  and  C8_15 
REMARK   10  A    between atoms: C8_15  and  N3_16 
REMARK   11  A    between atoms: N3_16  and  C9_19 
REMARK   12  A    between atoms: C9_19  and  C10_20 
REMARK   13  A    between atoms: C10_20  and  N4_21 
REMARK   14  A    between atoms: N5_24  and  C13_25 
REMARK   15  A    between atoms: C13_25  and  C14_26 
REMARK   16  A    between atoms: C14_26  and  C15_27 
REMARK   17  A    between atoms: C15_27  and  N6_28 
REMARK   18  A    between atoms: C20_36  and  C21_37 
ROOT
HETATM    1  N4  UNL     1      -1.027  -0.349   0.435  1.00  0.00    -0.052 N 
HETATM    2  C11 UNL     1      -1.344   0.913  -0.126  1.00  0.00     0.266 C 
HETATM    3  C12 UNL     1      -2.863   1.040  -0.177  1.00  0.00     0.265 C 
HETATM    4  N5  UNL     1      -3.462   0.150   0.761  1.00  0.00    -0.061 N 
HETATM    5  C17 UNL     1      -2.748   0.433   2.036  1.00  0.00     0.265 C 
HETATM    6  C18 UNL     1      -1.416  -0.248   1.862  1.00  0.00     0.266 C 
HETATM    7  C19 UNL     1      -3.178  -1.264   0.529  1.00  0.00     0.276 C 
HETATM    8  C20 UNL     1      -1.795  -1.447  -0.081  1.00  0.00     0.251 C 
ENDROOT
BRANCH   1   9
HETATM    9  C10 UNL     1       0.379  -0.681   0.514  1.00  0.00     0.266 C 
BRANCH   9  10
HETATM   10  C9  UNL     1       1.245   0.512   0.720  1.00  0.00     0.260 C 
BRANCH  10  11
HETATM   11  N3  UNL     1       2.630   0.121   0.815  1.00  0.00    -0.074 N 
ATOM     12  H32 UNL     1       3.246   0.930   0.742  1.00  0.00     0.277 HD
ATOM     13  H31 UNL     1       2.927  -0.386  -0.019  1.00  0.00     0.277 HD
BRANCH  11  14
HETATM   14  C8  UNL     1       2.904  -0.631   2.000  1.00  0.00     0.232 C 
BRANCH  14  15
HETATM   15  C7  UNL     1       4.326  -0.918   2.281  1.00  0.00     0.029 C 
BRANCH  15  16
HETATM   16  C6  UNL     1       5.235   0.217   2.542  1.00  0.00     0.029 C 
BRANCH  16  17
HETATM   17  C5  UNL     1       5.399   1.211   1.440  1.00  0.00     0.232 C 
BRANCH  17  18
HETATM   18  N2  UNL     1       5.919   0.615   0.241  1.00  0.00    -0.075 N 
ATOM     19  H22 UNL     1       5.350  -0.179  -0.052  1.00  0.00     0.277 HD
ATOM     20  H21 UNL     1       6.797   0.128   0.422  1.00  0.00     0.277 HD
BRANCH  18  21
HETATM   21  C4  UNL     1       6.063   1.556  -0.807  1.00  0.00     0.232 C 
BRANCH  21  22
HETATM   22  C3  UNL     1       6.686   0.950  -2.023  1.00  0.00     0.029 C 
BRANCH  22  23
HETATM   23  C2  UNL     1       8.062   0.474  -1.801  1.00  0.00     0.029 C 
BRANCH  23  24
HETATM   24  C1  UNL     1       8.291  -0.589  -0.786  1.00  0.00     0.229 C 
BRANCH  24  25
HETATM   25  N1  UNL     1       9.745  -0.896  -0.837  1.00  0.00    -0.079 N 
ATOM     26  H13 UNL     1      10.076  -1.145  -1.769  1.00  0.00     0.274 HD
ATOM     27  H12 UNL     1      10.339  -0.077  -0.710  1.00  0.00     0.274 HD
ATOM     28  H11 UNL     1       9.902  -1.625  -0.141  1.00  0.00     0.274 HD
ENDBRANCH  24  25
ENDBRANCH  23  24
ENDBRANCH  22  23
ENDBRANCH  21  22
ENDBRANCH  18  21
ENDBRANCH  17  18
ENDBRANCH  16  17
ENDBRANCH  15  16
ENDBRANCH  14  15
ENDBRANCH  11  14
ENDBRANCH  10  11
ENDBRANCH   9  10
ENDBRANCH   1   9
BRANCH   8  29
HETATM   29  C21 UNL     1      -1.932  -1.503  -1.534  1.00  0.00    -0.009 A 
HETATM   30  C22 UNL     1      -1.055  -1.152  -2.536  1.00  0.00     0.027 A 
HETATM   31  C23 UNL     1      -1.632  -1.411  -3.758  1.00  0.00     0.088 A 
HETATM   32  N9  UNL     1      -2.851  -1.916  -3.549  1.00  0.00    -0.375 N 
HETATM   33  C24 UNL     1      -3.038  -1.974  -2.194  1.00  0.00     0.096 A 
ATOM     34  H9  UNL     1      -3.518  -2.204  -4.265  1.00  0.00     0.164 HD
ENDBRANCH   8  29
BRANCH   4  35
HETATM   35  C13 UNL     1      -4.833   0.345   1.057  1.00  0.00     0.239 C 
BRANCH  35  36
HETATM   36  C14 UNL     1      -5.755   0.662  -0.057  1.00  0.00     0.048 C 
BRANCH  36  37
HETATM   37  C15 UNL     1      -7.189   0.839   0.476  1.00  0.00     0.123 C 
BRANCH  37  38
HETATM   38  N6  UNL     1      -8.126   1.144  -0.564  1.00  0.00    -0.367 N 
HETATM   39  C16 UNL     1      -9.183   0.440  -0.711  1.00  0.00     0.196 C 
HETATM   40  N7  UNL     1      -9.423  -0.649   0.161  1.00  0.00    -0.067 NA
HETATM   41  N8  UNL     1     -10.096   0.758  -1.730  1.00  0.00    -0.067 NA
ATOM     42  H6  UNL     1      -7.949   1.928  -1.192  1.00  0.00     0.161 HD
ENDBRANCH  37  38
ENDBRANCH  36  37
ENDBRANCH  35  36
ENDBRANCH   4  35
TORSDOF 18
