REMARK  6 active torsions:
REMARK  status: ('A' for Active; 'I' for Inactive)
REMARK    1  A    between atoms: C2_2  and  C3_3 
REMARK    2  A    between atoms: C6_6  and  N1_7 
REMARK    3  A    between atoms: N1_7  and  C7_9 
REMARK    4  A    between atoms: C9_11  and  C10_12 
REMARK    5  A    between atoms: C11_17  and  C12_18 
REMARK    6  A    between atoms: C15_25  and  N6_26 
ROOT
HETATM    1  C7  UNL     1       0.418  -0.746   0.111  1.00  0.00     0.119 A 
HETATM    2  C8  UNL     1      -0.151   0.490   0.013  1.00  0.00     0.082 A 
HETATM    3  C9  UNL     1      -1.500   0.714   0.134  1.00  0.00     0.098 A 
HETATM    4  N5  UNL     1      -2.309  -0.334   0.363  1.00  0.00    -0.188 N 
ATOM      5  H5  UNL     1      -3.315  -0.194   0.458  1.00  0.00     0.184 HD
HETATM    6  C15 UNL     1      -1.786  -1.569   0.467  1.00  0.00     0.682 A 
HETATM    7  N7  UNL     1      -0.468  -1.771   0.345  1.00  0.00    -0.177 N 
ATOM      8  H7  UNL     1      -0.108  -2.721   0.429  1.00  0.00     0.185 HD
ENDROOT
BRANCH   3   9
HETATM    9  C10 UNL     1      -2.099   2.033  -0.010  1.00  0.00     0.149 A 
HETATM   10  N2  UNL     1      -1.375   3.140  -0.232  1.00  0.00    -0.282 N 
HETATM   11  N3  UNL     1      -2.205   4.155  -0.342  1.00  0.00    -0.287 N 
ATOM     12  H2  UNL     1      -0.359   3.187  -0.303  1.00  0.00     0.188 HD
HETATM   13  C11 UNL     1      -3.459   3.701  -0.192  1.00  0.00     0.101 A 
ATOM     14  H3  UNL     1      -1.940   5.125  -0.513  1.00  0.00     0.188 HD
HETATM   15  N4  UNL     1      -3.411   2.353   0.020  1.00  0.00    -0.328 N 
ATOM     16  H4  UNL     1      -4.198   1.722   0.169  1.00  0.00     0.169 HD
BRANCH  13  17
HETATM   17  C12 UNL     1      -4.665   4.552  -0.246  1.00  0.00     0.055 A 
HETATM   18  C13 UNL     1      -4.422   6.012  -0.584  1.00  0.00     0.013 A 
HETATM   19  C14 UNL     1      -4.899   5.589   0.799  1.00  0.00     0.013 A 
ENDBRANCH  13  17
ENDBRANCH   3   9
BRANCH   1  20
HETATM   20  N1  UNL     1       1.616  -1.026   0.017  1.00  0.00    -0.371 N 
ATOM     21  H1  UNL     1       1.747  -2.031   0.133  1.00  0.00     0.161 HD
BRANCH  20  22
HETATM   22  C6  UNL     1       2.840  -0.413  -0.196  1.00  0.00     0.083 C 
HETATM   23  C5  UNL     1       3.792  -1.508  -0.744  1.00  0.00     0.025 C 
HETATM   24  C4  UNL     1       5.168  -0.988  -0.475  1.00  0.00     0.006 C 
HETATM   25  C3  UNL     1       5.394   0.253  -1.267  1.00  0.00    -0.015 C 
HETATM   26  C22 UNL     1       4.203   0.899  -1.859  1.00  0.00     0.006 C 
HETATM   27  C21 UNL     1       2.922   0.794  -1.068  1.00  0.00     0.025 C 
BRANCH  25  28
HETATM   28  C2  UNL     1       6.240   1.182  -0.388  1.00  0.00     0.000 C 
HETATM   29  C1  UNL     1       7.535   0.404  -0.124  1.00  0.00     0.005 C 
ENDBRANCH  25  28
ENDBRANCH  20  22
ENDBRANCH   1  20
BRANCH   6  30
HETATM   30  N6  UNL     1      -2.684  -2.635   0.748  1.00  0.00    -0.218 N 
HETATM   31  C16 UNL     1      -2.704  -3.128   2.104  1.00  0.00     0.141 C 
HETATM   32  C17 UNL     1      -3.420  -4.455   2.250  1.00  0.00     0.020 C 
HETATM   33  C18 UNL     1      -4.638  -4.499   1.371  1.00  0.00     0.003 C 
HETATM   34  C19 UNL     1      -4.146  -4.459  -0.062  1.00  0.00     0.020 C 
HETATM   35  C20 UNL     1      -3.504  -3.138  -0.317  1.00  0.00     0.141 C 
ENDBRANCH   6  30
TORSDOF 6
