REMARK  6 active torsions:
REMARK  status: ('A' for Active; 'I' for Inactive)
REMARK    1  A    between atoms: C2_2  and  C4_4 
REMARK    2  A    between atoms: C6_9  and  N2_10 
REMARK       I    between atoms: N2_10  and  C7_12 
REMARK       I    between atoms: C7_12  and  N3_14 
REMARK    3  A    between atoms: N3_14  and  C8_16 
REMARK    4  A    between atoms: C8_16  and  C9_17 
REMARK    5  A    between atoms: C9_17  and  C10_18 
REMARK    6  A    between atoms: N4_21  and  C13_22 
ROOT
HETATM    1  N2  UNL     1       1.923   2.127  -0.192  1.00  0.00    -0.289 N 
ATOM      2  H2  UNL     1       1.625   2.966  -0.689  1.00  0.00     0.172 HD
HETATM    3  C7  UNL     1       1.027   1.341   0.587  1.00  0.00     0.322 C 
HETATM    4  O1  UNL     1       1.144   1.267   1.836  1.00  0.00    -0.247 OA
HETATM    5  N3  UNL     1      -0.021   0.622  -0.032  1.00  0.00    -0.343 N 
ATOM      6  H3  UNL     1      -0.134   0.668  -1.045  1.00  0.00     0.164 HD
ENDROOT
BRANCH   1   7
HETATM    7  C6  UNL     1       3.174   1.687  -0.224  1.00  0.00     0.155 A 
HETATM    8  S1  UNL     1       3.848   0.322   0.533  1.00  0.00    -0.033 SA
HETATM    9  C5  UNL     1       5.496   0.511  -0.038  1.00  0.00     0.112 A 
HETATM   10  N1  UNL     1       6.686  -0.076   0.046  1.00  0.00    -0.345 N 
HETATM   11  C18 UNL     1       5.384   1.632  -0.778  1.00  0.00     0.112 A 
HETATM   12  C4  UNL     1       7.711   0.434  -0.580  1.00  0.00     0.057 A 
ATOM     13  H1  UNL     1       6.798  -0.925   0.600  1.00  0.00     0.167 HD
HETATM   14  S2  UNL     1       7.036   1.802  -1.338  1.00  0.00    -0.056 SA
HETATM   15  N5  UNL     1       4.191   2.221  -0.863  1.00  0.00    -0.328 N 
ATOM     16  H5  UNL     1       4.070   3.071  -1.414  1.00  0.00     0.168 HD
BRANCH  12  17
HETATM   17  C2  UNL     1       9.139  -0.070  -0.617  1.00  0.00     0.035 C 
HETATM   18  C1  UNL     1       9.777  -0.003   0.752  1.00  0.00     0.016 C 
HETATM   19  C3  UNL     1       9.063  -1.493  -1.129  1.00  0.00     0.016 C 
ENDBRANCH  12  17
ENDBRANCH   1   7
BRANCH   5  20
HETATM   20  C8  UNL     1      -0.929  -0.172   0.748  1.00  0.00     0.125 C 
BRANCH  20  21
HETATM   21  C9  UNL     1      -1.970  -0.861  -0.078  1.00  0.00     0.024 C 
BRANCH  21  22
HETATM   22  C10 UNL     1      -2.849   0.055  -0.866  1.00  0.00    -0.010 C 
HETATM   23  C11 UNL     1      -3.850  -0.754  -1.653  1.00  0.00     0.035 C 
HETATM   24  C12 UNL     1      -4.956  -1.295  -0.774  1.00  0.00     0.273 C 
HETATM   25  N4  UNL     1      -5.359  -0.349   0.236  1.00  0.00     0.092 N 
HETATM   26  C16 UNL     1      -4.998   0.994  -0.191  1.00  0.00     0.273 C 
HETATM   27  C17 UNL     1      -3.485   1.102  -0.012  1.00  0.00     0.035 C 
BRANCH  25  28
HETATM   28  C13 UNL     1      -6.756  -0.369   0.533  1.00  0.00     0.215 C 
HETATM   29  C14 UNL     1      -7.219  -1.693   1.100  1.00  0.00     0.042 C 
HETATM   30  C15 UNL     1      -7.649   0.039  -0.594  1.00  0.00     0.042 C 
ENDBRANCH  25  28
ENDBRANCH  21  22
ENDBRANCH  20  21
ENDBRANCH   5  20
TORSDOF 6
