REMARK  11 active torsions:
REMARK  status: ('A' for Active; 'I' for Inactive)
REMARK    1  A    between atoms: C2_2  and  C3_3 
REMARK    2  A    between atoms: C3_3  and  C4_4 
REMARK    3  A    between atoms: C4_4  and  C5_5 
REMARK    4  A    between atoms: C5_5  and  C6_6 
REMARK    5  A    between atoms: C6_6  and  C7_7 
REMARK    6  A    between atoms: C8_8  and  C9_9 
REMARK    7  A    between atoms: C9_9  and  C10_10 
REMARK    8  A    between atoms: N3_18  and  N4_19 
REMARK    9  A    between atoms: N4_19  and  C14_21 
REMARK   10  A    between atoms: C14_21  and  N5_23 
REMARK   11  A    between atoms: N5_23  and  C15_25 
ROOT
HETATM    1  C10 UNL     1       1.011   1.182  -0.402  1.00  0.00     0.010 C 
HETATM    2  C11 UNL     1      -0.263   1.179  -0.135  1.00  0.00     0.075 C 
HETATM    3  S1  UNL     1      -1.059   2.235   1.144  1.00  0.00    -0.046 SA
HETATM    4  C12 UNL     1      -2.658   2.226   0.339  1.00  0.00     0.183 C 
HETATM    5  N1  UNL     1      -3.542   3.127   0.447  1.00  0.00    -0.272 N 
ATOM      6  H1  UNL     1      -4.409   2.988  -0.072  1.00  0.00     0.180 HD
HETATM    7  C13 UNL     1      -3.442   4.277   1.199  1.00  0.00     0.183 C 
HETATM    8  N2  UNL     1      -3.369   5.228   1.840  1.00  0.00    -0.172 NA
HETATM    9  N3  UNL     1      -2.659   1.027  -0.398  1.00  0.00    -0.193 N 
HETATM   10  C19 UNL     1      -1.411   0.464  -0.654  1.00  0.00     0.285 C 
HETATM   11  O1  UNL     1      -1.248  -0.633  -1.314  1.00  0.00    -0.265 OA
ENDROOT
BRANCH   9  12
HETATM   12  N4  UNL     1      -3.874   0.443  -0.855  1.00  0.00    -0.265 N 
ATOM     13  H4  UNL     1      -3.979   0.263  -1.853  1.00  0.00     0.190 HD
BRANCH  12  14
HETATM   14  C14 UNL     1      -4.939   0.101   0.003  1.00  0.00     0.187 C 
HETATM   15  S2  UNL     1      -4.827   0.365   1.630  1.00  0.00    -0.040 SA
BRANCH  14  16
HETATM   16  N5  UNL     1      -6.140  -0.482  -0.503  1.00  0.00    -0.358 N 
ATOM     17  H5  UNL     1      -6.227  -0.655  -1.505  1.00  0.00     0.162 HD
BRANCH  16  18
HETATM   18  C15 UNL     1      -7.238  -0.834   0.374  1.00  0.00     0.021 C 
HETATM   19  C16 UNL     1      -8.329  -1.456  -0.504  1.00  0.00     0.037 C 
HETATM   20  C17 UNL     1      -7.810   0.401   1.059  1.00  0.00     0.037 C 
HETATM   21  C18 UNL     1      -6.834  -1.810   1.450  1.00  0.00     0.037 C 
ENDBRANCH  16  18
ENDBRANCH  14  16
ENDBRANCH  12  14
ENDBRANCH   9  12
BRANCH   1  22
HETATM   22  C9  UNL     1       1.718   0.375  -1.401  1.00  0.00     0.122 C 
BRANCH  22  23
HETATM   23  C8  UNL     1       2.766  -0.476  -0.778  1.00  0.00    -0.103 C 
HETATM   24  C7  UNL     1       3.636  -1.159  -0.285  1.00  0.00    -0.106 C 
BRANCH  24  25
HETATM   25  C6  UNL     1       4.705  -1.967   0.302  1.00  0.00     0.094 C 
BRANCH  25  26
HETATM   26  C5  UNL     1       6.051  -1.343  -0.131  1.00  0.00     0.012 C 
BRANCH  26  27
HETATM   27  C4  UNL     1       6.079   0.064   0.386  1.00  0.00     0.001 C 
BRANCH  27  28
HETATM   28  C3  UNL     1       7.256   0.884   0.056  1.00  0.00    -0.000 C 
BRANCH  28  29
HETATM   29  C2  UNL     1       8.601   0.463   0.506  1.00  0.00    -0.005 C 
HETATM   30  C1  UNL     1       9.134  -0.825   0.001  1.00  0.00     0.005 C 
ENDBRANCH  28  29
ENDBRANCH  27  28
ENDBRANCH  26  27
ENDBRANCH  25  26
ENDBRANCH  24  25
ENDBRANCH  22  23
ENDBRANCH   1  22
TORSDOF 11
