REMARK  5 active torsions:
REMARK  status: ('A' for Active; 'I' for Inactive)
REMARK    1  A    between atoms: N2_14  and  C13_16 
REMARK    2  A    between atoms: C13_16  and  C14_17 
REMARK    3  A    between atoms: C14_17  and  C15_18 
REMARK    4  A    between atoms: C15_18  and  N3_19 
REMARK    5  A    between atoms: C16_21  and  C17_23 
ROOT
HETATM    1  C1  UNL     1      -4.263  -2.292  -1.072  1.00  0.00     0.011 C 
HETATM    2  C2  UNL     1      -3.268  -1.157  -0.776  1.00  0.00     0.005 C 
HETATM    3  C3  UNL     1      -3.873   0.082  -1.371  1.00  0.00     0.010 C 
HETATM    4  C4  UNL     1      -3.036   1.296  -1.371  1.00  0.00    -0.012 C 
HETATM    5  C5  UNL     1      -3.226   2.177  -0.156  1.00  0.00     0.015 C 
HETATM    6  C6  UNL     1      -2.491   1.327   0.891  1.00  0.00    -0.029 C 
HETATM    7  C7  UNL     1      -2.251   2.219   2.091  1.00  0.00     0.016 C 
HETATM    8  C8  UNL     1      -3.412   0.248   1.290  1.00  0.00     0.035 C 
HETATM    9  C9  UNL     1      -3.114  -1.102   0.705  1.00  0.00     0.058 C 
HETATM   10  C10 UNL     1      -3.984  -2.070   1.409  1.00  0.00     0.070 C 
HETATM   11  N1  UNL     1      -4.655  -2.842   1.955  1.00  0.00    -0.196 NA
HETATM   12  C11 UNL     1      -1.696  -1.444   1.110  1.00  0.00     0.078 C 
HETATM   13  C12 UNL     1      -0.816  -0.450   0.388  1.00  0.00    -0.007 C 
HETATM   14  N2  UNL     1       0.279  -0.883  -0.007  1.00  0.00    -0.396 N 
ATOM     15  H2  UNL     1       0.392  -1.867   0.236  1.00  0.00     0.159 HD
HETATM   16  C20 UNL     1      -1.239   0.932   0.167  1.00  0.00     0.002 C 
HETATM   17  C21 UNL     1      -0.096   1.856   0.535  1.00  0.00     0.022 C 
HETATM   18  C22 UNL     1      -1.555   1.048  -1.328  1.00  0.00     0.020 C 
ENDROOT
BRANCH  14  19
HETATM   19  C13 UNL     1       1.383  -0.410  -0.680  1.00  0.00     0.121 C 
BRANCH  19  20
HETATM   20  C14 UNL     1       2.193  -1.644  -1.136  1.00  0.00     0.039 C 
BRANCH  20  21
HETATM   21  C15 UNL     1       3.414  -1.169  -1.879  1.00  0.00     0.122 C 
BRANCH  21  22
HETATM   22  N3  UNL     1       4.184  -0.353  -0.965  1.00  0.00    -0.376 N 
HETATM   23  C16 UNL     1       5.271  -0.789  -0.499  1.00  0.00     0.146 C 
HETATM   24  N4  UNL     1       5.769  -2.059  -0.842  1.00  0.00    -0.080 NA
ATOM     25  H3  UNL     1       3.848   0.572  -0.699  1.00  0.00     0.160 HD
BRANCH  23  26
HETATM   26  C17 UNL     1       6.055   0.039   0.431  1.00  0.00     0.115 A 
HETATM   27  N5  UNL     1       5.786   1.253   0.891  1.00  0.00    -0.357 N 
HETATM   28  C18 UNL     1       6.599   1.832   1.710  1.00  0.00     0.096 A 
ATOM     29  H5  UNL     1       4.934   1.731   0.597  1.00  0.00     0.166 HD
HETATM   30  C19 UNL     1       7.734   1.147   2.077  1.00  0.00     0.069 A 
HETATM   31  S1  UNL     1       7.550  -0.309   1.202  1.00  0.00    -0.080 SA
ENDBRANCH  23  26
ENDBRANCH  21  22
ENDBRANCH  20  21
ENDBRANCH  19  20
ENDBRANCH  14  19
TORSDOF 5
