REMARK  8 active torsions:
REMARK  status: ('A' for Active; 'I' for Inactive)
REMARK    1  A    between atoms: C5_5  and  N1_6 
REMARK    2  A    between atoms: N1_6  and  C6_8 
REMARK    3  A    between atoms: C6_8  and  N2_10 
REMARK    4  A    between atoms: N2_10  and  N3_12 
REMARK    5  A    between atoms: N3_12  and  C7_14 
REMARK    6  A    between atoms: C7_14  and  C8_15 
REMARK    7  A    between atoms: C11_19  and  C12_20 
REMARK    8  A    between atoms: C16_24  and  N4_25 
ROOT
HETATM    1  N3  UNL     1      -0.202   0.958  -0.291  1.00  0.00    -0.262 N 
ATOM      2  H3  UNL     1      -0.861   0.305   0.133  1.00  0.00     0.197 HD
ENDROOT
BRANCH   1   3
HETATM    3  N2  UNL     1      -0.809   2.101  -0.806  1.00  0.00    -0.269 N 
ATOM      4  H2  UNL     1      -0.194   2.739  -1.311  1.00  0.00     0.190 HD
BRANCH   3   5
HETATM    5  C6  UNL     1      -2.146   2.489  -0.723  1.00  0.00     0.187 C 
HETATM    6  S1  UNL     1      -2.464   3.988  -1.416  1.00  0.00    -0.040 SA
BRANCH   5   7
HETATM    7  N1  UNL     1      -3.193   1.783  -0.156  1.00  0.00    -0.361 N 
ATOM      8  H1  UNL     1      -4.101   2.247  -0.130  1.00  0.00     0.162 HD
BRANCH   7   9
HETATM    9  C5  UNL     1      -3.127   0.485   0.389  1.00  0.00     0.088 C 
HETATM   10  C4  UNL     1      -3.058  -0.464  -0.832  1.00  0.00     0.026 C 
HETATM   11  C3  UNL     1      -4.555  -0.565  -1.133  1.00  0.00     0.007 C 
HETATM   12  C2  UNL     1      -5.115  -0.856   0.244  1.00  0.00    -0.013 C 
HETATM   13  C1  UNL     1      -4.914  -2.329   0.540  1.00  0.00     0.010 C 
HETATM   14  C17 UNL     1      -4.307   0.016   1.170  1.00  0.00     0.008 C 
HETATM   15  C18 UNL     1      -5.163   1.093   1.754  1.00  0.00     0.012 C 
ENDBRANCH   7   9
ENDBRANCH   5   7
ENDBRANCH   3   5
ENDBRANCH   1   3
BRANCH   1  16
HETATM   16  C7  UNL     1       0.915   0.590  -0.244  1.00  0.00    -0.011 C 
BRANCH  16  17
HETATM   17  C8  UNL     1       2.237   0.144  -0.182  1.00  0.00     0.063 A 
HETATM   18  C9  UNL     1       2.560  -1.203   0.004  1.00  0.00     0.048 A 
HETATM   19  C10 UNL     1       3.818  -1.739  -0.118  1.00  0.00     0.042 A 
HETATM   20 CL1  UNL     1       4.149  -3.438   0.140  1.00  0.00    -0.084 Cl
HETATM   21  C11 UNL     1       4.890  -0.900  -0.452  1.00  0.00    -0.030 A 
HETATM   22  C15 UNL     1       4.596   0.404  -0.634  1.00  0.00     0.047 A 
HETATM   23  C16 UNL     1       3.327   0.959  -0.513  1.00  0.00     0.123 A 
BRANCH  21  24
HETATM   24  C12 UNL     1       6.248  -1.417  -0.583  1.00  0.00     0.020 A 
HETATM   25  C13 UNL     1       7.394  -0.441  -0.774  1.00  0.00     0.010 A 
HETATM   26  C14 UNL     1       7.276  -1.299   0.485  1.00  0.00     0.010 A 
ENDBRANCH  21  24
BRANCH  23  27
HETATM   27  N4  UNL     1       3.172   2.349  -0.721  1.00  0.00    -0.114 N 
HETATM   28  O1  UNL     1       3.896   2.955  -1.562  1.00  0.00    -0.532 OA
HETATM   29  O2  UNL     1       2.253   3.095  -0.047  1.00  0.00    -0.532 OA
ENDBRANCH  23  27
ENDBRANCH  16  17
ENDBRANCH   1  16
TORSDOF 8
