REMARK  5 active torsions:
REMARK  status: ('A' for Active; 'I' for Inactive)
REMARK       I    between atoms: C1_2  and  N1_3 
REMARK    1  A    between atoms: C1_2  and  C14_17 
REMARK    2  A    between atoms: N1_3  and  C2_5 
REMARK    3  A    between atoms: C5_8  and  C6_9 
REMARK    4  A    between atoms: C6_9  and  C7_10 
REMARK    5  A    between atoms: C17_21  and  N2_22 
ROOT
HETATM    1  O1  UNL     1       0.991   0.669   1.370  1.00  0.00    -0.267 OA
HETATM    2  C1  UNL     1       1.785  -0.333   1.196  1.00  0.00     0.257 C 
HETATM    3  N1  UNL     1       1.145  -1.511   0.751  1.00  0.00    -0.352 N 
ATOM      4  H1  UNL     1       1.676  -2.365   0.581  1.00  0.00     0.163 HD
ENDROOT
BRANCH   2   5
HETATM    5  C14 UNL     1       3.176  -0.113   1.474  1.00  0.00     0.097 A 
HETATM    6  C15 UNL     1       4.153  -1.073   1.295  1.00  0.00     0.136 A 
HETATM    7  F1  UNL     1       3.847  -2.322   0.856  1.00  0.00    -0.205 F 
HETATM    8  C16 UNL     1       5.492  -0.779   1.562  1.00  0.00     0.080 A 
HETATM    9  C17 UNL     1       5.844   0.451   2.000  1.00  0.00     0.114 A 
HETATM   10  C18 UNL     1       4.900   1.437   2.191  1.00  0.00     0.004 A 
HETATM   11  C19 UNL     1       3.577   1.152   1.930  1.00  0.00     0.055 A 
HETATM   12  C21 UNL     1       5.060   2.848   2.646  1.00  0.00     0.063 C 
HETATM   13  N3  UNL     1       2.851   2.327   2.233  1.00  0.00    -0.388 N 
HETATM   14  C20 UNL     1       3.769   3.465   2.135  1.00  0.00     0.124 C 
ATOM     15  H3  UNL     1       1.862   2.374   2.477  1.00  0.00     0.159 HD
BRANCH   9  16
HETATM   16  N2  UNL     1       7.197   0.752   2.273  1.00  0.00    -0.115 N 
HETATM   17  O2  UNL     1       7.507   1.565   3.156  1.00  0.00    -0.532 OA
HETATM   18  O3  UNL     1       8.176   0.132   1.544  1.00  0.00    -0.532 OA
ENDBRANCH   9  16
ENDBRANCH   2   5
BRANCH   3  19
HETATM   19  C2  UNL     1      -0.300  -1.468   0.542  1.00  0.00     0.085 C 
HETATM   20  C3  UNL     1      -1.038  -2.446   1.402  1.00  0.00     0.025 C 
HETATM   21  C4  UNL     1      -2.428  -2.370   0.746  1.00  0.00     0.007 C 
HETATM   22  C5  UNL     1      -2.051  -2.417  -0.717  1.00  0.00    -0.012 C 
HETATM   23  C13 UNL     1      -0.672  -1.897  -0.853  1.00  0.00     0.029 C 
BRANCH  22  24
HETATM   24  C6  UNL     1      -3.088  -1.951  -1.644  1.00  0.00     0.009 C 
BRANCH  24  25
HETATM   25  C7  UNL     1      -3.613  -0.580  -1.549  1.00  0.00    -0.014 C 
HETATM   26  C8  UNL     1      -2.619   0.535  -1.744  1.00  0.00     0.005 C 
HETATM   27  C9  UNL     1      -3.353   1.850  -1.998  1.00  0.00     0.000 C 
HETATM   28  C10 UNL     1      -4.802   1.770  -1.557  1.00  0.00     0.000 C 
HETATM   29  C11 UNL     1      -5.505   0.789  -2.451  1.00  0.00     0.000 C 
HETATM   30  C12 UNL     1      -4.629  -0.415  -2.695  1.00  0.00     0.005 C 
ENDBRANCH  24  25
ENDBRANCH  22  24
ENDBRANCH   3  19
TORSDOF 5
