REMARK  6 active torsions:
REMARK  status: ('A' for Active; 'I' for Inactive)
REMARK    1  A    between atoms: O1_2  and  C2_3 
REMARK    2  A    between atoms: C2_3  and  C3_4 
REMARK    3  A    between atoms: C4_5  and  C5_6 
REMARK    4  A    between atoms: C5_6  and  N1_7 
REMARK    5  A    between atoms: N1_7  and  C6_10 
REMARK    6  A    between atoms: C16_20  and  O2_21 
ROOT
HETATM    1  C3  UNL     1       2.319  -0.223   0.431  1.00  0.00     0.010 A 
HETATM    2  C4  UNL     1       1.315   0.298  -0.435  1.00  0.00     0.012 A 
HETATM    3  C16 UNL     1       1.713   0.958  -1.538  1.00  0.00     0.074 A 
HETATM    4  C17 UNL     1       3.053   1.149  -1.862  1.00  0.00     0.047 A 
HETATM    5  C18 UNL     1       4.032   0.664  -1.054  1.00  0.00    -0.021 A 
HETATM    6  C19 UNL     1       3.632  -0.025   0.102  1.00  0.00     0.086 A 
HETATM    7  O3  UNL     1       4.728  -0.461   0.858  1.00  0.00    -0.330 OA
HETATM    8  C20 UNL     1       5.824   0.392   1.120  1.00  0.00     0.225 C 
HETATM    9 CL1  UNL     1       7.098  -0.573   1.905  1.00  0.00    -0.095 Cl
HETATM   10  C21 UNL     1       6.320   1.075  -0.129  1.00  0.00     0.053 C 
HETATM   11  C22 UNL     1       5.472   0.815  -1.323  1.00  0.00     0.045 C 
ENDROOT
BRANCH   2  12
HETATM   12  C5  UNL     1      -0.073   0.046  -0.004  1.00  0.00     0.275 C 
BRANCH  12  13
HETATM   13  N1  UNL     1      -1.066   0.569  -0.916  1.00  0.00    -0.062 N 
ATOM     14  H12 UNL     1      -0.918   1.556  -1.125  1.00  0.00     0.278 HD
ATOM     15  H11 UNL     1      -0.954   0.203  -1.862  1.00  0.00     0.278 HD
BRANCH  13  16
HETATM   16  C6  UNL     1      -2.397   0.310  -0.375  1.00  0.00     0.127 C 
HETATM   17  C7  UNL     1      -2.664   0.984   0.926  1.00  0.00     0.043 C 
HETATM   18  C8  UNL     1      -4.124   0.790   1.281  1.00  0.00    -0.012 C 
HETATM   19  C9  UNL     1      -5.063   1.339   0.253  1.00  0.00     0.009 C 
HETATM   20  C13 UNL     1      -4.412  -0.678   1.452  1.00  0.00     0.009 C 
HETATM   21  C10 UNL     1      -4.793   0.631  -1.051  1.00  0.00    -0.012 C 
HETATM   22  C11 UNL     1      -5.010  -0.863  -0.933  1.00  0.00     0.009 C 
HETATM   23  C15 UNL     1      -3.365   0.859  -1.417  1.00  0.00     0.043 C 
HETATM   24  C12 UNL     1      -4.112  -1.371   0.147  1.00  0.00    -0.012 C 
HETATM   25  C14 UNL     1      -2.667  -1.171  -0.236  1.00  0.00     0.043 C 
ENDBRANCH  13  16
ENDBRANCH  12  13
ENDBRANCH   2  12
BRANCH   1  26
HETATM   26  C2  UNL     1       1.901  -0.853   1.675  1.00  0.00     0.209 C 
BRANCH  26  27
HETATM   27  O1  UNL     1       2.896  -1.492   2.355  1.00  0.00    -0.391 OA
HETATM   28  C1  UNL     1       3.178  -2.763   1.824  1.00  0.00     0.201 C 
ENDBRANCH  26  27
ENDBRANCH   1  26
BRANCH   3  29
HETATM   29  O2  UNL     1       0.738   1.476  -2.395  1.00  0.00    -0.360 OA
ATOM     30  H2  UNL     1       1.019   1.942  -3.174  1.00  0.00     0.217 HD
ENDBRANCH   3  29
TORSDOF 6
