REMARK  12 active torsions:
REMARK  status: ('A' for Active; 'I' for Inactive)
REMARK    1  A    between atoms: C2_2  and  N1_3 
REMARK    2  A    between atoms: C2_2  and  C14_29 
REMARK    3  A    between atoms: N1_3  and  N2_4 
REMARK       I    between atoms: N2_4  and  C3_6 
REMARK    4  A    between atoms: C3_6  and  C4_8 
REMARK    5  A    between atoms: C6_11  and  C7_12 
REMARK    6  A    between atoms: C7_12  and  C8_14 
REMARK    7  A    between atoms: C10_18  and  O3_19 
REMARK    8  A    between atoms: O3_19  and  C11_20 
REMARK    9  A    between atoms: C14_29  and  C16_31 
REMARK       I    between atoms: C16_31  and  N8_33 
REMARK       I    between atoms: N8_33  and  C17_35 
REMARK   10  A    between atoms: C17_35  and  C18_37 
REMARK   11  A    between atoms: C18_37  and  N9_38 
REMARK   12  A    between atoms: C19_39  and  O7_40 
ROOT
HETATM    1  C1  UNL     1      -2.650  -1.828  -3.217  1.00  0.00     0.083 C 
HETATM    2  C2  UNL     1      -1.923  -2.096  -1.905  1.00  0.00     0.095 C 
ENDROOT
BRANCH   2   3
HETATM    3  N1  UNL     1      -0.867  -1.660  -1.614  1.00  0.00    -0.331 NA
BRANCH   3   4
HETATM    4  N2  UNL     1       0.262  -1.203  -1.284  1.00  0.00    -0.198 N 
HETATM    5  C3  UNL     1       0.441   0.029  -0.545  1.00  0.00     0.297 C 
HETATM    6  O1  UNL     1      -0.585   0.655  -0.228  1.00  0.00    -0.263 OA
ATOM      7  H2  UNL     1       1.093  -1.730  -1.552  1.00  0.00     0.205 HD
BRANCH   5   8
HETATM    8  C4  UNL     1       1.806   0.508  -0.193  1.00  0.00     0.110 A 
HETATM    9  C5  UNL     1       1.960   1.692   0.487  1.00  0.00     0.087 A 
HETATM   10  S1  UNL     1       3.660   1.785   0.632  1.00  0.00    -0.078 SA
HETATM   11  C6  UNL     1       4.068   0.337  -0.167  1.00  0.00     0.128 A 
HETATM   12  N7  UNL     1       2.874  -0.146  -0.505  1.00  0.00    -0.342 N 
ATOM     13  H7  UNL     1       2.804  -1.030  -1.009  1.00  0.00     0.167 HD
BRANCH  11  14
HETATM   14  C7  UNL     1       5.383  -0.282  -0.455  1.00  0.00     0.240 C 
HETATM   15  O2  UNL     1       5.495  -1.247  -1.225  1.00  0.00    -0.282 OA
BRANCH  14  16
HETATM   16  C8  UNL     1       6.554   0.291   0.208  1.00  0.00     0.148 A 
HETATM   17  C9  UNL     1       6.667   0.990   1.384  1.00  0.00     0.133 A 
HETATM   18  N3  UNL     1       7.971   1.289   1.533  1.00  0.00    -0.323 N 
HETATM   19  C10 UNL     1       8.639   0.798   0.495  1.00  0.00     0.271 A 
ATOM     20  H3  UNL     1       8.378   1.806   2.312  1.00  0.00     0.169 HD
HETATM   21  O4  UNL     1       7.797   0.214  -0.276  1.00  0.00    -0.268 OA
BRANCH  19  22
HETATM   22  O3  UNL     1      10.004   0.860   0.221  1.00  0.00    -0.291 OA
BRANCH  22  23
HETATM   23  C11 UNL     1      10.921   1.512   1.074  1.00  0.00     0.262 C 
HETATM   24  N4  UNL     1      11.633   2.494   0.328  1.00  0.00    -0.095 NA
HETATM   25  N5  UNL     1      12.957   2.118   0.234  1.00  0.00    -0.037 NA
HETATM   26  N6  UNL     1      13.193   1.131   1.176  1.00  0.00    -0.121 NA
HETATM   27  C12 UNL     1      11.955   0.504   1.516  1.00  0.00     0.139 C 
HETATM   28  C13 UNL     1      11.763  -0.849   0.909  1.00  0.00     0.033 C 
ENDBRANCH  22  23
ENDBRANCH  19  22
ENDBRANCH  14  16
ENDBRANCH  11  14
ENDBRANCH   5   8
ENDBRANCH   3   4
ENDBRANCH   2   3
BRANCH   2  29
HETATM   29  C14 UNL     1      -2.653  -3.021  -0.934  1.00  0.00     0.136 C 
HETATM   30  C15 UNL     1      -2.713  -4.350  -1.705  1.00  0.00     0.027 C 
BRANCH  29  31
HETATM   31  C16 UNL     1      -4.014  -2.510  -0.750  1.00  0.00     0.234 C 
HETATM   32  O5  UNL     1      -4.992  -3.290  -1.013  1.00  0.00    -0.272 OA
HETATM   33  N8  UNL     1      -4.266  -1.185  -0.292  1.00  0.00    -0.296 N 
HETATM   34  C17 UNL     1      -5.598  -0.744  -0.152  1.00  0.00     0.242 C 
ATOM     35  H8  UNL     1      -3.491  -0.561  -0.068  1.00  0.00     0.171 HD
HETATM   36  O6  UNL     1      -6.537  -1.525  -0.417  1.00  0.00    -0.271 OA
BRANCH  34  37
HETATM   37  C18 UNL     1      -5.879   0.638   0.304  1.00  0.00     0.237 C 
BRANCH  37  38
HETATM   38  N9  UNL     1      -7.320   0.877   0.352  1.00  0.00    -0.284 N 
HETATM   39  C19 UNL     1      -7.910   1.342  -0.755  1.00  0.00     0.146 A 
HETATM   40  C20 UNL     1      -9.275   1.565  -0.701  1.00  0.00     0.075 A 
HETATM   41  C21 UNL     1      -9.973   1.306   0.466  1.00  0.00     0.069 A 
HETATM   42  C22 UNL     1     -11.332   1.518   0.544  1.00  0.00     0.262 A 
HETATM   43  C24 UNL     1      -9.335   0.825   1.591  1.00  0.00     0.121 A 
HETATM   44  O8  UNL     1     -11.940   1.959  -0.476  1.00  0.00    -0.267 OA
HETATM   45  N10 UNL     1     -12.007   1.257   1.699  1.00  0.00    -0.275 N 
HETATM   46  C23 UNL     1     -11.366   0.791   2.779  1.00  0.00     0.327 A 
ATOM     47  H10 UNL     1     -13.013   1.419   1.742  1.00  0.00     0.173 HD
HETATM   48  O9  UNL     1     -12.030   0.566   3.822  1.00  0.00    -0.247 OA
HETATM   49  N11 UNL     1     -10.030   0.577   2.714  1.00  0.00    -0.303 N 
ATOM     50  H11 UNL     1      -9.541   0.220   3.535  1.00  0.00     0.171 HD
HETATM   51  C25 UNL     1      -7.958   0.613   1.499  1.00  0.00     0.278 A 
HETATM   52  O10 UNL     1      -7.380   0.175   2.526  1.00  0.00    -0.265 OA
BRANCH  39  53
HETATM   53  O7  UNL     1      -7.229   1.608  -1.931  1.00  0.00    -0.346 OA
ATOM     54  H7  UNL     1      -7.648   1.938  -2.717  1.00  0.00     0.219 HD
ENDBRANCH  39  53
ENDBRANCH  37  38
ENDBRANCH  34  37
ENDBRANCH  29  31
ENDBRANCH   2  29
TORSDOF 12
