REMARK  20 active torsions:
REMARK  status: ('A' for Active; 'I' for Inactive)
REMARK    1  A    between atoms: O1_2  and  C2_3 
REMARK    2  A    between atoms: C2_3  and  C3_4 
REMARK    3  A    between atoms: C3_4  and  O2_5 
REMARK    4  A    between atoms: C3_4  and  C6_9 
REMARK    5  A    between atoms: O2_5  and  C4_6 
REMARK    6  A    between atoms: C6_9  and  O4_10 
REMARK    7  A    between atoms: C6_9  and  C7_12 
REMARK    8  A    between atoms: C7_12  and  C8_13 
REMARK    9  A    between atoms: C7_12  and  C11_19 
REMARK   10  A    between atoms: C8_13  and  O6_15 
REMARK   11  A    between atoms: O6_15  and  C9_16 
REMARK   12  A    between atoms: C11_19  and  O8_20 
REMARK   13  A    between atoms: C11_19  and  C12_22 
REMARK   14  A    between atoms: C13_24  and  N1_25 
REMARK   15  A    between atoms: N1_25  and  C14_27 
REMARK   16  A    between atoms: C14_27  and  O10_28 
REMARK   17  A    between atoms: C14_27  and  C15_30 
REMARK   18  A    between atoms: C16_31  and  N2_32 
REMARK   19  A    between atoms: N2_32  and  C17_34 
REMARK   20  A    between atoms: C24_50  and  O14_51 
ROOT
HETATM    1  N1  UNL     1      -1.925   0.706   1.307  1.00  0.00    -0.343 N 
ATOM      2  H1  UNL     1      -2.613   0.217   1.880  1.00  0.00     0.164 HD
ENDROOT
BRANCH   1   3
HETATM    3  C13 UNL     1      -0.855   1.385   1.969  1.00  0.00     0.233 C 
HETATM    4  O9  UNL     1       0.428   1.066   1.539  1.00  0.00    -0.348 OA
HETATM    5  C12 UNL     1       0.866  -0.157   1.953  1.00  0.00     0.215 C 
HETATM    6  S1  UNL     1      -0.227  -0.614   3.314  1.00  0.00    -0.130 SA
HETATM    7  C26 UNL     1      -0.887   1.147   3.451  1.00  0.00     0.130 C 
BRANCH   5   8
HETATM    8  C11 UNL     1       1.178  -1.135   0.940  1.00  0.00     0.173 C 
BRANCH   8   9
HETATM    9  C7  UNL     1       2.458  -0.758   0.129  1.00  0.00     0.149 C 
BRANCH   9  10
HETATM   10  C6  UNL     1       3.675  -1.077   0.994  1.00  0.00     0.166 C 
BRANCH  10  11
HETATM   11  C3  UNL     1       4.992  -0.816   0.327  1.00  0.00     0.185 C 
BRANCH  11  12
HETATM   12  C2  UNL     1       5.507   0.596   0.361  1.00  0.00     0.202 C 
BRANCH  12  13
HETATM   13  O1  UNL     1       6.857   0.521  -0.123  1.00  0.00    -0.393 OA
HETATM   14  C1  UNL     1       7.413   1.808  -0.082  1.00  0.00     0.201 C 
ENDBRANCH  12  13
ENDBRANCH  11  12
BRANCH  11  15
HETATM   15  O2  UNL     1       5.948  -1.617   1.115  1.00  0.00    -0.311 OA
BRANCH  15  16
HETATM   16  C4  UNL     1       6.696  -2.581   0.442  1.00  0.00     0.255 C 
HETATM   17  C5  UNL     1       7.626  -3.413   1.233  1.00  0.00     0.126 C 
HETATM   18  O3  UNL     1       6.546  -2.707  -0.791  1.00  0.00    -0.266 OA
ENDBRANCH  15  16
ENDBRANCH  11  15
ENDBRANCH  10  11
BRANCH  10  19
HETATM   19  O4  UNL     1       3.634  -2.530   1.123  1.00  0.00    -0.392 OA
ATOM     20  H4  UNL     1       2.799  -2.695   1.546  1.00  0.00     0.210 HD
ENDBRANCH  10  19
ENDBRANCH   9  10
BRANCH   9  21
HETATM   21  C8  UNL     1       2.450   0.668  -0.199  1.00  0.00     0.275 C 
HETATM   22  O5  UNL     1       2.717   1.608   0.632  1.00  0.00    -0.264 OA
BRANCH  21  23
HETATM   23  O6  UNL     1       2.137   1.129  -1.489  1.00  0.00    -0.245 OA
BRANCH  23  24
HETATM   24  C9  UNL     1       2.136   2.499  -1.764  1.00  0.00     0.262 C 
HETATM   25  C10 UNL     1       1.809   2.963  -3.115  1.00  0.00     0.126 C 
HETATM   26  O7  UNL     1       2.414   3.328  -0.860  1.00  0.00    -0.265 OA
ENDBRANCH  23  24
ENDBRANCH  21  23
ENDBRANCH   9  21
ENDBRANCH   8   9
BRANCH   8  27
HETATM   27  O8  UNL     1       1.358  -2.449   1.323  1.00  0.00    -0.391 OA
ATOM     28  H8  UNL     1       0.579  -2.678   1.816  1.00  0.00     0.210 HD
ENDBRANCH   8  27
ENDBRANCH   5   8
ENDBRANCH   1   3
BRANCH   1  29
HETATM   29  C14 UNL     1      -2.081   0.675  -0.080  1.00  0.00     0.153 C 
BRANCH  29  30
HETATM   30  O10 UNL     1      -1.094   1.328  -0.651  1.00  0.00    -0.345 OA
ATOM     31  H10 UNL     1      -1.200   1.307  -1.595  1.00  0.00     0.219 HD
ENDBRANCH  29  30
BRANCH  29  32
HETATM   32  C15 UNL     1      -3.056   0.118  -0.844  1.00  0.00     0.082 A 
HETATM   33  C16 UNL     1      -4.316  -0.453  -0.845  1.00  0.00     0.115 A 
HETATM   34  C21 UNL     1      -4.953  -1.162  -2.062  1.00  0.00     0.214 A 
HETATM   35  O12 UNL     1      -6.032  -1.743  -2.363  1.00  0.00    -0.287 OA
HETATM   36  C22 UNL     1      -4.097  -1.185  -3.181  1.00  0.00     0.281 A 
HETATM   37  O13 UNL     1      -3.399  -0.662  -2.578  1.00  0.00    -0.326 OA
HETATM   38  C25 UNL     1      -2.895  -1.028  -4.232  1.00  0.00     0.222 A 
HETATM   39  C23 UNL     1      -2.447  -0.119  -2.226  1.00  0.00     0.124 A 
HETATM   40  C24 UNL     1      -1.891  -0.305  -3.403  1.00  0.00     0.149 A 
HETATM   41  O15 UNL     1      -3.367  -1.550  -5.199  1.00  0.00    -0.287 OA
BRANCH  33  42
HETATM   42  N2  UNL     1      -4.923  -0.516   0.410  1.00  0.00    -0.187 N 
ATOM     43  H2  UNL     1      -4.460  -1.029   1.160  1.00  0.00     0.184 HD
BRANCH  42  44
HETATM   44  C17 UNL     1      -6.158   0.110   0.669  1.00  0.00     0.679 C 
HETATM   45  N3  UNL     1      -6.951  -0.581   1.432  1.00  0.00    -0.217 N 
HETATM   46  C18 UNL     1      -8.247  -0.444   1.984  1.00  0.00     0.241 C 
ATOM     47  H3  UNL     1      -6.522  -1.464   1.709  1.00  0.00     0.178 HD
HETATM   48  C19 UNL     1      -9.147   0.488   1.262  1.00  0.00     0.240 C 
HETATM   49  O11 UNL     1     -10.351   0.147   1.188  1.00  0.00    -0.271 OA
HETATM   50  N4  UNL     1      -8.846   1.717   0.637  1.00  0.00    -0.321 N 
HETATM   51  C20 UNL     1      -7.699   2.091   0.153  1.00  0.00     0.200 C 
ATOM     52  H4  UNL     1      -9.613   2.385   0.556  1.00  0.00     0.169 HD
HETATM   53  N5  UNL     1      -6.456   1.375   0.123  1.00  0.00    -0.188 N 
ATOM     54  H5  UNL     1      -5.687   1.843  -0.356  1.00  0.00     0.185 HD
ENDBRANCH  42  44
ENDBRANCH  33  42
BRANCH  40  55
HETATM   55  O14 UNL     1      -0.651   0.216  -3.415  1.00  0.00    -0.355 OA
ATOM     56  H14 UNL     1      -0.249   0.082  -4.265  1.00  0.00     0.218 HD
ENDBRANCH  40  55
ENDBRANCH  29  32
ENDBRANCH   1  29
TORSDOF 20
