REMARK  19 active torsions:
REMARK  status: ('A' for Active; 'I' for Inactive)
REMARK    1  A    between atoms: O1_2  and  C2_3 
REMARK    2  A    between atoms: C4_5  and  O2_6 
REMARK    3  A    between atoms: C7_10  and  O3_11 
REMARK       I    between atoms: N1_15  and  C9_16 
REMARK       I    between atoms: C9_16  and  N2_18 
REMARK    4  A    between atoms: N2_18  and  C10_20 
REMARK    5  A    between atoms: C10_20  and  C11_21 
REMARK    6  A    between atoms: C11_21  and  S1_22 
REMARK    7  A    between atoms: S1_22  and  C12_25 
REMARK    8  A    between atoms: C14_27  and  O8_28 
REMARK    9  A    between atoms: C15_30  and  O9_31 
REMARK   10  A    between atoms: C16_33  and  O10_34 
REMARK   11  A    between atoms: C18_36  and  N3_37 
REMARK   12  A    between atoms: C19_40  and  O13_41 
REMARK   13  A    between atoms: O13_41  and  C20_42 
REMARK   14  A    between atoms: C20_42  and  C21_43 
REMARK   15  A    between atoms: C20_42  and  C22_46 
REMARK   16  A    between atoms: C21_43  and  O14_44 
REMARK   17  A    between atoms: C22_46  and  O15_47 
REMARK   18  A    between atoms: C22_46  and  C23_49 
REMARK   19  A    between atoms: C23_49  and  O16_50 
ROOT
HETATM    1  C2  UNL     1      -4.349   4.393  -0.608  1.00  0.00     0.104 A 
HETATM    2  C3  UNL     1      -5.264   3.794   0.228  1.00  0.00     0.076 A 
HETATM    3  C4  UNL     1      -5.016   2.566   0.778  1.00  0.00     0.079 A 
HETATM    4  C5  UNL     1      -3.810   1.918   0.477  1.00  0.00     0.035 A 
HETATM    5  C6  UNL     1      -2.919   2.533  -0.356  1.00  0.00     0.081 A 
HETATM    6  C7  UNL     1      -3.158   3.780  -0.920  1.00  0.00     0.115 A 
HETATM    7  C8  UNL     1      -1.680   1.829  -0.692  1.00  0.00     0.267 C 
HETATM    8  O4  UNL     1      -0.853   2.369  -1.441  1.00  0.00    -0.267 OA
HETATM    9  N1  UNL     1      -1.475   0.493  -0.110  1.00  0.00    -0.234 N 
HETATM   10  C9  UNL     1      -0.150   0.148   0.159  1.00  0.00     0.327 C 
HETATM   11  O5  UNL     1       0.768   0.978  -0.227  1.00  0.00    -0.247 OA
HETATM   12  N2  UNL     1       0.372  -0.989   0.803  1.00  0.00    -0.342 N 
ATOM     13  H2  UNL     1      -0.298  -1.683   1.135  1.00  0.00     0.164 HD
HETATM   14  C19 UNL     1      -2.692  -0.256   0.148  1.00  0.00     0.278 C 
HETATM   15  C24 UNL     1      -3.504   0.613   1.076  1.00  0.00     0.157 A 
HETATM   16  C25 UNL     1      -3.020   0.552   2.512  1.00  0.00     0.217 A 
HETATM   17  O17 UNL     1      -4.282   0.139   2.079  1.00  0.00    -0.365 OA
ENDROOT
BRANCH  14  18
HETATM   18  O13 UNL     1      -2.451  -1.512   0.525  1.00  0.00    -0.352 OA
BRANCH  18  19
HETATM   19  C20 UNL     1      -3.000  -2.496  -0.327  1.00  0.00     0.178 C 
BRANCH  19  20
HETATM   20  C21 UNL     1      -3.975  -3.229   0.561  1.00  0.00     0.198 C 
BRANCH  20  21
HETATM   21  O14 UNL     1      -4.699  -4.226  -0.041  1.00  0.00    -0.398 OA
ATOM     22  H14 UNL     1      -5.313  -4.688   0.518  1.00  0.00     0.209 HD
ENDBRANCH  20  21
ENDBRANCH  19  20
BRANCH  19  23
HETATM   23  C22 UNL     1      -1.971  -3.434  -0.834  1.00  0.00     0.172 C 
BRANCH  23  24
HETATM   24  O15 UNL     1      -1.328  -4.196   0.136  1.00  0.00    -0.391 OA
ATOM     25  H15 UNL     1      -0.668  -4.797  -0.189  1.00  0.00     0.210 HD
ENDBRANCH  23  24
BRANCH  23  26
HETATM   26  C23 UNL     1      -2.520  -4.346  -1.886  1.00  0.00     0.198 C 
BRANCH  26  27
HETATM   27  O16 UNL     1      -3.231  -3.609  -2.860  1.00  0.00    -0.398 OA
ATOM     28  H16 UNL     1      -3.579  -4.188  -3.528  1.00  0.00     0.209 HD
ENDBRANCH  26  27
ENDBRANCH  23  26
ENDBRANCH  19  23
ENDBRANCH  18  19
ENDBRANCH  14  18
BRANCH  12  29
HETATM   29  C10 UNL     1       1.763  -1.260   1.034  1.00  0.00     0.140 C 
BRANCH  29  30
HETATM   30  C11 UNL     1       2.477  -0.237   1.891  1.00  0.00     0.165 C 
BRANCH  30  31
HETATM   31  S1  UNL     1       4.141  -0.696   2.125  1.00  0.00     0.179 S 
HETATM   32  O6  UNL     1       4.108  -2.000   2.919  1.00  0.00    -0.222 OA
HETATM   33  O7  UNL     1       4.760   0.293   3.111  1.00  0.00    -0.222 OA
BRANCH  31  34
HETATM   34  C12 UNL     1       5.165  -0.875   0.806  1.00  0.00     0.098 A 
HETATM   35  C13 UNL     1       5.733  -2.129   0.565  1.00  0.00     0.065 A 
HETATM   36  C14 UNL     1       6.579  -2.359  -0.505  1.00  0.00     0.103 A 
HETATM   37  C15 UNL     1       6.885  -1.345  -1.369  1.00  0.00     0.135 A 
HETATM   38  C16 UNL     1       6.329  -0.115  -1.135  1.00  0.00     0.139 A 
HETATM   39  C18 UNL     1       5.486   0.106  -0.065  1.00  0.00     0.160 A 
BRANCH  36  40
HETATM   40  O8  UNL     1       7.120  -3.621  -0.704  1.00  0.00    -0.358 OA
ATOM     41  H8  UNL     1       7.701  -3.779  -1.439  1.00  0.00     0.217 HD
ENDBRANCH  36  40
BRANCH  37  42
HETATM   42  O9  UNL     1       7.731  -1.567  -2.444  1.00  0.00    -0.356 OA
ATOM     43  H9  UNL     1       7.944  -0.862  -3.044  1.00  0.00     0.218 HD
ENDBRANCH  37  42
BRANCH  38  44
HETATM   44  O10 UNL     1       6.633   0.921  -2.006  1.00  0.00    -0.351 OA
HETATM   45  C17 UNL     1       7.744   1.742  -1.760  1.00  0.00     0.210 C 
ENDBRANCH  38  44
BRANCH  39  46
HETATM   46  N3  UNL     1       4.964   1.387   0.106  1.00  0.00    -0.111 N 
HETATM   47  O11 UNL     1       5.382   2.119   1.001  1.00  0.00    -0.532 OA
HETATM   48  O12 UNL     1       3.990   1.852  -0.718  1.00  0.00    -0.532 OA
ENDBRANCH  39  46
ENDBRANCH  31  34
ENDBRANCH  30  31
ENDBRANCH  29  30
ENDBRANCH  12  29
BRANCH   6  49
HETATM   49  O3  UNL     1      -2.196   4.321  -1.750  1.00  0.00    -0.357 OA
ATOM     50  H3  UNL     1      -1.373   3.898  -1.966  1.00  0.00     0.217 HD
ENDBRANCH   6  49
BRANCH   3  51
HETATM   51  O2  UNL     1      -5.890   1.900   1.629  1.00  0.00    -0.360 OA
ATOM     52  H2  UNL     1      -5.718   1.047   2.011  1.00  0.00     0.217 HD
ENDBRANCH   3  51
BRANCH   1  53
HETATM   53  O1  UNL     1      -4.612   5.651  -1.165  1.00  0.00    -0.353 OA
HETATM   54  C1  UNL     1      -5.853   6.292  -0.841  1.00  0.00     0.210 C 
ENDBRANCH   1  53
TORSDOF 19
