REMARK  17 active torsions:
REMARK  status: ('A' for Active; 'I' for Inactive)
REMARK    1  A    between atoms: C2_2  and  N1_3 
REMARK    2  A    between atoms: C2_2  and  C13_26 
REMARK    3  A    between atoms: N1_3  and  C3_4 
REMARK    4  A    between atoms: C3_4  and  O1_5 
REMARK    5  A    between atoms: C3_4  and  C4_7 
REMARK    6  A    between atoms: C7_10  and  N2_11 
REMARK    7  A    between atoms: C9_13  and  C10_14 
REMARK    8  A    between atoms: C11_21  and  N6_22 
REMARK       I    between atoms: C13_26  and  N7_28 
REMARK    9  A    between atoms: N7_28  and  C14_30 
REMARK   10  A    between atoms: C14_30  and  C15_31 
REMARK   11  A    between atoms: C14_30  and  C21_55 
REMARK       I    between atoms: C15_31  and  N8_33 
REMARK   12  A    between atoms: N8_33  and  N9_35 
REMARK   13  A    between atoms: C16_36  and  C17_37 
REMARK   14  A    between atoms: C17_37  and  S1_38 
REMARK   15  A    between atoms: S1_38  and  C18_39 
REMARK   16  A    between atoms: C21_55  and  N15_56 
REMARK   17  A    between atoms: C21_55  and  O8_60 
ROOT
HETATM    1  C14 UNL     1       1.178   0.226  -2.181  1.00  0.00     0.235 C 
ENDROOT
BRANCH   1   2
HETATM    2  N7  UNL     1       0.414  -0.009  -0.969  1.00  0.00    -0.338 N 
HETATM    3  C13 UNL     1       1.017  -0.592   0.188  1.00  0.00     0.278 C 
HETATM    4  O5  UNL     1       2.226  -0.908   0.108  1.00  0.00    -0.265 OA
ATOM      5  H7  UNL     1      -0.573   0.247  -0.943  1.00  0.00     0.163 HD
BRANCH   3   6
HETATM    6  C2  UNL     1       0.301  -0.833   1.433  1.00  0.00     0.151 C 
HETATM    7  C1  UNL     1       1.061  -1.494   2.561  1.00  0.00     0.091 C 
BRANCH   6   8
HETATM    8  N1  UNL     1      -0.859  -0.520   1.561  1.00  0.00    -0.379 NA
BRANCH   8   9
HETATM    9  C3  UNL     1      -1.997  -0.168   1.575  1.00  0.00     0.225 C 
BRANCH   9  10
HETATM   10  O1  UNL     1      -1.674   1.062   2.548  1.00  0.00    -0.335 OA
ATOM     11  H1  UNL     1      -2.582   1.343   2.559  1.00  0.00     0.220 HD
ENDBRANCH   9  10
BRANCH   9  12
HETATM   12  C4  UNL     1      -3.438   0.171   1.516  1.00  0.00     0.032 A 
HETATM   13  C5  UNL     1      -4.153  -0.719   0.646  1.00  0.00     0.019 A 
HETATM   14  C6  UNL     1      -5.500  -0.607   0.477  1.00  0.00     0.035 A 
HETATM   15  C7  UNL     1      -6.203   0.370   1.140  1.00  0.00     0.090 A 
HETATM   16  C11 UNL     1      -5.532   1.227   1.967  1.00  0.00     0.132 A 
HETATM   17  C12 UNL     1      -4.136   1.110   2.142  1.00  0.00     0.055 A 
BRANCH  15  18
HETATM   18  N2  UNL     1      -7.616   0.464   0.953  1.00  0.00    -0.248 N 
HETATM   19  C8  UNL     1      -8.608   0.024   1.720  1.00  0.00     0.154 A 
HETATM   20  C9  UNL     1      -9.817   0.323   1.133  1.00  0.00     0.132 A 
HETATM   21  N4  UNL     1      -9.481   0.967  -0.029  1.00  0.00    -0.280 N 
HETATM   22  N5  UNL     1      -8.175   1.031  -0.106  1.00  0.00    -0.235 N 
ATOM     23  H4  UNL     1     -10.137   1.335  -0.718  1.00  0.00     0.189 HD
ATOM     24  H5  UNL     1      -7.659   1.458  -0.875  1.00  0.00     0.209 HD
BRANCH  20  25
HETATM   25  C10 UNL     1     -11.165   0.046   1.598  1.00  0.00     0.284 C 
HETATM   26  N3  UNL     1     -11.441  -0.681   2.794  1.00  0.00    -0.056 NA
HETATM   27  O2  UNL     1     -12.137   0.452   0.914  1.00  0.00    -0.269 OA
ENDBRANCH  20  25
ENDBRANCH  15  18
BRANCH  16  28
HETATM   28  N6  UNL     1      -6.216   2.256   2.651  1.00  0.00    -0.113 N 
HETATM   29  O3  UNL     1      -7.225   2.758   2.141  1.00  0.00    -0.532 OA
HETATM   30  O4  UNL     1      -5.776   2.709   3.886  1.00  0.00    -0.532 OA
ENDBRANCH  16  28
ENDBRANCH   9  12
ENDBRANCH   8   9
ENDBRANCH   6   8
ENDBRANCH   3   6
ENDBRANCH   1   2
BRANCH   1  31
HETATM   31  C15 UNL     1       2.448   0.891  -1.699  1.00  0.00     0.263 C 
HETATM   32  O6  UNL     1       2.246   1.802  -0.817  1.00  0.00    -0.269 OA
HETATM   33  N8  UNL     1       3.728   0.602  -2.118  1.00  0.00    -0.256 N 
ATOM     34  H8  UNL     1       3.799  -0.152  -2.801  1.00  0.00     0.191 HD
BRANCH  33  35
HETATM   35  N9  UNL     1       4.935   1.180  -1.752  1.00  0.00    -0.187 N 
HETATM   36  C16 UNL     1       6.148   0.708  -2.149  1.00  0.00     0.133 A 
HETATM   37  N13 UNL     1       7.090   1.519  -1.661  1.00  0.00    -0.283 N 
HETATM   38  N14 UNL     1       6.526   2.465  -0.987  1.00  0.00    -0.248 N 
ATOM     39  H13 UNL     1       8.095   1.409  -1.799  1.00  0.00     0.188 HD
HETATM   40  C20 UNL     1       5.191   2.276  -1.032  1.00  0.00     0.361 A 
ATOM     41  H14 UNL     1       7.007   3.224  -0.504  1.00  0.00     0.192 HD
HETATM   42  O7  UNL     1       4.422   3.092  -0.437  1.00  0.00    -0.243 OA
BRANCH  36  43
HETATM   43  C17 UNL     1       6.418  -0.505  -2.958  1.00  0.00     0.161 C 
BRANCH  43  44
HETATM   44  S1  UNL     1       6.600  -1.957  -1.887  1.00  0.00    -0.096 SA
BRANCH  44  45
HETATM   45  C18 UNL     1       8.025  -1.772  -0.823  1.00  0.00     0.130 A 
HETATM   46  N10 UNL     1       8.019  -1.219   0.386  1.00  0.00    -0.286 N 
HETATM   47  N11 UNL     1       9.090  -1.123   1.061  1.00  0.00    -0.279 N 
ATOM     48  H10 UNL     1       7.144  -0.868   0.776  1.00  0.00     0.188 HD
HETATM   49  C19 UNL     1      10.227  -1.598   0.516  1.00  0.00     0.159 A 
ATOM     50  H11 UNL     1       9.090  -0.699   1.989  1.00  0.00     0.189 HD
HETATM   51  N12 UNL     1      11.429  -1.585   1.057  1.00  0.00    -0.379 N 
HETATM   52  S2  UNL     1       9.679  -2.178  -0.993  1.00  0.00    -0.027 SA
ATOM     53 2H12 UNL     1      11.756  -1.238   1.959  1.00  0.00     0.158 HD
ATOM     54 1H12 UNL     1      12.290  -1.945   0.644  1.00  0.00     0.158 HD
ENDBRANCH  44  45
ENDBRANCH  43  44
ENDBRANCH  36  43
ENDBRANCH  33  35
ENDBRANCH   1  31
BRANCH   1  55
HETATM   55  C21 UNL     1       1.350  -0.956  -3.032  1.00  0.00     0.348 C 
BRANCH  55  56
HETATM   56  N15 UNL     1       1.859  -0.546  -4.357  1.00  0.00    -0.051 N 
ATOM     57 3H15 UNL     1       1.266   0.159  -4.795  1.00  0.00     0.277 HD
ATOM     58 2H15 UNL     1       2.715   0.004  -4.286  1.00  0.00     0.277 HD
ATOM     59 1H15 UNL     1       1.979  -1.368  -4.949  1.00  0.00     0.277 HD
ENDBRANCH  55  56
BRANCH  55  60
HETATM   60  O8  UNL     1       0.035  -1.428  -3.349  1.00  0.00    -0.368 OA
ATOM     61  H8  UNL     1       0.146  -2.194  -3.900  1.00  0.00     0.212 HD
ENDBRANCH  55  60
ENDBRANCH   1  55
TORSDOF 17
