REMARK  14 active torsions:
REMARK  status: ('A' for Active; 'I' for Inactive)
REMARK       I    between atoms: C2_2  and  N1_4 
REMARK    1  A    between atoms: N1_4  and  C3_6 
REMARK    2  A    between atoms: C4_8  and  C5_9 
REMARK    3  A    between atoms: C5_9  and  C6_10 
REMARK    4  A    between atoms: C5_9  and  N5_36 
REMARK    5  A    between atoms: C6_10  and  C7_11 
REMARK    6  A    between atoms: C6_10  and  C16_30 
REMARK    7  A    between atoms: C8_14  and  C9_15 
REMARK    8  A    between atoms: C12_18  and  O3_19 
REMARK    9  A    between atoms: O3_19  and  S1_20 
REMARK   10  A    between atoms: C16_30  and  O7_31 
REMARK   11  A    between atoms: C16_30  and  C17_33 
REMARK   12  A    between atoms: C17_33  and  O8_34 
REMARK   13  A    between atoms: C18_39  and  C19_40 
REMARK       I    between atoms: C19_40  and  N7_42 
REMARK   14  A    between atoms: C21_46  and  N9_47 
ROOT
HETATM    1  C19 UNL     1      -4.873   5.095   0.023  1.00  0.00     0.286 C 
HETATM    2  O9  UNL     1      -4.529   5.875  -0.951  1.00  0.00    -0.265 OA
HETATM    3  N7  UNL     1      -5.964   5.518   0.768  1.00  0.00    -0.258 N 
ATOM      4  H7  UNL     1      -6.310   4.971   1.557  1.00  0.00     0.181 HD
HETATM    5  C20 UNL     1      -6.592   6.760   0.386  1.00  0.00     0.184 C 
HETATM    6  N8  UNL     1      -7.084   7.749   0.063  1.00  0.00    -0.172 NA
ENDROOT
BRANCH   1   7
HETATM    7  C18 UNL     1      -4.106   3.881   0.242  1.00  0.00     0.163 A 
HETATM    8  N6  UNL     1      -3.008   3.536  -0.505  1.00  0.00    -0.275 N 
HETATM    9  N5  UNL     1      -2.508   2.398  -0.103  1.00  0.00    -0.218 N 
ATOM     10  H6  UNL     1      -2.632   4.094  -1.272  1.00  0.00     0.189 HD
HETATM   11  N10 UNL     1      -3.248   1.977   0.894  1.00  0.00    -0.266 N 
HETATM   12  C21 UNL     1      -4.269   2.878   1.149  1.00  0.00     0.149 A 
ATOM     13  H10 UNL     1      -3.094   1.110   1.408  1.00  0.00     0.190 HD
BRANCH   9  14
HETATM   14  C5  UNL     1      -1.374   1.684  -0.649  1.00  0.00     0.216 C 
BRANCH  14  15
HETATM   15  C4  UNL     1      -1.822   0.242  -0.864  1.00  0.00     0.156 A 
HETATM   16  O2  UNL     1      -1.601  -0.673  -0.008  1.00  0.00    -0.277 OA
HETATM   17  C3  UNL     1      -1.976  -1.975  -0.142  1.00  0.00     0.178 A 
HETATM   18  C23 UNL     1      -2.630  -2.321  -1.273  1.00  0.00     0.163 A 
HETATM   19  C22 UNL     1      -2.888  -1.326  -2.234  1.00  0.00     0.272 A 
HETATM   20  C24 UNL     1      -3.015  -3.647  -1.625  1.00  0.00     0.109 C 
HETATM   21  N11 UNL     1      -2.472  -0.087  -1.987  1.00  0.00    -0.304 N 
HETATM   22  O10 UNL     1      -3.505  -1.636  -3.301  1.00  0.00    -0.266 OA
ATOM     23  H11 UNL     1      -2.655   0.640  -2.679  1.00  0.00     0.171 HD
HETATM   24  N12 UNL     1      -3.307  -4.698  -1.948  1.00  0.00    -0.191 NA
BRANCH  17  25
HETATM   25  N1  UNL     1      -1.641  -2.818   0.899  1.00  0.00    -0.306 N 
HETATM   26  C2  UNL     1      -1.914  -4.050   1.412  1.00  0.00     0.219 C 
HETATM   27  C1  UNL     1      -1.161  -4.528   2.698  1.00  0.00     0.117 C 
HETATM   28  O1  UNL     1      -2.688  -4.928   1.044  1.00  0.00    -0.274 OA
ATOM     29  H1  UNL     1      -0.948  -2.358   1.489  1.00  0.00     0.171 HD
ENDBRANCH  17  25
ENDBRANCH  14  15
BRANCH  14  30
HETATM   30  C6  UNL     1      -0.109   1.683   0.084  1.00  0.00     0.120 C 
BRANCH  30  31
HETATM   31  C7  UNL     1       0.977   0.944  -0.666  1.00  0.00     0.108 A 
HETATM   32  N2  UNL     1       1.616  -0.174  -0.285  1.00  0.00    -0.329 N 
HETATM   33  C8  UNL     1       2.495  -0.513  -1.213  1.00  0.00     0.131 A 
ATOM     34  H2  UNL     1       1.450  -0.682   0.584  1.00  0.00     0.168 HD
HETATM   35  N3  UNL     1       2.407   0.401  -2.188  1.00  0.00    -0.282 N 
HETATM   36  N4  UNL     1       1.467   1.310  -1.858  1.00  0.00    -0.282 N 
ATOM     37  H3  UNL     1       2.962   0.408  -3.044  1.00  0.00     0.189 HD
HETATM   38  C15 UNL     1       1.161   2.408  -2.729  1.00  0.00     0.179 C 
BRANCH  33  39
HETATM   39  C9  UNL     1       3.424  -1.664  -1.232  1.00  0.00     0.009 A 
HETATM   40  C10 UNL     1       4.277  -1.868  -2.294  1.00  0.00     0.018 A 
HETATM   41  C11 UNL     1       5.146  -2.957  -2.297  1.00  0.00     0.039 A 
HETATM   42  C12 UNL     1       5.172  -3.850  -1.246  1.00  0.00     0.092 A 
HETATM   43  C13 UNL     1       4.320  -3.652  -0.179  1.00  0.00     0.039 A 
HETATM   44  C14 UNL     1       3.472  -2.571  -0.197  1.00  0.00     0.018 A 
BRANCH  42  45
HETATM   45  O3  UNL     1       6.020  -4.936  -1.222  1.00  0.00    -0.214 OA
BRANCH  45  46
HETATM   46  S1  UNL     1       7.579  -4.958  -0.585  1.00  0.00     0.256 S 
HETATM   47  O4  UNL     1       7.536  -5.239   0.909  1.00  0.00    -0.572 OA
HETATM   48  O5  UNL     1       8.316  -6.113  -1.218  1.00  0.00    -0.572 OA
HETATM   49  O6  UNL     1       8.416  -3.533  -0.838  1.00  0.00    -0.572 OA
ENDBRANCH  45  46
ENDBRANCH  42  45
ENDBRANCH  33  39
ENDBRANCH  30  31
BRANCH  30  50
HETATM   50  C16 UNL     1       0.456   2.915   0.667  1.00  0.00     0.155 C 
BRANCH  50  51
HETATM   51  O7  UNL     1       1.728   2.511   1.246  1.00  0.00    -0.393 OA
ATOM     52  H7  UNL     1       2.092   3.304   1.621  1.00  0.00     0.210 HD
ENDBRANCH  50  51
BRANCH  50  53
HETATM   53  C17 UNL     1      -0.263   3.427   1.918  1.00  0.00     0.196 C 
BRANCH  53  54
HETATM   54  O8  UNL     1      -0.413   2.452   2.883  1.00  0.00    -0.398 OA
ATOM     55  H8  UNL     1      -0.859   2.770   3.659  1.00  0.00     0.209 HD
ENDBRANCH  53  54
ENDBRANCH  50  53
ENDBRANCH  30  50
ENDBRANCH  14  30
ENDBRANCH   9  14
BRANCH  12  56
HETATM   56  N9  UNL     1      -5.134   2.706   2.064  1.00  0.00    -0.382 N 
ATOM     57  H92 UNL     1      -5.886   3.369   2.252  1.00  0.00     0.157 HD
ATOM     58  H91 UNL     1      -5.256   1.955   2.743  1.00  0.00     0.157 HD
ENDBRANCH  12  56
ENDBRANCH   1   7
TORSDOF 14
