REMARK  11 active torsions:
REMARK  status: ('A' for Active; 'I' for Inactive)
REMARK    1  A    between atoms: C3_3  and  C4_4 
REMARK    2  A    between atoms: C4_4  and  C5_5 
REMARK    3  A    between atoms: C5_5  and  C6_6 
REMARK    4  A    between atoms: C6_6  and  C7_7 
REMARK    5  A    between atoms: C7_7  and  C8_8 
REMARK    6  A    between atoms: C9_9  and  C10_10 
REMARK    7  A    between atoms: C10_10  and  C11_11 
REMARK    8  A    between atoms: C13_14  and  C14_15 
REMARK    9  A    between atoms: C14_15  and  C15_16 
REMARK   10  A    between atoms: C15_16  and  N1_17 
REMARK   11  A    between atoms: C21_29  and  O4_30 
ROOT
HETATM    1  C1  UNL     1       7.787   2.584  -0.517  1.00  0.00     0.012 C 
HETATM    2  C2  UNL     1       6.779   2.834   0.118  1.00  0.00    -0.117 C 
HETATM    3  C3  UNL     1       5.570   3.148   0.890  1.00  0.00     0.093 C 
ENDROOT
BRANCH   3   4
HETATM    4  C4  UNL     1       4.333   2.749   0.106  1.00  0.00     0.012 C 
BRANCH   4   5
HETATM    5  C5  UNL     1       4.349   1.254  -0.190  1.00  0.00     0.001 C 
BRANCH   5   6
HETATM    6  C6  UNL     1       4.377   0.442   1.060  1.00  0.00     0.004 C 
BRANCH   6   7
HETATM    7  C7  UNL     1       4.400  -1.022   0.709  1.00  0.00     0.027 C 
BRANCH   7   8
HETATM    8  C8  UNL     1       3.177  -1.352  -0.068  1.00  0.00    -0.031 C 
HETATM    9  C9  UNL     1       2.338  -2.257   0.421  1.00  0.00    -0.028 C 
BRANCH   9  10
HETATM   10  C10 UNL     1       1.070  -2.653  -0.304  1.00  0.00     0.059 C 
BRANCH  10  11
HETATM   11  C11 UNL     1      -0.094  -2.326   0.628  1.00  0.00     0.131 C 
HETATM   12  O1  UNL     1      -0.115  -0.991   0.914  1.00  0.00    -0.385 OA
HETATM   13  C12 UNL     1      -0.942  -0.187   0.189  1.00  0.00     0.173 C 
HETATM   14  C13 UNL     1      -2.310  -0.732  -0.094  1.00  0.00     0.016 C 
HETATM   15  C18 UNL     1      -2.564  -2.033   0.591  1.00  0.00     0.001 C 
HETATM   16  C19 UNL     1      -3.689  -2.831   0.009  1.00  0.00     0.008 C 
HETATM   17  C22 UNL     1      -1.378  -2.960   0.280  1.00  0.00     0.048 C 
HETATM   18  C20 UNL     1      -3.122  -3.429  -1.235  1.00  0.00     0.032 C 
HETATM   19  C21 UNL     1      -1.604  -3.429  -1.096  1.00  0.00     0.125 C 
BRANCH  14  20
HETATM   20  C14 UNL     1      -3.371   0.301   0.230  1.00  0.00     0.029 C 
BRANCH  20  21
HETATM   21  C15 UNL     1      -3.108   1.494  -0.641  1.00  0.00     0.154 C 
BRANCH  21  22
HETATM   22  N1  UNL     1      -4.069   2.562  -0.421  1.00  0.00    -0.238 N 
HETATM   23  N2  UNL     1      -5.227   2.790  -1.016  1.00  0.00    -0.245 N 
HETATM   24  C16 UNL     1      -5.747   3.904  -0.463  1.00  0.00     0.343 A 
ATOM     25  H2  UNL     1      -5.648   2.228  -1.756  1.00  0.00     0.192 HD
HETATM   26  O2  UNL     1      -6.842   4.397  -0.800  1.00  0.00    -0.245 OA
HETATM   27  N3  UNL     1      -4.904   4.356   0.470  1.00  0.00    -0.258 N 
HETATM   28  C17 UNL     1      -3.861   3.522   0.497  1.00  0.00     0.345 A 
ATOM     29  H3  UNL     1      -5.033   5.183   1.053  1.00  0.00     0.175 HD
HETATM   30  O3  UNL     1      -2.853   3.645   1.274  1.00  0.00    -0.245 OA
ENDBRANCH  21  22
ENDBRANCH  20  21
ENDBRANCH  14  20
BRANCH  19  31
HETATM   31  O4  UNL     1      -1.090  -2.715  -2.130  1.00  0.00    -0.395 OA
ATOM     32  H4  UNL     1      -0.144  -2.715  -2.043  1.00  0.00     0.210 HD
ENDBRANCH  19  31
ENDBRANCH  10  11
ENDBRANCH   9  10
ENDBRANCH   7   8
ENDBRANCH   6   7
ENDBRANCH   5   6
ENDBRANCH   4   5
ENDBRANCH   3   4
TORSDOF 11
