REMARK  11 active torsions:
REMARK  status: ('A' for Active; 'I' for Inactive)
REMARK    1  A    between atoms: C2_2  and  C3_3 
REMARK    2  A    between atoms: C3_3  and  C4_4 
REMARK    3  A    between atoms: C4_4  and  C5_5 
REMARK    4  A    between atoms: C4_4  and  C21_29 
REMARK    5  A    between atoms: C8_11  and  O2_12 
REMARK    6  A    between atoms: C8_11  and  C9_14 
REMARK    7  A    between atoms: C13_18  and  C14_19 
REMARK    8  A    between atoms: C14_19  and  C15_20 
REMARK    9  A    between atoms: C15_20  and  C16_21 
REMARK   10  A    between atoms: C15_20  and  N2_26 
REMARK   11  A    between atoms: C17_22  and  C19_24 
ROOT
HETATM    1  C5  UNL     1       2.422  -0.899  -0.823  1.00  0.00     0.000 C 
HETATM    2  C6  UNL     1       1.850   0.354  -0.426  1.00  0.00     0.011 C 
HETATM    3  C7  UNL     1       1.974   0.926   0.897  1.00  0.00     0.250 C 
HETATM    4  O1  UNL     1       2.452   0.449   1.917  1.00  0.00    -0.268 OA
HETATM    5  N1  UNL     1       1.439   2.275   0.995  1.00  0.00    -0.325 N 
ATOM      6  H1  UNL     1       1.336   2.728   1.903  1.00  0.00     0.165 HD
HETATM    7  C8  UNL     1       1.052   2.969  -0.230  1.00  0.00     0.137 C 
HETATM    8  C12 UNL     1       0.276   2.089  -1.182  1.00  0.00     0.071 C 
HETATM    9  C13 UNL     1       0.414   0.619  -0.966  1.00  0.00     0.031 C 
ENDROOT
BRANCH   9  10
HETATM   10  C14 UNL     1      -0.608   0.018  -0.136  1.00  0.00     0.045 C 
BRANCH  10  11
HETATM   11  C15 UNL     1      -2.053   0.052  -0.438  1.00  0.00     0.179 C 
BRANCH  11  12
HETATM   12  C16 UNL     1      -2.717  -0.759   0.689  1.00  0.00     0.007 C 
HETATM   13  C17 UNL     1      -3.727  -1.551   0.502  1.00  0.00    -0.086 C 
HETATM   14  C18 UNL     1      -4.257  -2.275   1.722  1.00  0.00     0.043 C 
BRANCH  13  15
HETATM   15  C19 UNL     1      -4.436  -1.834  -0.761  1.00  0.00     0.029 C 
HETATM   16  C20 UNL     1      -5.905  -1.433  -0.605  1.00  0.00     0.010 C 
ENDBRANCH  13  15
ENDBRANCH  11  12
BRANCH  11  17
HETATM   17  N2  UNL     1      -2.761   1.298  -0.464  1.00  0.00    -0.147 N 
HETATM   18  O3  UNL     1      -3.369   1.694  -1.501  1.00  0.00    -0.536 OA
HETATM   19  O4  UNL     1      -2.857   2.125   0.626  1.00  0.00    -0.536 OA
ENDBRANCH  11  17
ENDBRANCH  10  11
ENDBRANCH   9  10
BRANCH   1  20
HETATM   20  C4  UNL     1       2.172  -2.219  -0.283  1.00  0.00     0.101 C 
BRANCH  20  21
HETATM   21  C3  UNL     1       3.065  -3.158  -1.167  1.00  0.00     0.044 C 
BRANCH  21  22
HETATM   22  C2  UNL     1       2.922  -4.554  -0.747  1.00  0.00    -0.036 C 
HETATM   23  C1  UNL     1       3.987  -5.232  -0.349  1.00  0.00     0.007 C 
ENDBRANCH  21  22
ENDBRANCH  20  21
BRANCH  20  24
HETATM   24  C21 UNL     1       2.618  -2.560   1.069  1.00  0.00     0.239 C 
HETATM   25  N3  UNL     1       3.973  -2.594   1.486  1.00  0.00    -0.062 NA
HETATM   26  O5  UNL     1       1.759  -2.857   1.971  1.00  0.00    -0.276 OA
ENDBRANCH  20  24
ENDBRANCH   1  20
BRANCH   7  27
HETATM   27  O2  UNL     1       2.206   3.508  -0.859  1.00  0.00    -0.370 OA
ATOM     28  H2  UNL     1       1.954   3.960  -1.656  1.00  0.00     0.212 HD
ENDBRANCH   7  27
BRANCH   7  29
HETATM   29  C9  UNL     1       0.267   4.204   0.157  1.00  0.00     0.033 C 
HETATM   30  C10 UNL     1       1.117   5.131   1.011  1.00  0.00     0.014 C 
HETATM   31  C11 UNL     1      -0.206   4.989  -1.018  1.00  0.00     0.014 C 
ENDBRANCH   7  29
TORSDOF 11
