REMARK  14 active torsions:
REMARK  status: ('A' for Active; 'I' for Inactive)
REMARK    1  A    between atoms: C2_2  and  C3_3 
REMARK    2  A    between atoms: C3_3  and  C4_4 
REMARK    3  A    between atoms: C4_4  and  C5_5 
REMARK    4  A    between atoms: C5_5  and  C6_6 
REMARK    5  A    between atoms: C6_6  and  C7_7 
REMARK    6  A    between atoms: C6_6  and  C9_15 
REMARK    7  A    between atoms: C7_7  and  C8_8 
REMARK    8  A    between atoms: C8_8  and  O1_9 
REMARK    9  A    between atoms: N1_11  and  O2_13 
REMARK       I    between atoms: C9_15  and  N2_17 
REMARK   10  A    between atoms: N2_17  and  C10_19 
REMARK   11  A    between atoms: C10_19  and  C12_21 
REMARK   12  A    between atoms: C12_21  and  O4_22 
REMARK   13  A    between atoms: C12_21  and  N3_24 
REMARK   14  A    between atoms: N4_27  and  C15_28 
ROOT
HETATM    1  C9  UNL     1       3.188   1.255  -0.990  1.00  0.00     0.226 C 
HETATM    2  O3  UNL     1       3.439   1.610  -2.152  1.00  0.00    -0.273 OA
HETATM    3  N2  UNL     1       1.910   1.056  -0.499  1.00  0.00    -0.324 N 
ATOM      4  H2  UNL     1       1.867   0.764   0.477  1.00  0.00     0.169 HD
ENDROOT
BRANCH   3   5
HETATM    5  C10 UNL     1       0.625   1.195  -1.147  1.00  0.00     0.077 C 
HETATM    6  C11 UNL     1       0.520   1.557  -2.388  1.00  0.00     0.048 C 
BRANCH   5   7
HETATM    7  C12 UNL     1      -0.535   0.915  -0.324  1.00  0.00     0.173 C 
BRANCH   7   8
HETATM    8  O4  UNL     1      -0.216   0.582   0.915  1.00  0.00    -0.344 OA
ATOM      9  H4  UNL     1      -0.976   0.399   1.454  1.00  0.00     0.219 HD
ENDBRANCH   7   8
BRANCH   7  10
HETATM   10  N3  UNL     1      -1.900   0.930  -0.587  1.00  0.00    -0.277 N 
HETATM   11  C13 UNL     1      -2.622   1.218  -1.782  1.00  0.00     0.156 C 
HETATM   12  C14 UNL     1      -4.079   0.932  -1.567  1.00  0.00     0.148 C 
HETATM   13  N4  UNL     1      -4.126   0.296  -0.281  1.00  0.00    -0.327 N 
HETATM   14  C21 UNL     1      -2.939   0.637   0.390  1.00  0.00     0.327 C 
HETATM   15  O5  UNL     1      -2.779   0.686   1.625  1.00  0.00    -0.247 OA
BRANCH  13  16
HETATM   16  C15 UNL     1      -5.183  -0.533   0.259  1.00  0.00     0.089 C 
HETATM   17  C16 UNL     1      -6.476   0.266   0.401  1.00  0.00     0.025 C 
HETATM   18  C17 UNL     1      -7.369  -0.542   1.305  1.00  0.00     0.002 C 
HETATM   19  C18 UNL     1      -7.603  -1.937   0.829  1.00  0.00     0.000 C 
HETATM   20  C19 UNL     1      -6.439  -2.619   0.208  1.00  0.00     0.002 C 
HETATM   21  C20 UNL     1      -5.517  -1.732  -0.587  1.00  0.00     0.025 C 
ENDBRANCH  13  16
ENDBRANCH   7  10
ENDBRANCH   5   7
ENDBRANCH   3   5
BRANCH   1  22
HETATM   22  C6  UNL     1       4.318   1.012  -0.015  1.00  0.00     0.086 C 
BRANCH  22  23
HETATM   23  C5  UNL     1       4.291  -0.388   0.503  1.00  0.00     0.015 C 
BRANCH  23  24
HETATM   24  C4  UNL     1       4.460  -1.449  -0.545  1.00  0.00     0.004 C 
BRANCH  24  25
HETATM   25  C3  UNL     1       5.778  -1.337  -1.269  1.00  0.00     0.026 C 
BRANCH  25  26
HETATM   26  C2  UNL     1       6.951  -1.471  -0.352  1.00  0.00    -0.037 C 
HETATM   27  C1  UNL     1       7.846  -0.508  -0.244  1.00  0.00     0.007 C 
ENDBRANCH  25  26
ENDBRANCH  24  25
ENDBRANCH  23  24
ENDBRANCH  22  23
BRANCH  22  28
HETATM   28  C7  UNL     1       4.133   1.972   1.138  1.00  0.00     0.100 C 
BRANCH  28  29
HETATM   29  C8  UNL     1       5.177   1.860   2.160  1.00  0.00     0.136 C 
HETATM   30  N1  UNL     1       4.914   1.497   3.354  1.00  0.00    -0.251 N 
ATOM     31  H1  UNL     1       5.694   1.445   4.009  1.00  0.00     0.196 HD
BRANCH  29  32
HETATM   32  O1  UNL     1       6.492   2.151   1.850  1.00  0.00    -0.348 OA
ATOM     33  H1  UNL     1       7.169   2.078   2.513  1.00  0.00     0.219 HD
ENDBRANCH  29  32
BRANCH  30  34
HETATM   34  O2  UNL     1       3.666   1.170   3.833  1.00  0.00    -0.288 OA
ATOM     35  H2  UNL     1       3.470   0.900   4.722  1.00  0.00     0.244 HD
ENDBRANCH  30  34
ENDBRANCH  28  29
ENDBRANCH  22  28
ENDBRANCH   1  22
TORSDOF 14
