REMARK  13 active torsions:
REMARK  status: ('A' for Active; 'I' for Inactive)
REMARK    1  A    between atoms: O1_2  and  C2_3 
REMARK    2  A    between atoms: C2_3  and  C3_4 
REMARK    3  A    between atoms: C4_5  and  C5_6 
REMARK    4  A    between atoms: C7_8  and  O2_9 
REMARK    5  A    between atoms: C8_11  and  C9_12 
REMARK    6  A    between atoms: C10_13  and  C11_14 
REMARK    7  A    between atoms: C11_14  and  O3_15 
REMARK    8  A    between atoms: C11_14  and  C12_17 
REMARK    9  A    between atoms: C12_17  and  C13_18 
REMARK   10  A    between atoms: C13_18  and  C14_19 
REMARK   11  A    between atoms: C21_28  and  C22_29 
REMARK   12  A    between atoms: C22_29  and  C23_30 
REMARK   13  A    between atoms: C23_30  and  O5_31 
ROOT
HETATM    1  C5  UNL     1       2.951  -0.223   1.986  1.00  0.00     0.011 C 
HETATM    2  C6  UNL     1       2.462   1.006   2.702  1.00  0.00     0.041 C 
HETATM    3  C7  UNL     1       1.110   1.291   2.132  1.00  0.00     0.126 C 
HETATM    4  C8  UNL     1       0.864   0.283   1.046  1.00  0.00     0.037 C 
HETATM    5  C20 UNL     1       1.679  -0.893   1.545  1.00  0.00     0.019 C 
ENDROOT
BRANCH   4   6
HETATM    6  C9  UNL     1      -0.533  -0.109   0.854  1.00  0.00    -0.021 C 
HETATM    7  C10 UNL     1      -1.562   0.423   1.451  1.00  0.00     0.001 C 
BRANCH   7   8
HETATM    8  C11 UNL     1      -2.974  -0.040   1.198  1.00  0.00     0.140 C 
BRANCH   8   9
HETATM    9  O3  UNL     1      -3.515  -0.380   2.431  1.00  0.00    -0.392 OA
ATOM     10  H3  UNL     1      -4.405  -0.672   2.272  1.00  0.00     0.210 HD
ENDBRANCH   8   9
BRANCH   8  11
HETATM   11  C12 UNL     1      -3.763   1.095   0.604  1.00  0.00     0.037 C 
BRANCH  11  12
HETATM   12  C13 UNL     1      -5.200   0.750   0.310  1.00  0.00     0.028 C 
BRANCH  12  13
HETATM   13  C14 UNL     1      -5.348  -0.386  -0.664  1.00  0.00     0.086 C 
HETATM   14  C15 UNL     1      -4.708  -0.083  -2.003  1.00  0.00     0.026 C 
HETATM   15  C16 UNL     1      -5.567   0.890  -2.765  1.00  0.00     0.011 C 
HETATM   16  C17 UNL     1      -6.792   0.142  -3.254  1.00  0.00     0.103 C 
HETATM   17  C18 UNL     1      -7.456  -0.472  -2.065  1.00  0.00     0.219 C 
HETATM   18  O4  UNL     1      -8.681  -0.766  -2.178  1.00  0.00    -0.273 OA
HETATM   19  N1  UNL     1      -6.764  -0.724  -0.855  1.00  0.00    -0.352 N 
HETATM   20  C19 UNL     1      -7.464  -1.338   0.250  1.00  0.00     0.153 C 
ENDBRANCH  12  13
ENDBRANCH  11  12
ENDBRANCH   8  11
ENDBRANCH   7   8
ENDBRANCH   4   6
BRANCH   3  21
HETATM   21  O2  UNL     1       1.052   2.602   1.700  1.00  0.00    -0.395 OA
ATOM     22  H2  UNL     1       0.193   2.783   1.338  1.00  0.00     0.210 HD
ENDBRANCH   3  21
BRANCH   1  23
HETATM   23  C4  UNL     1       3.720   0.161   0.775  1.00  0.00    -0.019 C 
HETATM   24  C3  UNL     1       4.943  -0.335   0.576  1.00  0.00     0.033 C 
BRANCH  24  25
HETATM   25  C2  UNL     1       5.699   0.032  -0.597  1.00  0.00     0.064 C 
HETATM   26  C21 UNL     1       6.891  -0.390  -0.889  1.00  0.00     0.012 C 
BRANCH  25  27
HETATM   27  O1  UNL     1       5.103   0.924  -1.514  1.00  0.00    -0.356 OA
HETATM   28  C1  UNL     1       4.828   0.466  -2.841  1.00  0.00     0.210 C 
ENDBRANCH  25  27
BRANCH  26  29
HETATM   29  C22 UNL     1       7.657  -1.316  -0.055  1.00  0.00     0.056 C 
BRANCH  29  30
HETATM   30  C23 UNL     1       8.966  -0.711   0.425  1.00  0.00     0.168 C 
BRANCH  30  31
HETATM   31  O5  UNL     1       9.765  -0.363  -0.670  1.00  0.00    -0.401 OA
ATOM     32  H5  UNL     1      10.583   0.015  -0.370  1.00  0.00     0.209 HD
ENDBRANCH  30  31
ENDBRANCH  29  30
ENDBRANCH  26  29
ENDBRANCH  24  25
ENDBRANCH   1  23
TORSDOF 13
