REMARK  10 active torsions:
REMARK  status: ('A' for Active; 'I' for Inactive)
REMARK    1  A    between atoms: C2_2  and  C4_4 
REMARK    2  A    between atoms: C4_4  and  C5_5 
REMARK    3  A    between atoms: C5_5  and  C6_7 
REMARK    4  A    between atoms: C6_7  and  N1_8 
REMARK    5  A    between atoms: N1_8  and  C7_11 
REMARK    6  A    between atoms: C11_15  and  C12_16 
REMARK       I    between atoms: C12_16  and  N2_18 
REMARK    7  A    between atoms: N2_18  and  C13_20 
REMARK    8  A    between atoms: C13_20  and  C18_25 
REMARK    9  A    between atoms: C14_21  and  C15_22 
REMARK   10  A    between atoms: C18_25  and  C19_27 
ROOT
HETATM    1  C7  UNL     1       2.140  -0.159   0.763  1.00  0.00     0.204 C 
HETATM    2  C8  UNL     1       1.774   1.268   0.955  1.00  0.00     0.035 C 
HETATM    3  C9  UNL     1       0.424   1.583   0.285  1.00  0.00     0.008 C 
HETATM    4  C10 UNL     1       0.351   0.849  -0.995  1.00  0.00     0.062 C 
HETATM    5  C11 UNL     1      -0.186  -0.524  -0.932  1.00  0.00     0.073 C 
HETATM    6  N3  UNL     1       0.437  -1.574  -0.252  1.00  0.00    -0.387 N 
ATOM      7  H3  UNL     1       0.440  -2.536  -0.592  1.00  0.00     0.159 HD
HETATM    8  C22 UNL     1       1.090  -1.158   1.006  1.00  0.00     0.152 C 
ENDROOT
BRANCH   5   9
HETATM    9  C12 UNL     1      -1.672  -0.458  -0.939  1.00  0.00     0.268 C 
HETATM   10  O2  UNL     1      -2.217  -0.736  -2.064  1.00  0.00    -0.266 OA
HETATM   11  N2  UNL     1      -2.436  -0.136   0.147  1.00  0.00    -0.319 N 
ATOM     12  H2  UNL     1      -1.910  -0.024   1.014  1.00  0.00     0.169 HD
BRANCH  11  13
HETATM   13  C13 UNL     1      -3.912   0.081   0.287  1.00  0.00     0.081 C 
HETATM   14  C14 UNL     1      -4.538  -1.070   0.835  1.00  0.00     0.010 C 
BRANCH  14  15
HETATM   15  C15 UNL     1      -5.869  -1.076   1.453  1.00  0.00     0.002 C 
HETATM   16  C16 UNL     1      -5.775  -0.115   2.721  1.00  0.00     0.013 C 
HETATM   17  C17 UNL     1      -7.173  -0.843   0.835  1.00  0.00     0.013 C 
ENDBRANCH  14  15
BRANCH  13  18
HETATM   18  C18 UNL     1      -4.264   0.875  -0.898  1.00  0.00     0.211 C 
HETATM   19  O3  UNL     1      -3.672   1.988  -0.896  1.00  0.00    -0.287 OA
BRANCH  18  20
HETATM   20  C19 UNL     1      -5.130   0.657  -2.050  1.00  0.00     0.145 A 
HETATM   21  C20 UNL     1      -5.684  -0.667  -2.483  1.00  0.00     0.057 C 
HETATM   22  C21 UNL     1      -6.017   1.826  -2.516  1.00  0.00     0.215 A 
HETATM   23  O4  UNL     1      -4.821   1.522  -3.170  1.00  0.00    -0.367 OA
ENDBRANCH  18  20
ENDBRANCH  13  18
ENDBRANCH  11  13
ENDBRANCH   5   9
BRANCH   1  24
HETATM   24  N1  UNL     1       3.381  -0.452   1.452  1.00  0.00    -0.063 N 
ATOM     25  H12 UNL     1       3.522  -1.440   1.662  1.00  0.00     0.278 HD
ATOM     26  H11 UNL     1       3.411  -0.130   2.419  1.00  0.00     0.278 HD
BRANCH  24  27
HETATM   27  C6  UNL     1       4.413   0.138   0.584  1.00  0.00     0.310 C 
BRANCH  27  28
HETATM   28  C5  UNL     1       5.788  -0.037   1.122  1.00  0.00     0.152 C 
HETATM   29  O1  UNL     1       6.007   0.280   2.268  1.00  0.00    -0.296 OA
BRANCH  28  30
HETATM   30  C4  UNL     1       6.819  -0.614   0.202  1.00  0.00     0.084 C 
BRANCH  30  31
HETATM   31  C2  UNL     1       8.204  -0.135   0.443  1.00  0.00    -0.016 C 
HETATM   32  C1  UNL     1       9.122  -0.897  -0.527  1.00  0.00     0.010 C 
HETATM   33  C3  UNL     1       8.342   1.332   0.072  1.00  0.00     0.010 C 
ENDBRANCH  30  31
ENDBRANCH  28  30
ENDBRANCH  27  28
ENDBRANCH  24  27
ENDBRANCH   1  24
TORSDOF 10
