REMARK  10 active torsions:
REMARK  status: ('A' for Active; 'I' for Inactive)
REMARK    1  A    between atoms: C1_2  and  C2_4 
REMARK    2  A    between atoms: C2_4  and  C3_5 
REMARK    3  A    between atoms: C3_5  and  C4_6 
REMARK    4  A    between atoms: C3_5  and  N1_11 
REMARK    5  A    between atoms: C4_6  and  C5_8 
REMARK    6  A    between atoms: N1_11  and  C6_12 
REMARK    7  A    between atoms: N1_11  and  C13_19 
REMARK    8  A    between atoms: C13_19  and  C14_20 
REMARK    9  A    between atoms: C13_19  and  C21_27 
REMARK   10  A    between atoms: C14_20  and  C15_21 
ROOT
HETATM    1  N1  UNL     1      -0.874   0.457  -0.579  1.00  0.00    -0.311 N 
ENDROOT
BRANCH   1   2
HETATM    2  C3  UNL     1      -1.056   1.883  -0.597  1.00  0.00     0.084 C 
BRANCH   2   3
HETATM    3  C2  UNL     1      -2.009   2.503  -1.532  1.00  0.00     0.175 C 
BRANCH   3   4
HETATM    4  C1  UNL     1      -1.521   3.807  -2.118  1.00  0.00     0.178 C 
HETATM    5  O1  UNL     1      -2.271   4.505  -2.822  1.00  0.00    -0.648 OA
HETATM    6  O2  UNL     1      -0.227   4.247  -1.884  1.00  0.00    -0.648 OA
ENDBRANCH   3   4
ENDBRANCH   2   3
BRANCH   2   7
HETATM    7  C4  UNL     1      -0.734   2.649   0.616  1.00  0.00     0.271 C 
HETATM    8  O3  UNL     1       0.240   2.313   1.377  1.00  0.00    -0.279 OA
BRANCH   7   9
HETATM    9  C5  UNL     1      -1.437   3.808   1.080  1.00  0.00     0.253 C 
HETATM   10  O4  UNL     1      -2.450   4.348   0.621  1.00  0.00    -0.642 OA
HETATM   11  O5  UNL     1      -0.935   4.467   2.230  1.00  0.00    -0.642 OA
ENDBRANCH   7   9
ENDBRANCH   2   7
ENDBRANCH   1   2
BRANCH   1  12
HETATM   12  C6  UNL     1      -2.035  -0.285  -0.271  1.00  0.00     0.027 C 
HETATM   13  C7  UNL     1      -2.647   0.050   1.122  1.00  0.00     0.137 C 
HETATM   14  C8  UNL     1      -2.946  -1.168   1.761  1.00  0.00    -0.177 C 
HETATM   15  C9  UNL     1      -3.230  -2.406   2.362  1.00  0.00     0.084 C 
HETATM   16  C10 UNL     1      -2.739  -3.475   1.319  1.00  0.00     0.038 C 
HETATM   17  C11 UNL     1      -1.786  -2.842   0.319  1.00  0.00    -0.024 C 
HETATM   18  C12 UNL     1      -2.113  -1.739  -0.545  1.00  0.00     0.022 C 
ENDBRANCH   1  12
BRANCH   1  19
HETATM   19  C13 UNL     1       0.153  -0.014  -1.366  1.00  0.00     0.094 C 
BRANCH  19  20
HETATM   20  C14 UNL     1       1.227  -0.925  -0.865  1.00  0.00     0.069 C 
BRANCH  20  21
HETATM   21  C15 UNL     1       2.133  -0.514   0.203  1.00  0.00    -0.009 C 
HETATM   22  C16 UNL     1       3.011   0.672  -0.045  1.00  0.00     0.005 C 
HETATM   23  C17 UNL     1       4.490   0.340  -0.077  1.00  0.00     0.000 C 
HETATM   24  C18 UNL     1       4.895  -0.240   1.254  1.00  0.00     0.000 C 
HETATM   25  C19 UNL     1       4.012  -1.415   1.578  1.00  0.00     0.000 C 
HETATM   26  C20 UNL     1       3.082  -1.701   0.448  1.00  0.00     0.005 C 
ENDBRANCH  20  21
ENDBRANCH  19  20
BRANCH  19  27
HETATM   27  C21 UNL     1      -0.016  -0.216  -2.827  1.00  0.00     0.223 C 
HETATM   28  O6  UNL     1      -1.012  -0.095  -3.542  1.00  0.00    -0.643 OA
HETATM   29  O7  UNL     1       1.130  -0.614  -3.552  1.00  0.00    -0.643 OA
ENDBRANCH  19  27
ENDBRANCH   1  19
TORSDOF 10
