REMARK  15 active torsions:
REMARK  status: ('A' for Active; 'I' for Inactive)
REMARK    1  A    between atoms: C2_2  and  S1_3 
REMARK    2  A    between atoms: S1_3  and  C3_4 
REMARK    3  A    between atoms: C4_6  and  S2_7 
REMARK    4  A    between atoms: S2_7  and  C5_8 
REMARK    5  A    between atoms: C5_8  and  C6_9 
REMARK    6  A    between atoms: C7_10  and  O2_11 
REMARK    7  A    between atoms: C7_10  and  C13_22 
REMARK    8  A    between atoms: O2_11  and  C8_12 
REMARK    9  A    between atoms: C10_14  and  O3_15 
REMARK   10  A    between atoms: C11_17  and  C12_18 
REMARK   11  A    between atoms: C12_18  and  O4_19 
REMARK   12  A    between atoms: C13_22  and  C15_24 
REMARK   13  A    between atoms: C17_26  and  O6_27 
REMARK   14  A    between atoms: C18_29  and  O7_30 
REMARK   15  A    between atoms: C19_32  and  O8_33 
ROOT
HETATM    1  C5  UNL     1       0.305   1.059   2.270  1.00  0.00     0.106 C 
ENDROOT
BRANCH   1   2
HETATM    2  S2  UNL     1       1.385   2.273   1.462  1.00  0.00    -0.131 SA
BRANCH   2   3
HETATM    3  C4  UNL     1       2.155   1.514  -0.025  1.00  0.00     0.216 C 
HETATM    4  O1  UNL     1       2.970   0.536   0.397  1.00  0.00    -0.355 OA
HETATM    5  C3  UNL     1       4.328   0.719   0.365  1.00  0.00     0.215 C 
HETATM    6  C19 UNL     1       4.865   1.483  -0.774  1.00  0.00     0.188 C 
HETATM    7  C18 UNL     1       3.809   2.041  -1.701  1.00  0.00     0.182 C 
HETATM    8  C17 UNL     1       2.772   2.655  -0.784  1.00  0.00     0.188 C 
BRANCH   5   9
HETATM    9  S1  UNL     1       5.257  -0.807   0.630  1.00  0.00    -0.135 SA
BRANCH   9  10
HETATM   10  C2  UNL     1       5.068  -2.033  -0.645  1.00  0.00     0.072 C 
HETATM   11  C1  UNL     1       5.636  -1.680  -1.981  1.00  0.00     0.016 C 
ENDBRANCH   9  10
ENDBRANCH   5   9
BRANCH   6  12
HETATM   12  O8  UNL     1       5.620   2.604  -0.353  1.00  0.00    -0.389 OA
ATOM     13  H8  UNL     1       5.966   3.097  -1.088  1.00  0.00     0.210 HD
ENDBRANCH   6  12
BRANCH   7  14
HETATM   14  O7  UNL     1       4.392   3.047  -2.444  1.00  0.00    -0.390 OA
ATOM     15  H7  UNL     1       5.043   2.662  -3.019  1.00  0.00     0.210 HD
ENDBRANCH   7  14
BRANCH   8  16
HETATM   16  O6  UNL     1       1.803   3.362  -1.488  1.00  0.00    -0.389 OA
ATOM     17  H6  UNL     1       2.193   4.083  -1.968  1.00  0.00     0.210 HD
ENDBRANCH   8  16
ENDBRANCH   2   3
ENDBRANCH   1   2
BRANCH   1  18
HETATM   18  C6  UNL     1      -0.856   0.693   1.462  1.00  0.00     0.016 C 
HETATM   19  C7  UNL     1      -1.221  -0.457   0.996  1.00  0.00     0.050 C 
BRANCH  19  20
HETATM   20  O2  UNL     1      -2.382  -0.588   0.237  1.00  0.00    -0.325 OA
BRANCH  20  21
HETATM   21  C8  UNL     1      -3.508   0.233   0.365  1.00  0.00     0.269 C 
HETATM   22  C9  UNL     1      -4.131   0.214   1.710  1.00  0.00     0.095 C 
HETATM   23  C10 UNL     1      -5.578  -0.034   1.459  1.00  0.00     0.154 C 
HETATM   24  C11 UNL     1      -5.700  -0.013  -0.023  1.00  0.00     0.177 C 
HETATM   25  O5  UNL     1      -4.449  -0.133  -0.576  1.00  0.00    -0.351 OA
BRANCH  23  26
HETATM   26  O3  UNL     1      -6.029  -1.226   2.024  1.00  0.00    -0.393 OA
ATOM     27  H3  UNL     1      -6.952  -1.384   1.864  1.00  0.00     0.210 HD
ENDBRANCH  23  26
BRANCH  24  28
HETATM   28  C12 UNL     1      -6.429   1.234  -0.520  1.00  0.00     0.198 C 
BRANCH  28  29
HETATM   29  O4  UNL     1      -6.558   1.149  -1.910  1.00  0.00    -0.398 OA
ATOM     30  H4  UNL     1      -7.011   1.925  -2.219  1.00  0.00     0.209 HD
ENDBRANCH  28  29
ENDBRANCH  24  28
ENDBRANCH  20  21
ENDBRANCH  19  20
BRANCH  19  31
HETATM   31  C13 UNL     1      -0.439  -1.682   1.238  1.00  0.00     0.038 C 
HETATM   32  C14 UNL     1      -1.224  -2.691   2.071  1.00  0.00     0.017 C 
BRANCH  31  33
HETATM   33  C15 UNL     1       0.028  -2.315  -0.070  1.00  0.00     0.006 C 
HETATM   34  C16 UNL     1      -1.082  -2.706  -0.979  1.00  0.00     0.006 C 
ENDBRANCH  31  33
ENDBRANCH  19  31
ENDBRANCH   1  18
TORSDOF 15
