REMARK  13 active torsions:
REMARK  status: ('A' for Active; 'I' for Inactive)
REMARK    1  A    between atoms: C2_2  and  O1_3 
REMARK    2  A    between atoms: O1_3  and  C3_4 
REMARK    3  A    between atoms: C4_5  and  C5_6 
REMARK    4  A    between atoms: C5_6  and  O2_7 
REMARK    5  A    between atoms: O2_7  and  C6_8 
REMARK    6  A    between atoms: C13_15  and  O3_16 
REMARK    7  A    between atoms: O3_16  and  C14_17 
REMARK    8  A    between atoms: C16_20  and  O5_21 
REMARK    9  A    between atoms: C17_23  and  O6_24 
REMARK   10  A    between atoms: C18_26  and  O7_27 
REMARK   11  A    between atoms: C19_29  and  O8_30 
REMARK   12  A    between atoms: C20_32  and  O9_33 
REMARK   13  A    between atoms: C21_35  and  O10_36 
ROOT
HETATM    1  C3  UNL     1      -0.956  -2.471  -0.329  1.00  0.00     0.113 A 
HETATM    2  C4  UNL     1      -1.190  -1.117  -0.250  1.00  0.00     0.004 A 
HETATM    3  C12 UNL     1      -0.152  -0.239  -0.010  1.00  0.00     0.052 A 
HETATM    4  C13 UNL     1       1.170  -0.675   0.163  1.00  0.00     0.106 A 
HETATM    5  C20 UNL     1       1.358  -2.028   0.077  1.00  0.00     0.135 A 
HETATM    6  C21 UNL     1       0.349  -2.931  -0.161  1.00  0.00     0.138 A 
ENDROOT
BRANCH   4   7
HETATM    7  O3  UNL     1       2.097   0.262   0.391  1.00  0.00    -0.338 OA
BRANCH   7   8
HETATM    8  C14 UNL     1       3.442   0.299   0.607  1.00  0.00     0.184 C 
HETATM    9  C15 UNL     1       4.037   1.127  -0.550  1.00  0.00     0.206 C 
HETATM   10  O4  UNL     1       5.383   0.919  -0.689  1.00  0.00    -0.356 OA
HETATM   11  C16 UNL     1       6.134   2.013  -0.317  1.00  0.00     0.288 C 
HETATM   12  C17 UNL     1       5.660   2.446   1.062  1.00  0.00     0.204 C 
HETATM   13  C18 UNL     1       5.287   1.251   1.921  1.00  0.00     0.183 C 
HETATM   14  C19 UNL     1       3.804   1.007   1.930  1.00  0.00     0.181 C 
BRANCH  11  15
HETATM   15  O5  UNL     1       6.001   3.102  -1.153  1.00  0.00    -0.369 OA
ATOM     16  H5  UNL     1       6.519   3.856  -0.897  1.00  0.00     0.212 HD
ENDBRANCH  11  15
BRANCH  12  17
HETATM   17  O6  UNL     1       6.735   3.092   1.667  1.00  0.00    -0.388 OA
ATOM     18  H6  UNL     1       6.439   3.362   2.528  1.00  0.00     0.210 HD
ENDBRANCH  12  17
BRANCH  13  19
HETATM   19  O7  UNL     1       5.818   1.418   3.194  1.00  0.00    -0.390 OA
ATOM     20  H7  UNL     1       5.585   0.670   3.731  1.00  0.00     0.210 HD
ENDBRANCH  13  19
BRANCH  14  21
HETATM   21  O8  UNL     1       3.054   2.142   2.118  1.00  0.00    -0.390 OA
ATOM     22  H8  UNL     1       3.277   2.578   2.932  1.00  0.00     0.210 HD
ENDBRANCH  14  21
ENDBRANCH   7   8
ENDBRANCH   4   7
BRANCH   5  23
HETATM   23  O9  UNL     1       2.629  -2.535   0.235  1.00  0.00    -0.356 OA
ATOM     24  H9  UNL     1       2.759  -3.474   0.175  1.00  0.00     0.218 HD
ENDBRANCH   5  23
BRANCH   2  25
HETATM   25  C5  UNL     1      -2.590  -0.645  -0.439  1.00  0.00     0.210 C 
BRANCH  25  26
HETATM   26  O2  UNL     1      -2.636   0.748  -0.332  1.00  0.00    -0.381 OA
BRANCH  26  27
HETATM   27  C6  UNL     1      -3.922   1.208  -0.504  1.00  0.00     0.121 C 
HETATM   28  C7  UNL     1      -4.449   1.960   0.684  1.00  0.00     0.032 C 
HETATM   29  C8  UNL     1      -5.933   2.195   0.442  1.00  0.00     0.002 C 
HETATM   30  C9  UNL     1      -6.217   2.723  -0.925  1.00  0.00     0.000 C 
HETATM   31  C10 UNL     1      -4.919   3.274  -1.499  1.00  0.00     0.002 C 
HETATM   32  C11 UNL     1      -3.935   2.144  -1.694  1.00  0.00     0.032 C 
ENDBRANCH  26  27
ENDBRANCH  25  26
ENDBRANCH   2  25
BRANCH   6  33
HETATM   33  O10 UNL     1       0.628  -4.294  -0.234  1.00  0.00    -0.351 OA
HETATM   34  C22 UNL     1       0.967  -4.970  -1.406  1.00  0.00     0.210 C 
ENDBRANCH   6  33
BRANCH   1  35
HETATM   35  O1  UNL     1      -1.938  -3.412  -0.565  1.00  0.00    -0.348 OA
BRANCH  35  36
HETATM   36  C2  UNL     1      -2.615  -4.018   0.513  1.00  0.00     0.171 C 
HETATM   37  C1  UNL     1      -3.621  -4.992  -0.106  1.00  0.00     0.034 C 
ENDBRANCH  35  36
ENDBRANCH   1  35
TORSDOF 13
