REMARK  14 active torsions:
REMARK  status: ('A' for Active; 'I' for Inactive)
REMARK    1  A    between atoms: C2_2  and  C3_3 
REMARK    2  A    between atoms: C3_3  and  C4_4 
REMARK    3  A    between atoms: C4_4  and  N1_5 
REMARK    4  A    between atoms: N1_5  and  C5_8 
REMARK    5  A    between atoms: C7_11  and  C9_13 
REMARK    6  A    between atoms: C9_13  and  C10_14 
REMARK    7  A    between atoms: C10_14  and  C11_15 
REMARK    8  A    between atoms: C13_19  and  O4_20 
REMARK    9  A    between atoms: O4_20  and  C14_21 
REMARK   10  A    between atoms: C15_23  and  S1_24 
REMARK   11  A    between atoms: C17_26  and  O6_27 
REMARK   12  A    between atoms: C18_29  and  O7_30 
REMARK   13  A    between atoms: C19_32  and  O8_33 
REMARK   14  A    between atoms: C20_35  and  O9_36 
ROOT
HETATM    1  C5  UNL     1       2.086  -0.521  -0.345  1.00  0.00     0.354 C 
HETATM    2  O1  UNL     1       2.317   0.812  -0.070  1.00  0.00    -0.354 OA
HETATM    3  C6  UNL     1       1.682   1.556  -1.082  1.00  0.00     0.208 C 
HETATM    4  C7  UNL     1       0.476   2.180  -0.421  1.00  0.00     0.082 C 
HETATM    5  C8  UNL     1      -0.406   2.811  -1.475  1.00  0.00     0.048 C 
HETATM    6  O3  UNL     1      -0.198   1.193   0.295  1.00  0.00    -0.346 OA
HETATM    7  C13 UNL     1      -0.395   0.013  -0.386  1.00  0.00     0.297 C 
HETATM    8  C20 UNL     1       0.703  -1.000  -0.191  1.00  0.00     0.229 C 
ENDROOT
BRANCH   7   9
HETATM    9  O4  UNL     1      -1.532  -0.566   0.228  1.00  0.00    -0.326 OA
BRANCH   9  10
HETATM   10  C14 UNL     1      -2.610  -0.675  -0.677  1.00  0.00     0.295 C 
HETATM   11  O5  UNL     1      -3.604   0.054  -0.124  1.00  0.00    -0.340 OA
HETATM   12  C15 UNL     1      -4.871  -0.374  -0.068  1.00  0.00     0.217 C 
HETATM   13  C17 UNL     1      -5.180  -1.607  -0.888  1.00  0.00     0.188 C 
HETATM   14  C18 UNL     1      -4.161  -2.675  -0.558  1.00  0.00     0.183 C 
HETATM   15  C19 UNL     1      -2.821  -2.125  -0.910  1.00  0.00     0.204 C 
BRANCH  12  16
HETATM   16  S1  UNL     1      -5.188  -0.871   1.675  1.00  0.00    -0.139 SA
HETATM   17  C16 UNL     1      -5.127   0.530   2.787  1.00  0.00     0.092 C 
ENDBRANCH  12  16
BRANCH  13  18
HETATM   18  O6  UNL     1      -6.434  -2.120  -0.575  1.00  0.00    -0.389 OA
ATOM     19  H6  UNL     1      -6.628  -2.894  -1.090  1.00  0.00     0.210 HD
ENDBRANCH  13  18
BRANCH  14  20
HETATM   20  O7  UNL     1      -4.467  -3.811  -1.281  1.00  0.00    -0.390 OA
ATOM     21  H7  UNL     1      -3.827  -4.482  -1.074  1.00  0.00     0.210 HD
ENDBRANCH  14  20
BRANCH  15  22
HETATM   22  O8  UNL     1      -2.583  -2.481  -2.263  1.00  0.00    -0.388 OA
ATOM     23  H8  UNL     1      -2.718  -3.409  -2.412  1.00  0.00     0.210 HD
ENDBRANCH  15  22
ENDBRANCH   9  10
ENDBRANCH   7   9
BRANCH   8  24
HETATM   24  O9  UNL     1       0.550  -1.525   1.112  1.00  0.00    -0.386 OA
ATOM     25  H9  UNL     1      -0.343  -1.834   1.211  1.00  0.00     0.210 HD
ENDBRANCH   8  24
BRANCH   4  26
HETATM   26  C9  UNL     1       0.941   3.190   0.593  1.00  0.00     0.047 C 
BRANCH  26  27
HETATM   27  C10 UNL     1       1.756   4.311   0.050  1.00  0.00     0.081 C 
BRANCH  27  28
HETATM   28  C11 UNL     1       2.139   5.247   1.169  1.00  0.00     0.123 C 
HETATM   29  C12 UNL     1       1.439   6.547   1.339  1.00  0.00     0.091 C 
HETATM   30  O2  UNL     1       3.020   4.971   1.959  1.00  0.00    -0.298 OA
ENDBRANCH  27  28
ENDBRANCH  26  27
ENDBRANCH   4  26
BRANCH   1  31
HETATM   31  N1  UNL     1       2.965  -1.290   0.520  1.00  0.00    -0.046 N 
ATOM     32  H12 UNL     1       2.716  -1.164   1.501  1.00  0.00     0.280 HD
ATOM     33  H11 UNL     1       3.904  -0.891   0.537  1.00  0.00     0.280 HD
BRANCH  31  34
HETATM   34  C4  UNL     1       3.002  -2.682   0.171  1.00  0.00     0.235 C 
BRANCH  34  35
HETATM   35  C3  UNL     1       3.875  -3.503   1.055  1.00  0.00     0.027 C 
BRANCH  35  36
HETATM   36  C2  UNL     1       5.292  -2.992   0.985  1.00  0.00    -0.003 C 
HETATM   37  C1  UNL     1       5.766  -3.090  -0.435  1.00  0.00     0.005 C 
ENDBRANCH  35  36
ENDBRANCH  34  35
ENDBRANCH  31  34
ENDBRANCH   1  31
TORSDOF 14
