REMARK  1 active torsions:
REMARK  status: ('A' for Active; 'I' for Inactive)
REMARK    1  A    between atoms: N1_1  and  C1_4 
ROOT
HETATM    1  C1  UNL     1      -0.573   1.221  -0.083  1.00  0.00     0.171 C 
HETATM    2  N2  UNL     1       0.701   0.802  -0.221  1.00  0.00    -0.312 N 
ATOM      3  H2  UNL     1       1.390   1.514  -0.464  1.00  0.00     0.170 HD
HETATM    4  C2  UNL     1       1.160  -0.448  -0.073  1.00  0.00     0.198 C 
HETATM    5  N3  UNL     1       2.567  -0.531   0.133  1.00  0.00    -0.063 NA
HETATM    6  N4  UNL     1       0.481  -1.629  -0.091  1.00  0.00    -0.282 N 
ATOM      7  H4  UNL     1       1.045  -2.478  -0.121  1.00  0.00     0.173 HD
HETATM    8  C3  UNL     1      -0.857  -1.796  -0.073  1.00  0.00     0.329 C 
HETATM    9  O1  UNL     1      -1.324  -2.914  -0.415  1.00  0.00    -0.247 OA
HETATM   10  N5  UNL     1      -1.788  -0.881   0.277  1.00  0.00    -0.272 N 
ATOM     11  H5  UNL     1      -2.698  -1.258   0.541  1.00  0.00     0.174 HD
HETATM   12  C4  UNL     1      -1.677   0.476   0.326  1.00  0.00     0.293 C 
HETATM   13  O2  UNL     1      -2.655   1.081   0.777  1.00  0.00    -0.264 OA
ENDROOT
BRANCH   1  14
HETATM   14  N1  UNL     1      -0.834   2.452  -0.355  1.00  0.00    -0.381 N 
ATOM     15  H12 UNL     1      -0.026   2.997  -0.654  1.00  0.00     0.157 HD
ATOM     16  H11 UNL     1      -1.798   2.769  -0.251  1.00  0.00     0.157 HD
ENDBRANCH   1  14
TORSDOF 1
