REMARK  1 active torsions:
REMARK  status: ('A' for Active; 'I' for Inactive)
REMARK    1  A    between atoms: C3_7  and  N4_8 
ROOT
HETATM    1  C1  UNL     1      -2.639  -0.688   0.073  1.00  0.00     0.183 C 
HETATM    2  N1  UNL     1      -1.276  -0.186   0.014  1.00  0.00    -0.246 N 
HETATM    3  N2  UNL     1      -0.235  -0.997   0.106  1.00  0.00    -0.279 N 
ATOM      4  H2  UNL     1      -0.402  -1.997   0.221  1.00  0.00     0.188 HD
HETATM    5  C2  UNL     1       1.046  -0.553   0.053  1.00  0.00     0.175 A 
HETATM    6  N3  UNL     1       2.150  -1.438   0.153  1.00  0.00    -0.077 NA
HETATM    7  C3  UNL     1       1.311   0.793  -0.102  1.00  0.00     0.146 A 
HETATM    8  N5  UNL     1       0.245   1.605  -0.194  1.00  0.00    -0.291 N 
ATOM      9  H5  UNL     1       0.391   2.608  -0.310  1.00  0.00     0.172 HD
HETATM   10  C4  UNL     1      -1.011   1.126  -0.137  1.00  0.00     0.342 A 
HETATM   11  O1  UNL     1      -1.993   1.925  -0.228  1.00  0.00    -0.245 OA
ENDROOT
BRANCH   7  12
HETATM   12  N4  UNL     1       2.529   1.230  -0.154  1.00  0.00    -0.383 N 
ATOM     13  H42 UNL     1       3.339   0.613  -0.084  1.00  0.00     0.157 HD
ATOM     14  H41 UNL     1       2.725   2.224  -0.269  1.00  0.00     0.157 HD
ENDBRANCH   7  12
TORSDOF 1
