REMARK  3 active torsions:
REMARK  status: ('A' for Active; 'I' for Inactive)
REMARK    1  A    between atoms: C4_9  and  N4_10 
REMARK    2  A    between atoms: C5_13  and  N5_14 
REMARK    3  A    between atoms: N5_14  and  N6_16 
ROOT
HETATM    1  C1  UNL     1       2.338  -1.227   0.383  1.00  0.00     0.072 C 
HETATM    2  C2  UNL     1       0.908  -0.860   0.216  1.00  0.00     0.055 A 
HETATM    3  N1  UNL     1      -0.076  -1.780   0.316  1.00  0.00    -0.288 N 
ATOM      4  H1  UNL     1       0.174  -2.750   0.511  1.00  0.00     0.188 HD
HETATM    5  N2  UNL     1      -1.347  -1.467   0.170  1.00  0.00    -0.239 N 
ATOM      6  H2  UNL     1      -2.055  -2.196   0.255  1.00  0.00     0.208 HD
HETATM    7  N3  UNL     1      -1.722  -0.228  -0.084  1.00  0.00    -0.265 N 
HETATM    8  C3  UNL     1      -3.125   0.137  -0.249  1.00  0.00     0.181 C 
HETATM    9  C4  UNL     1      -0.784   0.713  -0.191  1.00  0.00     0.147 A 
HETATM   10  C5  UNL     1       0.594   0.444  -0.045  1.00  0.00     0.116 A 
ENDROOT
BRANCH  10  11
HETATM   11  N5  UNL     1       1.400   1.427  -0.170  1.00  0.00    -0.302 N 
ATOM     12  H5  UNL     1       0.965   2.328  -0.367  1.00  0.00     0.186 HD
BRANCH  11  13
HETATM   13  N6  UNL     1       2.766   1.440  -0.077  1.00  0.00    -0.345 N 
ATOM     14  H62 UNL     1       3.182   0.530   0.120  1.00  0.00     0.176 HD
ATOM     15  H61 UNL     1       3.410   2.225  -0.177  1.00  0.00     0.176 HD
ENDBRANCH  11  13
ENDBRANCH  10  11
BRANCH   9  16
HETATM   16  N4  UNL     1      -1.110   1.940  -0.439  1.00  0.00    -0.382 N 
ATOM     17  H42 UNL     1      -2.106   2.134  -0.544  1.00  0.00     0.157 HD
ATOM     18  H41 UNL     1      -0.392   2.660  -0.521  1.00  0.00     0.157 HD
ENDBRANCH   9  16
TORSDOF 3
