REMARK  0 active torsions:
REMARK  status: ('A' for Active; 'I' for Inactive)
ROOT
HETATM    1  N1  UNL     1       0.914   2.263   0.832  1.00  0.00    -0.232 N 
ATOM      2  H11 UNL     1       0.050   2.783   0.985  1.00  0.00     0.174 HD
ATOM      3  H12 UNL     1       1.777   2.773   1.023  1.00  0.00     0.174 HD
HETATM    4  C1  UNL     1       0.937   1.041   0.424  1.00  0.00     0.713 A 
HETATM    5  N2  UNL     1       2.137   0.318   0.212  1.00  0.00    -0.184 N 
ATOM      6  H2  UNL     1       3.029   0.781   0.389  1.00  0.00     0.185 HD
HETATM    7  C2  UNL     1       2.141  -1.046  -0.244  1.00  0.00     0.217 A 
HETATM    8  N3  UNL     1       1.010  -1.627  -0.465  1.00  0.00    -0.268 N 
ATOM      9  H3  UNL     1       1.019  -2.595  -0.787  1.00  0.00     0.190 HD
HETATM   10  N4  UNL     1      -0.228  -1.000  -0.286  1.00  0.00    -0.105 N 
HETATM   11  C3  UNL     1      -1.576  -1.400  -0.452  1.00  0.00     0.375 A 
HETATM   12  O1  UNL     1      -1.965  -2.530  -0.839  1.00  0.00    -0.242 OA
HETATM   13  N5  UNL     1      -2.402  -0.305  -0.106  1.00  0.00    -0.230 N 
ATOM     14  H5  UNL     1      -3.422  -0.297  -0.128  1.00  0.00     0.189 HD
HETATM   15  N6  UNL     1      -1.596   0.749   0.266  1.00  0.00     0.023 NA
HETATM   16  N7  UNL     1      -0.292   0.315   0.152  1.00  0.00     0.021 N 
ENDROOT
TORSDOF 0
