REMARK  2 active torsions:
REMARK  status: ('A' for Active; 'I' for Inactive)
REMARK    1  A    between atoms: O1_1  and  N1_3 
REMARK    2  A    between atoms: N3_5  and  O2_6 
ROOT
HETATM    1  N1  UNL     1      -1.457   0.257  -0.139  1.00  0.00    -0.015 N 
HETATM    2  N2  UNL     1      -0.317   0.916  -0.245  1.00  0.00     0.076 NA
HETATM    3  N3  UNL     1       0.698   0.085  -0.083  1.00  0.00    -0.051 N 
HETATM    4  N4  UNL     1       0.162  -1.106   0.125  1.00  0.00     0.095 NA
HETATM    5  O3  UNL     1      -1.136  -0.974   0.087  1.00  0.00    -0.096 OA
ENDROOT
BRANCH   1   6
HETATM    6  O1  UNL     1      -2.749   0.741  -0.241  1.00  0.00    -0.248 OA
ATOM      7  H1  UNL     1      -3.569   0.267  -0.165  1.00  0.00     0.248 HD
ENDBRANCH   1   6
BRANCH   3   8
HETATM    8  O2  UNL     1       2.058   0.384  -0.122  1.00  0.00    -0.256 OA
ATOM      9  H2  UNL     1       2.788  -0.213  -0.006  1.00  0.00     0.248 HD
ENDBRANCH   3   8
TORSDOF 2
