REMARK  1 active torsions:
REMARK  status: ('A' for Active; 'I' for Inactive)
REMARK    1  A    between atoms: O1_1  and  N1_3 
ROOT
HETATM    1  N1  UNL     1       1.760  -0.248  -0.006  1.00  0.00     0.006 N 
HETATM    2  O2  UNL     1       1.239  -0.845  -1.025  1.00  0.00    -0.087 OA
HETATM    3  N2  UNL     1       0.038  -0.464  -0.709  1.00  0.00    -0.116 N 
HETATM    4  N3  UNL     1       0.540   0.148   0.329  1.00  0.00    -0.059 N 
HETATM    5  N4  UNL     1      -0.671   0.621   0.781  1.00  0.00    -0.071 NA
HETATM    6  C1  UNL     1      -1.287  -0.022  -0.328  1.00  0.00     0.321 A 
ENDROOT
BRANCH   1   7
HETATM    7  O1  UNL     1       3.051  -0.103   0.497  1.00  0.00    -0.244 OA
ATOM      8  H1  UNL     1       3.434   0.336   1.247  1.00  0.00     0.249 HD
ENDBRANCH   1   7
TORSDOF 1
