REMARK  1 active torsions:
REMARK  status: ('A' for Active; 'I' for Inactive)
REMARK    1  A    between atoms: N3_5  and  O2_6 
ROOT
HETATM    1  C1  UNL     1      -1.593   0.048  -0.599  1.00  0.00     0.199 C 
HETATM    2  N1  UNL     1      -0.204  -0.019  -0.250  1.00  0.00    -0.197 N 
HETATM    3  N2  UNL     1       0.380  -1.162   0.112  1.00  0.00     0.070 NA
HETATM    4  O1  UNL     1       1.623  -0.977   0.377  1.00  0.00    -0.095 OA
HETATM    5  N3  UNL     1       1.853   0.281   0.189  1.00  0.00    -0.018 N 
HETATM    6  N4  UNL     1       0.740   0.884  -0.197  1.00  0.00    -0.178 N 
ATOM      7  H4  UNL     1       0.637   1.875  -0.414  1.00  0.00     0.214 HD
ENDROOT
BRANCH   5   8
HETATM    8  O2  UNL     1       3.043   0.911   0.354  1.00  0.00    -0.246 OA
ATOM      9  H2  UNL     1       3.212   1.836   0.216  1.00  0.00     0.249 HD
ENDBRANCH   5   8
TORSDOF 1
