REMARK  1 active torsions:
REMARK  status: ('A' for Active; 'I' for Inactive)
REMARK    1  A    between atoms: O1_1  and  N1_3 
ROOT
HETATM    1  N1  UNL     1       0.568   0.179   0.168  1.00  0.00    -0.062 N 
HETATM    2  N2  UNL     1      -0.179   1.009  -0.553  1.00  0.00    -0.178 N 
ATOM      3  H2  UNL     1       0.240   1.841  -0.969  1.00  0.00     0.214 HD
HETATM    4  N3  UNL     1      -1.473   0.756  -0.733  1.00  0.00    -0.163 N 
ATOM      5  H3  UNL     1      -2.029   1.405  -1.289  1.00  0.00     0.220 HD
HETATM    6  O2  UNL     1      -2.053  -0.291  -0.224  1.00  0.00    -0.123 OA
HETATM    7  N4  UNL     1      -1.342  -1.118   0.486  1.00  0.00    -0.163 N 
ATOM      8  H4  UNL     1      -1.771  -1.947   0.897  1.00  0.00     0.220 HD
HETATM    9  N5  UNL     1      -0.053  -0.870   0.668  1.00  0.00    -0.178 N 
ATOM     10  H5  UNL     1       0.489  -1.529   1.227  1.00  0.00     0.214 HD
ENDROOT
BRANCH   1  11
HETATM   11  O1  UNL     1       1.914   0.397   0.384  1.00  0.00    -0.251 OA
ATOM     12  H1  UNL     1       2.448  -0.196   0.899  1.00  0.00     0.248 HD
ENDBRANCH   1  11
TORSDOF 1
