REMARK  3 active torsions:
REMARK  status: ('A' for Active; 'I' for Inactive)
REMARK    1  A    between atoms: C2_4  and  N2_5 
REMARK    2  A    between atoms: N2_5  and  C3_7 
REMARK    3  A    between atoms: C3_7  and  C4_8 
ROOT
HETATM    1  N2  UNL     1       0.186  -1.073   1.215  1.00  0.00    -0.359 N 
ATOM      2  H2  UNL     1       0.395  -1.542   2.096  1.00  0.00     0.162 HD
ENDROOT
BRANCH   1   3
HETATM    3  C2  UNL     1       1.209  -0.349   0.545  1.00  0.00     0.188 C 
HETATM    4  N1  UNL     1       2.211   0.184   1.166  1.00  0.00    -0.346 N 
HETATM    5  C1  UNL     1       3.030   0.825   0.184  1.00  0.00     0.259 C 
ATOM      6  H1  UNL     1       2.385   0.153   2.171  1.00  0.00     0.163 HD
HETATM    7  N5  UNL     1       2.381   0.712  -1.083  1.00  0.00    -0.119 NA
HETATM    8  N4  UNL     1       1.287  -0.108  -0.854  1.00  0.00    -0.274 N 
ATOM      9  H4  UNL     1       0.651  -0.473  -1.563  1.00  0.00     0.185 HD
ENDBRANCH   1   3
BRANCH   1  10
HETATM   10  C3  UNL     1      -1.156  -1.153   0.660  1.00  0.00     0.157 C 
BRANCH  10  11
HETATM   11  C4  UNL     1      -1.783   0.217   0.731  1.00  0.00     0.229 A 
HETATM   12  C5  UNL     1      -3.117   0.475   0.257  1.00  0.00     0.267 A 
HETATM   13  N3  UNL     1      -1.932   0.881  -0.542  1.00  0.00    -0.066 N 
ATOM     14  H32 UNL     1      -1.594   1.750  -0.956  1.00  0.00     0.277 HD
ATOM     15  H31 UNL     1      -1.602   0.718  -1.493  1.00  0.00     0.277 HD
ENDBRANCH  10  11
ENDBRANCH   1  10
TORSDOF 3
