REMARK  5 active torsions:
REMARK  status: ('A' for Active; 'I' for Inactive)
REMARK    1  A    between atoms: N1_2  and  C2_4 
REMARK    2  A    between atoms: C3_11  and  C4_12 
REMARK    3  A    between atoms: C4_12  and  C5_13 
REMARK    4  A    between atoms: C5_13  and  N5_14 
REMARK    5  A    between atoms: N5_14  and  N6_15 
ROOT
HETATM    1  C2  UNL     1      -1.604  -0.096  -0.113  1.00  0.00     0.141 A 
HETATM    2  N2  UNL     1      -2.638  -0.592  -0.789  1.00  0.00    -0.270 N 
ATOM      3  H2  UNL     1      -3.557  -0.163  -0.895  1.00  0.00     0.190 HD
HETATM    4  N3  UNL     1      -2.250  -1.732  -1.289  1.00  0.00    -0.241 N 
ATOM      5  H3  UNL     1      -2.837  -2.342  -1.858  1.00  0.00     0.208 HD
HETATM    6  N4  UNL     1      -1.000  -1.992  -0.962  1.00  0.00    -0.287 N 
ATOM      7  H4  UNL     1      -0.473  -2.822  -1.234  1.00  0.00     0.188 HD
HETATM    8  C3  UNL     1      -0.536  -0.980  -0.210  1.00  0.00     0.073 A 
ENDROOT
BRANCH   8   9
HETATM    9  C4  UNL     1       0.805  -0.901   0.342  1.00  0.00     0.080 C 
BRANCH   9  10
HETATM   10  C5  UNL     1       1.738   0.029  -0.365  1.00  0.00     0.140 C 
BRANCH  10  11
HETATM   11  N5  UNL     1       3.009  -0.041   0.339  1.00  0.00    -0.148 NA
BRANCH  11  12
HETATM   12  N6  UNL     1       3.946   0.795  -0.264  1.00  0.00    -0.348 N 
ATOM     13  H62 UNL     1       3.753   1.370  -1.084  1.00  0.00     0.172 HD
ATOM     14  H61 UNL     1       4.837   0.746   0.230  1.00  0.00     0.172 HD
ENDBRANCH  11  12
ENDBRANCH  10  11
ENDBRANCH   9  10
ENDBRANCH   8   9
BRANCH   1  15
HETATM   15  N1  UNL     1      -1.557   0.994   0.524  1.00  0.00    -0.378 N 
HETATM   16  C1  UNL     1      -2.642   1.929   0.641  1.00  0.00     0.147 C 
ATOM     17  H1  UNL     1      -0.681   1.229   0.991  1.00  0.00     0.160 HD
ENDBRANCH   1  15
TORSDOF 5
