REMARK  6 active torsions:
REMARK  status: ('A' for Active; 'I' for Inactive)
REMARK    1  A    between atoms: C2_2  and  N1_3 
REMARK    2  A    between atoms: C3_4  and  C4_5 
REMARK    3  A    between atoms: N2_9  and  C8_10 
REMARK    4  A    between atoms: C8_10  and  C9_11 
REMARK    5  A    between atoms: C9_11  and  C10_12 
REMARK    6  A    between atoms: C10_12  and  C11_13 
ROOT
HETATM    1  C4  UNL     1       2.010  -1.289  -0.421  1.00  0.00     0.153 C 
HETATM    2  C5  UNL     1       2.577  -2.347  -1.397  1.00  0.00     0.035 C 
HETATM    3  C6  UNL     1       2.383  -1.717  -2.752  1.00  0.00     0.022 C 
HETATM    4  C7  UNL     1       1.185  -0.784  -2.493  1.00  0.00     0.123 C 
HETATM    5  N2  UNL     1       1.543  -0.249  -1.229  1.00  0.00    -0.382 N 
ENDROOT
BRANCH   1   6
HETATM    6  C3  UNL     1       2.960  -1.037   0.637  1.00  0.00     0.125 A 
HETATM    7  N1  UNL     1       4.158  -0.492   0.684  1.00  0.00    -0.285 N 
HETATM    8  C18 UNL     1       4.623  -0.483   1.972  1.00  0.00     0.342 A 
HETATM    9  N4  UNL     1       3.671  -1.044   2.729  1.00  0.00    -0.250 N 
HETATM   10  O1  UNL     1       5.736  -0.026   2.330  1.00  0.00    -0.245 OA
HETATM   11  N3  UNL     1       2.678  -1.377   1.940  1.00  0.00    -0.283 N 
ATOM     12  H4  UNL     1       3.711  -1.187   3.738  1.00  0.00     0.192 HD
ATOM     13  H3  UNL     1       1.816  -1.826   2.249  1.00  0.00     0.188 HD
BRANCH   7  14
HETATM   14  C2  UNL     1       4.946   0.027  -0.397  1.00  0.00     0.131 C 
HETATM   15  C1  UNL     1       4.737   1.503  -0.662  1.00  0.00     0.027 C 
ENDBRANCH   7  14
ENDBRANCH   1   6
BRANCH   5  16
HETATM   16  C8  UNL     1       0.951   0.891  -0.739  1.00  0.00     0.059 C 
BRANCH  16  17
HETATM   17  C9  UNL     1      -0.367   0.873  -0.063  1.00  0.00     0.044 C 
BRANCH  17  18
HETATM   18  C10 UNL     1      -1.460   0.387  -0.934  1.00  0.00     0.009 C 
BRANCH  18  19
HETATM   19  C11 UNL     1      -2.819   0.424  -0.188  1.00  0.00    -0.014 C 
HETATM   20  C12 UNL     1      -2.756  -0.451   1.033  1.00  0.00     0.004 C 
HETATM   21  C13 UNL     1      -4.087  -1.149   1.145  1.00  0.00     0.000 C 
HETATM   22  C14 UNL     1      -5.100  -0.118   1.596  1.00  0.00     0.000 C 
HETATM   23  C15 UNL     1      -5.479   0.818   0.481  1.00  0.00     0.000 C 
HETATM   24  C16 UNL     1      -4.626   2.053   0.433  1.00  0.00     0.000 C 
HETATM   25  C17 UNL     1      -3.181   1.818   0.206  1.00  0.00     0.004 C 
ENDBRANCH  18  19
ENDBRANCH  17  18
ENDBRANCH  16  17
ENDBRANCH   5  16
TORSDOF 6
