REMARK  6 active torsions:
REMARK  status: ('A' for Active; 'I' for Inactive)
REMARK    1  A    between atoms: C2_2  and  C5_5 
REMARK    2  A    between atoms: C7_7  and  C8_8 
REMARK    3  A    between atoms: C9_11  and  C10_12 
REMARK    4  A    between atoms: C10_12  and  C11_13 
REMARK    5  A    between atoms: C12_14  and  C13_15 
REMARK    6  A    between atoms: C14_18  and  C15_19 
ROOT
HETATM    1  C5  UNL     1      -1.647   0.233  -0.211  1.00  0.00     0.130 C 
HETATM    2  C6  UNL     1      -0.826   1.458  -0.065  1.00  0.00     0.048 C 
HETATM    3  C7  UNL     1       0.323   1.443  -1.050  1.00  0.00     0.096 C 
HETATM    4  C9  UNL     1       1.140   0.114  -0.831  1.00  0.00     0.035 C 
HETATM    5  C14 UNL     1       0.158  -0.956  -0.839  1.00  0.00     0.163 C 
HETATM    6  O6  UNL     1      -0.822  -0.814   0.172  1.00  0.00    -0.376 OA
ENDROOT
BRANCH   4   7
HETATM    7  C10 UNL     1       2.042   0.453   0.283  1.00  0.00     0.035 C 
BRANCH   7   8
HETATM    8  C11 UNL     1       2.974  -0.543   0.793  1.00  0.00    -0.019 C 
HETATM    9  C12 UNL     1       4.252  -0.589   0.853  1.00  0.00     0.080 C 
BRANCH   9  10
HETATM   10  C13 UNL     1       5.191   0.390   0.407  1.00  0.00     0.198 C 
HETATM   11  O3  UNL     1       6.449   0.140   0.566  1.00  0.00    -0.645 OA
HETATM   12  O4  UNL     1       4.886   1.566  -0.172  1.00  0.00    -0.645 OA
ENDBRANCH   9  10
ENDBRANCH   7   8
ENDBRANCH   4   7
BRANCH   3  13
HETATM   13  C8  UNL     1       1.084   2.648  -0.777  1.00  0.00     0.177 C 
HETATM   14  O1  UNL     1       0.847   3.425   0.194  1.00  0.00    -0.648 OA
HETATM   15  O2  UNL     1       2.171   3.072  -1.578  1.00  0.00    -0.648 OA
ENDBRANCH   3  13
BRANCH   5  16
HETATM   16  C15 UNL     1       0.294  -2.368  -1.054  1.00  0.00     0.105 A 
HETATM   17  C16 UNL     1      -1.151  -2.966  -1.299  1.00  0.00     0.051 C 
HETATM   18  C17 UNL     1       1.139  -3.403  -0.557  1.00  0.00     0.209 A 
HETATM   19  O5  UNL     1       1.138  -2.965  -1.976  1.00  0.00    -0.373 OA
ENDBRANCH   5  16
BRANCH   1  20
HETATM   20  C2  UNL     1      -2.906   0.327   0.601  1.00  0.00    -0.025 C 
HETATM   21  C1  UNL     1      -2.578   0.498   2.052  1.00  0.00     0.017 C 
HETATM   22  C3  UNL     1      -3.607   1.619   0.159  1.00  0.00     0.017 C 
HETATM   23  C4  UNL     1      -3.869  -0.791   0.427  1.00  0.00     0.017 C 
ENDBRANCH   1  20
TORSDOF 6
