REMARK  6 active torsions:
REMARK  status: ('A' for Active; 'I' for Inactive)
REMARK    1  A    between atoms: C2_2  and  C3_3 
REMARK    2  A    between atoms: C3_3  and  N1_4 
REMARK       I    between atoms: C4_6  and  N2_7 
REMARK       I    between atoms: C4_6  and  N4_11 
REMARK    3  A    between atoms: N4_11  and  N5_13 
REMARK    4  A    between atoms: N6_19  and  C10_20 
REMARK    5  A    between atoms: C10_20  and  C11_21 
REMARK    6  A    between atoms: C11_21  and  C12_22 
ROOT
HETATM    1  N1  UNL     1       4.570  -0.927  -0.038  1.00  0.00    -0.224 N 
ATOM      2  H1  UNL     1       4.988  -1.790  -0.386  1.00  0.00     0.177 HD
HETATM    3  C4  UNL     1       3.505  -1.052   0.657  1.00  0.00     0.701 C 
HETATM    4  N2  UNL     1       3.042  -2.395   0.852  1.00  0.00    -0.125 N 
ATOM      5  H2  UNL     1       2.712  -2.918   0.041  1.00  0.00     0.197 HD
HETATM    6  C5  UNL     1       3.022  -3.020   2.098  1.00  0.00     0.196 C 
HETATM    7  N3  UNL     1       3.028  -3.546   3.139  1.00  0.00    -0.171 NA
HETATM    8  N4  UNL     1       2.759   0.003   1.236  1.00  0.00    -0.132 N 
ATOM      9  H4  UNL     1       3.268   0.851   1.485  1.00  0.00     0.205 HD
ENDROOT
BRANCH   1  10
HETATM   10  C3  UNL     1       5.243   0.292  -0.384  1.00  0.00     0.138 C 
BRANCH  10  11
HETATM   11  C2  UNL     1       6.744   0.070  -0.308  1.00  0.00     0.016 C 
HETATM   12  C1  UNL     1       7.514   1.300  -0.680  1.00  0.00     0.006 C 
ENDBRANCH  10  11
ENDBRANCH   1  10
BRANCH   8  13
HETATM   13  N5  UNL     1       1.397  -0.017   1.494  1.00  0.00    -0.293 N 
HETATM   14  C6  UNL     1       0.529   0.550   0.698  1.00  0.00     0.032 C 
HETATM   15  C7  UNL     1       1.109   1.216  -0.502  1.00  0.00     0.057 C 
HETATM   16  C17 UNL     1      -0.899   0.520   0.977  1.00  0.00     0.326 C 
HETATM   17  C8  UNL     1       0.193   0.788  -1.660  1.00  0.00     0.036 C 
HETATM   18  C9  UNL     1      -1.168   1.297  -1.264  1.00  0.00     0.273 C 
HETATM   19  N6  UNL     1      -1.764   0.522  -0.198  1.00  0.00     0.093 N 
ATOM     20  H5  UNL     1       1.061  -0.490   2.333  1.00  0.00     0.186 HD
BRANCH  19  21
HETATM   21  C10 UNL     1      -2.135  -0.793  -0.596  1.00  0.00     0.273 C 
BRANCH  21  22
HETATM   22  C11 UNL     1      -3.045  -1.472   0.353  1.00  0.00     0.034 C 
BRANCH  22  23
HETATM   23  C12 UNL     1      -4.386  -0.863   0.554  1.00  0.00    -0.013 C 
HETATM   24  C13 UNL     1      -5.198  -0.784  -0.722  1.00  0.00     0.005 C 
HETATM   25  C14 UNL     1      -6.311   0.179  -0.373  1.00  0.00     0.000 C 
HETATM   26  C15 UNL     1      -5.966   0.787   0.974  1.00  0.00     0.000 C 
HETATM   27  C16 UNL     1      -4.430   0.554   1.033  1.00  0.00     0.005 C 
ENDBRANCH  22  23
ENDBRANCH  21  22
ENDBRANCH  19  21
ENDBRANCH   8  13
TORSDOF 6
