REMARK  4 active torsions:
REMARK  status: ('A' for Active; 'I' for Inactive)
REMARK    1  A    between atoms: N1_1  and  N2_4 
REMARK    2  A    between atoms: N2_4  and  C1_6 
REMARK    3  A    between atoms: N5_11  and  C2_12 
REMARK    4  A    between atoms: N6_15  and  N7_16 
ROOT
HETATM    1  C1  UNL     1       2.337  -0.423   0.091  1.00  0.00     0.207 A 
HETATM    2  N3  UNL     1       1.592  -1.373   0.667  1.00  0.00    -0.265 N 
ATOM      3  H3  UNL     1       1.901  -2.311   0.923  1.00  0.00     0.190 HD
HETATM    4  N4  UNL     1       0.390  -0.876   0.842  1.00  0.00    -0.232 N 
ATOM      5  H4  UNL     1      -0.388  -1.384   1.264  1.00  0.00     0.209 HD
HETATM    6  N5  UNL     1       0.319   0.351   0.407  1.00  0.00    -0.212 N 
HETATM    7  C5  UNL     1       1.535   0.660  -0.071  1.00  0.00     0.314 A 
HETATM    8  O1  UNL     1       1.844   1.782  -0.581  1.00  0.00    -0.262 OA
ENDROOT
BRANCH   6   9
HETATM    9  C2  UNL     1      -0.811   1.222   0.422  1.00  0.00     0.150 C 
HETATM   10  C3  UNL     1      -2.027   0.770   0.210  1.00  0.00     0.065 A 
HETATM   11  C4  UNL     1      -3.501   0.951   0.073  1.00  0.00     0.208 A 
HETATM   12  N6  UNL     1      -2.921  -0.355  -0.076  1.00  0.00    -0.294 N 
BRANCH  12  13
HETATM   13  N7  UNL     1      -3.154  -1.709  -0.325  1.00  0.00    -0.342 N 
ATOM     14  H72 UNL     1      -2.742  -2.636  -0.431  1.00  0.00     0.177 HD
ATOM     15  H71 UNL     1      -3.776  -2.492  -0.524  1.00  0.00     0.177 HD
ENDBRANCH  12  13
ENDBRANCH   6   9
BRANCH   1  16
HETATM   16  N2  UNL     1       3.579  -0.493  -0.255  1.00  0.00    -0.286 N 
ATOM     17  H2  UNL     1       4.086  -1.361  -0.084  1.00  0.00     0.188 HD
BRANCH  16  18
HETATM   18  N1  UNL     1       4.253   0.568  -0.851  1.00  0.00    -0.343 N 
ATOM     19  H12 UNL     1       3.730   1.429  -1.014  1.00  0.00     0.176 HD
ATOM     20  H11 UNL     1       5.234   0.513  -1.124  1.00  0.00     0.176 HD
ENDBRANCH  16  18
ENDBRANCH   1  16
TORSDOF 4
