REMARK  2 active torsions:
REMARK  status: ('A' for Active; 'I' for Inactive)
REMARK    1  A    between atoms: N1_1  and  C1_4 
REMARK    2  A    between atoms: C2_7  and  N3_8 
ROOT
HETATM    1  C1  UNL     1      -2.213  -0.248   0.478  1.00  0.00     0.694 A 
HETATM    2  N2  UNL     1      -1.004  -0.703   0.147  1.00  0.00    -0.021 N 
ATOM      3  H2  UNL     1      -0.802  -1.697   0.256  1.00  0.00     0.203 HD
HETATM    4  C2  UNL     1      -0.029   0.123  -0.333  1.00  0.00     0.723 A 
HETATM    5  N7  UNL     1      -0.347   1.419  -0.457  1.00  0.00    -0.138 N 
ATOM      6  H7  UNL     1       0.365   2.057  -0.814  1.00  0.00     0.189 HD
HETATM    7  C4  UNL     1      -1.554   1.928  -0.137  1.00  0.00     0.352 A 
HETATM    8  O1  UNL     1      -1.825   3.153  -0.264  1.00  0.00    -0.246 OA
HETATM    9  N8  UNL     1      -2.488   1.057   0.338  1.00  0.00    -0.141 N 
ATOM     10  H8  UNL     1      -3.413   1.404   0.592  1.00  0.00     0.189 HD
ENDROOT
BRANCH   4  11
HETATM   11  N3  UNL     1       1.251  -0.394  -0.677  1.00  0.00    -0.039 N 
HETATM   12  N4  UNL     1       1.698  -1.163  -1.662  1.00  0.00     0.005 NA
HETATM   13  N5  UNL     1       2.934  -1.098  -1.166  1.00  0.00    -0.254 N 
HETATM   14  C3  UNL     1       2.478  -0.310  -0.157  1.00  0.00     0.243 A 
ATOM     15  H5  UNL     1       3.842  -1.480  -1.432  1.00  0.00     0.187 HD
HETATM   16  N6  UNL     1       3.135   0.292   0.938  1.00  0.00    -0.060 NA
ENDBRANCH   4  11
BRANCH   1  17
HETATM   17  N1  UNL     1      -3.083  -1.082   0.924  1.00  0.00    -0.234 N 
ATOM     18  H12 UNL     1      -2.874  -2.075   1.030  1.00  0.00     0.174 HD
ATOM     19  H11 UNL     1      -4.008  -0.734   1.177  1.00  0.00     0.174 HD
ENDBRANCH   1  17
TORSDOF 2
