REMARK  4 active torsions:
REMARK  status: ('A' for Active; 'I' for Inactive)
REMARK    1  A    between atoms: N1_1  and  N2_4 
REMARK    2  A    between atoms: N2_4  and  C1_6 
REMARK    3  A    between atoms: C2_14  and  N5_15 
REMARK    4  A    between atoms: N5_15  and  N6_17 
ROOT
HETATM    1  C1  UNL     1      -0.584  -0.216  -0.246  1.00  0.00     0.177 A 
HETATM    2  N3  UNL     1      -1.514   0.833  -0.021  1.00  0.00    -0.248 N 
ATOM      3  H3  UNL     1      -2.529   0.774   0.056  1.00  0.00     0.182 HD
HETATM    4  S1  UNL     1      -0.507   2.236   0.090  1.00  0.00     0.326 S 
HETATM    5  O1  UNL     1      -0.802   3.220  -1.002  1.00  0.00    -0.182 OA
HETATM    6  O2  UNL     1      -0.603   2.851   1.453  1.00  0.00    -0.182 OA
HETATM    7  N4  UNL     1       1.006   1.444  -0.148  1.00  0.00    -0.248 N 
ATOM      8  H4  UNL     1       1.922   1.893  -0.163  1.00  0.00     0.182 HD
HETATM    9  C2  UNL     1       0.780   0.194  -0.303  1.00  0.00     0.177 A 
ENDROOT
BRANCH   1  10
HETATM   10  N2  UNL     1      -0.977  -1.457  -0.385  1.00  0.00    -0.288 N 
ATOM     11  H2  UNL     1      -0.274  -2.179  -0.544  1.00  0.00     0.188 HD
BRANCH  10  12
HETATM   12  N1  UNL     1      -2.301  -1.825  -0.325  1.00  0.00    -0.344 N 
ATOM     13  H12 UNL     1      -2.990  -1.090  -0.165  1.00  0.00     0.176 HD
ATOM     14  H11 UNL     1      -2.607  -2.792  -0.433  1.00  0.00     0.176 HD
ENDBRANCH  10  12
ENDBRANCH   1  10
BRANCH   9  15
HETATM   15  N5  UNL     1       1.892  -0.716  -0.524  1.00  0.00    -0.288 N 
ATOM     16  H5  UNL     1       1.832  -1.398  -1.280  1.00  0.00     0.188 HD
BRANCH  15  17
HETATM   17  N6  UNL     1       2.998  -0.683   0.241  1.00  0.00    -0.344 N 
ATOM     18  H62 UNL     1       3.042   0.005   0.992  1.00  0.00     0.176 HD
ATOM     19  H61 UNL     1       3.778  -1.321   0.086  1.00  0.00     0.176 HD
ENDBRANCH  15  17
ENDBRANCH   9  15
TORSDOF 4
