REMARK  0 active torsions:
REMARK  status: ('A' for Active; 'I' for Inactive)
REMARK       I    between atoms: N1_1  and  C1_5 
REMARK       I    between atoms: C1_5  and  N2_6 
REMARK       I    between atoms: C1_5  and  N3_10 
ROOT
HETATM    1  N1  UNL     1      -2.097   0.979   0.608  1.00  0.00    -0.032 N 
ATOM      2  H11 UNL     1      -1.686   1.336   1.471  1.00  0.00     0.279 HD
ATOM      3  H12 UNL     1      -3.114   0.940   0.669  1.00  0.00     0.279 HD
ATOM      4  H13 UNL     1      -2.009   1.653  -0.153  1.00  0.00     0.279 HD
HETATM    5  C1  UNL     1      -1.539  -0.307   0.243  1.00  0.00     0.494 C 
HETATM    6  N2  UNL     1      -2.126  -0.817  -0.989  1.00  0.00    -0.032 N 
ATOM      7  H21 UNL     1      -1.733  -1.723  -1.246  1.00  0.00     0.279 HD
ATOM      8  H22 UNL     1      -2.038  -0.143  -1.750  1.00  0.00     0.279 HD
ATOM      9  H23 UNL     1      -3.143  -0.856  -0.928  1.00  0.00     0.279 HD
HETATM   10  N3  UNL     1      -0.110  -0.139   0.125  1.00  0.00    -0.198 N 
HETATM   11  C2  UNL     1       0.722  -1.035   0.686  1.00  0.00     0.337 A 
HETATM   12  O1  UNL     1       0.264  -2.041   1.325  1.00  0.00    -0.246 OA
HETATM   13  N4  UNL     1       2.041  -0.823   0.542  1.00  0.00    -0.260 N 
ATOM     14  H4  UNL     1       2.688  -1.491   0.960  1.00  0.00     0.175 HD
HETATM   15  C3  UNL     1       2.550   0.229  -0.128  1.00  0.00     0.332 A 
HETATM   16  O2  UNL     1       3.811   0.380  -0.233  1.00  0.00    -0.246 OA
HETATM   17  N5  UNL     1       1.701   1.115  -0.682  1.00  0.00    -0.260 N 
ATOM     18  H5  UNL     1       2.057   1.921  -1.196  1.00  0.00     0.175 HD
HETATM   19  C4  UNL     1       0.371   0.921  -0.548  1.00  0.00     0.337 A 
HETATM   20  O3  UNL     1      -0.411   1.777  -1.083  1.00  0.00    -0.246 OA
ENDROOT
TORSDOF 0
