REMARK  5 active torsions:
REMARK  status: ('A' for Active; 'I' for Inactive)
REMARK    1  A    between atoms: C2_2  and  C4_4 
REMARK    2  A    between atoms: C4_4  and  N1_5 
REMARK    3  A    between atoms: C5_8  and  S1_9 
REMARK    4  A    between atoms: S1_9  and  N3_12 
REMARK    5  A    between atoms: N3_12  and  C6_14 
ROOT
HETATM    1  N1  UNL     1       2.503  -0.799  -0.123  1.00  0.00    -0.241 N 
HETATM    2  N2  UNL     1       1.768   0.314  -0.067  1.00  0.00    -0.278 N 
ATOM      3  H2  UNL     1       1.815   0.957  -0.857  1.00  0.00     0.188 HD
HETATM    4  C5  UNL     1       0.973   0.641   0.960  1.00  0.00     0.232 A 
HETATM    5  C13 UNL     1       0.901  -0.210   2.029  1.00  0.00     0.291 A 
HETATM    6  O3  UNL     1       0.164   0.045   3.044  1.00  0.00    -0.265 OA
HETATM    7  N4  UNL     1       1.634  -1.337   1.992  1.00  0.00    -0.272 N 
ATOM      8  H4  UNL     1       1.594  -1.986   2.778  1.00  0.00     0.174 HD
HETATM    9  C14 UNL     1       2.424  -1.626   0.930  1.00  0.00     0.344 A 
HETATM   10  O4  UNL     1       3.089  -2.714   0.963  1.00  0.00    -0.245 OA
ENDROOT
BRANCH   4  11
HETATM   11  S1  UNL     1       0.097   2.140   0.904  1.00  0.00     0.281 S 
HETATM   12  O1  UNL     1      -0.155   2.533   2.337  1.00  0.00    -0.199 OA
HETATM   13  O2  UNL     1       1.034   3.184   0.356  1.00  0.00    -0.199 OA
BRANCH  11  14
HETATM   14  N3  UNL     1      -1.311   1.973  -0.001  1.00  0.00    -0.309 N 
ATOM     15  H3  UNL     1      -1.443   2.528  -0.847  1.00  0.00     0.172 HD
BRANCH  14  16
HETATM   16  C6  UNL     1      -2.307   1.068   0.408  1.00  0.00     0.093 C 
HETATM   17  C7  UNL     1      -3.633   1.729   0.743  1.00  0.00     0.026 C 
HETATM   18  C8  UNL     1      -4.576   1.743  -0.418  1.00  0.00     0.002 C 
HETATM   19  C9  UNL     1      -5.190   0.430  -0.747  1.00  0.00     0.000 C 
HETATM   20  C10 UNL     1      -4.828  -0.683   0.190  1.00  0.00     0.000 C 
HETATM   21  C11 UNL     1      -3.387  -1.093   0.110  1.00  0.00     0.002 C 
HETATM   22  C12 UNL     1      -2.514  -0.079  -0.581  1.00  0.00     0.026 C 
ENDBRANCH  14  16
ENDBRANCH  11  14
ENDBRANCH   4  11
BRANCH   1  23
HETATM   23  C4  UNL     1       3.355  -1.090  -1.246  1.00  0.00     0.157 C 
BRANCH  23  24
HETATM   24  C2  UNL     1       4.695  -0.457  -1.108  1.00  0.00    -0.003 C 
HETATM   25  C1  UNL     1       5.540  -0.812  -2.342  1.00  0.00     0.011 C 
HETATM   26  C3  UNL     1       5.487  -0.898   0.095  1.00  0.00     0.011 C 
ENDBRANCH  23  24
ENDBRANCH   1  23
TORSDOF 5
