REMARK  6 active torsions:
REMARK  status: ('A' for Active; 'I' for Inactive)
REMARK    1  A    between atoms: C2_2  and  C3_3 
REMARK    2  A    between atoms: C3_3  and  N1_4 
REMARK    3  A    between atoms: N3_10  and  C6_12 
REMARK    4  A    between atoms: C6_12  and  C7_13 
REMARK    5  A    between atoms: C7_13  and  C8_14 
REMARK    6  A    between atoms: C8_14  and  O2_15 
ROOT
HETATM    1  N1  UNL     1      -0.907   2.398  -0.064  1.00  0.00    -0.280 N 
HETATM    2  C4  UNL     1       0.265   2.791  -0.565  1.00  0.00     0.330 A 
HETATM    3  O1  UNL     1       0.493   4.012  -0.607  1.00  0.00    -0.246 OA
HETATM    4  N2  UNL     1       1.167   1.921  -1.006  1.00  0.00    -0.292 N 
ATOM      5  H2  UNL     1       2.049   2.272  -1.379  1.00  0.00     0.172 HD
HETATM    6  C5  UNL     1       0.951   0.562  -0.976  1.00  0.00     0.136 A 
HETATM    7  N3  UNL     1       1.890  -0.116  -1.428  1.00  0.00    -0.374 N 
ATOM      8  H3  UNL     1       1.755  -1.127  -1.416  1.00  0.00     0.161 HD
HETATM    9  C9  UNL     1      -0.233   0.139  -0.472  1.00  0.00     0.131 A 
HETATM   10  C10 UNL     1      -1.175   1.086  -0.008  1.00  0.00     0.145 A 
HETATM   11  N4  UNL     1      -2.247   0.426   0.435  1.00  0.00    -0.325 N 
ATOM     12  H4  UNL     1      -3.090   0.844   0.829  1.00  0.00     0.169 HD
HETATM   13  C11 UNL     1      -2.018  -0.884   0.269  1.00  0.00     0.123 A 
HETATM   14  C12 UNL     1      -2.806  -1.973   0.566  1.00  0.00     0.005 A 
HETATM   15  C13 UNL     1      -4.144  -1.761   1.169  1.00  0.00     0.054 C 
HETATM   16  C14 UNL     1      -2.347  -3.232   0.302  1.00  0.00     0.016 A 
HETATM   17  C15 UNL     1      -3.137  -4.454   0.593  1.00  0.00     0.069 C 
HETATM   18  N5  UNL     1      -1.141  -3.383  -0.239  1.00  0.00    -0.349 N 
ATOM     19  H5  UNL     1      -0.800  -4.324  -0.435  1.00  0.00     0.167 HD
HETATM   20  C16 UNL     1      -0.340  -2.306  -0.542  1.00  0.00     0.086 A 
HETATM   21  C17 UNL     1       0.954  -2.683  -1.128  1.00  0.00     0.089 C 
HETATM   22  N6  UNL     1      -0.784  -1.098  -0.287  1.00  0.00    -0.280 N 
ENDROOT
BRANCH   7  23
HETATM   23  C6  UNL     1       3.134   0.339  -1.962  1.00  0.00     0.123 C 
BRANCH  23  24
HETATM   24  C7  UNL     1       4.187   0.637  -0.931  1.00  0.00     0.045 C 
BRANCH  24  25
HETATM   25  C8  UNL     1       4.514  -0.590  -0.112  1.00  0.00     0.165 C 
BRANCH  25  26
HETATM   26  O2  UNL     1       5.492  -0.241   0.820  1.00  0.00    -0.401 OA
ATOM     27  H2  UNL     1       5.698  -1.012   1.335  1.00  0.00     0.209 HD
ENDBRANCH  25  26
ENDBRANCH  24  25
ENDBRANCH  23  24
ENDBRANCH   7  23
BRANCH   1  28
HETATM   28  C3  UNL     1      -1.858   3.374   0.405  1.00  0.00     0.162 C 
BRANCH  28  29
HETATM   29  C2  UNL     1      -1.658   3.683   1.850  1.00  0.00    -0.017 C 
HETATM   30  C1  UNL     1      -1.378   4.927   2.219  1.00  0.00     0.008 C 
ENDBRANCH  28  29
ENDBRANCH   1  28
TORSDOF 6
