REMARK  11 active torsions:
REMARK  status: ('A' for Active; 'I' for Inactive)
REMARK    1  A    between atoms: C2_2  and  N1_3 
REMARK    2  A    between atoms: C2_2  and  O1_7 
REMARK    3  A    between atoms: C2_2  and  C3_9 
REMARK    4  A    between atoms: C3_9  and  O2_10 
REMARK    5  A    between atoms: C3_9  and  C4_12 
REMARK    6  A    between atoms: C4_12  and  O3_13 
REMARK    7  A    between atoms: C4_12  and  N2_15 
REMARK    8  A    between atoms: N2_15  and  C5_17 
REMARK    9  A    between atoms: C6_23  and  N5_24 
REMARK   10  A    between atoms: C7_29  and  C8_30 
REMARK   11  A    between atoms: C12_38  and  N11_39 
ROOT
HETATM    1  C8  UNL     1       3.684   0.757  -0.192  1.00  0.00     0.059 A 
HETATM    2  C9  UNL     1       4.678   1.400   0.539  1.00  0.00     0.101 A 
HETATM    3  C10 UNL     1       4.304   1.915   1.819  1.00  0.00     0.104 C 
HETATM    4  N8  UNL     1       3.991   2.320   2.874  1.00  0.00    -0.191 NA
HETATM    5  C11 UNL     1       5.963   1.549   0.083  1.00  0.00     0.139 A 
HETATM    6  N9  UNL     1       6.968   2.201   0.828  1.00  0.00    -0.081 NA
HETATM    7  N10 UNL     1       6.307   1.059  -1.127  1.00  0.00    -0.329 N 
ATOM      8  H10 UNL     1       7.258   1.162  -1.480  1.00  0.00     0.168 HD
HETATM    9  C12 UNL     1       5.366   0.432  -1.856  1.00  0.00     0.122 A 
HETATM   10  C13 UNL     1       4.068   0.267  -1.426  1.00  0.00     0.103 A 
HETATM   11  C14 UNL     1       3.101  -0.414  -2.250  1.00  0.00     0.104 C 
HETATM   12  N12 UNL     1       2.334  -0.954  -2.926  1.00  0.00    -0.191 NA
ENDROOT
BRANCH   1  13
HETATM   13  C7  UNL     1       2.327   0.619   0.329  1.00  0.00     0.151 A 
HETATM   14  N7  UNL     1       1.291   1.449   0.184  1.00  0.00    -0.267 N 
HETATM   15  N6  UNL     1       0.259   0.909   0.833  1.00  0.00    -0.218 N 
ATOM     16  H7  UNL     1       1.289   2.331  -0.328  1.00  0.00     0.190 HD
HETATM   17  N5  UNL     1       0.607  -0.237   1.386  1.00  0.00    -0.158 N 
ATOM     18  H6  UNL     1      -0.671   1.324   0.894  1.00  0.00     0.210 HD
HETATM   19  N13 UNL     1       1.886  -0.410   1.070  1.00  0.00    -0.259 N 
ATOM     20  H13 UNL     1       2.452  -1.211   1.351  1.00  0.00     0.191 HD
BRANCH  17  21
HETATM   21  C6  UNL     1      -0.234  -1.101   2.160  1.00  0.00     0.214 A 
HETATM   22  C5  UNL     1      -1.504  -1.523   1.847  1.00  0.00     0.175 A 
HETATM   23  N3  UNL     1      -1.895  -2.311   2.860  1.00  0.00    -0.222 N 
HETATM   24  O4  UNL     1      -0.955  -2.387   3.744  1.00  0.00    -0.153 OA
ATOM     25  H3  UNL     1      -2.799  -2.780   2.923  1.00  0.00     0.198 HD
HETATM   26  N4  UNL     1       0.036  -1.675   3.345  1.00  0.00    -0.219 N 
ATOM     27  H4  UNL     1       0.910  -1.560   3.858  1.00  0.00     0.198 HD
BRANCH  22  28
HETATM   28  N2  UNL     1      -2.253  -1.183   0.672  1.00  0.00    -0.343 N 
ATOM     29  H2  UNL     1      -1.857  -0.569  -0.040  1.00  0.00     0.164 HD
BRANCH  28  30
HETATM   30  C4  UNL     1      -3.573  -1.726   0.521  1.00  0.00     0.253 C 
BRANCH  30  31
HETATM   31  C3  UNL     1      -4.329  -1.303  -0.681  1.00  0.00     0.228 C 
BRANCH  31  32
HETATM   32  C2  UNL     1      -4.689   0.152  -0.765  1.00  0.00     0.248 C 
HETATM   33  C1  UNL     1      -3.575   1.101  -0.998  1.00  0.00     0.081 C 
BRANCH  32  34
HETATM   34  N1  UNL     1      -5.466   0.536   0.395  1.00  0.00    -0.045 N 
ATOM     35  H13 UNL     1      -4.879   0.638   1.223  1.00  0.00     0.278 HD
ATOM     36  H12 UNL     1      -5.800   1.497   0.322  1.00  0.00     0.278 HD
ATOM     37  H11 UNL     1      -6.233  -0.117   0.555  1.00  0.00     0.278 HD
ENDBRANCH  32  34
BRANCH  32  38
HETATM   38  O1  UNL     1      -5.607   0.234  -1.849  1.00  0.00    -0.363 OA
ATOM     39  H1  UNL     1      -6.321  -0.374  -1.700  1.00  0.00     0.212 HD
ENDBRANCH  32  38
ENDBRANCH  31  32
BRANCH  31  40
HETATM   40  O2  UNL     1      -5.591  -1.976  -0.656  1.00  0.00    -0.386 OA
ATOM     41  H2  UNL     1      -5.363  -2.897  -0.603  1.00  0.00     0.210 HD
ENDBRANCH  31  40
ENDBRANCH  30  31
BRANCH  30  42
HETATM   42  O3  UNL     1      -4.316  -1.606   1.705  1.00  0.00    -0.374 OA
ATOM     43  H3  UNL     1      -3.831  -1.877   2.476  1.00  0.00     0.212 HD
ENDBRANCH  30  42
ENDBRANCH  28  30
ENDBRANCH  22  28
ENDBRANCH  17  21
ENDBRANCH   1  13
BRANCH   9  44
HETATM   44  N11 UNL     1       5.699  -0.033  -3.009  1.00  0.00    -0.384 N 
ATOM     45 2H11 UNL     1       6.660   0.089  -3.327  1.00  0.00     0.157 HD
ATOM     46 1H11 UNL     1       4.986  -0.508  -3.562  1.00  0.00     0.157 HD
ENDBRANCH   9  44
TORSDOF 11
