REMARK  11 active torsions:
REMARK  status: ('A' for Active; 'I' for Inactive)
REMARK    1  A    between atoms: C1_2  and  N1_3 
REMARK    2  A    between atoms: N4_6  and  N5_7 
REMARK    3  A    between atoms: N5_7  and  N6_9 
REMARK    4  A    between atoms: C2_11  and  C3_12 
REMARK    5  A    between atoms: C4_13  and  O2_14 
REMARK    6  A    between atoms: C6_17  and  O3_18 
REMARK    7  A    between atoms: C7_20  and  O4_21 
REMARK    8  A    between atoms: C8_23  and  C9_24 
REMARK       I    between atoms: C9_24  and  N7_26 
REMARK    9  A    between atoms: N7_26  and  C10_28 
REMARK   10  A    between atoms: C10_28  and  O6_29 
REMARK   11  A    between atoms: C11_31  and  O7_32 
ROOT
HETATM    1  C3  UNL     1       1.381   1.613  -0.226  1.00  0.00     0.083 A 
HETATM    2  C4  UNL     1       0.712   0.723   0.643  1.00  0.00     0.098 A 
HETATM    3  C5  UNL     1      -0.615   0.454   0.353  1.00  0.00     0.064 A 
HETATM    4  C6  UNL     1      -1.346  -0.405   1.151  1.00  0.00     0.115 A 
HETATM    5  C7  UNL     1      -2.673  -0.668   0.851  1.00  0.00     0.118 A 
HETATM    6  C8  UNL     1      -3.301  -0.100  -0.222  1.00  0.00     0.103 A 
HETATM    7  C11 UNL     1      -2.561   0.781  -1.044  1.00  0.00     0.112 A 
HETATM    8  C12 UNL     1      -1.233   1.045  -0.746  1.00  0.00     0.085 A 
HETATM    9  N8  UNL     1      -0.516   1.890  -1.533  1.00  0.00    -0.320 N 
ATOM     10  H8  UNL     1      -0.975   2.318  -2.337  1.00  0.00     0.169 HD
HETATM   11  C13 UNL     1       0.759   2.181  -1.298  1.00  0.00     0.260 A 
HETATM   12  O8  UNL     1       1.424   2.975  -2.040  1.00  0.00    -0.267 OA
ENDROOT
BRANCH   1  13
HETATM   13  C2  UNL     1       2.779   1.897   0.078  1.00  0.00     0.128 C 
HETATM   14  N6  UNL     1       3.335   1.360   1.075  1.00  0.00    -0.295 N 
ATOM     15  H6  UNL     1       2.764   0.732   1.641  1.00  0.00     0.187 HD
BRANCH  14  16
HETATM   16  N5  UNL     1       4.649   1.544   1.473  1.00  0.00    -0.219 N 
ATOM     17  H5  UNL     1       4.876   2.287   2.134  1.00  0.00     0.210 HD
BRANCH  16  18
HETATM   18  N4  UNL     1       5.660   0.730   0.983  1.00  0.00    -0.111 N 
HETATM   19  N3  UNL     1       6.957   0.806   1.287  1.00  0.00     0.021 NA
HETATM   20  N2  UNL     1       7.624  -0.148   0.618  1.00  0.00     0.007 NA
HETATM   21  N1  UNL     1       6.774  -0.842  -0.117  1.00  0.00    -0.163 N 
HETATM   22  C14 UNL     1       5.560  -0.292   0.115  1.00  0.00     0.382 A 
HETATM   23  O9  UNL     1       4.470  -0.660  -0.393  1.00  0.00    -0.242 OA
BRANCH  21  24
HETATM   24  C1  UNL     1       7.023  -1.936  -0.980  1.00  0.00     0.378 C 
HETATM   25  O1  UNL     1       6.104  -2.502  -1.620  1.00  0.00    -0.282 OA
ENDBRANCH  21  24
ENDBRANCH  16  18
ENDBRANCH  14  16
ENDBRANCH   1  13
BRANCH   2  26
HETATM   26  O2  UNL     1       1.402   0.212   1.670  1.00  0.00    -0.359 OA
ATOM     27  H2  UNL     1       0.952  -0.387   2.255  1.00  0.00     0.217 HD
ENDBRANCH   2  26
BRANCH   4  28
HETATM   28  O3  UNL     1      -0.719  -0.970   2.220  1.00  0.00    -0.357 OA
ATOM     29  H3  UNL     1      -1.222  -1.561   2.769  1.00  0.00     0.217 HD
ENDBRANCH   4  28
BRANCH   5  30
HETATM   30  O4  UNL     1      -3.321  -1.533   1.697  1.00  0.00    -0.357 OA
ATOM     31  H4  UNL     1      -4.231  -1.713   1.491  1.00  0.00     0.217 HD
ENDBRANCH   5  30
BRANCH   7  32
HETATM   32  O7  UNL     1      -3.193   1.354  -2.127  1.00  0.00    -0.357 OA
ATOM     33  H7  UNL     1      -2.696   1.946  -2.679  1.00  0.00     0.217 HD
ENDBRANCH   7  32
BRANCH   6  34
HETATM   34  C9  UNL     1      -4.658  -0.342  -0.563  1.00  0.00     0.259 C 
HETATM   35  O5  UNL     1      -5.124   0.265  -1.610  1.00  0.00    -0.267 OA
HETATM   36  N7  UNL     1      -5.568  -1.159   0.089  1.00  0.00    -0.336 N 
ATOM     37  H7  UNL     1      -5.268  -1.668   0.921  1.00  0.00     0.164 HD
BRANCH  36  38
HETATM   38  C10 UNL     1      -6.961  -1.316  -0.384  1.00  0.00     0.290 C 
BRANCH  38  39
HETATM   39  O6  UNL     1      -7.024  -1.822  -1.656  1.00  0.00    -0.382 OA
ATOM     40  H6  UNL     1      -7.918  -1.923  -1.960  1.00  0.00     0.211 HD
ENDBRANCH  38  39
ENDBRANCH  36  38
ENDBRANCH   6  34
TORSDOF 11
