REMARK  11 active torsions:
REMARK  status: ('A' for Active; 'I' for Inactive)
REMARK    1  A    between atoms: O1_2  and  C2_3 
REMARK       I    between atoms: C2_3  and  N1_5 
REMARK       I    between atoms: N1_5  and  C3_7 
REMARK       I    between atoms: C3_7  and  N2_8 
REMARK       I    between atoms: C3_7  and  N11_35 
REMARK    2  A    between atoms: N2_8  and  O3_10 
REMARK    3  A    between atoms: O3_10  and  C4_11 
REMARK    4  A    between atoms: C4_11  and  N4_15 
REMARK    5  A    between atoms: N4_15  and  N5_17 
REMARK    6  A    between atoms: N6_19  and  C6_21 
REMARK    7  A    between atoms: C8_25  and  N8_26 
REMARK    8  A    between atoms: C9_31  and  N10_32 
REMARK    9  A    between atoms: C11_41  and  N14_42 
REMARK   10  A    between atoms: N14_42  and  O4_43 
REMARK   11  A    between atoms: N14_42  and  O5_45 
ROOT
HETATM    1  C4  UNL     1       0.526  -1.243  -0.460  1.00  0.00     0.259 C 
HETATM    2  N3  UNL     1       0.653  -1.756  -1.634  1.00  0.00    -0.362 N 
ATOM      3  H31 UNL     1       1.603  -1.973  -1.936  1.00  0.00     0.159 HD
ATOM      4  H32 UNL     1      -0.141  -1.945  -2.246  1.00  0.00     0.159 HD
ENDROOT
BRANCH   1   5
HETATM    5  O3  UNL     1      -0.765  -0.948  -0.049  1.00  0.00    -0.185 OA
BRANCH   5   6
HETATM    6  N2  UNL     1      -1.804  -0.722  -0.860  1.00  0.00    -0.087 N 
HETATM    7  C3  UNL     1      -3.008  -0.222  -0.315  1.00  0.00     0.717 C 
HETATM    8  N1  UNL     1      -2.721   0.905   0.556  1.00  0.00    -0.133 N 
HETATM    9  N11 UNL     1      -4.007  -1.099   0.150  1.00  0.00    -0.109 N 
HETATM   10  C2  UNL     1      -3.035   2.256   0.259  1.00  0.00     0.378 C 
ATOM     11  H1  UNL     1      -2.261   0.711   1.445  1.00  0.00     0.190 HD
HETATM   12  O2  UNL     1      -3.603   2.574  -0.818  1.00  0.00    -0.238 OA
HETATM   13  C10 UNL     1      -5.321  -1.004  -0.226  1.00  0.00     0.226 A 
HETATM   14  C11 UNL     1      -3.972  -2.124   0.981  1.00  0.00     0.248 A 
HETATM   15  N12 UNL     1      -6.034  -1.942   0.363  1.00  0.00    -0.293 N 
HETATM   16  N13 UNL     1      -5.240  -2.641   1.105  1.00  0.00    -0.270 N 
ATOM     17  H12 UNL     1      -7.037  -2.091   0.253  1.00  0.00     0.187 HD
ATOM     18  H13 UNL     1      -5.507  -3.438   1.683  1.00  0.00     0.189 HD
ATOM     19  H2  UNL     1      -1.728  -0.908  -1.860  1.00  0.00     0.214 HD
BRANCH  10  20
HETATM   20  O1  UNL     1      -2.734   3.288   1.134  1.00  0.00    -0.308 OA
HETATM   21  C1  UNL     1      -3.045   4.644   0.844  1.00  0.00     0.215 C 
ENDBRANCH  10  20
BRANCH  14  22
HETATM   22  N14 UNL     1      -2.893  -2.690   1.686  1.00  0.00     0.002 NA
BRANCH  22  23
HETATM   23  O4  UNL     1      -2.425  -1.888   2.691  1.00  0.00    -0.282 OA
ATOM     24  H4  UNL     1      -1.697  -2.270   3.167  1.00  0.00     0.240 HD
ENDBRANCH  22  23
BRANCH  22  25
HETATM   25  O5  UNL     1      -3.315  -3.818   2.376  1.00  0.00    -0.282 OA
ATOM     26  H5  UNL     1      -2.587  -4.200   2.852  1.00  0.00     0.240 HD
ENDBRANCH  22  25
ENDBRANCH  14  22
ENDBRANCH   5   6
ENDBRANCH   1   5
BRANCH   1  27
HETATM   27  N4  UNL     1       1.641  -0.978   0.400  1.00  0.00    -0.245 N 
HETATM   28  C5  UNL     1       2.752  -1.902   0.514  1.00  0.00     0.183 C 
BRANCH  27  29
HETATM   29  N5  UNL     1       1.673   0.193   1.156  1.00  0.00    -0.237 N 
HETATM   30  N6  UNL     1       2.486   1.122   0.996  1.00  0.00    -0.281 N 
ATOM     31  H6  UNL     1       2.443   1.949   1.592  1.00  0.00     0.188 HD
ATOM     32  H5  UNL     1       0.978   0.296   1.896  1.00  0.00     0.208 HD
BRANCH  30  33
HETATM   33  C6  UNL     1       3.473   1.026  -0.020  1.00  0.00     0.109 A 
HETATM   34  C7  UNL     1       3.192   1.056  -1.370  1.00  0.00     0.141 A 
HETATM   35  N7  UNL     1       4.198   0.958  -2.250  1.00  0.00    -0.200 N 
HETATM   36  C8  UNL     1       5.490   0.829  -1.903  1.00  0.00     0.677 A 
ATOM     37  H7  UNL     1       3.969   0.983  -3.244  1.00  0.00     0.183 HD
HETATM   38  N9  UNL     1       5.784   0.798  -0.592  1.00  0.00    -0.175 N 
HETATM   39  C9  UNL     1       4.808   0.893   0.333  1.00  0.00     0.144 A 
ATOM     40  H9  UNL     1       6.755   0.702  -0.294  1.00  0.00     0.186 HD
BRANCH  36  41
HETATM   41  N8  UNL     1       6.446   0.735  -2.791  1.00  0.00    -0.234 N 
ATOM     42  H82 UNL     1       6.223   0.759  -3.786  1.00  0.00     0.174 HD
ATOM     43  H81 UNL     1       7.427   0.637  -2.528  1.00  0.00     0.174 HD
ENDBRANCH  36  41
BRANCH  39  44
HETATM   44  N10 UNL     1       5.123   0.862   1.579  1.00  0.00    -0.383 N 
ATOM     45 2H10 UNL     1       4.385   0.934   2.279  1.00  0.00     0.157 HD
ATOM     46 1H10 UNL     1       6.105   0.764   1.839  1.00  0.00     0.157 HD
ENDBRANCH  39  44
ENDBRANCH  30  33
ENDBRANCH  27  29
ENDBRANCH   1  27
TORSDOF 11
