REMARK  3 active torsions:
REMARK  status: ('A' for Active; 'I' for Inactive)
REMARK    1  A    between atoms: C4_7  and  N2_8 
REMARK    2  A    between atoms: N2_8  and  C5_10 
REMARK    3  A    between atoms: C5_10  and  C6_11 
ROOT
HETATM    1  S1  UNL     1       5.535  -0.945  -1.679  1.00  0.00    -0.040 SA
HETATM    2  C1  UNL     1       4.346  -0.371  -0.695  1.00  0.00     0.177 A 
HETATM    3  N1  UNL     1       4.543   0.762   0.004  1.00  0.00    -0.343 N 
ATOM      4  H1  UNL     1       5.426   1.266  -0.075  1.00  0.00     0.167 HD
HETATM    5  C2  UNL     1       3.582   1.220   0.796  1.00  0.00     0.094 A 
HETATM    6  C3  UNL     1       2.397   0.508   0.875  1.00  0.00     0.065 A 
HETATM    7  C4  UNL     1       2.189  -0.649   0.164  1.00  0.00     0.104 A 
HETATM    8  N3  UNL     1       3.197  -1.072  -0.626  1.00  0.00    -0.319 N 
ATOM      9  H3  UNL     1       3.089  -1.926  -1.173  1.00  0.00     0.169 HD
ENDROOT
BRANCH   7  10
HETATM   10  N2  UNL     1       1.119  -1.354   0.192  1.00  0.00    -0.376 N 
ATOM     11  H2  UNL     1       1.081  -2.197  -0.381  1.00  0.00     0.161 HD
BRANCH  10  12
HETATM   12  C5  UNL     1      -0.021  -1.023   0.982  1.00  0.00     0.126 C 
BRANCH  12  13
HETATM   13  C6  UNL     1      -0.886  -0.028   0.194  1.00  0.00     0.003 C 
HETATM   14  C7  UNL     1      -1.352  -0.602  -1.107  1.00  0.00     0.006 C 
HETATM   15  C8  UNL     1      -2.826  -0.723  -1.252  1.00  0.00     0.000 C 
HETATM   16  C9  UNL     1      -3.635   0.393  -0.721  1.00  0.00     0.000 C 
HETATM   17  C10 UNL     1      -2.878   1.345   0.169  1.00  0.00     0.000 C 
HETATM   18  C11 UNL     1      -1.991   0.483   1.068  1.00  0.00     0.006 C 
ENDBRANCH  12  13
ENDBRANCH  10  12
ENDBRANCH   7  10
TORSDOF 3
