REMARK  2 active torsions:
REMARK  status: ('A' for Active; 'I' for Inactive)
REMARK    1  A    between atoms: C2_2  and  N1_4 
REMARK    2  A    between atoms: N1_4  and  C4_6 
ROOT
HETATM    1  C4  UNL     1       0.552   0.074  -0.364  1.00  0.00     0.027 C 
HETATM    2  C5  UNL     1      -0.272   1.197  -0.937  1.00  0.00     0.035 C 
HETATM    3  C6  UNL     1      -1.631   0.801  -1.405  1.00  0.00    -0.012 C 
HETATM    4  C7  UNL     1      -1.663  -0.535  -2.116  1.00  0.00     0.009 C 
HETATM    5  C8  UNL     1      -0.921  -1.609  -1.376  1.00  0.00    -0.012 C 
HETATM    6  C9  UNL     1      -1.618  -1.849  -0.076  1.00  0.00     0.010 C 
HETATM    7  C10 UNL     1      -1.391  -0.777   0.953  1.00  0.00    -0.008 C 
HETATM    8  C11 UNL     1       0.006  -0.250   0.992  1.00  0.00     0.035 C 
HETATM    9  C12 UNL     1      -2.463   0.269   0.926  1.00  0.00    -0.014 C 
HETATM   10  C13 UNL     1      -2.266   1.216   2.102  1.00  0.00     0.010 C 
HETATM   11  C14 UNL     1      -2.692   0.950  -0.363  1.00  0.00     0.009 C 
HETATM   12  C15 UNL     1       0.504  -1.182  -1.193  1.00  0.00     0.035 C 
ENDROOT
BRANCH   1  13
HETATM   13  N1  UNL     1       1.895   0.548  -0.371  1.00  0.00    -0.409 N 
ATOM     14  H1  UNL     1       2.162   1.368  -0.915  1.00  0.00     0.154 HD
BRANCH  13  15
HETATM   15  C2  UNL     1       2.846  -0.157   0.402  1.00  0.00     0.069 C 
HETATM   16  C1  UNL     1       4.076  -0.398  -0.469  1.00  0.00     0.031 C 
HETATM   17  C3  UNL     1       3.308   0.764   1.528  1.00  0.00     0.031 C 
ENDBRANCH  13  15
ENDBRANCH   1  13
TORSDOF 2
