REMARK  12 active torsions:
REMARK  status: ('A' for Active; 'I' for Inactive)
REMARK    1  A    between atoms: C3_3  and  C4_4 
REMARK    2  A    between atoms: C4_4  and  N1_5 
REMARK    3  A    between atoms: N1_5  and  N2_7 
REMARK    4  A    between atoms: N2_7  and  C6_10 
REMARK    5  A    between atoms: C6_10  and  C7_11 
REMARK    6  A    between atoms: C6_10  and  C9_14 
REMARK    7  A    between atoms: C9_14  and  O1_15 
REMARK    8  A    between atoms: N5_17  and  O2_19 
REMARK    9  A    between atoms: N6_24  and  C13_25 
REMARK   10  A    between atoms: C13_25  and  C14_26 
REMARK   11  A    between atoms: C17_36  and  N10_37 
REMARK   12  A    between atoms: N10_37  and  C18_39 
ROOT
HETATM    1  N2  UNL     1       5.506  -0.127   1.483  1.00  0.00    -0.215 N 
HETATM    2  C5  UNL     1       6.323   0.013   2.674  1.00  0.00     0.201 C 
HETATM    3  N3  UNL     1       6.961   0.118   3.640  1.00  0.00    -0.170 NA
ENDROOT
BRANCH   1   4
HETATM    4  N1  UNL     1       4.315   0.435   1.534  1.00  0.00    -0.324 N 
ATOM      5  H1  UNL     1       3.975   0.693   2.460  1.00  0.00     0.181 HD
BRANCH   4   6
HETATM    6  C4  UNL     1       3.467   0.716   0.463  1.00  0.00     0.151 C 
BRANCH   6   7
HETATM    7  C3  UNL     1       2.190   1.443   0.901  1.00  0.00     0.054 C 
HETATM    8  C2  UNL     1       1.387   1.670  -0.358  1.00  0.00     0.004 C 
HETATM    9  C1  UNL     1       1.906   2.402  -1.309  1.00  0.00     0.038 C 
HETATM   10  N6  UNL     1       0.091   1.093  -0.483  1.00  0.00    -0.377 N 
HETATM   11  C12 UNL     1      -0.300  -0.145   0.162  1.00  0.00     0.123 C 
HETATM   12  C11 UNL     1       0.782  -0.614   1.075  1.00  0.00     0.021 C 
HETATM   13  C10 UNL     1       1.344   0.599   1.792  1.00  0.00     0.014 C 
BRANCH  10  14
HETATM   14  C13 UNL     1      -0.904   1.754  -1.289  1.00  0.00     0.199 C 
BRANCH  14  15
HETATM   15  C14 UNL     1      -2.201   1.073  -1.280  1.00  0.00     0.102 A 
HETATM   16  N7  UNL     1      -2.495   0.172  -2.226  1.00  0.00    -0.327 N 
HETATM   17  C15 UNL     1      -3.672  -0.481  -2.265  1.00  0.00     0.161 A 
ATOM     18  H7  UNL     1      -1.800  -0.028  -2.945  1.00  0.00     0.169 HD
HETATM   19  N8  UNL     1      -4.205  -1.407  -3.082  1.00  0.00    -0.223 N 
HETATM   20  C16 UNL     1      -4.609  -0.193  -1.270  1.00  0.00     0.147 A 
HETATM   21  O3  UNL     1      -5.391  -1.680  -2.634  1.00  0.00    -0.155 OA
ATOM     22  H8  UNL     1      -3.759  -1.818  -3.902  1.00  0.00     0.198 HD
HETATM   23  N9  UNL     1      -5.648  -0.983  -1.575  1.00  0.00    -0.234 N 
ATOM     24  H9  UNL     1      -6.519  -1.028  -1.046  1.00  0.00     0.197 HD
HETATM   25  C17 UNL     1      -4.331   0.730  -0.286  1.00  0.00     0.155 A 
HETATM   26  N13 UNL     1      -3.114   1.321  -0.353  1.00  0.00    -0.328 N 
ATOM     27  H13 UNL     1      -2.883   2.009   0.364  1.00  0.00     0.169 HD
BRANCH  25  28
HETATM   28  N10 UNL     1      -5.166   1.012   0.640  1.00  0.00    -0.174 N 
ATOM     29  H10 UNL     1      -4.917   1.702   1.349  1.00  0.00     0.186 HD
BRANCH  28  30
HETATM   30  C18 UNL     1      -6.426   0.383   0.696  1.00  0.00     0.675 C 
HETATM   31  N11 UNL     1      -7.439   0.932   0.127  1.00  0.00    -0.226 N 
HETATM   32  C19 UNL     1      -8.766   0.402   0.110  1.00  0.00     0.139 C 
ATOM     33  H11 UNL     1      -7.283   1.819  -0.352  1.00  0.00     0.177 HD
HETATM   34  C20 UNL     1      -8.880  -1.058   0.416  1.00  0.00     0.040 C 
HETATM   35  C21 UNL     1      -7.901  -1.533   1.463  1.00  0.00     0.139 C 
HETATM   36  N12 UNL     1      -6.635  -0.855   1.375  1.00  0.00    -0.226 N 
ATOM     37  H12 UNL     1      -5.831  -1.289   1.829  1.00  0.00     0.177 HD
ENDBRANCH  28  30
ENDBRANCH  25  28
ENDBRANCH  14  15
ENDBRANCH  10  14
ENDBRANCH   6   7
ENDBRANCH   4   6
ENDBRANCH   1   4
BRANCH   1  38
HETATM   38  C6  UNL     1       6.153  -0.857   0.450  1.00  0.00     0.219 C 
BRANCH  38  39
HETATM   39  C7  UNL     1       5.414  -1.144  -0.769  1.00  0.00     0.024 C 
HETATM   40  C8  UNL     1       5.098  -2.364  -1.094  1.00  0.00     0.098 C 
HETATM   41  N4  UNL     1       4.376  -2.614  -2.289  1.00  0.00    -0.115 NA
ENDBRANCH  38  39
BRANCH  38  42
HETATM   42  C9  UNL     1       7.444  -0.133   0.135  1.00  0.00     0.165 C 
HETATM   43  N5  UNL     1       7.769   0.951   0.707  1.00  0.00    -0.249 N 
ATOM     44  H5  UNL     1       7.135   1.345   1.402  1.00  0.00     0.196 HD
BRANCH  42  45
HETATM   45  O1  UNL     1       8.309  -0.667  -0.812  1.00  0.00    -0.346 OA
ATOM     46  H1  UNL     1       9.119  -0.212  -1.010  1.00  0.00     0.219 HD
ENDBRANCH  42  45
BRANCH  43  47
HETATM   47  O2  UNL     1       8.929   1.613   0.433  1.00  0.00    -0.288 OA
ATOM     48  H2  UNL     1       9.172   2.425   0.862  1.00  0.00     0.244 HD
ENDBRANCH  43  47
ENDBRANCH  38  42
ENDBRANCH   1  38
TORSDOF 12
