REMARK  12 active torsions:
REMARK  status: ('A' for Active; 'I' for Inactive)
REMARK    1  A    between atoms: O1_2  and  N1_3 
REMARK    2  A    between atoms: C2_5  and  O2_6 
REMARK    3  A    between atoms: C2_5  and  C3_8 
REMARK    4  A    between atoms: C5_12  and  N2_13 
REMARK    5  A    between atoms: N2_13  and  C6_15 
REMARK    6  A    between atoms: N3_19  and  C9_20 
REMARK    7  A    between atoms: C9_20  and  C10_21 
REMARK    8  A    between atoms: C10_21  and  C11_22 
REMARK    9  A    between atoms: C11_22  and  C12_23 
REMARK   10  A    between atoms: C14_26  and  N4_27 
REMARK   11  A    between atoms: N6_32  and  O4_34 
REMARK   12  A    between atoms: C15_36  and  N7_37 
REMARK       I    between atoms: N7_37  and  C16_39 
REMARK       I    between atoms: C16_39  and  N8_40 
REMARK       I    between atoms: C16_39  and  N9_44 
ROOT
HETATM    1  C6  UNL     1      -1.352  -0.997   0.656  1.00  0.00     0.123 A 
HETATM    2  C7  UNL     1      -1.206   0.292   1.094  1.00  0.00     0.124 A 
HETATM    3  C8  UNL     1      -0.003   0.922   1.016  1.00  0.00     0.271 A 
HETATM    4  O3  UNL     1       0.081   2.126   1.438  1.00  0.00    -0.267 OA
HETATM    5  N3  UNL     1       1.106   0.314   0.505  1.00  0.00    -0.098 N 
HETATM    6  C15 UNL     1       0.947  -0.937   0.083  1.00  0.00     0.693 A 
HETATM    7  N10 UNL     1      -0.233  -1.578   0.152  1.00  0.00    -0.176 N 
ATOM      8  H10 UNL     1      -0.290  -2.538  -0.188  1.00  0.00     0.186 HD
ENDROOT
BRANCH   5   9
HETATM    9  C9  UNL     1       2.324   1.064   0.467  1.00  0.00     0.128 C 
HETATM   10  N6  UNL     1       2.841   1.350   1.606  1.00  0.00    -0.256 N 
ATOM     11  H6  UNL     1       3.709   1.885   1.600  1.00  0.00     0.195 HD
BRANCH   9  12
HETATM   12  C10 UNL     1       2.900   1.488  -0.820  1.00  0.00     0.085 C 
BRANCH  12  13
HETATM   13  C11 UNL     1       4.066   2.380  -0.738  1.00  0.00     0.065 C 
BRANCH  13  14
HETATM   14  C12 UNL     1       5.289   1.758  -0.116  1.00  0.00     0.018 A 
HETATM   15  C13 UNL     1       5.371   0.409   0.106  1.00  0.00     0.078 A 
HETATM   16  S3  UNL     1       6.905   0.254   0.836  1.00  0.00    -0.064 SA
HETATM   17  C14 UNL     1       7.343   1.898   0.815  1.00  0.00     0.142 A 
HETATM   18  N5  UNL     1       6.307   2.496   0.255  1.00  0.00    -0.340 N 
ATOM     19  H5  UNL     1       6.299   3.506   0.115  1.00  0.00     0.167 HD
BRANCH  17  20
HETATM   20  N4  UNL     1       8.450   2.468   1.253  1.00  0.00    -0.380 N 
ATOM     21  H42 UNL     1       9.250   2.006   1.685  1.00  0.00     0.158 HD
ATOM     22  H41 UNL     1       8.713   3.454   1.240  1.00  0.00     0.158 HD
ENDBRANCH  17  20
ENDBRANCH  13  14
ENDBRANCH  12  13
ENDBRANCH   9  12
BRANCH  10  23
HETATM   23  O4  UNL     1       2.337   1.005   2.817  1.00  0.00    -0.288 OA
ATOM     24  H4  UNL     1       2.720   1.217   3.660  1.00  0.00     0.244 HD
ENDBRANCH  10  23
ENDBRANCH   5   9
BRANCH   6  25
HETATM   25  N7  UNL     1       1.930  -1.571  -0.409  1.00  0.00    -0.173 N 
HETATM   26  C16 UNL     1       1.920  -2.913  -0.903  1.00  0.00     0.494 C 
HETATM   27  N8  UNL     1       1.286  -3.039  -2.188  1.00  0.00    -0.032 N 
HETATM   28  N9  UNL     1       3.295  -3.395  -1.060  1.00  0.00    -0.032 N 
ATOM     29  H83 UNL     1       0.342  -2.653  -2.166  1.00  0.00     0.278 HD
ATOM     30  H82 UNL     1       1.711  -2.406  -2.866  1.00  0.00     0.278 HD
ATOM     31  H81 UNL     1       1.279  -3.996  -2.540  1.00  0.00     0.278 HD
ATOM     32  H93 UNL     1       3.854  -2.775  -1.646  1.00  0.00     0.278 HD
ATOM     33  H92 UNL     1       3.833  -3.308  -0.198  1.00  0.00     0.278 HD
ATOM     34  H91 UNL     1       3.288  -4.352  -1.412  1.00  0.00     0.278 HD
ATOM     35  H7  UNL     1       2.818  -1.072  -0.457  1.00  0.00     0.181 HD
ENDBRANCH   6  25
BRANCH   1  36
HETATM   36  N2  UNL     1      -2.587  -1.695   0.701  1.00  0.00    -0.361 N 
ATOM     37  H2  UNL     1      -2.575  -2.652   0.348  1.00  0.00     0.162 HD
BRANCH  36  38
HETATM   38  C5  UNL     1      -3.831  -1.222   1.176  1.00  0.00     0.169 C 
HETATM   39  C3  UNL     1      -4.517  -0.177   0.337  1.00  0.00     0.105 C 
HETATM   40  C4  UNL     1      -5.129  -0.803  -0.862  1.00  0.00     0.102 C 
HETATM   41  S1  UNL     1      -6.233  -2.149  -0.267  1.00  0.00    -0.095 SA
HETATM   42  S2  UNL     1      -5.030  -2.552   1.492  1.00  0.00    -0.071 SA
BRANCH  39  43
HETATM   43  C2  UNL     1      -5.376   0.668   1.141  1.00  0.00     0.143 C 
HETATM   44  N1  UNL     1      -6.578   0.962   0.955  1.00  0.00    -0.249 N 
ATOM     45  H1  UNL     1      -6.940   1.581   1.681  1.00  0.00     0.196 HD
BRANCH  44  46
HETATM   46  O1  UNL     1      -7.496   0.666   0.046  1.00  0.00    -0.284 OA
HETATM   47  C1  UNL     1      -8.469   1.615  -0.335  1.00  0.00     0.237 C 
ENDBRANCH  44  46
BRANCH  43  48
HETATM   48  O2  UNL     1      -4.786   1.247   2.299  1.00  0.00    -0.348 OA
ATOM     49  H2  UNL     1      -3.873   1.024   2.440  1.00  0.00     0.219 HD
ENDBRANCH  43  48
ENDBRANCH  39  43
ENDBRANCH  36  38
ENDBRANCH   1  36
TORSDOF 12
