REMARK  12 active torsions:
REMARK  status: ('A' for Active; 'I' for Inactive)
REMARK    1  A    between atoms: C2_2  and  S1_3 
REMARK    2  A    between atoms: S1_3  and  C3_4 
REMARK    3  A    between atoms: C4_5  and  C5_6 
REMARK    4  A    between atoms: C5_6  and  O2_8 
REMARK    5  A    between atoms: N3_14  and  C7_15 
REMARK    6  A    between atoms: C8_20  and  N6_21 
REMARK       I    between atoms: N6_21  and  C9_23 
REMARK    7  A    between atoms: C9_23  and  C10_25 
REMARK    8  A    between atoms: C10_25  and  N7_26 
REMARK    9  A    between atoms: C11_28  and  O4_29 
REMARK   10  A    between atoms: C11_28  and  C12_31 
REMARK   11  A    between atoms: C14_37  and  N9_38 
REMARK   12  A    between atoms: C16_43  and  N11_44 
ROOT
HETATM    1  C7  UNL     1      -2.349   0.744  -1.446  1.00  0.00     0.189 A 
HETATM    2  N4  UNL     1      -1.752  -0.401  -1.819  1.00  0.00    -0.267 N 
ATOM      3  H4  UNL     1      -2.329  -1.149  -2.204  1.00  0.00     0.189 HD
HETATM    4  N5  UNL     1      -0.458  -0.599  -1.709  1.00  0.00    -0.130 N 
ATOM      5  H5  UNL     1      -0.075  -1.494  -2.013  1.00  0.00     0.205 HD
HETATM    6  C8  UNL     1       0.407   0.349  -1.201  1.00  0.00     0.701 A 
HETATM    7  N10 UNL     1      -0.173   1.497  -0.825  1.00  0.00    -0.172 N 
ATOM      8  H10 UNL     1       0.412   2.239  -0.442  1.00  0.00     0.186 HD
HETATM    9  C16 UNL     1      -1.518   1.712  -0.935  1.00  0.00     0.162 A 
ENDROOT
BRANCH   6  10
HETATM   10  N6  UNL     1       1.630   0.093  -1.119  1.00  0.00    -0.153 N 
HETATM   11  C9  UNL     1       2.798   0.652  -0.719  1.00  0.00     0.275 C 
HETATM   12  O3  UNL     1       3.829   0.414  -1.474  1.00  0.00    -0.266 OA
ATOM     13  H6  UNL     1       1.805  -0.849  -1.470  1.00  0.00     0.187 HD
BRANCH  11  14
HETATM   14  C10 UNL     1       3.066   1.497   0.466  1.00  0.00     0.165 C 
BRANCH  14  15
HETATM   15  N7  UNL     1       4.405   1.785   0.651  1.00  0.00    -0.340 N 
HETATM   16  C11 UNL     1       5.430   1.012   1.106  1.00  0.00     0.170 C 
ATOM     17  H7  UNL     1       4.671   2.739   0.405  1.00  0.00     0.167 HD
BRANCH  16  18
HETATM   18  O4  UNL     1       6.691   1.526   0.929  1.00  0.00    -0.344 OA
ATOM     19  H4  UNL     1       7.406   0.987   1.246  1.00  0.00     0.219 HD
ENDBRANCH  16  18
BRANCH  16  20
HETATM   20  C12 UNL     1       5.363  -0.483   0.990  1.00  0.00     0.120 A 
HETATM   21  N8  UNL     1       4.374  -1.174   1.505  1.00  0.00    -0.311 N 
HETATM   22  C13 UNL     1       4.398  -2.497   1.453  1.00  0.00     0.290 A 
ATOM     23  H8  UNL     1       3.589  -0.694   1.944  1.00  0.00     0.170 HD
HETATM   24  O5  UNL     1       3.508  -3.303   1.913  1.00  0.00    -0.260 OA
HETATM   25  S2  UNL     1       5.852  -2.827   0.657  1.00  0.00    -0.009 SA
HETATM   26  C14 UNL     1       6.393  -1.194   0.412  1.00  0.00     0.106 A 
BRANCH  26  27
HETATM   27  N9  UNL     1       7.586  -0.793  -0.249  1.00  0.00    -0.387 N 
HETATM   28  C15 UNL     1       8.486  -1.831  -0.716  1.00  0.00     0.147 C 
ATOM     29  H9  UNL     1       7.803   0.194  -0.391  1.00  0.00     0.159 HD
ENDBRANCH  26  27
ENDBRANCH  16  20
ENDBRANCH  14  15
ENDBRANCH  11  14
ENDBRANCH   6  10
BRANCH   9  30
HETATM   30  N11 UNL     1      -2.043   2.824  -0.567  1.00  0.00    -0.382 N 
ATOM     31 2H11 UNL     1      -3.047   2.984  -0.649  1.00  0.00     0.157 HD
ATOM     32 1H11 UNL     1      -1.426   3.542  -0.188  1.00  0.00     0.157 HD
ENDBRANCH   9  30
BRANCH   1  33
HETATM   33  N3  UNL     1      -3.755   0.925  -1.565  1.00  0.00    -0.212 N 
HETATM   34  C3  UNL     1      -4.655   0.610  -0.585  1.00  0.00     0.131 A 
HETATM   35  C4  UNL     1      -5.925   0.914  -1.008  1.00  0.00     0.160 A 
HETATM   36  N1  UNL     1      -5.748   1.415  -2.267  1.00  0.00    -0.278 N 
HETATM   37  N2  UNL     1      -4.471   1.410  -2.566  1.00  0.00    -0.233 N 
ATOM     38  H1  UNL     1      -6.494   1.743  -2.880  1.00  0.00     0.189 HD
ATOM     39  H2  UNL     1      -4.082   1.736  -3.451  1.00  0.00     0.209 HD
BRANCH  34  40
HETATM   40  S1  UNL     1      -4.173  -0.131   0.961  1.00  0.00    -0.108 SA
BRANCH  40  41
HETATM   41  C2  UNL     1      -4.036  -1.929   0.845  1.00  0.00     0.076 C 
HETATM   42  C1  UNL     1      -5.315  -2.642   0.592  1.00  0.00     0.016 C 
ENDBRANCH  40  41
ENDBRANCH  34  40
BRANCH  35  43
HETATM   43  C5  UNL     1      -7.175   0.783  -0.285  1.00  0.00     0.314 C 
HETATM   44  O1  UNL     1      -7.230   0.366   0.895  1.00  0.00    -0.257 OA
BRANCH  43  45
HETATM   45  O2  UNL     1      -8.395   1.116  -0.866  1.00  0.00    -0.321 OA
HETATM   46  C6  UNL     1      -9.619   0.976  -0.127  1.00  0.00     0.213 C 
ENDBRANCH  43  45
ENDBRANCH  35  43
ENDBRANCH   1  33
TORSDOF 12
