REMARK  15 active torsions:
REMARK  status: ('A' for Active; 'I' for Inactive)
REMARK    1  A    between atoms: C2_2  and  C5_5 
REMARK    2  A    between atoms: C5_5  and  N1_6 
REMARK    3  A    between atoms: C5_5  and  C6_10 
REMARK    4  A    between atoms: C6_10  and  C7_12 
REMARK       I    between atoms: C7_12  and  N2_14 
REMARK    5  A    between atoms: N2_14  and  N3_15 
REMARK    6  A    between atoms: N3_15  and  C8_17 
REMARK    7  A    between atoms: C9_18  and  N4_19 
REMARK    8  A    between atoms: C10_22  and  N5_23 
REMARK    9  A    between atoms: N5_23  and  C11_25 
REMARK   10  A    between atoms: C11_25  and  O5_26 
REMARK   11  A    between atoms: C11_25  and  C12_28 
REMARK   12  A    between atoms: C12_28  and  O6_29 
REMARK   13  A    between atoms: C12_28  and  C13_31 
REMARK   14  A    between atoms: N7_39  and  C16_40 
REMARK   15  A    between atoms: C17_41  and  O9_42 
ROOT
HETATM    1  C8  UNL     1       0.565  -1.464   0.814  1.00  0.00     0.196 A 
HETATM    2  C9  UNL     1       1.306  -0.489   1.447  1.00  0.00     0.203 A 
HETATM    3  C10 UNL     1       2.618  -0.648   0.988  1.00  0.00     0.206 A 
HETATM    4  O8  UNL     1       2.624  -1.655   0.156  1.00  0.00    -0.209 OA
HETATM    5  N7  UNL     1       1.403  -2.163   0.035  1.00  0.00    -0.203 N 
ENDROOT
BRANCH   1   6
HETATM    6  N3  UNL     1      -0.826  -1.661   0.948  1.00  0.00    -0.210 N 
ATOM      7  H3  UNL     1      -1.125  -2.377   1.610  1.00  0.00     0.204 HD
BRANCH   6   8
HETATM    8  N2  UNL     1      -1.821  -0.986   0.277  1.00  0.00    -0.276 NA
HETATM    9  C7  UNL     1      -2.773  -0.342  -0.366  1.00  0.00     0.383 C 
HETATM   10  O2  UNL     1      -3.229  -0.592  -1.529  1.00  0.00    -0.246 OA
BRANCH   9  11
HETATM   11  C6  UNL     1      -3.464   0.835   0.262  1.00  0.00     0.263 C 
HETATM   12  O1  UNL     1      -2.986   1.234   1.329  1.00  0.00    -0.284 OA
BRANCH  11  13
HETATM   13  C5  UNL     1      -4.634   1.495  -0.321  1.00  0.00     0.271 C 
BRANCH  13  14
HETATM   14  C2  UNL     1      -5.917   0.903   0.273  1.00  0.00    -0.016 C 
HETATM   15  C1  UNL     1      -7.104   1.693  -0.214  1.00  0.00     0.017 C 
HETATM   16  C3  UNL     1      -6.139  -0.525  -0.118  1.00  0.00     0.017 C 
HETATM   17  C4  UNL     1      -5.902   0.963   1.787  1.00  0.00     0.017 C 
ENDBRANCH  13  14
BRANCH  13  18
HETATM   18  N1  UNL     1      -4.688   1.415  -1.761  1.00  0.00    -0.067 N 
ATOM     19  H13 UNL     1      -4.861   0.464  -2.088  1.00  0.00     0.275 HD
ATOM     20  H12 UNL     1      -5.527   1.855  -2.140  1.00  0.00     0.275 HD
ATOM     21  H11 UNL     1      -3.834   1.809  -2.156  1.00  0.00     0.275 HD
ENDBRANCH  13  18
ENDBRANCH  11  13
ENDBRANCH   9  11
ENDBRANCH   6   8
ENDBRANCH   1   6
BRANCH   2  22
HETATM   22  N4  UNL     1       0.879   0.450   2.416  1.00  0.00    -0.107 N 
HETATM   23  O3  UNL     1      -0.266   0.489   2.852  1.00  0.00    -0.531 OA
HETATM   24  O4  UNL     1       1.766   1.353   2.934  1.00  0.00    -0.531 OA
ENDBRANCH   2  22
BRANCH   5  25
HETATM   25  C16 UNL     1       1.063  -3.271  -0.800  1.00  0.00     0.149 C 
HETATM   26  C17 UNL     1       1.986  -3.994  -1.384  1.00  0.00     0.151 C 
BRANCH  26  27
HETATM   27  O9  UNL     1       1.642  -5.062  -2.185  1.00  0.00    -0.371 OA
ATOM     28  H9  UNL     1       2.311  -5.586  -2.609  1.00  0.00     0.216 HD
ENDBRANCH  26  27
ENDBRANCH   5  25
BRANCH   3  29
HETATM   29  N5  UNL     1       3.528   0.149   1.419  1.00  0.00    -0.338 N 
ATOM     30  H5  UNL     1       3.188   0.845   2.083  1.00  0.00     0.164 HD
BRANCH  29  31
HETATM   31  C11 UNL     1       4.896   0.243   1.150  1.00  0.00     0.254 C 
BRANCH  31  32
HETATM   32  O5  UNL     1       5.541  -0.983   1.019  1.00  0.00    -0.374 OA
ATOM     33  H5  UNL     1       6.471  -0.919   0.836  1.00  0.00     0.212 HD
ENDBRANCH  31  32
BRANCH  31  34
HETATM   34  C12 UNL     1       5.171   1.086  -0.105  1.00  0.00     0.216 C 
BRANCH  34  35
HETATM   35  O6  UNL     1       4.657   0.542  -1.247  1.00  0.00    -0.385 OA
ATOM     36  H6  UNL     1       4.827   1.063  -2.023  1.00  0.00     0.210 HD
ENDBRANCH  34  35
BRANCH  34  37
HETATM   37  C13 UNL     1       6.656   1.338  -0.142  1.00  0.00     0.052 A 
HETATM   38  C14 UNL     1       7.492   0.362  -0.661  1.00  0.00     0.083 A 
HETATM   39  S1  UNL     1       9.024   1.083  -0.491  1.00  0.00    -0.039 SA
HETATM   40  C15 UNL     1       8.531   2.553   0.218  1.00  0.00     0.288 A 
HETATM   41  O7  UNL     1       9.248   3.560   0.597  1.00  0.00    -0.260 OA
HETATM   42  N6  UNL     1       7.218   2.428   0.292  1.00  0.00    -0.318 N 
ATOM     43  H6  UNL     1       6.650   3.179   0.686  1.00  0.00     0.169 HD
ENDBRANCH  34  37
ENDBRANCH  31  34
ENDBRANCH  29  31
ENDBRANCH   3  29
TORSDOF 15
