REMARK  17 active torsions:
REMARK  status: ('A' for Active; 'I' for Inactive)
REMARK    1  A    between atoms: C3_3  and  C5_5 
REMARK    2  A    between atoms: C6_6  and  C7_7 
REMARK    3  A    between atoms: C7_7  and  O1_8 
REMARK    4  A    between atoms: C8_10  and  O2_11 
REMARK    5  A    between atoms: C9_13  and  O3_14 
REMARK    6  A    between atoms: C10_16  and  O4_17 
REMARK    7  A    between atoms: C11_19  and  O5_20 
REMARK    8  A    between atoms: O5_20  and  C12_21 
REMARK    9  A    between atoms: C13_22  and  O6_23 
REMARK   10  A    between atoms: O6_23  and  C14_24 
REMARK   11  A    between atoms: C14_24  and  C15_25 
REMARK   12  A    between atoms: C15_25  and  C16_26 
REMARK   13  A    between atoms: C16_26  and  C17_27 
REMARK   14  A    between atoms: C17_27  and  C18_28 
REMARK   15  A    between atoms: C21_31  and  N1_32 
REMARK   16  A    between atoms: C22_36  and  O7_37 
REMARK   17  A    between atoms: C23_39  and  O8_40 
ROOT
HETATM    1  C12 UNL     1      -0.467   0.626  -1.832  1.00  0.00     0.182 C 
HETATM    2  C13 UNL     1       0.791  -0.206  -1.881  1.00  0.00     0.155 C 
HETATM    3  C20 UNL     1       0.541  -1.390  -2.788  1.00  0.00     0.070 C 
HETATM    4  C21 UNL     1       0.479  -0.827  -4.200  1.00  0.00     0.217 C 
HETATM    5  C22 UNL     1      -0.722   0.085  -4.266  1.00  0.00     0.179 C 
HETATM    6  C23 UNL     1      -0.681   1.169  -3.233  1.00  0.00     0.180 C 
ENDROOT
BRANCH   1   7
HETATM    7  O5  UNL     1      -1.574  -0.021  -1.341  1.00  0.00    -0.372 OA
BRANCH   7   8
HETATM    8  C11 UNL     1      -2.074   0.572  -0.202  1.00  0.00     0.162 C 
HETATM    9  C5  UNL     1      -2.117  -0.261   1.016  1.00  0.00     0.054 C 
HETATM   10  C6  UNL     1      -2.874   0.461   2.111  1.00  0.00     0.051 C 
HETATM   11  C8  UNL     1      -3.220   1.874   1.781  1.00  0.00     0.156 C 
HETATM   12  C9  UNL     1      -4.059   1.967   0.513  1.00  0.00     0.178 C 
HETATM   13  C10 UNL     1      -3.341   1.289  -0.599  1.00  0.00     0.179 C 
BRANCH   9  14
HETATM   14  C3  UNL     1      -2.576  -1.660   0.858  1.00  0.00    -0.081 C 
HETATM   15  C2  UNL     1      -1.810  -2.691   1.160  1.00  0.00    -0.028 C 
HETATM   16  C1  UNL     1      -0.438  -2.685   1.669  1.00  0.00     0.036 C 
HETATM   17  C4  UNL     1      -3.938  -2.016   0.360  1.00  0.00     0.043 C 
ENDBRANCH   9  14
BRANCH  10  18
HETATM   18  C7  UNL     1      -2.115   0.481   3.425  1.00  0.00     0.172 C 
BRANCH  18  19
HETATM   19  O1  UNL     1      -2.800   1.134   4.419  1.00  0.00    -0.400 OA
ATOM     20  H1  UNL     1      -2.325   1.147   5.242  1.00  0.00     0.209 HD
ENDBRANCH  18  19
ENDBRANCH  10  18
BRANCH  11  21
HETATM   21  O2  UNL     1      -4.015   2.376   2.803  1.00  0.00    -0.392 OA
ATOM     22  H2  UNL     1      -4.235   3.276   2.593  1.00  0.00     0.210 HD
ENDBRANCH  11  21
BRANCH  12  23
HETATM   23  O3  UNL     1      -5.337   1.503   0.763  1.00  0.00    -0.390 OA
ATOM     24  H3  UNL     1      -5.860   1.561  -0.028  1.00  0.00     0.210 HD
ENDBRANCH  12  23
BRANCH  13  25
HETATM   25  O4  UNL     1      -4.158   0.550  -1.455  1.00  0.00    -0.390 OA
ATOM     26  H4  UNL     1      -3.699   0.117  -2.165  1.00  0.00     0.210 HD
ENDBRANCH  13  25
ENDBRANCH   7   8
ENDBRANCH   1   7
BRANCH   2  27
HETATM   27  O6  UNL     1       1.332  -0.511  -0.666  1.00  0.00    -0.383 OA
BRANCH  27  28
HETATM   28  C14 UNL     1       2.585   0.064  -0.543  1.00  0.00     0.168 C 
BRANCH  28  29
HETATM   29  C15 UNL     1       3.180  -0.285   0.819  1.00  0.00     0.026 C 
BRANCH  29  30
HETATM   30  C16 UNL     1       4.539   0.369   0.888  1.00  0.00     0.002 C 
BRANCH  30  31
HETATM   31  C17 UNL     1       5.224   0.086   2.207  1.00  0.00    -0.000 C 
BRANCH  31  32
HETATM   32  C18 UNL     1       6.580   0.740   2.275  1.00  0.00    -0.005 C 
HETATM   33  C19 UNL     1       7.282   0.478   3.568  1.00  0.00     0.005 C 
ENDBRANCH  31  32
ENDBRANCH  30  31
ENDBRANCH  29  30
ENDBRANCH  28  29
ENDBRANCH  27  28
ENDBRANCH   2  27
BRANCH   6  34
HETATM   34  O8  UNL     1       0.422   1.979  -3.518  1.00  0.00    -0.390 OA
ATOM     35  H8  UNL     1       0.288   2.319  -4.395  1.00  0.00     0.210 HD
ENDBRANCH   6  34
BRANCH   5  36
HETATM   36  O7  UNL     1      -1.884  -0.654  -4.277  1.00  0.00    -0.391 OA
ATOM     37  H7  UNL     1      -2.640  -0.080  -4.319  1.00  0.00     0.210 HD
ENDBRANCH   5  36
BRANCH   4  38
HETATM   38  N1  UNL     1       0.307  -1.888  -5.178  1.00  0.00    -0.072 N 
ATOM     39  H13 UNL     1       1.030  -2.602  -5.089  1.00  0.00     0.274 HD
ATOM     40  H12 UNL     1      -0.507  -2.465  -4.967  1.00  0.00     0.274 HD
ATOM     41  H11 UNL     1       0.265  -1.511  -6.125  1.00  0.00     0.274 HD
ENDBRANCH   4  38
TORSDOF 17
