REMARK  15 active torsions:
REMARK  status: ('A' for Active; 'I' for Inactive)
REMARK    1  A    between atoms: C2_2  and  C3_3 
REMARK    2  A    between atoms: C2_2  and  C4_6 
REMARK    3  A    between atoms: C3_3  and  O1_4 
REMARK    4  A    between atoms: C8_10  and  O2_11 
REMARK    5  A    between atoms: C8_10  and  C9_13 
REMARK    6  A    between atoms: C9_13  and  O3_14 
REMARK    7  A    between atoms: C11_17  and  C13_19 
REMARK    8  A    between atoms: C13_19  and  O4_20 
REMARK    9  A    between atoms: C13_19  and  C14_22 
REMARK   10  A    between atoms: C15_25  and  C16_26 
REMARK   11  A    between atoms: C16_26  and  O5_27 
REMARK   12  A    between atoms: C16_26  and  O6_29 
REMARK   13  A    between atoms: C18_33  and  O8_34 
REMARK   14  A    between atoms: O8_34  and  C19_35 
REMARK   15  A    between atoms: C19_35  and  C20_36 
ROOT
HETATM    1  C13 UNL     1       0.496   0.183   1.113  1.00  0.00     0.177 C 
ENDROOT
BRANCH   1   2
HETATM    2  C11 UNL     1      -0.403   0.424  -0.044  1.00  0.00    -0.006 C 
HETATM    3  C6  UNL     1      -1.334  -0.790  -0.159  1.00  0.00     0.005 C 
HETATM    4  C5  UNL     1      -2.319  -0.998   0.933  1.00  0.00     0.015 C 
HETATM    5  C7  UNL     1      -2.502  -0.303  -1.008  1.00  0.00     0.035 C 
HETATM    6  C4  UNL     1      -3.390  -1.148  -0.119  1.00  0.00     0.023 C 
HETATM    7  C8  UNL     1      -2.532   1.164  -0.823  1.00  0.00     0.084 C 
HETATM    8  C10 UNL     1      -1.385   1.536   0.097  1.00  0.00     0.052 C 
HETATM    9  C12 UNL     1       0.312   0.510  -1.347  1.00  0.00     0.019 C 
BRANCH   6  10
HETATM   10  C2  UNL     1      -3.532  -2.532  -0.603  1.00  0.00    -0.061 C 
HETATM   11  C1  UNL     1      -3.181  -3.603   0.085  1.00  0.00     0.017 C 
BRANCH  10  12
HETATM   12  C3  UNL     1      -4.121  -2.744  -1.971  1.00  0.00     0.198 C 
BRANCH  12  13
HETATM   13  O1  UNL     1      -5.419  -2.204  -2.019  1.00  0.00    -0.397 OA
ATOM     14  H1  UNL     1      -5.791  -2.338  -2.883  1.00  0.00     0.209 HD
ENDBRANCH  12  13
ENDBRANCH  10  12
ENDBRANCH   6  10
BRANCH   7  15
HETATM   15  O2  UNL     1      -2.350   1.736  -2.108  1.00  0.00    -0.387 OA
ATOM     16  H2  UNL     1      -2.369   2.678  -1.989  1.00  0.00     0.210 HD
ENDBRANCH   7  15
BRANCH   7  17
HETATM   17  C9  UNL     1      -3.805   1.748  -0.308  1.00  0.00     0.202 C 
BRANCH  17  18
HETATM   18  O3  UNL     1      -4.879   1.444  -1.126  1.00  0.00    -0.398 OA
ATOM     19  H3  UNL     1      -5.689   1.816  -0.798  1.00  0.00     0.209 HD
ENDBRANCH  17  18
ENDBRANCH   7  17
ENDBRANCH   1   2
BRANCH   1  20
HETATM   20  O4  UNL     1      -0.309   0.023   2.298  1.00  0.00    -0.389 OA
ATOM     21  H4  UNL     1       0.266  -0.131   3.038  1.00  0.00     0.210 HD
ENDBRANCH   1  20
BRANCH   1  22
HETATM   22  C14 UNL     1       1.521   1.193   1.451  1.00  0.00     0.072 C 
HETATM   23  N1  UNL     1       1.021   2.503   1.760  1.00  0.00    -0.355 N 
HETATM   24  C15 UNL     1       1.667   3.638   1.222  1.00  0.00     0.086 C 
ATOM     25  H1  UNL     1       0.206   2.613   2.363  1.00  0.00     0.165 HD
HETATM   26  C17 UNL     1       2.954   3.557   0.816  1.00  0.00     0.168 C 
HETATM   27  O7  UNL     1       3.569   2.325   0.961  1.00  0.00    -0.325 OA
HETATM   28  C18 UNL     1       2.787   1.170   0.651  1.00  0.00     0.315 C 
BRANCH  24  29
HETATM   29  C16 UNL     1       0.990   4.949   1.076  1.00  0.00     0.307 C 
BRANCH  29  30
HETATM   30  O5  UNL     1       1.808   5.906   0.531  1.00  0.00    -0.366 OA
ATOM     31  H5  UNL     1       1.374   6.746   0.437  1.00  0.00     0.213 HD
ENDBRANCH  29  30
BRANCH  29  32
HETATM   32  O6  UNL     1       0.610   5.397   2.355  1.00  0.00    -0.366 OA
ATOM     33  H6  UNL     1       0.176   6.237   2.261  1.00  0.00     0.213 HD
ENDBRANCH  29  32
ENDBRANCH  24  29
BRANCH  28  34
HETATM   34  O8  UNL     1       3.522   0.041   1.099  1.00  0.00    -0.352 OA
BRANCH  34  35
HETATM   35  C19 UNL     1       3.887  -0.807   0.086  1.00  0.00     0.199 C 
BRANCH  35  36
HETATM   36  C20 UNL     1       4.655  -1.928   0.698  1.00  0.00     0.001 C 
HETATM   37  C21 UNL     1       4.209  -3.163   0.567  1.00  0.00    -0.089 C 
HETATM   38  C22 UNL     1       4.960  -4.298   1.170  1.00  0.00     0.042 C 
HETATM   39  C23 UNL     1       2.957  -3.430  -0.181  1.00  0.00     0.042 C 
ENDBRANCH  35  36
ENDBRANCH  34  35
ENDBRANCH  28  34
ENDBRANCH   1  22
TORSDOF 15
