REMARK  13 active torsions:
REMARK  status: ('A' for Active; 'I' for Inactive)
REMARK    1  A    between atoms: C2_2  and  C3_3 
REMARK    2  A    between atoms: C3_3  and  S1_4 
REMARK    3  A    between atoms: S1_4  and  C4_5 
REMARK    4  A    between atoms: C4_5  and  C5_6 
REMARK    5  A    between atoms: C5_6  and  N1_7 
REMARK       I    between atoms: N1_7  and  C6_9 
REMARK    6  A    between atoms: C8_13  and  N3_14 
REMARK    7  A    between atoms: C10_19  and  N4_20 
REMARK    8  A    between atoms: C11_24  and  C12_25 
REMARK    9  A    between atoms: C12_25  and  S2_26 
REMARK   10  A    between atoms: S2_26  and  C13_27 
REMARK   11  A    between atoms: C16_31  and  O3_32 
REMARK   12  A    between atoms: C17_34  and  O4_35 
REMARK   13  A    between atoms: C18_37  and  O5_38 
ROOT
HETATM    1  C5  UNL     1       1.851  -0.381  -0.192  1.00  0.00     0.051 C 
HETATM    2  C7  UNL     1       2.047  -1.438  -1.274  1.00  0.00     0.065 C 
HETATM    3  C8  UNL     1       1.751  -2.836  -0.904  1.00  0.00     0.188 C 
HETATM    4  C9  UNL     1       0.454  -3.037  -0.160  1.00  0.00     0.066 C 
HETATM    5  C10 UNL     1       0.470  -1.987   0.963  1.00  0.00     0.192 C 
HETATM    6  C11 UNL     1       0.435  -0.671   0.281  1.00  0.00     0.054 C 
ENDROOT
BRANCH   6   7
HETATM    7  C12 UNL     1      -0.219   0.395   1.045  1.00  0.00     0.085 C 
BRANCH   7   8
HETATM    8  S2  UNL     1      -1.916  -0.156   1.499  1.00  0.00    -0.134 SA
BRANCH   8   9
HETATM    9  C13 UNL     1      -2.941  -0.329   0.013  1.00  0.00     0.214 C 
HETATM   10  O2  UNL     1      -3.209   0.849  -0.625  1.00  0.00    -0.365 OA
HETATM   11  C14 UNL     1      -4.175   1.651  -0.105  1.00  0.00     0.150 C 
HETATM   12  C15 UNL     1      -4.891   2.342  -1.273  1.00  0.00     0.042 C 
HETATM   13  C16 UNL     1      -5.224   0.973   0.717  1.00  0.00     0.178 C 
HETATM   14  C17 UNL     1      -5.453  -0.425   0.178  1.00  0.00     0.181 C 
HETATM   15  C18 UNL     1      -4.149  -1.168   0.349  1.00  0.00     0.188 C 
BRANCH  13  16
HETATM   16  O3  UNL     1      -6.443   1.642   0.713  1.00  0.00    -0.390 OA
ATOM     17  H3  UNL     1      -7.109   1.211   1.235  1.00  0.00     0.210 HD
ENDBRANCH  13  16
BRANCH  14  18
HETATM   18  O4  UNL     1      -5.816  -0.332  -1.163  1.00  0.00    -0.390 OA
ATOM     19  H4  UNL     1      -5.960  -1.208  -1.501  1.00  0.00     0.210 HD
ENDBRANCH  14  18
BRANCH  15  20
HETATM   20  O5  UNL     1      -4.226  -2.345  -0.391  1.00  0.00    -0.389 OA
ATOM     21  H5  UNL     1      -4.987  -2.873  -0.179  1.00  0.00     0.210 HD
ENDBRANCH  15  20
ENDBRANCH   8   9
ENDBRANCH   7   8
ENDBRANCH   6   7
BRANCH   1  22
HETATM   22  C4  UNL     1       1.961   0.903  -0.988  1.00  0.00     0.105 C 
BRANCH  22  23
HETATM   23  S1  UNL     1       1.857   2.415  -0.237  1.00  0.00    -0.167 SA
BRANCH  23  24
HETATM   24  C3  UNL     1       2.962   3.222   0.788  1.00  0.00     0.073 C 
BRANCH  24  25
HETATM   25  C2  UNL     1       4.193   3.814   0.159  1.00  0.00     0.006 C 
HETATM   26  C1  UNL     1       5.099   2.887  -0.550  1.00  0.00     0.006 C 
ENDBRANCH  24  25
ENDBRANCH  23  24
ENDBRANCH  22  23
ENDBRANCH   1  22
BRANCH   1  27
HETATM   27  N1  UNL     1       2.824  -0.570   0.819  1.00  0.00    -0.335 N 
HETATM   28  C6  UNL     1       4.218  -0.707   0.618  1.00  0.00     0.329 C 
HETATM   29  N2  UNL     1       5.107  -0.893   1.744  1.00  0.00    -0.040 NA
HETATM   30  O1  UNL     1       4.818  -0.684  -0.478  1.00  0.00    -0.251 OA
ATOM     31  H1  UNL     1       2.489  -0.611   1.782  1.00  0.00     0.164 HD
ENDBRANCH   1  27
BRANCH   5  32
HETATM   32  N4  UNL     1      -0.536  -2.319   1.880  1.00  0.00    -0.074 N 
ATOM     33  H43 UNL     1      -1.452  -2.415   1.443  1.00  0.00     0.274 HD
ATOM     34  H42 UNL     1      -0.451  -3.273   2.231  1.00  0.00     0.274 HD
ATOM     35  H41 UNL     1      -0.525  -1.622   2.625  1.00  0.00     0.274 HD
ENDBRANCH   5  32
BRANCH   3  36
HETATM   36  N3  UNL     1       2.771  -3.568  -0.235  1.00  0.00    -0.075 N 
ATOM     37  H33 UNL     1       3.626  -3.540  -0.790  1.00  0.00     0.274 HD
ATOM     38  H32 UNL     1       3.065  -3.054   0.596  1.00  0.00     0.274 HD
ATOM     39  H31 UNL     1       2.566  -4.534   0.021  1.00  0.00     0.274 HD
ENDBRANCH   3  36
TORSDOF 13
