REMARK  7 active torsions:
REMARK  status: ('A' for Active; 'I' for Inactive)
REMARK    1  A    between atoms: N1_2  and  N2_3 
REMARK    2  A    between atoms: N1_2  and  S1_20 
REMARK    3  A    between atoms: N2_3  and  C2_5 
REMARK    4  A    between atoms: C3_7  and  O2_8 
REMARK    5  A    between atoms: C4_10  and  C5_11 
REMARK       I    between atoms: C5_11  and  N3_13 
REMARK    6  A    between atoms: N3_13  and  N4_15 
REMARK    7  A    between atoms: S1_20  and  N6_21 
ROOT
HETATM    1  C2  UNL     1      -0.225  -0.806  -0.448  1.00  0.00     0.187 A 
HETATM    2  O1  UNL     1       0.198  -2.034  -0.526  1.00  0.00    -0.267 OA
HETATM    3  C3  UNL     1       1.468  -2.128  -0.376  1.00  0.00     0.203 A 
HETATM    4  C4  UNL     1       1.962  -0.817  -0.174  1.00  0.00     0.120 A 
HETATM    5  C6  UNL     1       0.877   0.022  -0.221  1.00  0.00     0.119 A 
HETATM    6  N5  UNL     1       0.786   1.443  -0.083  1.00  0.00    -0.097 NA
ENDROOT
BRANCH   1   7
HETATM    7  N2  UNL     1      -1.560  -0.343  -0.566  1.00  0.00    -0.283 N 
ATOM      8  H2  UNL     1      -1.845   0.164  -1.404  1.00  0.00     0.184 HD
BRANCH   7   9
HETATM    9  N1  UNL     1      -2.481  -0.571   0.443  1.00  0.00    -0.106 NA
HETATM   10  C1  UNL     1      -3.500  -1.462  -0.132  1.00  0.00     0.158 C 
BRANCH   9  11
HETATM   11  S1  UNL     1      -3.257   0.903   0.921  1.00  0.00     0.313 S 
HETATM   12  O4  UNL     1      -4.720   0.676   1.219  1.00  0.00    -0.187 OA
HETATM   13  O5  UNL     1      -2.604   1.437   2.152  1.00  0.00    -0.187 OA
BRANCH  11  14
HETATM   14  N6  UNL     1      -3.182   2.095  -0.325  1.00  0.00    -0.314 N 
ATOM     15  H62 UNL     1      -2.732   1.936  -1.227  1.00  0.00     0.170 HD
ATOM     16  H61 UNL     1      -3.639   2.963  -0.044  1.00  0.00     0.170 HD
ENDBRANCH  11  14
ENDBRANCH   9  11
ENDBRANCH   7   9
ENDBRANCH   1   7
BRANCH   3  17
HETATM   17  O2  UNL     1       2.300  -3.249  -0.391  1.00  0.00    -0.340 OA
ATOM     18  H2  UNL     1       3.241  -3.319  -0.280  1.00  0.00     0.220 HD
ENDBRANCH   3  17
BRANCH   4  19
HETATM   19  C5  UNL     1       3.328  -0.462   0.045  1.00  0.00     0.276 C 
HETATM   20  O3  UNL     1       4.196  -1.407   0.070  1.00  0.00    -0.266 OA
HETATM   21  N3  UNL     1       3.812   0.825   0.237  1.00  0.00    -0.272 N 
ATOM     22  H3  UNL     1       3.162   1.611   0.225  1.00  0.00     0.189 HD
BRANCH  21  23
HETATM   23  N4  UNL     1       5.204   1.071   0.451  1.00  0.00    -0.342 N 
ATOM     24  H42 UNL     1       5.841   0.274   0.460  1.00  0.00     0.176 HD
ATOM     25  H41 UNL     1       5.560   2.017   0.592  1.00  0.00     0.176 HD
ENDBRANCH  21  23
ENDBRANCH   4  19
TORSDOF 7
