REMARK  9 active torsions:
REMARK  status: ('A' for Active; 'I' for Inactive)
REMARK    1  A    between atoms: C2_2  and  N1_3 
REMARK    2  A    between atoms: C2_2  and  N2_7 
REMARK    3  A    between atoms: N2_7  and  N3_9 
REMARK    4  A    between atoms: N3_9  and  C3_10 
REMARK    5  A    between atoms: C5_12  and  C6_13 
REMARK    6  A    between atoms: C6_13  and  N4_14 
REMARK    7  A    between atoms: C6_13  and  N5_18 
REMARK    8  A    between atoms: C7_22  and  N6_23 
REMARK    9  A    between atoms: N6_23  and  O1_25 
ROOT
HETATM    1  C3  UNL     1       0.742  -0.085   0.628  1.00  0.00     0.199 C 
HETATM    2  C4  UNL     1      -0.391   0.539   0.034  1.00  0.00     0.066 C 
HETATM    3  C5  UNL     1      -1.738   0.250   0.154  1.00  0.00     0.036 C 
HETATM    4  C7  UNL     1      -2.220  -1.008   0.411  1.00  0.00     0.132 C 
HETATM    5  C8  UNL     1      -1.516  -2.161   0.786  1.00  0.00     0.277 C 
HETATM    6  O2  UNL     1      -2.076  -3.278   0.698  1.00  0.00    -0.266 OA
HETATM    7  N7  UNL     1      -0.246  -2.233   1.259  1.00  0.00    -0.286 N 
ATOM      8  H7  UNL     1       0.040  -3.154   1.590  1.00  0.00     0.172 HD
HETATM    9  C9  UNL     1       0.688  -1.281   1.357  1.00  0.00     0.291 C 
HETATM   10  O3  UNL     1       1.622  -1.467   2.180  1.00  0.00    -0.264 OA
ENDROOT
BRANCH   1  11
HETATM   11  N3  UNL     1       1.905   0.515   0.470  1.00  0.00    -0.323 NA
BRANCH  11  12
HETATM   12  N2  UNL     1       2.911   1.048   0.351  1.00  0.00    -0.240 N 
ATOM     13  H2  UNL     1       3.138   1.771   1.034  1.00  0.00     0.197 HD
BRANCH  12  14
HETATM   14  C2  UNL     1       3.917   0.780  -0.712  1.00  0.00     0.304 C 
HETATM   15  C1  UNL     1       4.458  -0.629  -0.535  1.00  0.00     0.065 C 
BRANCH  14  16
HETATM   16  N1  UNL     1       5.025   1.679  -0.558  1.00  0.00    -0.057 N 
ATOM     17  H13 UNL     1       5.526   1.550   0.321  1.00  0.00     0.276 HD
ATOM     18  H12 UNL     1       5.802   1.467  -1.184  1.00  0.00     0.276 HD
ATOM     19  H11 UNL     1       4.662   2.625  -0.677  1.00  0.00     0.276 HD
ENDBRANCH  14  16
ENDBRANCH  12  14
ENDBRANCH  11  12
ENDBRANCH   1  11
BRANCH   3  20
HETATM   20  C6  UNL     1      -2.650   1.399  -0.013  1.00  0.00     0.413 C 
BRANCH  20  21
HETATM   21  N4  UNL     1      -2.123   2.142  -1.181  1.00  0.00    -0.046 N 
ATOM     22  H43 UNL     1      -1.141   2.404  -1.095  1.00  0.00     0.277 HD
ATOM     23  H42 UNL     1      -2.019   1.572  -2.020  1.00  0.00     0.277 HD
ATOM     24  H41 UNL     1      -2.753   2.936  -1.296  1.00  0.00     0.277 HD
ENDBRANCH  20  21
BRANCH  20  25
HETATM   25  N5  UNL     1      -4.016   1.124  -0.265  1.00  0.00    -0.046 N 
ATOM     26  H53 UNL     1      -4.091   0.514  -1.079  1.00  0.00     0.277 HD
ATOM     27  H52 UNL     1      -4.376   0.513   0.468  1.00  0.00     0.277 HD
ATOM     28  H51 UNL     1      -4.646   1.918  -0.380  1.00  0.00     0.277 HD
ENDBRANCH  20  25
ENDBRANCH   3  20
BRANCH   4  29
HETATM   29  N6  UNL     1      -3.601  -1.266   0.329  1.00  0.00    -0.263 N 
ATOM     30  H6  UNL     1      -4.169  -1.016   1.139  1.00  0.00     0.194 HD
BRANCH  29  31
HETATM   31  O1  UNL     1      -4.246  -1.818  -0.730  1.00  0.00    -0.289 OA
ATOM     32  H1  UNL     1      -5.178  -1.992  -0.785  1.00  0.00     0.244 HD
ENDBRANCH  29  31
ENDBRANCH   4  29
TORSDOF 9
