REMARK  8 active torsions:
REMARK  status: ('A' for Active; 'I' for Inactive)
REMARK    1  A    between atoms: N1_1  and  C1_4 
REMARK    2  A    between atoms: C2_7  and  N3_8 
REMARK    3  A    between atoms: N3_8  and  O1_9 
REMARK    4  A    between atoms: N3_8  and  O2_11 
REMARK    5  A    between atoms: O2_11  and  N4_12 
REMARK    6  A    between atoms: N4_12  and  N5_13 
REMARK    7  A    between atoms: N4_12  and  N6_16 
REMARK    8  A    between atoms: C3_19  and  S1_20 
ROOT
HETATM    1  C1  UNL     1      -1.728  -1.767   0.025  1.00  0.00     0.680 A 
HETATM    2  N2  UNL     1      -0.552  -1.150   0.183  1.00  0.00    -0.171 N 
ATOM      3  H2  UNL     1       0.304  -1.689   0.051  1.00  0.00     0.186 HD
HETATM    4  C2  UNL     1      -0.448   0.165   0.512  1.00  0.00     0.198 A 
HETATM    5  C3  UNL     1      -1.634   0.845   0.678  1.00  0.00     0.129 A 
HETATM    6  C4  UNL     1      -2.838   0.212   0.515  1.00  0.00     0.281 A 
HETATM    7  O3  UNL     1      -3.889   0.884   0.680  1.00  0.00    -0.266 OA
HETATM    8  N7  UNL     1      -2.865  -1.083   0.191  1.00  0.00    -0.155 N 
ATOM      9  H7  UNL     1      -3.761  -1.555   0.069  1.00  0.00     0.187 HD
ENDROOT
BRANCH   4  10
HETATM   10  N3  UNL     1       0.823   0.772   0.669  1.00  0.00    -0.085 N 
BRANCH  10  11
HETATM   11  O1  UNL     1       0.886   1.974   0.969  1.00  0.00    -0.260 OA
ATOM     12  H1  UNL     1       1.738   2.381   1.074  1.00  0.00     0.247 HD
ENDBRANCH  10  11
BRANCH  10  13
HETATM   13  O2  UNL     1       1.986   0.076   0.499  1.00  0.00    -0.112 OA
BRANCH  13  14
HETATM   14  N4  UNL     1       2.600  -0.148  -0.690  1.00  0.00     0.011 NA
BRANCH  14  15
HETATM   15  N5  UNL     1       3.539   0.864  -1.013  1.00  0.00    -0.320 NA
ATOM     16  H52 UNL     1       2.982   1.714  -1.101  1.00  0.00     0.175 HD
ATOM     17  H51 UNL     1       4.001   0.696  -1.907  1.00  0.00     0.175 HD
ENDBRANCH  14  15
BRANCH  14  18
HETATM   18  N6  UNL     1       3.375  -1.332  -0.567  1.00  0.00    -0.320 NA
ATOM     19  H62 UNL     1       2.699  -2.060  -0.335  1.00  0.00     0.175 HD
ATOM     20  H61 UNL     1       3.837  -1.500  -1.461  1.00  0.00     0.175 HD
ENDBRANCH  14  18
ENDBRANCH  13  14
ENDBRANCH  10  13
ENDBRANCH   4  10
BRANCH   5  21
HETATM   21  S1  UNL     1      -1.513   2.580   1.112  1.00  0.00    -0.036 SA
HETATM   22  S2  UNL     1      -1.450   3.671  -0.713  1.00  0.00    -0.007 SA
ENDBRANCH   5  21
BRANCH   1  23
HETATM   23  N1  UNL     1      -1.741  -3.030  -0.291  1.00  0.00    -0.234 N 
ATOM     24  H12 UNL     1      -0.874  -3.552  -0.418  1.00  0.00     0.174 HD
ATOM     25  H11 UNL     1      -2.638  -3.501  -0.412  1.00  0.00     0.174 HD
ENDBRANCH   1  23
TORSDOF 8
