REMARK  9 active torsions:
REMARK  status: ('A' for Active; 'I' for Inactive)
REMARK       I    between atoms: C2_2  and  N1_4 
REMARK    1  A    between atoms: N1_4  and  N2_6 
REMARK    2  A    between atoms: N2_6  and  C3_8 
REMARK    3  A    between atoms: C3_8  and  N3_10 
REMARK    4  A    between atoms: N3_10  and  N4_12 
REMARK       I    between atoms: N4_12  and  C4_14 
REMARK    5  A    between atoms: C4_14  and  C5_16 
REMARK    6  A    between atoms: C6_18  and  N5_19 
REMARK    7  A    between atoms: N6_22  and  C7_23 
REMARK    8  A    between atoms: C7_23  and  C8_24 
REMARK    9  A    between atoms: C8_24  and  N7_25 
ROOT
HETATM    1  C5  UNL     1      -1.245  -0.010   0.592  1.00  0.00     0.119 A 
HETATM    2  S2  UNL     1      -2.033   0.338   2.059  1.00  0.00    -0.045 SA
HETATM    3  C6  UNL     1      -3.646   0.166   1.522  1.00  0.00     0.146 A 
HETATM    4  N6  UNL     1      -3.504  -0.151   0.242  1.00  0.00    -0.313 N 
HETATM    5  C9  UNL     1      -2.291  -0.247  -0.261  1.00  0.00     0.143 A 
HETATM    6  N8  UNL     1      -1.985  -0.578  -1.634  1.00  0.00    -0.081 NA
ENDROOT
BRANCH   1   7
HETATM    7  C4  UNL     1       0.197  -0.044   0.346  1.00  0.00     0.280 C 
HETATM    8  N4  UNL     1       1.147   0.221   1.340  1.00  0.00    -0.263 N 
ATOM      9  H4  UNL     1       0.845   0.456   2.285  1.00  0.00     0.190 HD
HETATM   10  O2  UNL     1       0.617  -0.328  -0.821  1.00  0.00    -0.265 OA
BRANCH   8  11
HETATM   11  N3  UNL     1       2.508   0.163   1.035  1.00  0.00    -0.272 N 
ATOM     12  H3  UNL     1       2.932   0.923   0.503  1.00  0.00     0.189 HD
BRANCH  11  13
HETATM   13  C3  UNL     1       3.316  -0.930   1.448  1.00  0.00     0.205 C 
HETATM   14  S1  UNL     1       2.657  -2.178   2.306  1.00  0.00    -0.038 SA
BRANCH  13  15
HETATM   15  N2  UNL     1       4.674  -0.980   1.134  1.00  0.00    -0.273 N 
ATOM     16  H2  UNL     1       5.205  -1.787   1.461  1.00  0.00     0.189 HD
BRANCH  15  17
HETATM   17  N1  UNL     1       5.357  -0.013   0.410  1.00  0.00    -0.268 N 
HETATM   18  C2  UNL     1       6.752  -0.162   0.136  1.00  0.00     0.232 C 
HETATM   19  C1  UNL     1       7.499   0.849  -0.631  1.00  0.00     0.119 C 
HETATM   20  O1  UNL     1       7.312  -1.211   0.590  1.00  0.00    -0.272 OA
ATOM     21  H1  UNL     1       4.860   0.810   0.071  1.00  0.00     0.190 HD
ENDBRANCH  15  17
ENDBRANCH  13  15
ENDBRANCH  11  13
ENDBRANCH   8  11
ENDBRANCH   1   7
BRANCH   3  22
HETATM   22  N5  UNL     1      -4.731   0.315   2.228  1.00  0.00    -0.379 N 
ATOM     23  H52 UNL     1      -4.840   0.559   3.212  1.00  0.00     0.158 HD
ATOM     24  H51 UNL     1      -5.694   0.212   1.907  1.00  0.00     0.158 HD
ENDBRANCH   3  22
BRANCH   4  25
HETATM   25  C7  UNL     1      -4.703  -0.401  -0.582  1.00  0.00     0.159 C 
BRANCH  25  26
HETATM   26  C8  UNL     1      -5.235   0.838  -1.225  1.00  0.00     0.249 C 
BRANCH  26  27
HETATM   27  N7  UNL     1      -6.430   0.462  -1.997  1.00  0.00    -0.078 N 
ATOM     28  H73 UNL     1      -6.251  -0.287  -2.666  1.00  0.00     0.274 HD
ATOM     29  H72 UNL     1      -7.128  -0.025  -1.435  1.00  0.00     0.274 HD
ATOM     30  H71 UNL     1      -6.793   1.308  -2.436  1.00  0.00     0.274 HD
ENDBRANCH  26  27
ENDBRANCH  25  26
ENDBRANCH   4  25
TORSDOF 9
