REMARK  8 active torsions:
REMARK  status: ('A' for Active; 'I' for Inactive)
REMARK    1  A    between atoms: C2_2  and  N1_3 
REMARK    2  A    between atoms: C2_2  and  C3_7 
REMARK       I    between atoms: C3_7  and  N2_9 
REMARK    3  A    between atoms: N2_9  and  C4_10 
REMARK    4  A    between atoms: C6_13  and  N4_14 
REMARK       I    between atoms: N4_14  and  C7_16 
REMARK    5  A    between atoms: C9_21  and  C10_22 
REMARK    6  A    between atoms: C10_22  and  O4_24 
REMARK    7  A    between atoms: O4_24  and  N7_25 
REMARK    8  A    between atoms: C11_28  and  O5_29 
ROOT
HETATM    1  C4  UNL     1      -0.577   0.230  -0.181  1.00  0.00     0.171 A 
HETATM    2  C5  UNL     1       0.454   0.824   0.532  1.00  0.00     0.118 A 
HETATM    3  N3  UNL     1       0.113   1.851   1.447  1.00  0.00    -0.096 NA
HETATM    4  C6  UNL     1       1.763   0.428   0.356  1.00  0.00     0.089 A 
HETATM    5  C8  UNL     1       2.044  -0.577  -0.544  1.00  0.00     0.094 A 
HETATM    6  N6  UNL     1       3.368  -1.028  -0.760  1.00  0.00    -0.099 NA
HETATM    7  C9  UNL     1       1.041  -1.215  -1.295  1.00  0.00     0.104 A 
HETATM    8  C11 UNL     1      -0.251  -0.814  -1.113  1.00  0.00     0.127 A 
ENDROOT
BRANCH   1   9
HETATM    9  N2  UNL     1      -1.846   0.592   0.013  1.00  0.00    -0.364 NA
HETATM   10  C3  UNL     1      -3.143   0.962   0.210  1.00  0.00     0.322 C 
HETATM   11  O1  UNL     1      -3.838   1.876  -0.326  1.00  0.00    -0.255 OA
BRANCH  10  12
HETATM   12  C2  UNL     1      -3.946   0.175   1.245  1.00  0.00     0.285 C 
HETATM   13  C1  UNL     1      -5.261  -0.256   0.682  1.00  0.00     0.051 C 
BRANCH  12  14
HETATM   14  N1  UNL     1      -3.187  -0.975   1.650  1.00  0.00    -0.066 N 
ATOM     15  H13 UNL     1      -3.706  -1.567   2.299  1.00  0.00     0.275 HD
ATOM     16  H12 UNL     1      -3.077  -1.648   0.891  1.00  0.00     0.275 HD
ATOM     17  H11 UNL     1      -2.289  -0.681   2.034  1.00  0.00     0.275 HD
ENDBRANCH  12  14
ENDBRANCH  10  12
ENDBRANCH   1   9
BRANCH   8  18
HETATM   18  O5  UNL     1      -1.282  -1.370  -1.792  1.00  0.00    -0.356 OA
ATOM     19  H5  UNL     1      -1.066  -2.060  -2.408  1.00  0.00     0.218 HD
ENDBRANCH   8  18
BRANCH   4  20
HETATM   20  N4  UNL     1       2.771   1.076   1.105  1.00  0.00    -0.308 N 
HETATM   21  C7  UNL     1       3.476   2.219   0.649  1.00  0.00     0.333 C 
HETATM   22  N5  UNL     1       4.481   2.878   1.390  1.00  0.00    -0.040 NA
HETATM   23  O2  UNL     1       3.216   2.719  -0.501  1.00  0.00    -0.251 OA
ATOM     24  H4  UNL     1       3.004   0.701   2.024  1.00  0.00     0.170 HD
ENDBRANCH   4  20
BRANCH   7  25
HETATM   25  C10 UNL     1       1.415  -2.261  -2.225  1.00  0.00     0.319 C 
HETATM   26  O3  UNL     1       0.616  -2.873  -2.926  1.00  0.00    -0.257 OA
BRANCH  25  27
HETATM   27  O4  UNL     1       2.766  -2.623  -2.359  1.00  0.00    -0.202 OA
BRANCH  27  28
HETATM   28  N7  UNL     1       3.126  -3.627  -3.249  1.00  0.00    -0.302 N 
ATOM     29  H72 UNL     1       2.400  -4.090  -3.796  1.00  0.00     0.184 HD
ATOM     30  H71 UNL     1       4.107  -3.890  -3.346  1.00  0.00     0.184 HD
ENDBRANCH  27  28
ENDBRANCH  25  27
ENDBRANCH   7  25
TORSDOF 8
