REMARK  5 active torsions:
REMARK  status: ('A' for Active; 'I' for Inactive)
REMARK    1  A    between atoms: S1_2  and  C2_3 
REMARK    2  A    between atoms: C3_6  and  N2_7 
REMARK    3  A    between atoms: C4_10  and  C5_11 
REMARK    4  A    between atoms: C6_14  and  C7_15 
REMARK    5  A    between atoms: C8_20  and  C9_21 
ROOT
HETATM    1  C5  UNL     1      -0.231   0.135   0.072  1.00  0.00     0.126 A 
HETATM    2  N3  UNL     1      -0.832  -0.269   1.176  1.00  0.00    -0.337 N 
ATOM      3  H3  UNL     1      -0.349  -0.660   1.985  1.00  0.00     0.167 HD
HETATM    4  C6  UNL     1      -2.219  -0.091   1.092  1.00  0.00     0.107 A 
HETATM    5  C8  UNL     1      -2.411   0.452  -0.143  1.00  0.00     0.131 A 
HETATM    6  N7  UNL     1      -1.174   0.584  -0.761  1.00  0.00    -0.331 N 
HETATM    7  C10 UNL     1      -1.021   1.133  -2.092  1.00  0.00     0.158 C 
ENDROOT
BRANCH   1   8
HETATM    8  C4  UNL     1       1.215   0.097  -0.192  1.00  0.00     0.093 A 
HETATM    9  C3  UNL     1       2.052   1.147   0.127  1.00  0.00     0.118 A 
HETATM   10  N1  UNL     1       3.374   1.109  -0.115  1.00  0.00    -0.322 N 
HETATM   11  C2  UNL     1       3.882   0.006  -0.687  1.00  0.00     0.146 A 
ATOM     12  H1  UNL     1       3.974   1.897   0.129  1.00  0.00     0.169 HD
HETATM   13  N9  UNL     1       3.101  -1.027  -1.008  1.00  0.00    -0.324 N 
HETATM   14  C11 UNL     1       1.774  -1.017  -0.777  1.00  0.00     0.136 A 
ATOM     15  H9  UNL     1       3.521  -1.849  -1.441  1.00  0.00     0.169 HD
HETATM   16  N8  UNL     1       0.988  -2.155  -1.143  1.00  0.00    -0.082 NA
BRANCH   9  17
HETATM   17  N2  UNL     1       1.560   2.221   0.683  1.00  0.00    -0.385 N 
ATOM     18  H22 UNL     1       2.179   2.997   0.919  1.00  0.00     0.157 HD
ATOM     19  H21 UNL     1       0.557   2.250   0.867  1.00  0.00     0.157 HD
ENDBRANCH   9  17
BRANCH  11  20
HETATM   20  S1  UNL     1       5.634  -0.054  -1.013  1.00  0.00    -0.098 SA
HETATM   21  C1  UNL     1       6.445  -0.757   0.442  1.00  0.00     0.099 C 
ENDBRANCH  11  20
ENDBRANCH   1   8
BRANCH   4  22
HETATM   22  C7  UNL     1      -3.095  -0.480   2.167  1.00  0.00     0.139 C 
HETATM   23  N4  UNL     1      -2.533  -1.001   3.235  1.00  0.00    -0.386 N 
ATOM     24  H42 UNL     1      -1.515  -1.056   3.191  1.00  0.00     0.157 HD
ATOM     25  H41 UNL     1      -3.153  -1.276   3.996  1.00  0.00     0.157 HD
HETATM   26  N5  UNL     1      -4.474  -0.406   2.227  1.00  0.00    -0.081 NA
ENDBRANCH   4  22
BRANCH   5  27
HETATM   27  C9  UNL     1      -3.646   0.902  -0.757  1.00  0.00     0.284 C 
HETATM   28  N6  UNL     1      -4.856   1.209  -0.135  1.00  0.00    -0.056 NA
HETATM   29  O1  UNL     1      -3.678   1.058  -2.041  1.00  0.00    -0.269 OA
ENDBRANCH   5  27
TORSDOF 5
