REMARK  8 active torsions:
REMARK  status: ('A' for Active; 'I' for Inactive)
REMARK    1  A    between atoms: C2_2  and  N1_3 
REMARK    2  A    between atoms: C2_2  and  C20_37 
REMARK       I    between atoms: N1_3  and  C3_5 
REMARK    3  A    between atoms: C3_5  and  C4_7 
REMARK    4  A    between atoms: C4_7  and  N2_8 
REMARK    5  A    between atoms: C4_7  and  C5_12 
REMARK    6  A    between atoms: C5_12  and  O2_13 
REMARK    7  A    between atoms: C5_12  and  N3_15 
REMARK    8  A    between atoms: N3_15  and  C6_17 
ROOT
HETATM    1  N3  UNL     1      -0.733  -0.371   0.721  1.00  0.00    -0.391 N 
ATOM      2  H3  UNL     1      -0.670  -0.783   1.652  1.00  0.00     0.156 HD
ENDROOT
BRANCH   1   3
HETATM    3  C5  UNL     1      -1.943  -0.421   0.010  1.00  0.00     0.254 C 
BRANCH   3   4
HETATM    4  C4  UNL     1      -3.111  -0.345   1.022  1.00  0.00     0.322 C 
BRANCH   4   5
HETATM    5  C3  UNL     1      -4.374  -0.055   0.294  1.00  0.00     0.253 C 
HETATM    6  N1  UNL     1      -5.381  -1.033   0.108  1.00  0.00    -0.349 N 
ATOM      7  H1  UNL     1      -5.273  -1.978   0.476  1.00  0.00     0.163 HD
HETATM    8  O1  UNL     1      -4.530   1.090  -0.151  1.00  0.00    -0.271 OA
BRANCH   6   9
HETATM    9  C2  UNL     1      -6.577  -0.642  -0.627  1.00  0.00     0.132 C 
HETATM   10  C1  UNL     1      -7.312  -1.750  -1.264  1.00  0.00     0.039 C 
BRANCH   9  11
HETATM   11  C20 UNL     1      -7.506   0.085   0.328  1.00  0.00     0.059 A 
HETATM   12  C21 UNL     1      -7.804  -0.289   1.614  1.00  0.00     0.174 A 
HETATM   13  O3  UNL     1      -8.633   0.594   2.118  1.00  0.00    -0.272 OA
HETATM   14  C22 UNL     1      -8.900   1.540   1.227  1.00  0.00     0.369 A 
HETATM   15  O4  UNL     1      -9.644   2.549   1.338  1.00  0.00    -0.238 OA
HETATM   16  N6  UNL     1      -8.192   1.213   0.115  1.00  0.00    -0.302 N 
ATOM     17  H6  UNL     1      -8.185   1.748  -0.753  1.00  0.00     0.171 HD
ENDBRANCH   9  11
ENDBRANCH   6   9
ENDBRANCH   4   5
BRANCH   4  18
HETATM   18  N2  UNL     1      -2.869   0.761   1.937  1.00  0.00    -0.062 N 
ATOM     19  H23 UNL     1      -2.860   1.668   1.471  1.00  0.00     0.275 HD
ATOM     20  H22 UNL     1      -3.656   0.940   2.561  1.00  0.00     0.275 HD
ATOM     21  H21 UNL     1      -2.002   0.562   2.437  1.00  0.00     0.275 HD
ENDBRANCH   4  18
ENDBRANCH   3   4
BRANCH   3  22
HETATM   22  O2  UNL     1      -2.186  -1.490  -0.819  1.00  0.00    -0.374 OA
ATOM     23  H2  UNL     1      -1.469  -1.537  -1.440  1.00  0.00     0.212 HD
ENDBRANCH   3  22
ENDBRANCH   1   3
BRANCH   1  24
HETATM   24  C6  UNL     1       0.397   0.251   0.145  1.00  0.00     0.079 C 
HETATM   25  C7  UNL     1       0.814  -0.550  -1.077  1.00  0.00     0.025 C 
HETATM   26  C8  UNL     1       1.250  -1.930  -0.653  1.00  0.00     0.002 C 
HETATM   27  C9  UNL     1       2.386  -1.851   0.350  1.00  0.00     0.002 C 
HETATM   28  C10 UNL     1       3.253  -3.072   0.314  1.00  0.00     0.027 C 
HETATM   29  C11 UNL     1       4.486  -2.896  -0.546  1.00  0.00     0.232 C 
HETATM   30  N4  UNL     1       4.772  -1.494  -0.774  1.00  0.00    -0.075 N 
HETATM   31  C12 UNL     1       5.697  -0.944   0.205  1.00  0.00     0.232 C 
ATOM     32  H42 UNL     1       5.109  -1.339  -1.724  1.00  0.00     0.277 HD
ATOM     33  H41 UNL     1       3.912  -0.947  -0.813  1.00  0.00     0.277 HD
HETATM   34  C13 UNL     1       6.705  -0.058  -0.442  1.00  0.00     0.029 C 
HETATM   35  C14 UNL     1       6.540   1.403  -0.068  1.00  0.00     0.029 C 
HETATM   36  C15 UNL     1       5.107   1.727   0.290  1.00  0.00     0.232 C 
HETATM   37  N5  UNL     1       4.854   3.133   0.014  1.00  0.00    -0.075 N 
HETATM   38  C16 UNL     1       3.499   3.491   0.471  1.00  0.00     0.232 C 
ATOM     39  H52 UNL     1       5.569   3.739   0.417  1.00  0.00     0.277 HD
ATOM     40  H51 UNL     1       5.003   3.365  -0.968  1.00  0.00     0.277 HD
HETATM   41  C17 UNL     1       2.643   2.277   0.185  1.00  0.00     0.027 C 
HETATM   42  C18 UNL     1       1.215   2.623   0.489  1.00  0.00     0.004 C 
HETATM   43  C19 UNL     1       0.226   1.707  -0.185  1.00  0.00     0.025 C 
ENDBRANCH   1  24
TORSDOF 8
