REMARK  8 active torsions:
REMARK  status: ('A' for Active; 'I' for Inactive)
REMARK    1  A    between atoms: N2_6  and  N3_8 
REMARK    2  A    between atoms: C4_11  and  S1_12 
REMARK    3  A    between atoms: S1_12  and  C5_13 
REMARK    4  A    between atoms: C5_13  and  C6_14 
REMARK    5  A    between atoms: C6_14  and  C7_15 
REMARK    6  A    between atoms: C8_16  and  S2_17 
REMARK    7  A    between atoms: S2_17  and  C9_18 
REMARK    8  A    between atoms: C15_26  and  N5_27 
ROOT
HETATM    1  C6  UNL     1       0.373   1.715   0.900  1.00  0.00     0.057 C 
ENDROOT
BRANCH   1   2
HETATM    2  C5  UNL     1      -0.250   0.425   1.291  1.00  0.00     0.081 C 
BRANCH   2   3
HETATM    3  S1  UNL     1      -1.488  -0.230   0.192  1.00  0.00    -0.128 SA
BRANCH   3   4
HETATM    4  C4  UNL     1      -3.019   0.717   0.148  1.00  0.00     0.316 C 
HETATM    5  C3  UNL     1      -3.760   0.659   1.424  1.00  0.00     0.133 C 
HETATM    6  N1  UNL     1      -4.427  -0.592   1.697  1.00  0.00    -0.370 N 
HETATM    7  N2  UNL     1      -3.846   1.618   2.275  1.00  0.00    -0.293 N 
HETATM    8  C2  UNL     1      -4.616  -1.437   0.524  1.00  0.00     0.114 C 
ATOM      9  H1  UNL     1      -4.739  -0.861   2.630  1.00  0.00     0.161 HD
HETATM   10  C1  UNL     1      -5.819  -2.299   0.755  1.00  0.00     0.034 C 
HETATM   11  C17 UNL     1      -4.892  -0.563  -0.679  1.00  0.00     0.140 C 
HETATM   12  N7  UNL     1      -3.825   0.333  -0.987  1.00  0.00    -0.045 N 
HETATM   13  C18 UNL     1      -6.235   0.126  -0.537  1.00  0.00     0.048 C 
HETATM   14  C19 UNL     1      -5.030  -1.521  -1.871  1.00  0.00     0.048 C 
ATOM     15  H72 UNL     1      -4.183   1.160  -1.465  1.00  0.00     0.280 HD
ATOM     16  H71 UNL     1      -3.237  -0.055  -1.725  1.00  0.00     0.280 HD
ATOM     17  H2  UNL     1      -4.392   1.449   3.120  1.00  0.00     0.187 HD
BRANCH   7  18
HETATM   18  N3  UNL     1      -3.252   2.872   2.135  1.00  0.00    -0.344 N 
ATOM     19  H32 UNL     1      -2.710   3.023   1.284  1.00  0.00     0.176 HD
ATOM     20  H31 UNL     1      -3.320   3.633   2.810  1.00  0.00     0.176 HD
ENDBRANCH   7  18
ENDBRANCH   3   4
ENDBRANCH   2   3
ENDBRANCH   1   2
BRANCH   1  21
HETATM   21  C7  UNL     1       1.105   1.717  -0.374  1.00  0.00     0.045 A 
HETATM   22  C8  UNL     1       2.377   1.132  -0.491  1.00  0.00     0.098 A 
HETATM   23  N4  UNL     1       3.036   1.144  -1.662  1.00  0.00    -0.185 N 
HETATM   24  C15 UNL     1       2.492   1.719  -2.757  1.00  0.00     0.679 A 
ATOM     25  H4  UNL     1       3.959   0.714  -1.725  1.00  0.00     0.185 HD
HETATM   26  N6  UNL     1       1.277   2.282  -2.660  1.00  0.00    -0.156 N 
HETATM   27  C16 UNL     1       0.577   2.295  -1.504  1.00  0.00     0.268 A 
ATOM     28  H6  UNL     1       0.868   2.715  -3.488  1.00  0.00     0.187 HD
HETATM   29  O1  UNL     1      -0.573   2.855  -1.501  1.00  0.00    -0.267 OA
BRANCH  22  30
HETATM   30  S2  UNL     1       3.052   0.388   0.985  1.00  0.00    -0.106 SA
BRANCH  30  31
HETATM   31  C9  UNL     1       4.656  -0.356   0.619  1.00  0.00     0.054 C 
HETATM   32  C10 UNL     1       4.576  -1.548  -0.284  1.00  0.00     0.015 C 
HETATM   33  C11 UNL     1       5.917  -1.656  -0.987  1.00  0.00     0.001 C 
HETATM   34  C12 UNL     1       7.026  -1.265  -0.011  1.00  0.00     0.000 C 
HETATM   35  C13 UNL     1       6.605  -1.570   1.411  1.00  0.00     0.001 C 
HETATM   36  C14 UNL     1       5.424  -0.733   1.862  1.00  0.00     0.015 C 
ENDBRANCH  30  31
ENDBRANCH  22  30
BRANCH  24  37
HETATM   37  N5  UNL     1       3.118   1.735  -3.885  1.00  0.00    -0.234 N 
ATOM     38  H52 UNL     1       4.041   1.307  -3.959  1.00  0.00     0.174 HD
ATOM     39  H51 UNL     1       2.707   2.169  -4.712  1.00  0.00     0.174 HD
ENDBRANCH  24  37
ENDBRANCH   1  21
TORSDOF 8
