REMARK  10 active torsions:
REMARK  status: ('A' for Active; 'I' for Inactive)
REMARK    1  A    between atoms: C2_2  and  N1_3 
REMARK       I    between atoms: N1_3  and  C3_5 
REMARK       I    between atoms: C3_5  and  N2_7 
REMARK    2  A    between atoms: N2_7  and  C4_9 
REMARK    3  A    between atoms: C5_12  and  N4_13 
REMARK    4  A    between atoms: C6_18  and  C7_19 
REMARK    5  A    between atoms: C7_19  and  N6_20 
REMARK    6  A    between atoms: C7_19  and  C8_24 
REMARK    7  A    between atoms: C13_29  and  C14_30 
REMARK    8  A    between atoms: C17_35  and  N8_36 
REMARK       I    between atoms: N8_36  and  C18_38 
REMARK    9  A    between atoms: C18_38  and  C19_40 
REMARK   10  A    between atoms: C19_40  and  O3_41 
ROOT
HETATM    1  C4  UNL     1      -1.091   1.321  -0.397  1.00  0.00     0.140 A 
HETATM    2  N3  UNL     1      -2.382   1.520  -0.680  1.00  0.00    -0.176 N 
ATOM      3  H3  UNL     1      -2.762   2.463  -0.764  1.00  0.00     0.186 HD
HETATM    4  C5  UNL     1      -3.162   0.445  -0.850  1.00  0.00     0.677 A 
HETATM    5  N5  UNL     1      -2.700  -0.823  -0.746  1.00  0.00    -0.193 N 
ATOM      6  H5  UNL     1      -3.332  -1.612  -0.885  1.00  0.00     0.184 HD
HETATM    7  C6  UNL     1      -1.381  -1.042  -0.453  1.00  0.00     0.074 A 
HETATM    8  C13 UNL     1      -0.559   0.028  -0.278  1.00  0.00     0.068 A 
ENDROOT
BRANCH   8   9
HETATM    9  C14 UNL     1       0.866  -0.090  -0.014  1.00  0.00     0.092 A 
HETATM   10  N7  UNL     1       1.728  -1.079   0.036  1.00  0.00    -0.351 N 
HETATM   11  C15 UNL     1       2.977  -0.898   0.264  1.00  0.00     0.040 A 
ATOM     12  H7  UNL     1       1.391  -2.030  -0.113  1.00  0.00     0.166 HD
HETATM   13  C16 UNL     1       3.987  -2.032   0.325  1.00  0.00     0.071 C 
HETATM   14  C17 UNL     1       3.401   0.389   0.460  1.00  0.00     0.101 A 
HETATM   15  S1  UNL     1       1.944   1.252   0.297  1.00  0.00    -0.051 SA
BRANCH  14  16
HETATM   16  N8  UNL     1       4.741   0.861   0.731  1.00  0.00    -0.318 N 
HETATM   17  C18 UNL     1       5.002   2.239   0.909  1.00  0.00     0.246 C 
HETATM   18  O2  UNL     1       4.050   3.049   0.827  1.00  0.00    -0.271 OA
ATOM     19  H8  UNL     1       5.508   0.191   0.795  1.00  0.00     0.169 HD
BRANCH  17  20
HETATM   20  C19 UNL     1       6.368   2.705   1.184  1.00  0.00     0.267 C 
BRANCH  20  21
HETATM   21  O3  UNL     1       6.467   4.067   1.332  1.00  0.00    -0.392 OA
ATOM     22  H3  UNL     1       7.350   4.368   1.510  1.00  0.00     0.210 HD
ENDBRANCH  20  21
ENDBRANCH  17  20
ENDBRANCH  14  16
ENDBRANCH   8   9
BRANCH   1  23
HETATM   23  N2  UNL     1      -0.318   2.330  -0.229  1.00  0.00    -0.293 N 
HETATM   24  C3  UNL     1      -0.759   3.664  -0.327  1.00  0.00     0.321 C 
HETATM   25  N1  UNL     1      -0.975   4.313  -1.571  1.00  0.00    -0.343 N 
HETATM   26  O1  UNL     1      -0.968   4.299   0.735  1.00  0.00    -0.247 OA
ATOM     27  H1  UNL     1      -0.805   3.795  -2.433  1.00  0.00     0.164 HD
ATOM     28  H2  UNL     1       0.664   2.158  -0.014  1.00  0.00     0.172 HD
BRANCH  25  29
HETATM   29  C2  UNL     1      -1.424   5.672  -1.655  1.00  0.00     0.120 C 
HETATM   30  C1  UNL     1      -2.767   5.882  -0.989  1.00  0.00     0.026 C 
ENDBRANCH  25  29
ENDBRANCH   1  23
BRANCH   7  31
HETATM   31  C7  UNL     1      -0.900  -2.400  -0.308  1.00  0.00     0.238 C 
BRANCH  31  32
HETATM   32  N6  UNL     1      -0.506  -2.508   1.141  1.00  0.00    -0.069 N 
ATOM     33  H63 UNL     1       0.158  -1.796   1.446  1.00  0.00     0.275 HD
ATOM     34  H62 UNL     1      -1.248  -2.258   1.794  1.00  0.00     0.275 HD
ATOM     35  H61 UNL     1      -0.167  -3.465   1.243  1.00  0.00     0.275 HD
ENDBRANCH  31  32
BRANCH  31  36
HETATM   36  C8  UNL     1      -1.911  -3.515  -0.440  1.00  0.00     0.022 C 
HETATM   37  C9  UNL     1      -2.985  -3.532   0.589  1.00  0.00     0.007 C 
HETATM   38  C10 UNL     1      -2.735  -4.743   1.464  1.00  0.00     0.000 C 
HETATM   39  C11 UNL     1      -1.928  -5.700   0.650  1.00  0.00     0.000 C 
HETATM   40  C12 UNL     1      -1.228  -4.849  -0.374  1.00  0.00     0.007 C 
ENDBRANCH  31  36
ENDBRANCH   7  31
BRANCH   4  41
HETATM   41  N4  UNL     1      -4.410   0.634  -1.125  1.00  0.00    -0.234 N 
ATOM     42  H42 UNL     1      -4.758   1.590  -1.203  1.00  0.00     0.174 HD
ATOM     43  H41 UNL     1      -5.004  -0.185  -1.254  1.00  0.00     0.174 HD
ENDBRANCH   4  41
TORSDOF 10
