REMARK  10 active torsions:
REMARK  status: ('A' for Active; 'I' for Inactive)
REMARK    1  A    between atoms: C4_4  and  C5_5 
REMARK    2  A    between atoms: C8_12  and  N3_13 
REMARK    3  A    between atoms: C10_20  and  C11_21 
REMARK    4  A    between atoms: C11_21  and  N5_22 
REMARK    5  A    between atoms: C11_21  and  N6_26 
REMARK    6  A    between atoms: N6_26  and  C12_28 
REMARK    7  A    between atoms: C12_28  and  O2_29 
REMARK    8  A    between atoms: C13_31  and  N7_32 
REMARK    9  A    between atoms: C13_31  and  C14_35 
REMARK   10  A    between atoms: C14_35  and  C15_36 
ROOT
HETATM    1  C11 UNL     1       0.023  -1.802  -0.998  1.00  0.00     0.323 C 
ENDROOT
BRANCH   1   2
HETATM    2  C10 UNL     1       1.146  -1.084  -0.432  1.00  0.00     0.065 A 
HETATM    3  C2  UNL     1       2.385  -1.691  -0.333  1.00  0.00    -0.044 A 
HETATM    4  C1  UNL     1       2.578  -3.101  -0.761  1.00  0.00     0.049 C 
HETATM    5  C3  UNL     1       3.483  -1.000   0.189  1.00  0.00     0.038 A 
HETATM    6  C4  UNL     1       3.376   0.303   0.622  1.00  0.00     0.051 A 
HETATM    7  N4  UNL     1       2.180   0.880   0.524  1.00  0.00    -0.322 N 
HETATM    8  C9  UNL     1       1.096   0.212   0.014  1.00  0.00     0.256 A 
ATOM      9  H4  UNL     1       2.067   1.844   0.836  1.00  0.00     0.169 HD
HETATM   10  O1  UNL     1      -0.012   0.787  -0.061  1.00  0.00    -0.267 OA
BRANCH   6  11
HETATM   11  C5  UNL     1       4.543   0.973   1.245  1.00  0.00     0.059 A 
HETATM   12  C6  UNL     1       5.875   0.727   1.020  1.00  0.00     0.038 A 
HETATM   13  C7  UNL     1       6.506  -0.196   0.021  1.00  0.00     0.071 C 
HETATM   14  N1  UNL     1       6.612   1.496   1.841  1.00  0.00    -0.303 N 
HETATM   15  N2  UNL     1       5.812   2.216   2.572  1.00  0.00    -0.285 N 
ATOM     16  H1  UNL     1       7.631   1.512   1.884  1.00  0.00     0.186 HD
HETATM   17  C8  UNL     1       4.503   1.935   2.249  1.00  0.00     0.128 A 
ATOM     18  H2  UNL     1       6.110   2.888   3.279  1.00  0.00     0.188 HD
BRANCH  17  19
HETATM   19  N3  UNL     1       3.537   2.471   2.850  1.00  0.00    -0.384 N 
ATOM     20  H32 UNL     1       2.568   2.263   2.611  1.00  0.00     0.157 HD
ATOM     21  H31 UNL     1       3.508   3.176   3.586  1.00  0.00     0.157 HD
ENDBRANCH  17  19
ENDBRANCH   6  11
ENDBRANCH   1   2
BRANCH   1  22
HETATM   22  N5  UNL     1       0.263  -2.502  -2.224  1.00  0.00    -0.054 N 
ATOM     23  H53 UNL     1       0.643  -1.858  -2.918  1.00  0.00     0.277 HD
ATOM     24  H52 UNL     1       1.052  -3.137  -2.107  1.00  0.00     0.277 HD
ATOM     25  H51 UNL     1      -0.528  -3.008  -2.623  1.00  0.00     0.277 HD
ENDBRANCH   1  22
BRANCH   1  26
HETATM   26  N6  UNL     1      -1.230  -1.092  -1.153  1.00  0.00    -0.338 N 
ATOM     27  H6  UNL     1      -1.260  -0.295  -1.789  1.00  0.00     0.164 HD
BRANCH  26  28
HETATM   28  C12 UNL     1      -2.406  -1.447  -0.470  1.00  0.00     0.168 C 
HETATM   29  C13 UNL     1      -3.749  -0.916  -0.467  1.00  0.00     0.150 C 
BRANCH  28  30
HETATM   30  O2  UNL     1      -2.239  -2.473   0.318  1.00  0.00    -0.345 OA
ATOM     31  H2  UNL     1      -3.034  -2.713   0.780  1.00  0.00     0.219 HD
ENDBRANCH  28  30
BRANCH  29  32
HETATM   32  N7  UNL     1      -4.647  -1.632   0.435  1.00  0.00    -0.114 N 
HETATM   33  O3  UNL     1      -5.684  -2.213   0.068  1.00  0.00    -0.532 OA
HETATM   34  O4  UNL     1      -4.401  -1.720   1.800  1.00  0.00    -0.532 OA
ENDBRANCH  29  32
BRANCH  29  35
HETATM   35  C14 UNL     1      -3.956   0.554  -0.429  1.00  0.00     0.101 C 
HETATM   36  C16 UNL     1      -3.478   1.233   0.812  1.00  0.00     0.027 C 
HETATM   37  C17 UNL     1      -4.651   1.896   1.490  1.00  0.00     0.002 C 
HETATM   38  C18 UNL     1      -5.873   1.265   0.914  1.00  0.00     0.002 C 
HETATM   39  C19 UNL     1      -5.469   0.852  -0.453  1.00  0.00     0.027 C 
BRANCH  35  40
HETATM   40  C15 UNL     1      -3.386   1.227  -1.613  1.00  0.00     0.188 C 
HETATM   41  O5  UNL     1      -3.586   0.768  -2.789  1.00  0.00    -0.647 OA
HETATM   42  O6  UNL     1      -2.621   2.375  -1.523  1.00  0.00    -0.647 OA
ENDBRANCH  35  40
ENDBRANCH  29  35
ENDBRANCH  26  28
ENDBRANCH   1  26
TORSDOF 10
