REMARK  8 active torsions:
REMARK  status: ('A' for Active; 'I' for Inactive)
REMARK    1  A    between atoms: N1_1  and  C1_4 
REMARK    2  A    between atoms: C2_7  and  N3_8 
REMARK    3  A    between atoms: C4_14  and  C5_15 
REMARK    4  A    between atoms: C5_15  and  C6_16 
REMARK    5  A    between atoms: C5_15  and  N5_21 
REMARK    6  A    between atoms: C6_16  and  C7_17 
REMARK    7  A    between atoms: C7_17  and  C8_18 
REMARK       I    between atoms: N5_21  and  C9_23 
REMARK    8  A    between atoms: C9_23  and  C10_25 
ROOT
HETATM    1  C5  UNL     1      -1.593  -1.000   1.551  1.00  0.00     0.153 C 
ENDROOT
BRANCH   1   2
HETATM    2  C4  UNL     1      -2.537   0.020   1.061  1.00  0.00     0.106 A 
HETATM    3  N4  UNL     1      -3.820  -0.210   0.752  1.00  0.00    -0.338 N 
HETATM    4  C3  UNL     1      -4.406   0.912   0.339  1.00  0.00     0.123 A 
ATOM      5  H4  UNL     1      -4.283  -1.116   0.823  1.00  0.00     0.167 HD
HETATM    6  C2  UNL     1      -5.697   1.160  -0.078  1.00  0.00     0.145 A 
HETATM    7  C18 UNL     1      -3.433   1.882   0.397  1.00  0.00     0.153 A 
HETATM    8  N2  UNL     1      -5.981   2.432  -0.439  1.00  0.00    -0.175 N 
HETATM    9  C1  UNL     1      -5.045   3.400  -0.390  1.00  0.00     0.679 A 
ATOM     10  H2  UNL     1      -6.923   2.663  -0.755  1.00  0.00     0.186 HD
HETATM   11  N8  UNL     1      -3.786   3.127   0.023  1.00  0.00    -0.174 N 
ATOM     12  H8  UNL     1      -3.093   3.875   0.052  1.00  0.00     0.186 HD
HETATM   13  N7  UNL     1      -2.286   1.346   0.838  1.00  0.00    -0.328 N 
ATOM     14  H7  UNL     1      -1.400   1.832   0.979  1.00  0.00     0.169 HD
BRANCH   6  15
HETATM   15  N3  UNL     1      -6.610   0.237  -0.129  1.00  0.00    -0.383 N 
ATOM     16  H32 UNL     1      -7.565   0.420  -0.437  1.00  0.00     0.157 HD
ATOM     17  H31 UNL     1      -6.396  -0.722   0.143  1.00  0.00     0.157 HD
ENDBRANCH   6  15
BRANCH   9  18
HETATM   18  N1  UNL     1      -5.383   4.584  -0.747  1.00  0.00    -0.234 N 
ATOM     19  H12 UNL     1      -6.332   4.790  -1.058  1.00  0.00     0.174 HD
ATOM     20  H11 UNL     1      -4.674   5.317  -0.710  1.00  0.00     0.174 HD
ENDBRANCH   9  18
ENDBRANCH   1   2
BRANCH   1  21
HETATM   21  C6  UNL     1      -2.113  -2.393   1.347  1.00  0.00     0.043 C 
BRANCH  21  22
HETATM   22  C7  UNL     1      -2.367  -2.788  -0.063  1.00  0.00     0.116 C 
BRANCH  22  23
HETATM   23  C8  UNL     1      -2.871  -4.209  -0.020  1.00  0.00     0.172 C 
HETATM   24  O1  UNL     1      -2.030  -5.112   0.176  1.00  0.00    -0.648 OA
HETATM   25  O2  UNL     1      -4.205  -4.514  -0.190  1.00  0.00    -0.648 OA
ENDBRANCH  22  23
ENDBRANCH  21  22
ENDBRANCH   1  21
BRANCH   1  26
HETATM   26  N5  UNL     1      -0.281  -0.830   0.949  1.00  0.00    -0.344 N 
HETATM   27  C9  UNL     1       0.849  -0.561   1.757  1.00  0.00     0.276 C 
HETATM   28  O3  UNL     1       0.715  -0.468   3.012  1.00  0.00    -0.265 OA
ATOM     29  H5  UNL     1      -0.174  -0.905  -0.063  1.00  0.00     0.163 HD
BRANCH  27  30
HETATM   30  C10 UNL     1       2.190  -0.385   1.172  1.00  0.00     0.143 A 
HETATM   31  N6  UNL     1       2.591  -0.429  -0.076  1.00  0.00    -0.342 N 
HETATM   32  C11 UNL     1       3.844  -0.241  -0.367  1.00  0.00     0.092 A 
ATOM     33  H6  UNL     1       1.918  -0.611  -0.820  1.00  0.00     0.167 HD
HETATM   34  C12 UNL     1       4.704  -0.000   0.677  1.00  0.00     0.015 A 
HETATM   35  C17 UNL     1       4.309  -0.289  -1.784  1.00  0.00     0.176 C 
HETATM   36  S1  UNL     1       3.639  -0.061   2.014  1.00  0.00    -0.069 SA
HETATM   37  C13 UNL     1       6.169   0.249   0.692  1.00  0.00     0.049 C 
HETATM   38  C14 UNL     1       6.678   1.229  -0.273  1.00  0.00     0.006 C 
HETATM   39  C15 UNL     1       6.035   1.367  -1.588  1.00  0.00     0.008 C 
HETATM   40  C16 UNL     1       5.658   0.123  -2.312  1.00  0.00     0.085 C 
HETATM   41  O4  UNL     1       3.485  -0.722  -2.631  1.00  0.00    -0.291 OA
ENDBRANCH  27  30
ENDBRANCH   1  26
TORSDOF 8
