REMARK  8 active torsions:
REMARK  status: ('A' for Active; 'I' for Inactive)
REMARK    1  A    between atoms: C2_5  and  C3_6 
REMARK    2  A    between atoms: C3_6  and  C4_7 
REMARK    3  A    between atoms: C4_7  and  S1_8 
REMARK    4  A    between atoms: S1_8  and  C5_9 
REMARK    5  A    between atoms: C6_12  and  N4_13 
REMARK    6  A    between atoms: C9_22  and  C10_23 
REMARK    7  A    between atoms: C10_23  and  C11_24 
REMARK    8  A    between atoms: C15_31  and  N8_32 
ROOT
HETATM    1  C1  UNL     1      -0.742  -3.912   1.624  1.00  0.00     0.177 C 
HETATM    2  N1  UNL     1       0.329  -3.124   1.015  1.00  0.00    -0.300 N 
HETATM    3  N2  UNL     1       1.540  -3.494   0.743  1.00  0.00    -0.302 N 
ATOM      4  H2  UNL     1       1.912  -4.426   0.926  1.00  0.00     0.186 HD
HETATM    5  C2  UNL     1       2.264  -2.463   0.172  1.00  0.00     0.035 A 
HETATM    6  C7  UNL     1       1.356  -1.408   0.120  1.00  0.00    -0.009 A 
HETATM    7  C8  UNL     1       0.159  -1.822   0.646  1.00  0.00     0.041 A 
HETATM    8  C9  UNL     1      -1.005  -0.907   0.750  1.00  0.00     0.043 C 
HETATM    9  C17 UNL     1      -0.371   0.423   1.177  1.00  0.00     0.011 C 
HETATM   10  C18 UNL     1       0.597   0.942   0.176  1.00  0.00     0.006 C 
HETATM   11  C19 UNL     1       1.500  -0.042  -0.452  1.00  0.00     0.043 C 
ENDROOT
BRANCH   8  12
HETATM   12  C10 UNL     1      -1.750  -0.823  -0.532  1.00  0.00     0.068 C 
BRANCH  12  13
HETATM   13  C11 UNL     1      -2.947   0.054  -0.447  1.00  0.00     0.012 A 
HETATM   14  C12 UNL     1      -3.694   0.422  -1.570  1.00  0.00     0.046 A 
HETATM   15  C13 UNL     1      -4.751   1.210  -1.189  1.00  0.00     0.079 A 
HETATM   16  C14 UNL     1      -5.797   1.855  -1.825  1.00  0.00     0.273 A 
HETATM   17  C16 UNL     1      -4.657   1.331   0.178  1.00  0.00     0.137 A 
HETATM   18  O1  UNL     1      -5.882   1.742  -3.084  1.00  0.00    -0.267 OA
HETATM   19  N7  UNL     1      -6.685   2.573  -1.110  1.00  0.00    -0.156 N 
HETATM   20  C15 UNL     1      -6.589   2.689   0.227  1.00  0.00     0.680 A 
ATOM     21  H7  UNL     1      -7.450   3.041  -1.595  1.00  0.00     0.187 HD
HETATM   22  N9  UNL     1      -5.569   2.060   0.847  1.00  0.00    -0.176 N 
ATOM     23  H9  UNL     1      -5.486   2.140   1.860  1.00  0.00     0.186 HD
HETATM   24  N10 UNL     1      -3.563   0.624   0.590  1.00  0.00    -0.345 N 
ATOM     25  H10 UNL     1      -3.258   0.543   1.560  1.00  0.00     0.167 HD
BRANCH  20  26
HETATM   26  N8  UNL     1      -7.431   3.376   0.942  1.00  0.00    -0.234 N 
ATOM     27  H82 UNL     1      -8.202   3.852   0.473  1.00  0.00     0.174 HD
ATOM     28  H81 UNL     1      -7.358   3.464   1.956  1.00  0.00     0.174 HD
ENDBRANCH  20  26
ENDBRANCH  12  13
ENDBRANCH   8  12
BRANCH   5  29
HETATM   29  C3  UNL     1       3.679  -2.565  -0.183  1.00  0.00     0.069 C 
BRANCH  29  30
HETATM   30  C4  UNL     1       4.674  -2.227   0.865  1.00  0.00     0.088 C 
BRANCH  30  31
HETATM   31  S1  UNL     1       4.746  -0.596   1.530  1.00  0.00    -0.092 SA
BRANCH  31  32
HETATM   32  C5  UNL     1       5.408   0.607   0.388  1.00  0.00     0.174 A 
HETATM   33  N3  UNL     1       5.597   1.910   0.691  1.00  0.00    -0.168 N 
HETATM   34  C6  UNL     1       6.111   2.506  -0.387  1.00  0.00     0.692 A 
ATOM     35  H3  UNL     1       5.385   2.358   1.583  1.00  0.00     0.186 HD
HETATM   36  N5  UNL     1       6.254   1.602  -1.378  1.00  0.00    -0.130 N 
HETATM   37  N6  UNL     1       5.819   0.458  -0.879  1.00  0.00    -0.265 N 
ATOM     38  H5  UNL     1       6.621   1.767  -2.315  1.00  0.00     0.205 HD
ATOM     39  H6  UNL     1       5.799  -0.424  -1.392  1.00  0.00     0.189 HD
BRANCH  34  40
HETATM   40  N4  UNL     1       6.443   3.760  -0.509  1.00  0.00    -0.233 N 
ATOM     41  H42 UNL     1       6.335   4.444   0.240  1.00  0.00     0.174 HD
ATOM     42  H41 UNL     1       6.836   4.215  -1.333  1.00  0.00     0.174 HD
ENDBRANCH  34  40
ENDBRANCH  31  32
ENDBRANCH  30  31
ENDBRANCH  29  30
ENDBRANCH   5  29
TORSDOF 8
