REMARK  9 active torsions:
REMARK  status: ('A' for Active; 'I' for Inactive)
REMARK    1  A    between atoms: C2_2  and  C3_3 
REMARK    2  A    between atoms: C3_3  and  C4_4 
REMARK    3  A    between atoms: C4_4  and  C5_5 
REMARK    4  A    between atoms: C5_5  and  N1_6 
REMARK    5  A    between atoms: N2_8  and  N3_10 
REMARK       I    between atoms: N3_10  and  C7_12 
REMARK    6  A    between atoms: C10_18  and  N5_19 
REMARK    7  A    between atoms: C11_24  and  N7_25 
REMARK    8  A    between atoms: C13_31  and  N9_32 
REMARK    9  A    between atoms: C16_38  and  C17_39 
ROOT
HETATM    1  N1  UNL     1      -0.443   0.305   0.023  1.00  0.00    -0.179 N 
HETATM    2  C6  UNL     1      -1.133   1.359   0.548  1.00  0.00     0.700 A 
HETATM    3  N2  UNL     1      -2.362   1.634   0.315  1.00  0.00    -0.129 N 
ATOM      4  H2  UNL     1      -2.922   1.052  -0.307  1.00  0.00     0.205 HD
HETATM    5  N4  UNL     1      -0.316   2.081   1.374  1.00  0.00    -0.184 N 
ATOM      6  H4  UNL     1      -0.587   2.917   1.891  1.00  0.00     0.184 HD
HETATM    7  C9  UNL     1       0.863   1.530   1.394  1.00  0.00     0.121 A 
HETATM    8  C10 UNL     1       1.949   1.759   2.236  1.00  0.00     0.130 C 
HETATM    9  N6  UNL     1       2.680   0.760   2.833  1.00  0.00    -0.326 N 
ATOM     10  H6  UNL     1       3.228   1.043   3.645  1.00  0.00     0.169 HD
HETATM   11  C11 UNL     1       2.776  -0.572   2.487  1.00  0.00     0.128 C 
HETATM   12  C12 UNL     1       2.549  -1.099   1.229  1.00  0.00     0.091 A 
HETATM   13  N8  UNL     1       3.174  -2.200   0.877  1.00  0.00    -0.338 N 
ATOM     14  H8  UNL     1       3.703  -2.730   1.570  1.00  0.00     0.167 HD
HETATM   15  C13 UNL     1       3.116  -2.628  -0.397  1.00  0.00     0.121 A 
HETATM   16  C14 UNL     1       2.410  -1.931  -1.405  1.00  0.00     0.095 A 
HETATM   17  C15 UNL     1       2.350  -2.445  -2.718  1.00  0.00     0.104 C 
HETATM   18  N10 UNL     1       2.315  -2.913  -3.779  1.00  0.00    -0.191 NA
HETATM   19  C16 UNL     1       1.741  -0.759  -1.099  1.00  0.00    -0.015 A 
HETATM   20  C20 UNL     1       1.839  -0.427   0.213  1.00  0.00     0.033 A 
HETATM   21  C21 UNL     1       0.764   0.439   0.535  1.00  0.00     0.096 A 
ENDROOT
BRANCH  15  22
HETATM   22  N9  UNL     1       3.704  -3.706  -0.761  1.00  0.00    -0.384 N 
ATOM     23  H92 UNL     1       4.213  -4.209  -0.034  1.00  0.00     0.157 HD
ATOM     24  H91 UNL     1       3.660  -4.031  -1.727  1.00  0.00     0.157 HD
ENDBRANCH  15  22
BRANCH  19  25
HETATM   25  C17 UNL     1       1.239   0.195  -2.038  1.00  0.00     0.013 C 
HETATM   26  C18 UNL     1       2.363   1.342  -1.875  1.00  0.00     0.015 C 
HETATM   27  C19 UNL     1       1.257   0.051  -3.497  1.00  0.00     0.015 C 
ENDBRANCH  19  25
BRANCH  11  28
HETATM   28  N7  UNL     1       3.119  -1.450   3.325  1.00  0.00    -0.384 N 
ATOM     29  H72 UNL     1       3.286  -1.061   4.253  1.00  0.00     0.157 HD
ATOM     30  H71 UNL     1       3.190  -2.435   3.069  1.00  0.00     0.157 HD
ENDBRANCH  11  28
BRANCH   1  31
HETATM   31  C5  UNL     1      -1.105  -0.788  -0.625  1.00  0.00     0.148 C 
BRANCH  31  32
HETATM   32  C4  UNL     1      -1.560  -1.817   0.488  1.00  0.00     0.021 C 
BRANCH  32  33
HETATM   33  C3  UNL     1      -2.166  -3.012  -0.139  1.00  0.00     0.001 C 
BRANCH  33  34
HETATM   34  C2  UNL     1      -3.369  -2.759  -1.005  1.00  0.00    -0.004 C 
HETATM   35  C1  UNL     1      -4.470  -2.127  -0.208  1.00  0.00     0.005 C 
ENDBRANCH  33  34
ENDBRANCH  32  33
ENDBRANCH  31  32
ENDBRANCH   1  31
BRANCH   8  36
HETATM   36  N5  UNL     1       2.156   2.972   2.464  1.00  0.00    -0.384 N 
ATOM     37  H52 UNL     1       1.613   3.713   2.021  1.00  0.00     0.157 HD
ATOM     38  H51 UNL     1       2.951   3.140   3.080  1.00  0.00     0.157 HD
ENDBRANCH   8  36
BRANCH   3  39
HETATM   39  N3  UNL     1      -2.918   2.770   0.947  1.00  0.00    -0.256 N 
HETATM   40  C7  UNL     1      -2.652   4.080   0.482  1.00  0.00     0.232 C 
HETATM   41  C8  UNL     1      -3.199   5.300   1.110  1.00  0.00     0.119 C 
HETATM   42  O1  UNL     1      -1.894   4.236  -0.537  1.00  0.00    -0.272 OA
ATOM     43  H3  UNL     1      -3.525   2.642   1.757  1.00  0.00     0.190 HD
ENDBRANCH   3  39
TORSDOF 9
