REMARK  1 active torsions:
REMARK  status: ('A' for Active; 'I' for Inactive)
REMARK    1  A    between atoms: C6_7  and  N2_8 
ROOT
HETATM    1  C1  UNL     1       0.890   3.110   0.643  1.00  0.00     0.156 C 
HETATM    2  N1  UNL     1       0.895   1.682   0.335  1.00  0.00    -0.349 N 
HETATM    3  C2  UNL     1      -0.193   0.947   0.052  1.00  0.00     0.026 A 
HETATM    4  C3  UNL     1       0.186  -0.362  -0.191  1.00  0.00     0.028 A 
HETATM    5  C4  UNL     1       1.577  -0.400  -0.028  1.00  0.00     0.080 A 
HETATM    6  C5  UNL     1       1.982   0.909   0.294  1.00  0.00     0.106 A 
HETATM    7  C6  UNL     1       3.306   1.196   0.517  1.00  0.00     0.130 A 
HETATM    8  N3  UNL     1       4.209   0.175   0.426  1.00  0.00    -0.318 N 
ATOM      9  H3  UNL     1       5.201   0.354   0.583  1.00  0.00     0.170 HD
HETATM   10  C7  UNL     1       3.794  -1.049   0.133  1.00  0.00     0.179 A 
HETATM   11  S1  UNL     1       4.870  -2.299  -0.001  1.00  0.00    -0.040 SA
HETATM   12  N4  UNL     1       2.479  -1.365  -0.094  1.00  0.00    -0.325 N 
HETATM   13  C8  UNL     1       2.165  -2.757  -0.174  1.00  0.00     0.159 C 
HETATM   14  C9  UNL     1      -0.860  -1.372  -0.537  1.00  0.00    -0.004 A 
HETATM   15  C10 UNL     1      -0.803  -2.603  -1.034  1.00  0.00     0.063 A 
HETATM   16  C11 UNL     1      -1.941  -3.239  -1.475  1.00  0.00     0.158 A 
HETATM   17  F1  UNL     1      -2.071  -4.507  -2.016  1.00  0.00    -0.198 F 
HETATM   18  S2  UNL     1      -3.152  -2.111  -1.205  1.00  0.00    -0.063 SA
HETATM   19  C12 UNL     1      -2.148  -0.864  -0.532  1.00  0.00     0.005 A 
HETATM   20  C13 UNL     1      -2.604   0.454  -0.001  1.00  0.00    -0.008 C 
HETATM   21  C14 UNL     1      -3.274   0.261   1.361  1.00  0.00     0.021 C 
HETATM   22  C15 UNL     1      -3.721   0.947  -0.938  1.00  0.00     0.021 C 
HETATM   23  C16 UNL     1      -1.573   1.474  -0.014  1.00  0.00     0.072 C 
ENDROOT
BRANCH   7  24
HETATM   24  N2  UNL     1       3.737   2.334   0.796  1.00  0.00    -0.383 N 
ATOM     25  H22 UNL     1       3.063   3.096   0.864  1.00  0.00     0.157 HD
ATOM     26  H21 UNL     1       4.721   2.547   0.962  1.00  0.00     0.157 HD
ENDBRANCH   7  24
TORSDOF 1
