REMARK  2 active torsions:
REMARK  status: ('A' for Active; 'I' for Inactive)
REMARK    1  A    between atoms: C6_6  and  O1_8 
REMARK    2  A    between atoms: C14_17  and  O2_18 
ROOT
HETATM    1  C1  UNL     1      -2.958  -1.657  -1.212  1.00  0.00     0.015 C 
HETATM    2  C2  UNL     1      -2.230  -1.557   0.067  1.00  0.00    -0.048 C 
HETATM    3  C3  UNL     1      -2.922  -2.606   0.973  1.00  0.00     0.015 C 
HETATM    4  C4  UNL     1      -2.515  -0.250   0.823  1.00  0.00     0.012 C 
HETATM    5  C5  UNL     1      -2.350   0.966  -0.042  1.00  0.00     0.040 C 
HETATM    6  C6  UNL     1      -1.355   1.917   0.506  1.00  0.00     0.071 C 
HETATM    7  C7  UNL     1      -2.127   3.183   0.939  1.00  0.00     0.047 C 
HETATM    8  C8  UNL     1      -0.278   2.382  -0.377  1.00  0.00     0.116 C 
HETATM    9 CL1  UNL     1       0.831   3.349   0.646  1.00  0.00    -0.122 Cl
HETATM   10  C9  UNL     1       0.455   1.380  -1.203  1.00  0.00     0.034 C 
HETATM   11  C10 UNL     1       1.382   0.487  -0.525  1.00  0.00     0.062 C 
HETATM   12  C11 UNL     1       2.834   0.669  -0.776  1.00  0.00     0.101 C 
HETATM   13  C12 UNL     1       3.405   1.954  -1.091  1.00  0.00     0.050 C 
HETATM   14  C13 UNL     1       3.558   0.134   0.472  1.00  0.00     0.073 C 
HETATM   15  C14 UNL     1       3.083  -1.196   0.902  1.00  0.00     0.124 C 
HETATM   16  C15 UNL     1       2.052  -1.846   0.078  1.00  0.00     0.073 C 
HETATM   17  C16 UNL     1       1.317  -0.973  -0.884  1.00  0.00     0.105 C 
HETATM   18  C17 UNL     1      -0.006  -1.569  -1.162  1.00  0.00     0.042 C 
HETATM   19  C18 UNL     1      -0.794  -1.869   0.075  1.00  0.00     0.012 C 
HETATM   20  O3  UNL     1       2.094  -0.942  -2.068  1.00  0.00    -0.228 OA
HETATM   21  O4  UNL     1       3.159  -0.257  -1.794  1.00  0.00    -0.229 OA
ENDROOT
BRANCH   6  22
HETATM   22  O1  UNL     1      -0.786   1.481   1.728  1.00  0.00    -0.389 OA
ATOM     23  H1  UNL     1      -0.148   2.091   2.079  1.00  0.00     0.210 HD
ENDBRANCH   6  22
BRANCH  15  24
HETATM   24  O2  UNL     1       2.605  -1.071   2.230  1.00  0.00    -0.395 OA
ATOM     25  H2  UNL     1       2.299  -1.927   2.507  1.00  0.00     0.210 HD
ENDBRANCH  15  24
TORSDOF 2
