REMARK  3 active torsions:
REMARK  status: ('A' for Active; 'I' for Inactive)
REMARK    1  A    between atoms: C4_4  and  C5_5 
REMARK    2  A    between atoms: C7_8  and  O2_9 
REMARK    3  A    between atoms: C14_20  and  O5_21 
ROOT
HETATM    1  C1  UNL     1      -0.658  -3.133  -1.017  1.00  0.00     0.020 C 
HETATM    2  C2  UNL     1      -0.805  -1.666  -1.232  1.00  0.00     0.071 C 
HETATM    3  C3  UNL     1       0.528  -0.988  -1.424  1.00  0.00    -0.006 C 
HETATM    4  C4  UNL     1       0.864  -0.255  -0.394  1.00  0.00    -0.008 C 
HETATM    5  C9  UNL     1      -0.215  -0.338   0.648  1.00  0.00     0.145 C 
HETATM    6  C10 UNL     1       0.279  -1.127   1.810  1.00  0.00     0.057 C 
HETATM    7  O3  UNL     1      -0.636   0.915   1.047  1.00  0.00    -0.335 OA
HETATM    8  C11 UNL     1      -1.829   1.187   0.401  1.00  0.00     0.162 C 
HETATM    9  C12 UNL     1      -1.740   2.602  -0.132  1.00  0.00     0.078 C 
HETATM   10  C13 UNL     1      -3.021   1.098   1.322  1.00  0.00     0.078 C 
HETATM   11  O4  UNL     1      -1.986   0.251  -0.592  1.00  0.00    -0.316 OA
HETATM   12  C14 UNL     1      -1.375  -0.918  -0.082  1.00  0.00     0.207 C 
ENDROOT
BRANCH   4  13
HETATM   13  C5  UNL     1       2.079   0.530  -0.247  1.00  0.00     0.018 A 
HETATM   14  C6  UNL     1       2.405   1.310   0.884  1.00  0.00     0.158 A 
HETATM   15  O1  UNL     1       3.563   1.890   0.702  1.00  0.00    -0.298 OA
HETATM   16  C7  UNL     1       4.070   1.583  -0.451  1.00  0.00     0.201 A 
HETATM   17  C8  UNL     1       3.138   0.720  -1.066  1.00  0.00     0.082 A 
HETATM   18 BR1  UNL     1       3.384  -0.039  -2.793  1.00  0.00    -0.045 Br
BRANCH  16  19
HETATM   19  O2  UNL     1       5.276   1.984  -1.030  1.00  0.00    -0.340 OA
ATOM     20  H2  UNL     1       5.648   1.759  -1.875  1.00  0.00     0.220 HD
ENDBRANCH  16  19
ENDBRANCH   4  13
BRANCH  12  21
HETATM   21  O5  UNL     1      -2.237  -1.648   0.710  1.00  0.00    -0.362 OA
ATOM     22  H5  UNL     1      -2.602  -1.170   1.445  1.00  0.00     0.213 HD
ENDBRANCH  12  21
TORSDOF 3
