REMARK  5 active torsions:
REMARK  status: ('A' for Active; 'I' for Inactive)
REMARK    1  A    between atoms: C5_6  and  O1_7 
REMARK    2  A    between atoms: C5_6  and  C6_9 
REMARK    3  A    between atoms: C6_9  and  N2_10 
REMARK    4  A    between atoms: C6_9  and  C7_14 
REMARK    5  A    between atoms: C7_14  and  O2_15 
ROOT
HETATM    1  C1  UNL     1      -2.545  -0.189   0.999  1.00  0.00     0.272 C 
HETATM    2  N1  UNL     1      -1.997   0.200  -0.262  1.00  0.00    -0.074 N 
HETATM    3  C2  UNL     1      -3.117   0.648  -1.102  1.00  0.00     0.272 C 
HETATM    4  C3  UNL     1      -1.316  -0.825  -0.973  1.00  0.00     0.239 C 
HETATM    5  C4  UNL     1      -0.009  -1.248  -0.430  1.00  0.00     0.068 C 
HETATM    6  C5  UNL     1       0.719  -0.299   0.421  1.00  0.00     0.091 C 
HETATM    7  C8  UNL     1      -0.029   0.928   0.836  1.00  0.00     0.068 C 
HETATM    8  C9  UNL     1      -1.106   1.338  -0.143  1.00  0.00     0.239 C 
ENDROOT
BRANCH   6   9
HETATM    9  O1  UNL     1       1.089  -0.963   1.617  1.00  0.00    -0.388 OA
ATOM     10  H1  UNL     1       1.560  -0.349   2.168  1.00  0.00     0.210 HD
ENDBRANCH   6   9
BRANCH   6  11
HETATM   11  C6  UNL     1       2.035   0.184  -0.179  1.00  0.00     0.241 C 
BRANCH  11  12
HETATM   12  N2  UNL     1       2.608   1.071   0.828  1.00  0.00    -0.070 N 
ATOM     13  H23 UNL     1       1.985   1.825   1.117  1.00  0.00     0.274 HD
ATOM     14  H22 UNL     1       2.707   0.642   1.748  1.00  0.00     0.274 HD
ATOM     15  H21 UNL     1       3.488   1.394   0.427  1.00  0.00     0.274 HD
ENDBRANCH  11  12
BRANCH  11  16
HETATM   16  C7  UNL     1       3.000  -0.949  -0.405  1.00  0.00     0.200 C 
BRANCH  16  17
HETATM   17  O2  UNL     1       4.199  -0.365  -0.849  1.00  0.00    -0.399 OA
ATOM     18  H2  UNL     1       4.808  -1.080  -0.992  1.00  0.00     0.209 HD
ENDBRANCH  16  17
ENDBRANCH  11  16
ENDBRANCH   6  11
TORSDOF 5
