REMARK  3 active torsions:
REMARK  status: ('A' for Active; 'I' for Inactive)
REMARK    1  A    between atoms: C3_3  and  N1_4 
REMARK    2  A    between atoms: C5_6  and  N2_7 
REMARK    3  A    between atoms: C7_12  and  C8_13 
ROOT
HETATM    1  C1  UNL     1      -2.332   2.672   1.334  1.00  0.00     0.013 C 
HETATM    2  C2  UNL     1      -1.999   2.296   0.240  1.00  0.00    -0.087 C 
HETATM    3  C3  UNL     1      -1.597   1.819  -1.060  1.00  0.00     0.365 C 
ENDROOT
BRANCH   3   4
HETATM    4  N1  UNL     1      -0.823   0.600  -0.946  1.00  0.00     0.102 N 
HETATM    5  C4  UNL     1      -1.622  -0.513  -0.486  1.00  0.00     0.306 C 
HETATM    6  C5  UNL     1      -0.909  -1.334   0.539  1.00  0.00     0.212 C 
HETATM    7  C6  UNL     1       0.532  -1.594   0.239  1.00  0.00     0.048 C 
HETATM    8  C7  UNL     1       1.240  -0.457  -0.456  1.00  0.00     0.080 C 
HETATM    9  C9  UNL     1       0.381   0.786  -0.178  1.00  0.00     0.285 C 
BRANCH   6  10
HETATM   10  N2  UNL     1      -1.543  -2.629   0.701  1.00  0.00    -0.073 N 
ATOM     11  H23 UNL     1      -2.536  -2.537   0.916  1.00  0.00     0.274 HD
ATOM     12  H22 UNL     1      -1.622  -3.123  -0.188  1.00  0.00     0.274 HD
ATOM     13  H21 UNL     1      -1.056  -3.189   1.401  1.00  0.00     0.274 HD
ENDBRANCH   6  10
BRANCH   8  14
HETATM   14  C8  UNL     1       2.585  -0.214   0.061  1.00  0.00     0.092 C 
HETATM   15  N3  UNL     1       3.046  -0.884   1.056  1.00  0.00    -0.391 N 
ATOM     16  H32 UNL     1       2.468  -1.599   1.498  1.00  0.00     0.157 HD
ATOM     17  H31 UNL     1       3.985  -0.714   1.417  1.00  0.00     0.157 HD
HETATM   18  N4  UNL     1       3.386   0.778  -0.552  1.00  0.00    -0.088 NA
ENDBRANCH   8  14
ENDBRANCH   3   4
TORSDOF 3
