REMARK  3 active torsions:
REMARK  status: ('A' for Active; 'I' for Inactive)
REMARK       I    between atoms: N1_2  and  C2_4 
REMARK       I    between atoms: C2_4  and  N3_8 
REMARK    1  A    between atoms: N3_8  and  C4_10 
REMARK    2  A    between atoms: C6_12  and  N4_13 
REMARK    3  A    between atoms: C7_17  and  N5_18 
ROOT
HETATM    1  C4  UNL     1      -0.332   0.146  -0.563  1.00  0.00     0.105 C 
HETATM    2  C5  UNL     1      -0.284   0.774   0.829  1.00  0.00     0.060 C 
HETATM    3  C6  UNL     1      -1.790   0.915   1.087  1.00  0.00     0.215 C 
HETATM    4  C7  UNL     1      -2.251  -0.494   0.783  1.00  0.00     0.215 C 
HETATM    5  C8  UNL     1      -1.484  -0.791  -0.496  1.00  0.00     0.060 C 
ENDROOT
BRANCH   1   6
HETATM    6  N3  UNL     1       0.921  -0.434  -0.925  1.00  0.00    -0.218 N 
HETATM    7  C2  UNL     1       2.064   0.387  -0.976  1.00  0.00     0.669 C 
HETATM    8  N1  UNL     1       3.299  -0.009  -0.398  1.00  0.00    -0.231 N 
HETATM    9  N2  UNL     1       1.964   1.527  -1.569  1.00  0.00    -0.235 N 
HETATM   10  C1  UNL     1       3.446   0.181   1.037  1.00  0.00     0.165 C 
ATOM     11  H1  UNL     1       4.049  -0.408  -0.963  1.00  0.00     0.177 HD
ATOM     12  H22 UNL     1       2.792   2.122  -1.606  1.00  0.00     0.174 HD
ATOM     13  H21 UNL     1       1.077   1.811  -1.984  1.00  0.00     0.174 HD
HETATM   14  C3  UNL     1       1.051  -1.826  -1.237  1.00  0.00     0.169 C 
ENDBRANCH   1   6
BRANCH   3  15
HETATM   15  N4  UNL     1      -2.299   1.808   0.092  1.00  0.00    -0.073 N 
ATOM     16  H43 UNL     1      -1.810   2.703   0.067  1.00  0.00     0.274 HD
ATOM     17  H42 UNL     1      -2.080   1.515  -0.860  1.00  0.00     0.274 HD
ATOM     18  H41 UNL     1      -3.300   1.902   0.264  1.00  0.00     0.274 HD
ENDBRANCH   3  15
BRANCH   4  19
HETATM   19  N5  UNL     1      -3.674  -0.553   0.524  1.00  0.00    -0.073 N 
ATOM     20  H53 UNL     1      -4.208  -0.146   1.292  1.00  0.00     0.274 HD
ATOM     21  H52 UNL     1      -3.943   0.093  -0.218  1.00  0.00     0.274 HD
ATOM     22  H51 UNL     1      -3.985  -1.503   0.319  1.00  0.00     0.274 HD
ENDBRANCH   4  19
TORSDOF 3
