REMARK  3 active torsions:
REMARK  status: ('A' for Active; 'I' for Inactive)
REMARK       I    between atoms: C1_4  and  N3_6 
REMARK    1  A    between atoms: N3_6  and  C2_8 
REMARK    2  A    between atoms: C2_8  and  C3_9 
REMARK    3  A    between atoms: C3_9  and  N5_13 
ROOT
HETATM    1  C3  UNL     1       0.075  -0.610   0.260  1.00  0.00     0.091 C 
HETATM    2  N4  UNL     1      -0.443  -0.783   1.425  1.00  0.00    -0.388 N 
ATOM      3  H41 UNL     1       0.185  -0.728   2.227  1.00  0.00     0.157 HD
ATOM      4  H42 UNL     1      -1.438  -0.968   1.556  1.00  0.00     0.157 HD
ENDROOT
BRANCH   1   5
HETATM    5  C2  UNL     1      -0.842  -0.690  -0.911  1.00  0.00     0.198 C 
BRANCH   5   6
HETATM    6  N3  UNL     1      -2.202  -0.954  -0.507  1.00  0.00    -0.358 N 
HETATM    7  C1  UNL     1      -3.007  -0.048   0.199  1.00  0.00     0.182 C 
HETATM    8  N1  UNL     1      -3.955  -0.516   0.970  1.00  0.00    -0.374 N 
HETATM    9  N2  UNL     1      -2.846   1.368   0.120  1.00  0.00    -0.064 NA
ATOM     10  H12 UNL     1      -4.540   0.143   1.483  1.00  0.00     0.158 HD
ATOM     11  H11 UNL     1      -4.070  -1.528   1.026  1.00  0.00     0.158 HD
ATOM     12  H3  UNL     1      -2.604  -1.859  -0.751  1.00  0.00     0.162 HD
ENDBRANCH   5   6
ENDBRANCH   1   5
BRANCH   1  13
HETATM   13  N5  UNL     1       1.460  -0.353   0.078  1.00  0.00    -0.360 N 
HETATM   14  C4  UNL     1       2.020   0.198  -1.150  1.00  0.00     0.135 C 
HETATM   15  C5  UNL     1       2.602   1.548  -0.704  1.00  0.00     0.095 C 
HETATM   16  S1  UNL     1       3.531   0.939   0.765  1.00  0.00    -0.148 SA
HETATM   17  C6  UNL     1       2.530  -0.581   1.036  1.00  0.00     0.198 C 
ENDBRANCH   1  13
TORSDOF 3
