REMARK  3 active torsions:
REMARK  status: ('A' for Active; 'I' for Inactive)
REMARK       I    between atoms: C2_5  and  N4_7 
REMARK    1  A    between atoms: N4_7  and  C3_9 
REMARK    2  A    between atoms: C7_13  and  C8_14 
REMARK    3  A    between atoms: C8_14  and  N5_15 
ROOT
HETATM    1  N1  UNL     1       2.407   1.112  -2.680  1.00  0.00    -0.172 NA
HETATM    2  C1  UNL     1       2.735   0.404  -1.804  1.00  0.00     0.184 C 
HETATM    3  N2  UNL     1       3.137  -0.428  -0.749  1.00  0.00    -0.268 N 
ATOM      4  H2  UNL     1       4.125  -0.532  -0.517  1.00  0.00     0.180 HD
HETATM    5  C2  UNL     1       2.243  -1.054  -0.083  1.00  0.00     0.197 C 
HETATM    6  N3  UNL     1       2.691  -1.893   0.987  1.00  0.00    -0.063 NA
HETATM    7  N4  UNL     1       0.862  -0.930  -0.381  1.00  0.00    -0.359 N 
ATOM      8  H4  UNL     1       0.381  -1.629  -0.947  1.00  0.00     0.162 HD
ENDROOT
BRANCH   7   9
HETATM    9  C3  UNL     1       0.163   0.209   0.139  1.00  0.00     0.089 C 
HETATM   10  C4  UNL     1       0.215   0.141   1.672  1.00  0.00     0.026 C 
HETATM   11  C5  UNL     1      -1.117   0.661   2.168  1.00  0.00     0.002 C 
HETATM   12  C6  UNL     1      -1.758   1.257   0.931  1.00  0.00     0.008 C 
HETATM   13  C7  UNL     1      -1.306   0.240  -0.106  1.00  0.00     0.034 C 
BRANCH  13  14
HETATM   14  C8  UNL     1      -1.713   0.655  -1.496  1.00  0.00     0.236 C 
BRANCH  14  15
HETATM   15  N5  UNL     1      -1.135  -0.296  -2.419  1.00  0.00    -0.079 N 
ATOM     16  H53 UNL     1      -0.125  -0.391  -2.312  1.00  0.00     0.274 HD
ATOM     17  H52 UNL     1      -1.383  -1.261  -2.203  1.00  0.00     0.274 HD
ATOM     18  H51 UNL     1      -1.411  -0.015  -3.360  1.00  0.00     0.274 HD
ENDBRANCH  14  15
ENDBRANCH  13  14
ENDBRANCH   7   9
TORSDOF 3
