REMARK  3 active torsions:
REMARK  status: ('A' for Active; 'I' for Inactive)
REMARK    1  A    between atoms: C2_2  and  C3_3 
REMARK    2  A    between atoms: C3_3  and  N1_5 
REMARK    3  A    between atoms: C3_3  and  N2_9 
ROOT
HETATM    1  N2  UNL     1      -0.352   0.449   0.135  1.00  0.00    -0.355 N 
HETATM    2  C5  UNL     1       0.509   0.151   1.206  1.00  0.00     0.088 C 
HETATM    3  C6  UNL     1       1.582  -0.830   0.789  1.00  0.00     0.278 C 
HETATM    4  N3  UNL     1       2.885  -0.210   0.698  1.00  0.00    -0.047 N 
ATOM      5  H31 UNL     1       3.518  -0.604   1.394  1.00  0.00     0.279 HD
ATOM      6  H32 UNL     1       2.846   0.755   1.027  1.00  0.00     0.279 HD
HETATM    7  C7  UNL     1       3.473  -0.272  -0.608  1.00  0.00     0.463 C 
HETATM    8  N4  UNL     1       2.537   0.040  -1.637  1.00  0.00    -0.050 N 
ATOM      9  H41 UNL     1       2.067  -0.806  -1.959  1.00  0.00     0.279 HD
ATOM     10  H42 UNL     1       3.024   0.305  -2.493  1.00  0.00     0.279 HD
HETATM   11  C8  UNL     1       1.568   1.049  -1.276  1.00  0.00     0.254 C 
HETATM   12  C9  UNL     1       0.181   0.534  -1.169  1.00  0.00     0.152 C 
ENDROOT
BRANCH   1  13
HETATM   13  C3  UNL     1      -1.695   0.021   0.193  1.00  0.00     0.211 C 
HETATM   14  C4  UNL     1      -1.710  -1.496   0.421  1.00  0.00     0.075 C 
BRANCH  13  15
HETATM   15  C2  UNL     1      -2.492   0.605   1.295  1.00  0.00     0.023 C 
HETATM   16  C1  UNL     1      -3.611   1.293   1.119  1.00  0.00     0.011 C 
ENDBRANCH  13  15
BRANCH  13  17
HETATM   17  N1  UNL     1      -2.431   0.233  -1.039  1.00  0.00    -0.049 N 
ATOM     18  H13 UNL     1      -3.383  -0.131  -1.001  1.00  0.00     0.277 HD
ATOM     19  H12 UNL     1      -2.669   1.212  -1.196  1.00  0.00     0.277 HD
ATOM     20  H11 UNL     1      -1.882  -0.169  -1.798  1.00  0.00     0.277 HD
ENDBRANCH  13  17
ENDBRANCH   1  13
TORSDOF 3
