REMARK  3 active torsions:
REMARK  status: ('A' for Active; 'I' for Inactive)
REMARK    1  A    between atoms: C2_3  and  N2_4 
REMARK    2  A    between atoms: N2_4  and  N3_6 
REMARK    3  A    between atoms: C9_19  and  N6_20 
ROOT
HETATM    1  C1  UNL     1       3.066  -0.695  -0.005  1.00  0.00     0.177 C 
HETATM    2  N1  UNL     1       1.654  -0.368  -0.003  1.00  0.00    -0.171 N 
HETATM    3  C2  UNL     1       1.257   0.908  -0.151  1.00  0.00     0.701 A 
HETATM    4  N4  UNL     1      -0.089   1.179  -0.145  1.00  0.00    -0.174 N 
ATOM      5  H4  UNL     1      -0.396   2.145  -0.257  1.00  0.00     0.186 HD
HETATM    6  C3  UNL     1      -0.995   0.239  -0.000  1.00  0.00     0.139 A 
HETATM    7  C4  UNL     1      -0.564  -1.083   0.153  1.00  0.00     0.053 A 
HETATM    8  C5  UNL     1      -1.500  -2.056   0.303  1.00  0.00     0.024 A 
HETATM    9  C6  UNL     1      -2.844  -1.745   0.304  1.00  0.00     0.075 A 
HETATM   10  C7  UNL     1      -3.195  -0.425   0.149  1.00  0.00     0.248 A 
HETATM   11  O1  UNL     1      -4.414  -0.120   0.147  1.00  0.00    -0.268 OA
HETATM   12  N5  UNL     1      -2.299   0.558  -0.001  1.00  0.00    -0.303 N 
HETATM   13  C8  UNL     1      -2.688   1.945  -0.164  1.00  0.00     0.161 C 
HETATM   14  C9  UNL     1       0.774  -1.388   0.151  1.00  0.00     0.131 A 
ENDROOT
BRANCH   3  15
HETATM   15  N2  UNL     1       2.024   1.919  -0.300  1.00  0.00    -0.138 N 
ATOM     16  H2  UNL     1       1.537   2.810  -0.397  1.00  0.00     0.205 HD
BRANCH  15  17
HETATM   17  N3  UNL     1       3.387   2.007  -0.351  1.00  0.00    -0.331 N 
ATOM     18  H32 UNL     1       3.854   1.106  -0.252  1.00  0.00     0.177 HD
ATOM     19  H31 UNL     1       3.999   2.814  -0.470  1.00  0.00     0.177 HD
ENDBRANCH  15  17
ENDBRANCH   3  15
BRANCH  14  20
HETATM   20  N6  UNL     1       1.198  -2.552   0.285  1.00  0.00    -0.384 N 
ATOM     21  H62 UNL     1       2.192  -2.779   0.284  1.00  0.00     0.157 HD
ATOM     22  H61 UNL     1       0.536  -3.319   0.401  1.00  0.00     0.157 HD
ENDBRANCH  14  20
TORSDOF 3
