REMARK  6 active torsions:
REMARK  status: ('A' for Active; 'I' for Inactive)
REMARK       I    between atoms: N1_2  and  C2_4 
REMARK    1  A    between atoms: C2_4  and  C3_6 
REMARK       I    between atoms: C3_6  and  N2_8 
REMARK    2  A    between atoms: N2_8  and  C4_10 
REMARK    3  A    between atoms: C8_14  and  C9_15 
REMARK    4  A    between atoms: C10_16  and  C11_17 
REMARK    5  A    between atoms: C12_18  and  C13_19 
REMARK    6  A    between atoms: C13_19  and  O4_21 
ROOT
HETATM    1  C4  UNL     1      -1.898  -0.333   0.567  1.00  0.00     0.097 A 
HETATM    2  C5  UNL     1      -2.017  -1.292   1.936  1.00  0.00     0.053 A 
HETATM    3  C6  UNL     1      -0.929  -2.007   1.589  1.00  0.00    -0.028 A 
HETATM    4  C7  UNL     1      -0.273  -2.140   0.990  1.00  0.00    -0.021 A 
HETATM    5  C8  UNL     1       0.293  -1.758  -0.176  1.00  0.00     0.041 A 
HETATM    6  C15 UNL     1      -0.848  -0.572  -0.417  1.00  0.00    -0.017 A 
HETATM    7  C16 UNL     1      -1.407  -0.967  -1.764  1.00  0.00     0.018 C 
HETATM    8  C17 UNL     1       0.014   0.636  -0.652  1.00  0.00     0.018 C 
ENDROOT
BRANCH   1   9
HETATM    9  N2  UNL     1      -3.234  -0.457   0.038  1.00  0.00    -0.347 N 
HETATM   10  C3  UNL     1      -4.181   0.591   0.174  1.00  0.00     0.310 C 
HETATM   11  O2  UNL     1      -3.822   1.636   0.772  1.00  0.00    -0.262 OA
ATOM     12  H2  UNL     1      -3.503  -1.315  -0.443  1.00  0.00     0.163 HD
BRANCH  10  13
HETATM   13  C2  UNL     1      -5.533   0.512  -0.340  1.00  0.00     0.312 C 
HETATM   14  N1  UNL     1      -6.473   1.563  -0.200  1.00  0.00    -0.339 N 
HETATM   15  C1  UNL     1      -6.837   2.051   0.929  1.00  0.00     0.121 C 
ATOM     16  H1  UNL     1      -6.885   1.955  -1.047  1.00  0.00     0.167 HD
HETATM   17  O1  UNL     1      -5.931  -0.533  -0.952  1.00  0.00    -0.262 OA
ENDBRANCH  10  13
ENDBRANCH   1   9
BRANCH   5  18
HETATM   18  C9  UNL     1       1.594  -1.127  -0.084  1.00  0.00    -0.009 C 
HETATM   19  C10 UNL     1       2.595  -1.413  -0.934  1.00  0.00     0.061 C 
BRANCH  19  20
HETATM   20  C11 UNL     1       3.835  -0.729  -0.747  1.00  0.00    -0.068 C 
HETATM   21  C12 UNL     1       4.887  -0.160  -0.587  1.00  0.00     0.007 C 
BRANCH  21  22
HETATM   22  C13 UNL     1       6.164   0.504  -0.388  1.00  0.00     0.339 C 
HETATM   23  O3  UNL     1       6.462   1.446  -1.157  1.00  0.00    -0.249 OA
BRANCH  22  24
HETATM   24  O4  UNL     1       7.048   0.150   0.594  1.00  0.00    -0.316 OA
HETATM   25  C14 UNL     1       8.298   0.787   0.802  1.00  0.00     0.214 C 
ENDBRANCH  22  24
ENDBRANCH  21  22
ENDBRANCH  19  20
ENDBRANCH   5  18
TORSDOF 6
