REMARK  3 active torsions:
REMARK  status: ('A' for Active; 'I' for Inactive)
REMARK    1  A    between atoms: C2_2  and  C3_8 
REMARK    2  A    between atoms: N1_3  and  N2_5 
REMARK    3  A    between atoms: C9_16  and  C10_17 
ROOT
HETATM    1  C3  UNL     1       1.632  -0.085   0.277  1.00  0.00     0.082 C 
HETATM    2  C4  UNL     1       0.321   0.435   0.847  1.00  0.00     0.130 C 
HETATM    3  C5  UNL     1      -0.328   1.467   0.057  1.00  0.00     0.232 C 
HETATM    4  O1  UNL     1       0.295   2.488  -0.398  1.00  0.00    -0.272 OA
HETATM    5  N3  UNL     1      -1.706   1.413  -0.265  1.00  0.00    -0.325 N 
HETATM    6  C6  UNL     1      -2.375   2.537  -0.882  1.00  0.00     0.159 C 
HETATM    7  C7  UNL     1      -2.449   0.212   0.030  1.00  0.00     0.026 C 
HETATM    8  C8  UNL     1      -3.884   0.225  -0.335  1.00  0.00     0.069 C 
HETATM    9  C9  UNL     1      -1.859  -0.796   0.582  1.00  0.00     0.075 C 
HETATM   10  C11 UNL     1      -0.420  -0.838   0.974  1.00  0.00     0.107 C 
HETATM   11  C12 UNL     1      -0.359  -1.293   2.429  1.00  0.00     0.053 C 
HETATM   12  O4  UNL     1       0.227  -1.827   0.242  1.00  0.00    -0.363 OA
HETATM   13  C13 UNL     1       1.156  -1.172  -0.584  1.00  0.00     0.065 C 
HETATM   14  C14 UNL     1       2.297  -2.167  -0.796  1.00  0.00     0.046 C 
HETATM   15  C15 UNL     1       0.518  -0.902  -1.874  1.00  0.00     0.046 C 
ENDROOT
BRANCH   1  16
HETATM   16  C2  UNL     1       2.583   0.884  -0.154  1.00  0.00     0.007 C 
HETATM   17  C1  UNL     1       3.061   1.882   0.852  1.00  0.00     0.065 C 
HETATM   18  N1  UNL     1       3.062   0.960  -1.325  1.00  0.00    -0.315 N 
ATOM     19  H1  UNL     1       2.754   0.291  -2.031  1.00  0.00     0.185 HD
BRANCH  18  20
HETATM   20  N2  UNL     1       4.011   1.946  -1.679  1.00  0.00    -0.345 N 
ATOM     21  H22 UNL     1       4.308   2.607  -0.961  1.00  0.00     0.176 HD
ATOM     22  H21 UNL     1       4.396   2.007  -2.621  1.00  0.00     0.176 HD
ENDBRANCH  18  20
ENDBRANCH   1  16
BRANCH   9  23
HETATM   23  C10 UNL     1      -2.596  -2.023   0.887  1.00  0.00     0.210 C 
HETATM   24  O2  UNL     1      -2.009  -3.032   1.432  1.00  0.00    -0.644 OA
HETATM   25  O3  UNL     1      -3.938  -2.201   0.628  1.00  0.00    -0.644 OA
ENDBRANCH   9  23
TORSDOF 3
