REMARK  8 active torsions:
REMARK  status: ('A' for Active; 'I' for Inactive)
REMARK    1  A    between atoms: C2_2  and  C3_3 
REMARK    2  A    between atoms: C3_3  and  C4_4 
REMARK    3  A    between atoms: C4_4  and  O1_5 
REMARK    4  A    between atoms: O1_5  and  C5_6 
REMARK    5  A    between atoms: C7_10  and  C8_11 
REMARK    6  A    between atoms: C13_16  and  C14_17 
REMARK    7  A    between atoms: C14_17  and  N2_18 
REMARK    8  A    between atoms: N3_21  and  C17_22 
ROOT
HETATM    1  C5  UNL     1      -2.144   0.808  -0.489  1.00  0.00     0.153 A 
HETATM    2  N1  UNL     1      -3.303   0.312  -0.913  1.00  0.00    -0.346 N 
ATOM      3  H1  UNL     1      -3.991   0.960  -1.297  1.00  0.00     0.167 HD
HETATM    4  C6  UNL     1      -3.623  -0.998  -0.865  1.00  0.00     0.098 A 
HETATM    5  C7  UNL     1      -2.736  -1.922  -0.355  1.00  0.00    -0.034 A 
HETATM    6  C12 UNL     1      -1.518  -1.411   0.094  1.00  0.00     0.026 A 
HETATM    7  C13 UNL     1      -1.199  -0.081   0.042  1.00  0.00     0.026 A 
ENDROOT
BRANCH   7   8
HETATM    8  C14 UNL     1       0.011   0.512   0.559  1.00  0.00     0.075 C 
BRANCH   8   9
HETATM    9  N2  UNL     1       1.040  -0.308   1.091  1.00  0.00    -0.288 NA
HETATM   10  C15 UNL     1       1.953   0.613   1.785  1.00  0.00     0.125 C 
HETATM   11  C16 UNL     1       3.292   0.749   1.182  1.00  0.00     0.287 C 
HETATM   12  N3  UNL     1       3.975  -0.553   1.053  1.00  0.00     0.097 N 
HETATM   13  C21 UNL     1       3.047  -1.576   0.722  1.00  0.00     0.287 C 
HETATM   14  C22 UNL     1       1.836  -0.959   0.062  1.00  0.00     0.125 C 
BRANCH  12  15
HETATM   15  C17 UNL     1       5.018  -0.307   0.089  1.00  0.00     0.250 C 
HETATM   16  C18 UNL     1       5.991   0.749   0.639  1.00  0.00     0.065 C 
HETATM   17  C19 UNL     1       7.216   0.478  -0.194  1.00  0.00     0.234 C 
HETATM   18  N4  UNL     1       7.172  -0.869  -0.655  1.00  0.00    -0.073 N 
HETATM   19  C20 UNL     1       5.933  -1.450  -0.168  1.00  0.00     0.268 C 
ATOM     20  H42 UNL     1       7.280  -0.949  -1.666  1.00  0.00     0.277 HD
ATOM     21  H41 UNL     1       7.997  -1.408  -0.392  1.00  0.00     0.277 HD
ENDBRANCH  12  15
ENDBRANCH   8   9
ENDBRANCH   7   8
BRANCH   1  22
HETATM   22  O1  UNL     1      -1.840   2.102  -0.551  1.00  0.00    -0.335 OA
BRANCH  22  23
HETATM   23  C4  UNL     1      -2.432   3.257  -0.962  1.00  0.00     0.177 C 
BRANCH  23  24
HETATM   24  C3  UNL     1      -3.695   3.647  -0.222  1.00  0.00     0.026 C 
BRANCH  24  25
HETATM   25  C2  UNL     1      -4.167   4.972  -0.826  1.00  0.00    -0.002 C 
HETATM   26  C1  UNL     1      -5.413   5.484  -0.136  1.00  0.00     0.005 C 
ENDBRANCH  24  25
ENDBRANCH  23  24
ENDBRANCH  22  23
ENDBRANCH   1  22
BRANCH   5  27
HETATM   27  C8  UNL     1      -3.094  -3.352  -0.289  1.00  0.00    -0.023 C 
HETATM   28  C9  UNL     1      -2.585  -3.939   1.030  1.00  0.00     0.019 C 
HETATM   29  C10 UNL     1      -4.620  -3.537  -0.240  1.00  0.00     0.019 C 
HETATM   30  C11 UNL     1      -2.611  -4.158  -1.470  1.00  0.00     0.019 C 
ENDBRANCH   5  27
TORSDOF 8
