REMARK  8 active torsions:
REMARK  status: ('A' for Active; 'I' for Inactive)
REMARK    1  A    between atoms: C2_2  and  O1_3 
REMARK    2  A    between atoms: O1_3  and  C3_4 
REMARK    3  A    between atoms: C3_4  and  C4_6 
REMARK    4  A    between atoms: C9_11  and  C10_12 
REMARK    5  A    between atoms: C13_15  and  N1_16 
REMARK    6  A    between atoms: N2_19  and  C15_20 
REMARK    7  A    between atoms: C15_20  and  C16_21 
REMARK    8  A    between atoms: C16_21  and  N3_22 
ROOT
HETATM    1  C4  UNL     1      -1.381   1.006  -0.756  1.00  0.00     0.186 C 
HETATM    2  C5  UNL     1      -2.129   0.835   0.536  1.00  0.00     0.049 C 
HETATM    3  C6  UNL     1      -2.839  -0.465   0.523  1.00  0.00    -0.014 C 
HETATM    4  C7  UNL     1      -3.227  -0.781   1.945  1.00  0.00     0.020 C 
HETATM    5  C8  UNL     1      -4.129  -0.417  -0.281  1.00  0.00     0.020 C 
HETATM    6  C9  UNL     1      -2.066  -1.614  -0.103  1.00  0.00    -0.005 C 
HETATM    7  C13 UNL     1      -0.895  -1.395  -0.696  1.00  0.00     0.106 C 
HETATM    8  N2  UNL     1      -0.379  -0.037  -0.764  1.00  0.00    -0.351 N 
ENDROOT
BRANCH   8   9
HETATM    9  C15 UNL     1       1.032   0.114  -0.788  1.00  0.00     0.145 C 
BRANCH   9  10
HETATM   10  C16 UNL     1       1.667   0.624   0.471  1.00  0.00     0.146 C 
BRANCH  10  11
HETATM   11  N3  UNL     1       3.068   0.781   0.388  1.00  0.00    -0.372 N 
HETATM   12  C17 UNL     1       3.584   1.770  -0.442  1.00  0.00     0.063 C 
HETATM   13  C18 UNL     1       5.071   1.928  -0.219  1.00  0.00     0.045 C 
HETATM   14  C19 UNL     1       5.682   0.571  -0.534  1.00  0.00     0.010 C 
HETATM   15  C20 UNL     1       5.196  -0.441   0.472  1.00  0.00     0.045 C 
HETATM   16  C21 UNL     1       3.882  -0.096   1.085  1.00  0.00     0.063 C 
ENDBRANCH  10  11
ENDBRANCH   9  10
ENDBRANCH   8   9
BRANCH   1  17
HETATM   17  C3  UNL     1      -0.965   2.358  -0.955  1.00  0.00     0.281 C 
HETATM   18  O2  UNL     1       0.138   2.839  -1.292  1.00  0.00    -0.263 OA
BRANCH  17  19
HETATM   19  O1  UNL     1      -1.952   3.349  -0.738  1.00  0.00    -0.320 OA
BRANCH  19  20
HETATM   20  C2  UNL     1      -1.703   4.708  -0.888  1.00  0.00     0.174 C 
HETATM   21  C1  UNL     1      -0.644   5.270   0.004  1.00  0.00     0.034 C 
ENDBRANCH  19  20
ENDBRANCH  17  19
ENDBRANCH   1  17
BRANCH   7  22
HETATM   22  N1  UNL     1      -0.178  -2.471  -1.267  1.00  0.00    -0.380 N 
HETATM   23  C14 UNL     1       0.759  -3.300  -0.515  1.00  0.00     0.147 C 
ATOM     24  H1  UNL     1      -0.323  -2.679  -2.255  1.00  0.00     0.160 HD
ENDBRANCH   7  22
BRANCH   6  25
HETATM   25  C10 UNL     1      -2.744  -2.933  -0.132  1.00  0.00    -0.077 C 
HETATM   26  C11 UNL     1      -2.574  -3.765  -1.356  1.00  0.00     0.043 C 
HETATM   27  C12 UNL     1      -2.835  -3.659   1.163  1.00  0.00     0.043 C 
ENDBRANCH   6  25
TORSDOF 8
