REMARK  8 active torsions:
REMARK  status: ('A' for Active; 'I' for Inactive)
REMARK    1  A    between atoms: C5_5  and  O1_6 
REMARK    2  A    between atoms: C6_8  and  C7_9 
REMARK    3  A    between atoms: C7_9  and  C8_10 
REMARK    4  A    between atoms: C8_10  and  N1_11 
REMARK    5  A    between atoms: C11_14  and  O2_15 
REMARK    6  A    between atoms: O2_15  and  C12_16 
REMARK    7  A    between atoms: C12_16  and  C13_17 
REMARK    8  A    between atoms: C15_19  and  C16_20 
ROOT
HETATM    1  N1  UNL     1      -1.405   1.358   0.688  1.00  0.00    -0.374 N 
HETATM    2  C9  UNL     1      -0.863   0.095   0.446  1.00  0.00     0.065 C 
HETATM    3  C10 UNL     1       0.660   0.052   0.527  1.00  0.00     0.076 C 
HETATM    4  C11 UNL     1       1.352   1.005  -0.401  1.00  0.00     0.127 C 
HETATM    5  C20 UNL     1       0.453   2.204  -0.596  1.00  0.00     0.052 C 
HETATM    6  C21 UNL     1      -0.419   2.438   0.626  1.00  0.00     0.129 C 
ENDROOT
BRANCH   4   7
HETATM    7  O2  UNL     1       2.558   1.332   0.185  1.00  0.00    -0.385 OA
BRANCH   7   8
HETATM    8  C12 UNL     1       3.692   1.034  -0.544  1.00  0.00     0.173 C 
BRANCH   8   9
HETATM    9  C13 UNL     1       3.894  -0.385  -0.910  1.00  0.00     0.019 A 
HETATM   10  C14 UNL     1       4.028  -1.445   0.130  1.00  0.00     0.017 A 
HETATM   11  C15 UNL     1       5.119  -1.152  -0.907  1.00  0.00     0.028 A 
BRANCH  11  12
HETATM   12  C16 UNL     1       6.397  -0.842  -0.277  1.00  0.00    -0.023 A 
HETATM   13  C17 UNL     1       7.014  -1.850   0.433  1.00  0.00     0.097 A 
HETATM   14  N2  UNL     1       8.201  -1.640   1.024  1.00  0.00    -0.362 N 
HETATM   15  C18 UNL     1       8.818  -0.448   0.939  1.00  0.00     0.180 A 
ATOM     16  H2  UNL     1       8.642  -2.397   1.546  1.00  0.00     0.166 HD
HETATM   17  N3  UNL     1       8.210   0.525   0.246  1.00  0.00    -0.362 N 
HETATM   18  C19 UNL     1       7.025   0.369  -0.363  1.00  0.00     0.097 A 
ATOM     19  H3  UNL     1       8.673   1.432   0.178  1.00  0.00     0.166 HD
ENDBRANCH  11  12
ENDBRANCH   8   9
ENDBRANCH   7   8
ENDBRANCH   4   7
BRANCH   1  20
HETATM   20  C8  UNL     1      -2.671   1.722   0.220  1.00  0.00     0.063 C 
BRANCH  20  21
HETATM   21  C7  UNL     1      -3.894   1.140   0.787  1.00  0.00     0.052 C 
BRANCH  21  22
HETATM   22  C6  UNL     1      -4.121  -0.308   0.634  1.00  0.00     0.023 C 
HETATM   23  C2  UNL     1      -4.224  -0.837  -0.756  1.00  0.00    -0.012 C 
HETATM   24  C1  UNL     1      -5.198  -0.094  -1.641  1.00  0.00     0.010 C 
HETATM   25  C3  UNL     1      -4.806  -2.221  -0.510  1.00  0.00     0.007 C 
HETATM   26  C4  UNL     1      -5.805  -2.005   0.611  1.00  0.00     0.032 C 
HETATM   27  C5  UNL     1      -5.465  -0.706   1.253  1.00  0.00     0.122 C 
BRANCH  27  28
HETATM   28  O1  UNL     1      -6.414   0.279   1.161  1.00  0.00    -0.395 OA
ATOM     29  H1  UNL     1      -6.197   1.108   1.571  1.00  0.00     0.210 HD
ENDBRANCH  27  28
ENDBRANCH  21  22
ENDBRANCH  20  21
ENDBRANCH   1  20
TORSDOF 8
