REMARK  7 active torsions:
REMARK  status: ('A' for Active; 'I' for Inactive)
REMARK    1  A    between atoms: C3_3  and  C4_4 
REMARK    2  A    between atoms: N2_13  and  C10_14 
REMARK    3  A    between atoms: C10_14  and  C11_15 
REMARK    4  A    between atoms: N3_18  and  C14_19 
REMARK    5  A    between atoms: C14_19  and  C15_20 
REMARK    6  A    between atoms: C15_20  and  N4_21 
REMARK    7  A    between atoms: N4_21  and  C16_24 
ROOT
HETATM    1  C1  UNL     1      -5.929  -1.205  -2.435  1.00  0.00     0.013 C 
HETATM    2  C2  UNL     1      -5.455  -0.774  -1.432  1.00  0.00    -0.099 C 
HETATM    3  C3  UNL     1      -4.906  -0.246  -0.164  1.00  0.00     0.087 C 
HETATM    4  C7  UNL     1      -4.957  -1.330   0.850  1.00  0.00     0.033 C 
HETATM    5  C8  UNL     1      -4.064  -2.455   0.397  1.00  0.00     0.022 C 
HETATM    6  C9  UNL     1      -2.636  -1.914   0.280  1.00  0.00     0.122 C 
HETATM    7  N2  UNL     1      -2.565  -0.824  -0.586  1.00  0.00    -0.391 N 
HETATM    8  C21 UNL     1      -3.502   0.227  -0.342  1.00  0.00     0.151 C 
ENDROOT
BRANCH   3   9
HETATM    9  C4  UNL     1      -5.793   0.890   0.273  1.00  0.00     0.073 A 
HETATM   10  N1  UNL     1      -6.689   1.000   1.233  1.00  0.00    -0.362 N 
HETATM   11  C5  UNL     1      -7.297   2.120   1.430  1.00  0.00     0.096 A 
ATOM     12  H1  UNL     1      -6.903   0.196   1.823  1.00  0.00     0.165 HD
HETATM   13  C6  UNL     1      -6.990   3.187   0.623  1.00  0.00     0.068 A 
HETATM   14  S1  UNL     1      -5.817   2.483  -0.404  1.00  0.00    -0.086 SA
ENDBRANCH   3   9
BRANCH   7  15
HETATM   15  C10 UNL     1      -1.522  -0.615  -1.480  1.00  0.00     0.063 C 
BRANCH  15  16
HETATM   16  C11 UNL     1      -0.178  -0.230  -1.008  1.00  0.00     0.027 C 
HETATM   17  C12 UNL     1       0.553  -1.135  -0.108  1.00  0.00     0.040 C 
HETATM   18  C13 UNL     1       1.678  -0.334   0.584  1.00  0.00     0.273 C 
HETATM   19  N3  UNL     1       2.157   0.663  -0.280  1.00  0.00     0.090 N 
HETATM   20  C19 UNL     1       1.206   1.716  -0.606  1.00  0.00     0.273 C 
HETATM   21  C20 UNL     1      -0.174   1.161  -0.389  1.00  0.00     0.040 C 
BRANCH  19  22
HETATM   22  C14 UNL     1       3.451   1.218   0.024  1.00  0.00     0.299 C 
BRANCH  22  23
HETATM   23  C15 UNL     1       4.517   0.156  -0.216  1.00  0.00     0.262 C 
BRANCH  23  24
HETATM   24  N4  UNL     1       5.835   0.733   0.071  1.00  0.00    -0.070 N 
ATOM     25  H42 UNL     1       6.181   1.263  -0.729  1.00  0.00     0.277 HD
ATOM     26  H41 UNL     1       5.760   1.488   0.753  1.00  0.00     0.277 HD
BRANCH  24  27
HETATM   27  C16 UNL     1       6.794  -0.239   0.491  1.00  0.00     0.177 C 
HETATM   28  C17 UNL     1       7.906   0.576   1.173  1.00  0.00     0.039 C 
HETATM   29  C18 UNL     1       7.367  -1.084  -0.579  1.00  0.00     0.039 C 
ENDBRANCH  24  27
ENDBRANCH  23  24
ENDBRANCH  22  23
ENDBRANCH  19  22
ENDBRANCH  15  16
ENDBRANCH   7  15
TORSDOF 7
