REMARK  4 active torsions:
REMARK  status: ('A' for Active; 'I' for Inactive)
REMARK    1  A    between atoms: C7_7  and  C8_8 
REMARK    2  A    between atoms: C8_8  and  C9_9 
REMARK    3  A    between atoms: C9_9  and  C10_10 
REMARK    4  A    between atoms: C20_24  and  C21_25 
ROOT
HETATM    1  C10 UNL     1      -1.194  -1.345   0.428  1.00  0.00     0.065 C 
HETATM    2  C11 UNL     1      -1.793  -0.438   1.391  1.00  0.00    -0.027 A 
HETATM    3  C12 UNL     1      -1.342  -0.318   2.678  1.00  0.00     0.097 A 
HETATM    4  N1  UNL     1      -1.895   0.534   3.556  1.00  0.00    -0.356 N 
ATOM      5  H1  UNL     1      -1.538   0.604   4.509  1.00  0.00     0.166 HD
HETATM    6  C13 UNL     1      -2.926   1.291   3.155  1.00  0.00     0.103 A 
HETATM    7 CL1  UNL     1      -3.693   2.432   4.266  1.00  0.00    -0.065 Cl
HETATM    8  C14 UNL     1      -3.434   1.225   1.882  1.00  0.00     0.052 A 
HETATM    9  C15 UNL     1      -2.854   0.338   0.977  1.00  0.00    -0.013 A 
HETATM   10  C16 UNL     1      -3.432   0.234  -0.344  1.00  0.00     0.264 A 
HETATM   11  C17 UNL     1      -2.988   1.337  -1.280  1.00  0.00     0.059 A 
HETATM   12  C18 UNL     1      -3.402   1.210  -2.709  1.00  0.00     0.045 A 
HETATM   13  C19 UNL     1      -2.459   0.184  -2.148  1.00  0.00     0.232 A 
HETATM   14  N2  UNL     1      -2.959  -0.758  -1.226  1.00  0.00     0.118 N 
HETATM   15  C20 UNL     1      -2.118  -1.762  -0.686  1.00  0.00     0.332 C 
ENDROOT
BRANCH   1  16
HETATM   16  C9  UNL     1       0.128  -0.935  -0.144  1.00  0.00     0.012 C 
BRANCH  16  17
HETATM   17  C8  UNL     1       1.227  -0.767   0.864  1.00  0.00     0.006 C 
BRANCH  17  18
HETATM   18  C7  UNL     1       2.547  -0.395   0.137  1.00  0.00    -0.011 C 
HETATM   19  C2  UNL     1       2.395   0.865  -0.607  1.00  0.00    -0.015 C 
HETATM   20  C1  UNL     1       2.190   0.657  -2.108  1.00  0.00     0.010 C 
HETATM   21  C3  UNL     1       3.511   1.856  -0.458  1.00  0.00     0.004 C 
HETATM   22  C4  UNL     1       4.816   1.054  -0.359  1.00  0.00     0.000 C 
HETATM   23  C5  UNL     1       4.759   0.457   1.033  1.00  0.00     0.000 C 
HETATM   24  C6  UNL     1       3.662  -0.535   1.083  1.00  0.00     0.005 C 
ENDBRANCH  17  18
ENDBRANCH  16  17
ENDBRANCH   1  16
BRANCH  15  25
HETATM   25  C21 UNL     1      -2.953  -2.912  -0.248  1.00  0.00     0.208 C 
HETATM   26  O1  UNL     1      -2.362  -3.917   0.267  1.00  0.00    -0.646 OA
HETATM   27  O2  UNL     1      -4.330  -2.922  -0.382  1.00  0.00    -0.646 OA
ENDBRANCH  15  25
TORSDOF 4
