REMARK  5 active torsions:
REMARK  status: ('A' for Active; 'I' for Inactive)
REMARK    1  A    between atoms: C4_4  and  N1_5 
REMARK       I    between atoms: N1_5  and  C5_7 
REMARK    2  A    between atoms: C5_7  and  C6_9 
REMARK    3  A    between atoms: C6_9  and  O2_10 
REMARK    4  A    between atoms: O2_10  and  C7_11 
REMARK    5  A    between atoms: C7_11  and  C8_13 
ROOT
HETATM    1  C6  UNL     1      -0.713   1.178  -1.137  1.00  0.00     0.281 C 
ENDROOT
BRANCH   1   2
HETATM    2  C5  UNL     1      -1.866   0.581  -0.347  1.00  0.00     0.246 C 
HETATM    3  N1  UNL     1      -3.135   1.077  -0.675  1.00  0.00    -0.325 N 
ATOM      4  H1  UNL     1      -3.197   1.788  -1.404  1.00  0.00     0.169 HD
HETATM    5  O1  UNL     1      -1.550  -0.263   0.484  1.00  0.00    -0.271 OA
BRANCH   3   6
HETATM    6  C4  UNL     1      -4.336   0.652  -0.057  1.00  0.00     0.041 A 
HETATM    7  C3  UNL     1      -4.441  -0.286   0.934  1.00  0.00     0.038 A 
HETATM    8  C2  UNL     1      -5.637  -0.691   1.531  1.00  0.00    -0.038 A 
HETATM    9  C1  UNL     1      -5.637  -1.720   2.601  1.00  0.00     0.050 C 
HETATM   10  C21 UNL     1      -6.791  -0.092   1.078  1.00  0.00     0.040 A 
HETATM   11  C20 UNL     1      -6.725   0.860   0.079  1.00  0.00     0.033 A 
HETATM   12 CL1  UNL     1      -8.344  -0.538   1.771  1.00  0.00    -0.084 Cl
HETATM   13  C18 UNL     1      -5.550   1.228  -0.477  1.00  0.00    -0.034 A 
HETATM   14  C19 UNL     1      -5.481   2.266  -1.566  1.00  0.00     0.050 C 
ENDBRANCH   3   6
ENDBRANCH   1   2
BRANCH   1  15
HETATM   15  O2  UNL     1       0.475   0.598  -0.709  1.00  0.00    -0.311 OA
BRANCH  15  16
HETATM   16  C7  UNL     1       1.726   0.897  -1.204  1.00  0.00     0.268 C 
HETATM   17  O3  UNL     1       1.847   1.747  -2.106  1.00  0.00    -0.264 OA
BRANCH  16  18
HETATM   18  C8  UNL     1       2.906   0.208  -0.662  1.00  0.00     0.049 C 
HETATM   19  C9  UNL     1       3.078   0.449   0.828  1.00  0.00     0.024 C 
HETATM   20  C10 UNL     1       4.305  -0.299   1.272  1.00  0.00    -0.013 C 
HETATM   21  C11 UNL     1       5.557   0.153   0.551  1.00  0.00     0.009 C 
HETATM   22  C15 UNL     1       4.169  -1.782   1.049  1.00  0.00     0.009 C 
HETATM   23  C12 UNL     1       5.360  -0.062  -0.932  1.00  0.00    -0.013 C 
HETATM   24  C13 UNL     1       5.110  -1.513  -1.265  1.00  0.00     0.009 C 
HETATM   25  C17 UNL     1       4.136   0.715  -1.342  1.00  0.00     0.024 C 
HETATM   26  C14 UNL     1       3.968  -2.023  -0.428  1.00  0.00    -0.013 C 
HETATM   27  C16 UNL     1       2.714  -1.285  -0.845  1.00  0.00     0.024 C 
ENDBRANCH  16  18
ENDBRANCH  15  16
ENDBRANCH   1  15
TORSDOF 5
