REMARK  4 active torsions:
REMARK  status: ('A' for Active; 'I' for Inactive)
REMARK    1  A    between atoms: O1_2  and  C2_3 
REMARK    2  A    between atoms: C5_6  and  C7_9 
REMARK    3  A    between atoms: C7_9  and  C8_10 
REMARK    4  A    between atoms: C19_22  and  C21_24 
ROOT
HETATM    1  C2  UNL     1      -0.813   1.613   0.304  1.00  0.00     0.144 C 
HETATM    2  C3  UNL     1       0.397   0.747   0.015  1.00  0.00     0.023 C 
HETATM    3  C4  UNL     1       1.495   1.282   0.897  1.00  0.00     0.032 C 
HETATM    4  C5  UNL     1       2.726   0.414   0.843  1.00  0.00     0.051 C 
HETATM    5  C6  UNL     1       3.652   0.977   1.859  1.00  0.00     0.069 C 
HETATM    6  N1  UNL     1       4.375   1.400   2.654  1.00  0.00    -0.196 NA
HETATM    7  C9  UNL     1       2.374  -0.949   1.264  1.00  0.00     0.029 C 
HETATM    8  C10 UNL     1       1.151  -1.569   0.680  1.00  0.00    -0.012 C 
HETATM    9  C11 UNL     1       1.600  -2.509  -0.416  1.00  0.00     0.010 C 
HETATM   10  C12 UNL     1       0.027  -0.680   0.370  1.00  0.00     0.004 C 
HETATM   11  C13 UNL     1      -0.990  -1.169  -0.589  1.00  0.00    -0.035 C 
HETATM   12  C14 UNL     1      -0.570  -1.329  -2.003  1.00  0.00     0.016 C 
HETATM   13  C15 UNL     1      -1.545  -2.486  -0.058  1.00  0.00     0.010 C 
HETATM   14  C16 UNL     1      -2.998  -2.276   0.241  1.00  0.00     0.001 C 
HETATM   15  C17 UNL     1      -3.033  -0.774   0.565  1.00  0.00     0.007 C 
HETATM   16  C18 UNL     1      -2.205  -0.268  -0.596  1.00  0.00     0.015 C 
HETATM   17  C19 UNL     1      -1.935   1.184  -0.593  1.00  0.00     0.075 C 
HETATM   18  C20 UNL     1      -3.209   1.840  -0.023  1.00  0.00     0.030 C 
ENDROOT
BRANCH   4  19
HETATM   19  C7  UNL     1       3.379   0.589  -0.469  1.00  0.00     0.039 C 
BRANCH  19  20
HETATM   20  C8  UNL     1       4.639  -0.223  -0.669  1.00  0.00     0.116 C 
HETATM   21 CL1  UNL     1       5.258   0.140  -2.314  1.00  0.00    -0.130 Cl
ENDBRANCH  19  20
ENDBRANCH   4  19
BRANCH   1  22
HETATM   22  O1  UNL     1      -1.246   1.540   1.608  1.00  0.00    -0.389 OA
HETATM   23  C1  UNL     1      -1.262   2.757   2.282  1.00  0.00     0.202 C 
ENDBRANCH   1  22
BRANCH  17  24
HETATM   24  C21 UNL     1      -1.745   1.805  -1.901  1.00  0.00     0.184 C 
HETATM   25  O2  UNL     1      -0.757   2.558  -2.079  1.00  0.00    -0.647 OA
HETATM   26  O3  UNL     1      -2.575   1.640  -2.999  1.00  0.00    -0.647 OA
ENDBRANCH  17  24
TORSDOF 4
