REMARK  6 active torsions:
REMARK  status: ('A' for Active; 'I' for Inactive)
REMARK    1  A    between atoms: C2_2  and  C3_3 
REMARK    2  A    between atoms: C3_3  and  C4_4 
REMARK    3  A    between atoms: C4_4  and  N1_5 
REMARK    4  A    between atoms: C7_9  and  O1_10 
REMARK    5  A    between atoms: C9_14  and  C10_15 
REMARK    6  A    between atoms: N4_25  and  O2_26 
ROOT
HETATM    1  N1  UNL     1       2.529   1.118   1.305  1.00  0.00    -0.376 N 
ATOM      2  H1  UNL     1       2.148   2.037   1.081  1.00  0.00     0.161 HD
HETATM    3  C5  UNL     1       1.752   0.113   1.132  1.00  0.00     0.106 A 
HETATM    4  C6  UNL     1       2.189  -1.158   1.411  1.00  0.00     0.104 A 
HETATM    5  C7  UNL     1       1.314  -2.221   1.209  1.00  0.00     0.146 A 
HETATM    6  N2  UNL     1       0.105  -1.921   0.756  1.00  0.00    -0.322 N 
ATOM      7  H2  UNL     1      -0.536  -2.701   0.609  1.00  0.00     0.169 HD
HETATM    8  C9  UNL     1      -0.362  -0.694   0.471  1.00  0.00     0.119 A 
HETATM    9  N5  UNL     1       0.485   0.329   0.667  1.00  0.00    -0.328 N 
ATOM     10  H5  UNL     1       0.179   1.281   0.466  1.00  0.00     0.169 HD
ENDROOT
BRANCH   8  11
HETATM   11  C10 UNL     1      -1.730  -0.497  -0.027  1.00  0.00     0.010 A 
HETATM   12  C11 UNL     1      -2.510  -1.648  -0.186  1.00  0.00     0.018 A 
HETATM   13  C12 UNL     1      -3.794  -1.546  -0.646  1.00  0.00     0.035 A 
HETATM   14  C13 UNL     1      -4.307  -0.309  -0.948  1.00  0.00     0.091 A 
HETATM   15  C14 UNL     1      -3.559   0.844  -0.800  1.00  0.00     0.064 A 
HETATM   16  N4  UNL     1      -5.520   0.113  -1.415  1.00  0.00    -0.211 N 
HETATM   17  C15 UNL     1      -2.246   0.722  -0.329  1.00  0.00     0.047 A 
HETATM   18  N3  UNL     1      -4.325   1.879  -1.171  1.00  0.00    -0.342 N 
HETATM   19  C16 UNL     1      -5.540   1.447  -1.554  1.00  0.00     0.106 A 
ATOM     20  H3  UNL     1      -4.029   2.855  -1.164  1.00  0.00     0.167 HD
HETATM   21  C17 UNL     1      -6.698   2.266  -2.040  1.00  0.00     0.091 C 
BRANCH  16  22
HETATM   22  O2  UNL     1      -6.534  -0.787  -1.681  1.00  0.00    -0.281 OA
ATOM     23  H2  UNL     1      -7.377  -0.494  -2.006  1.00  0.00     0.245 HD
ENDBRANCH  16  22
ENDBRANCH   8  11
BRANCH   5  24
HETATM   24  O1  UNL     1       1.757  -3.501   1.491  1.00  0.00    -0.341 OA
HETATM   25  C8  UNL     1       0.844  -4.587   1.279  1.00  0.00     0.211 C 
ENDBRANCH   5  24
BRANCH   1  26
HETATM   26  C4  UNL     1       3.878   1.078   1.781  1.00  0.00     0.121 C 
BRANCH  26  27
HETATM   27  C3  UNL     1       4.876   0.728   0.669  1.00  0.00     0.019 C 
BRANCH  27  28
HETATM   28  C2  UNL     1       4.729   1.812  -0.376  1.00  0.00    -0.003 C 
HETATM   29  C1  UNL     1       5.656   1.604  -1.545  1.00  0.00     0.005 C 
ENDBRANCH  27  28
ENDBRANCH  26  27
ENDBRANCH   1  26
TORSDOF 6
