REMARK  5 active torsions:
REMARK  status: ('A' for Active; 'I' for Inactive)
REMARK    1  A    between atoms: C4_7  and  C5_8 
REMARK    2  A    between atoms: C6_9  and  N2_10 
REMARK    3  A    between atoms: C12_16  and  O2_17 
REMARK    4  A    between atoms: C13_19  and  C14_20 
REMARK    5  A    between atoms: C14_20  and  N3_21 
ROOT
HETATM    1  C1  UNL     1      -2.716  -3.237  -1.051  1.00  0.00     0.069 C 
HETATM    2  C2  UNL     1      -1.611  -2.347  -0.499  1.00  0.00     0.023 A 
HETATM    3  N1  UNL     1      -0.331  -2.703  -0.647  1.00  0.00    -0.326 N 
ATOM      4  H1  UNL     1      -0.107  -3.610  -1.055  1.00  0.00     0.169 HD
HETATM    5  C3  UNL     1       0.664  -1.886  -0.267  1.00  0.00     0.258 A 
HETATM    6  O1  UNL     1       1.838  -2.306  -0.431  1.00  0.00    -0.267 OA
HETATM    7  C4  UNL     1       0.437  -0.633   0.293  1.00  0.00     0.067 A 
HETATM    8  C12 UNL     1      -0.942  -0.279   0.433  1.00  0.00     0.095 A 
HETATM    9  C13 UNL     1      -1.966  -1.129   0.046  1.00  0.00     0.036 A 
ENDROOT
BRANCH   7  10
HETATM   10  C5  UNL     1       1.489   0.219   0.854  1.00  0.00     0.031 C 
HETATM   11  C6  UNL     1       2.405   1.026   0.086  1.00  0.00     0.060 C 
BRANCH  11  12
HETATM   12  N2  UNL     1       3.481   0.394  -0.657  1.00  0.00    -0.293 NA
HETATM   13  C7  UNL     1       4.188   1.429  -1.438  1.00  0.00     0.095 C 
HETATM   14  C8  UNL     1       5.440   1.941  -0.796  1.00  0.00     0.015 C 
HETATM   15  C9  UNL     1       6.456   0.848  -0.548  1.00  0.00     0.002 C 
HETATM   16  C10 UNL     1       5.723  -0.493  -0.397  1.00  0.00     0.015 C 
HETATM   17  C11 UNL     1       4.450  -0.155   0.322  1.00  0.00     0.095 C 
ENDBRANCH  11  12
ENDBRANCH   7  10
BRANCH   8  18
HETATM   18  O2  UNL     1      -1.205   0.953   0.980  1.00  0.00    -0.359 OA
ATOM     19  H2  UNL     1      -2.121   1.188   1.073  1.00  0.00     0.217 HD
ENDBRANCH   8  18
BRANCH   9  20
HETATM   20  C14 UNL     1      -3.346  -0.914   0.477  1.00  0.00     0.106 C 
BRANCH  20  21
HETATM   21  N3  UNL     1      -4.268  -0.095  -0.081  1.00  0.00    -0.369 N 
HETATM   22  C15 UNL     1      -4.170   1.172  -0.538  1.00  0.00     0.063 C 
HETATM   23  C16 UNL     1      -5.304   2.013   0.051  1.00  0.00     0.046 C 
HETATM   24  C17 UNL     1      -6.313   0.971   0.451  1.00  0.00     0.025 C 
HETATM   25  C18 UNL     1      -5.537  -0.270   0.635  1.00  0.00     0.128 C 
ENDBRANCH  20  21
ENDBRANCH   9  20
TORSDOF 5
