REMARK  7 active torsions:
REMARK  status: ('A' for Active; 'I' for Inactive)
REMARK    1  A    between atoms: C2_2  and  C3_3 
REMARK    2  A    between atoms: C8_8  and  N1_9 
REMARK    3  A    between atoms: N1_9  and  C9_11 
REMARK    4  A    between atoms: C9_11  and  N2_13 
REMARK    5  A    between atoms: N2_13  and  C10_15 
REMARK    6  A    between atoms: C10_15  and  C11_16 
REMARK    7  A    between atoms: C11_16  and  N3_17 
ROOT
HETATM    1  N1  UNL     1      -1.439  -0.377  -0.383  1.00  0.00    -0.333 N 
ATOM      2  H1  UNL     1      -1.504  -0.482  -1.395  1.00  0.00     0.168 HD
ENDROOT
BRANCH   1   3
HETATM    3  C8  UNL     1      -2.626   0.069   0.223  1.00  0.00     0.043 A 
HETATM    4  C3  UNL     1      -3.760   0.236  -0.597  1.00  0.00    -0.029 A 
HETATM    5  C4  UNL     1      -4.935   0.689  -0.003  1.00  0.00     0.049 A 
HETATM    6  C5  UNL     1      -5.035   0.977   1.338  1.00  0.00     0.105 A 
HETATM    7  C6  UNL     1      -3.930   0.815   2.138  1.00  0.00     0.107 A 
HETATM    8  O2  UNL     1      -6.062   1.434   2.172  1.00  0.00    -0.323 OA
HETATM    9  C7  UNL     1      -2.751   0.361   1.545  1.00  0.00     0.069 A 
HETATM   10  O1  UNL     1      -4.264   1.162   3.432  1.00  0.00    -0.323 OA
HETATM   11  C16 UNL     1      -5.496   1.887   3.408  1.00  0.00     0.352 C 
BRANCH   4  12
HETATM   12  C2  UNL     1      -3.688  -0.059  -2.025  1.00  0.00     0.036 C 
HETATM   13  C1  UNL     1      -3.691  -1.520  -2.381  1.00  0.00     0.010 C 
ENDBRANCH   4  12
ENDBRANCH   1   3
BRANCH   1  14
HETATM   14  C9  UNL     1      -0.198  -0.700   0.139  1.00  0.00     0.172 C 
HETATM   15  S1  UNL     1       0.158  -0.669   1.718  1.00  0.00    -0.041 SA
BRANCH  14  16
HETATM   16  N2  UNL     1       0.839  -1.130  -0.793  1.00  0.00    -0.365 N 
ATOM     17  H2  UNL     1       0.605  -1.187  -1.784  1.00  0.00     0.161 HD
BRANCH  16  18
HETATM   18  C10 UNL     1       2.172  -1.477  -0.386  1.00  0.00     0.152 C 
BRANCH  18  19
HETATM   19  C11 UNL     1       2.920  -0.264   0.035  1.00  0.00     0.292 C 
BRANCH  19  20
HETATM   20  N3  UNL     1       4.288  -0.570   0.459  1.00  0.00     0.090 N 
HETATM   21  C12 UNL     1       5.106  -0.998  -0.630  1.00  0.00     0.272 C 
HETATM   22  C13 UNL     1       6.183   0.046  -0.828  1.00  0.00     0.032 C 
HETATM   23  C14 UNL     1       5.497   1.271  -0.221  1.00  0.00     0.032 C 
HETATM   24  C15 UNL     1       4.837   0.666   0.983  1.00  0.00     0.272 C 
ENDBRANCH  19  20
ENDBRANCH  18  19
ENDBRANCH  16  18
ENDBRANCH  14  16
ENDBRANCH   1  14
TORSDOF 7
