REMARK  8 active torsions:
REMARK  status: ('A' for Active; 'I' for Inactive)
REMARK    1  A    between atoms: C2_2  and  C3_3 
REMARK    2  A    between atoms: C3_3  and  C4_4 
REMARK    3  A    between atoms: C6_8  and  N2_9 
REMARK    4  A    between atoms: N2_9  and  C7_11 
REMARK    5  A    between atoms: C7_11  and  N3_13 
REMARK    6  A    between atoms: N3_13  and  C8_15 
REMARK    7  A    between atoms: C10_17  and  O1_18 
REMARK    8  A    between atoms: C13_21  and  O2_22 
ROOT
HETATM    1  C7  UNL     1      -0.377  -1.859  -0.087  1.00  0.00     0.191 C 
HETATM    2  S1  UNL     1      -1.001  -2.145   1.374  1.00  0.00    -0.040 SA
ENDROOT
BRANCH   1   3
HETATM    3  N2  UNL     1       0.830  -2.597  -0.409  1.00  0.00    -0.166 N 
ATOM      4  H2  UNL     1       0.809  -3.592  -0.632  1.00  0.00     0.186 HD
BRANCH   3   5
HETATM    5  C6  UNL     1       1.922  -1.930  -0.397  1.00  0.00     0.684 A 
HETATM    6  N1  UNL     1       1.993  -0.613  -0.108  1.00  0.00    -0.201 N 
HETATM    7  C5  UNL     1       3.153   0.070  -0.101  1.00  0.00     0.115 A 
ATOM      8  H1  UNL     1       1.131  -0.115   0.114  1.00  0.00     0.183 HD
HETATM    9  C4  UNL     1       4.336  -0.576  -0.399  1.00  0.00    -0.023 A 
HETATM   10  C16 UNL     1       4.256  -1.921  -0.693  1.00  0.00     0.115 A 
HETATM   11  N4  UNL     1       3.082  -2.574  -0.691  1.00  0.00    -0.201 N 
ATOM     12  H4  UNL     1       3.061  -3.569  -0.914  1.00  0.00     0.183 HD
BRANCH   9  13
HETATM   13  C3  UNL     1       5.602   0.184  -0.388  1.00  0.00     0.067 C 
BRANCH  13  14
HETATM   14  C2  UNL     1       6.233   0.160   0.942  1.00  0.00    -0.032 C 
HETATM   15  C1  UNL     1       6.455   1.277   1.595  1.00  0.00     0.007 C 
ENDBRANCH  13  14
ENDBRANCH   9  13
ENDBRANCH   3   5
ENDBRANCH   1   3
BRANCH   1  16
HETATM   16  N3  UNL     1      -0.919  -0.933  -0.991  1.00  0.00    -0.333 N 
ATOM     17  H3  UNL     1      -0.442  -0.770  -1.878  1.00  0.00     0.168 HD
BRANCH  16  18
HETATM   18  C8  UNL     1      -2.106  -0.219  -0.709  1.00  0.00     0.039 A 
HETATM   19  C9  UNL     1      -3.190  -0.778  -0.086  1.00  0.00     0.066 A 
HETATM   20  C10 UNL     1      -4.342  -0.036   0.211  1.00  0.00     0.073 A 
HETATM   21  C12 UNL     1      -4.391   1.292  -0.132  1.00  0.00     0.073 A 
HETATM   22  C13 UNL     1      -3.312   1.912  -0.770  1.00  0.00     0.073 A 
HETATM   23  C15 UNL     1      -2.219   1.130  -1.030  1.00  0.00     0.066 A 
BRANCH  20  24
HETATM   24  O1  UNL     1      -5.413  -0.637   0.841  1.00  0.00    -0.356 OA
HETATM   25  C11 UNL     1      -5.334  -2.021   1.186  1.00  0.00     0.210 C 
ENDBRANCH  20  24
BRANCH  22  26
HETATM   26  O2  UNL     1      -3.334   3.253  -1.129  1.00  0.00    -0.356 OA
HETATM   27  C14 UNL     1      -4.407   4.110  -0.899  1.00  0.00     0.210 C 
ENDBRANCH  22  26
ENDBRANCH  16  18
ENDBRANCH   1  16
TORSDOF 8
