REMARK  7 active torsions:
REMARK  status: ('A' for Active; 'I' for Inactive)
REMARK    1  A    between atoms: N1_2  and  S1_4 
REMARK    2  A    between atoms: S1_4  and  N2_6 
REMARK    3  A    between atoms: S1_4  and  N3_14 
REMARK    4  A    between atoms: N2_6  and  C2_8 
REMARK    5  A    between atoms: C2_8  and  C3_9 
REMARK    6  A    between atoms: N3_14  and  C7_16 
REMARK    7  A    between atoms: C11_20  and  C12_21 
ROOT
HETATM    1  S1  UNL     1       1.321  -0.884   0.093  1.00  0.00     0.196 S 
HETATM    2  O1  UNL     1       1.028  -0.161   1.399  1.00  0.00    -0.206 OA
ENDROOT
BRANCH   1   3
HETATM    3  N1  UNL     1       1.918  -2.264   0.556  1.00  0.00    -0.324 N 
HETATM    4  C1  UNL     1       1.258  -2.928   1.629  1.00  0.00     0.159 C 
ATOM      5  H1  UNL     1       2.741  -2.665   0.107  1.00  0.00     0.171 HD
ENDBRANCH   1   3
BRANCH   1   6
HETATM    6  N2  UNL     1       2.512   0.003  -0.796  1.00  0.00    -0.317 N 
ATOM      7  H2  UNL     1       2.361   0.891  -1.275  1.00  0.00     0.172 HD
BRANCH   6   8
HETATM    8  C2  UNL     1       3.778  -0.741  -0.743  1.00  0.00     0.164 C 
BRANCH   8   9
HETATM    9  C3  UNL     1       4.770   0.118  -0.098  1.00  0.00     0.140 C 
HETATM   10  C4  UNL     1       5.255   1.347  -0.806  1.00  0.00     0.035 C 
HETATM   11  C5  UNL     1       6.263   1.824   0.274  1.00  0.00     0.029 C 
HETATM   12  C6  UNL     1       6.533   0.532   1.011  1.00  0.00     0.168 C 
HETATM   13  O2  UNL     1       6.041  -0.479   0.130  1.00  0.00    -0.384 OA
ENDBRANCH   8   9
ENDBRANCH   6   8
ENDBRANCH   1   6
BRANCH   1  14
HETATM   14  N3  UNL     1      -0.063  -1.202  -0.815  1.00  0.00    -0.264 N 
ATOM     15  H3  UNL     1      -0.028  -1.991  -1.460  1.00  0.00     0.180 HD
BRANCH  14  16
HETATM   16  C7  UNL     1      -1.285  -0.455  -0.755  1.00  0.00     0.157 A 
HETATM   17  C8  UNL     1      -1.423   0.885  -0.965  1.00  0.00     0.066 A 
HETATM   18  C9  UNL     1      -2.781   1.200  -0.812  1.00  0.00    -0.027 A 
HETATM   19  C10 UNL     1      -3.372   2.530  -0.992  1.00  0.00     0.051 C 
HETATM   20  C11 UNL     1      -3.408   0.011  -0.510  1.00  0.00     0.069 A 
HETATM   21  O3  UNL     1      -2.481  -0.919  -0.493  1.00  0.00    -0.296 OA
BRANCH  20  22
HETATM   22  C12 UNL     1      -4.875  -0.212  -0.233  1.00  0.00    -0.001 C 
HETATM   23  C13 UNL     1      -4.999  -1.730   0.019  1.00  0.00     0.021 C 
HETATM   24  C14 UNL     1      -5.164   0.472   1.096  1.00  0.00     0.021 C 
HETATM   25  C15 UNL     1      -5.765   0.189  -1.339  1.00  0.00     0.021 C 
ENDBRANCH  20  22
ENDBRANCH  14  16
ENDBRANCH   1  14
TORSDOF 7
