REMARK  17 active torsions:
REMARK  status: ('A' for Active; 'I' for Inactive)
REMARK    1  A    between atoms: S1_2  and  N1_4 
REMARK    2  A    between atoms: S1_2  and  C2_8 
REMARK    3  A    between atoms: N1_4  and  O2_6 
REMARK    4  A    between atoms: C3_11  and  C4_12 
REMARK    5  A    between atoms: C4_12  and  O3_13 
REMARK    6  A    between atoms: C4_12  and  N3_15 
REMARK    7  A    between atoms: N3_15  and  C5_17 
REMARK    8  A    between atoms: C5_17  and  C6_18 
REMARK    9  A    between atoms: C6_18  and  O4_19 
REMARK   10  A    between atoms: O4_19  and  N4_20 
REMARK   11  A    between atoms: N4_20  and  N5_22 
REMARK   12  A    between atoms: N5_22  and  N6_24 
REMARK   13  A    between atoms: C7_25  and  C8_26 
REMARK       I    between atoms: C8_26  and  N7_28 
REMARK   14  A    between atoms: N7_28  and  N8_30 
REMARK   15  A    between atoms: C10_36  and  N10_37 
REMARK   16  A    between atoms: N11_40  and  N12_41 
REMARK   17  A    between atoms: C11_44  and  N13_45 
ROOT
HETATM    1  N6  UNL     1      -3.910   0.418   0.090  1.00  0.00    -0.199 N 
HETATM    2  C7  UNL     1      -4.221   0.764  -1.158  1.00  0.00     0.201 A 
HETATM    3  N9  UNL     1      -5.245  -0.022  -1.588  1.00  0.00    -0.330 N 
ATOM      4  H9  UNL     1      -5.691   0.003  -2.505  1.00  0.00     0.168 HD
HETATM    5  C9  UNL     1      -5.559  -0.856  -0.543  1.00  0.00     0.127 A 
HETATM    6  C10 UNL     1      -6.607  -1.781  -0.333  1.00  0.00     0.169 A 
HETATM    7  N11 UNL     1      -6.769  -2.390   0.867  1.00  0.00    -0.075 N 
HETATM    8  C11 UNL     1      -5.940  -2.134   1.911  1.00  0.00     0.700 A 
HETATM    9  N14 UNL     1      -4.948  -1.255   1.726  1.00  0.00    -0.171 N 
ATOM     10  H14 UNL     1      -4.314  -1.050   2.498  1.00  0.00     0.186 HD
HETATM   11  C12 UNL     1      -4.764  -0.624   0.525  1.00  0.00     0.176 A 
ENDROOT
BRANCH   1  12
HETATM   12  N5  UNL     1      -2.978   0.866   0.918  1.00  0.00    -0.213 N 
ATOM     13  H5  UNL     1      -3.349   1.404   1.701  1.00  0.00     0.211 HD
BRANCH  12  14
HETATM   14  N4  UNL     1      -1.847   0.768   0.927  1.00  0.00    -0.192 N 
ATOM     15  H4  UNL     1      -1.597   1.287   1.769  1.00  0.00     0.217 HD
BRANCH  14  16
HETATM   16  O4  UNL     1      -0.664   0.375   0.485  1.00  0.00    -0.259 OA
BRANCH  16  17
HETATM   17  C6  UNL     1      -0.186   0.912  -0.825  1.00  0.00     0.247 C 
BRANCH  17  18
HETATM   18  C5  UNL     1       1.192   1.433  -0.436  1.00  0.00     0.087 C 
BRANCH  18  19
HETATM   19  N3  UNL     1       2.144   0.592   0.069  1.00  0.00    -0.370 N 
ATOM     20  H3  UNL     1       2.353   0.619   1.067  1.00  0.00     0.161 HD
BRANCH  19  21
HETATM   21  C4  UNL     1       2.865  -0.339  -0.782  1.00  0.00     0.272 C 
BRANCH  21  22
HETATM   22  C3  UNL     1       4.318  -0.160  -0.350  1.00  0.00     0.101 A 
HETATM   23  N2  UNL     1       5.290  -1.034  -0.356  1.00  0.00    -0.331 N 
HETATM   24  C2  UNL     1       6.433  -0.456   0.168  1.00  0.00     0.185 A 
ATOM     25  H2  UNL     1       5.217  -1.993  -0.694  1.00  0.00     0.168 HD
HETATM   26  N16 UNL     1       6.109   0.783   0.493  1.00  0.00    -0.321 N 
HETATM   27  C13 UNL     1       4.819   1.011   0.200  1.00  0.00     0.145 A 
ATOM     28  H16 UNL     1       6.745   1.465   0.906  1.00  0.00     0.169 HD
HETATM   29  N15 UNL     1       4.168   2.222   0.518  1.00  0.00    -0.080 NA
BRANCH  24  30
HETATM   30  S1  UNL     1       7.920  -1.350   0.523  1.00  0.00     0.103 S 
HETATM   31  C1  UNL     1       7.972  -2.792  -0.452  1.00  0.00     0.147 C 
HETATM   32  O1  UNL     1       8.060  -1.524   1.977  1.00  0.00    -0.240 OA
BRANCH  30  33
HETATM   33  N1  UNL     1       9.103  -0.357   0.095  1.00  0.00    -0.221 N 
ATOM     34  H1  UNL     1       9.849  -0.632  -0.544  1.00  0.00     0.204 HD
BRANCH  33  35
HETATM   35  O2  UNL     1       9.032   0.910   0.664  1.00  0.00    -0.282 OA
ATOM     36  H2  UNL     1       9.733   1.499   0.410  1.00  0.00     0.245 HD
ENDBRANCH  33  35
ENDBRANCH  30  33
ENDBRANCH  24  30
ENDBRANCH  21  22
BRANCH  21  37
HETATM   37  O3  UNL     1       2.493  -1.625  -0.414  1.00  0.00    -0.371 OA
ATOM     38  H3  UNL     1       1.589  -1.736  -0.683  1.00  0.00     0.212 HD
ENDBRANCH  21  37
ENDBRANCH  19  21
ENDBRANCH  18  19
ENDBRANCH  17  18
ENDBRANCH  16  17
ENDBRANCH  14  16
ENDBRANCH  12  14
ENDBRANCH   1  12
BRANCH   2  39
HETATM   39  C8  UNL     1      -3.859   2.061  -1.850  1.00  0.00     0.305 C 
HETATM   40  O5  UNL     1      -3.353   2.068  -2.917  1.00  0.00    -0.263 OA
HETATM   41  N7  UNL     1      -4.250   3.139  -0.973  1.00  0.00    -0.270 N 
ATOM     42  H7  UNL     1      -4.668   2.827  -0.096  1.00  0.00     0.189 HD
BRANCH  41  43
HETATM   43  N8  UNL     1      -4.167   4.501  -1.093  1.00  0.00    -0.342 N 
ATOM     44  H82 UNL     1      -3.747   4.791  -1.976  1.00  0.00     0.176 HD
ATOM     45  H81 UNL     1      -4.443   5.263  -0.473  1.00  0.00     0.176 HD
ENDBRANCH  41  43
ENDBRANCH   2  39
BRANCH   6  46
HETATM   46  N10 UNL     1      -7.388  -1.980  -1.264  1.00  0.00    -0.382 N 
ATOM     47 2H10 UNL     1      -7.266  -1.522  -2.167  1.00  0.00     0.157 HD
ATOM     48 1H10 UNL     1      -8.144  -2.647  -1.112  1.00  0.00     0.157 HD
ENDBRANCH   6  46
BRANCH   8  49
HETATM   49  N13 UNL     1      -6.114  -2.687   3.057  1.00  0.00    -0.233 N 
ATOM     50 2H13 UNL     1      -6.870  -3.357   3.198  1.00  0.00     0.174 HD
ATOM     51 1H13 UNL     1      -5.491  -2.495   3.841  1.00  0.00     0.174 HD
ENDBRANCH   8  49
BRANCH   7  52
HETATM   52  N12 UNL     1      -7.825  -3.223   1.078  1.00  0.00    -0.322 N 
ATOM     53 2H12 UNL     1      -8.448  -3.415   0.294  1.00  0.00     0.178 HD
ATOM     54 1H12 UNL     1      -7.947  -3.681   1.981  1.00  0.00     0.178 HD
ENDBRANCH   7  52
TORSDOF 17
