REMARK  17 active torsions:
REMARK  status: ('A' for Active; 'I' for Inactive)
REMARK    1  A    between atoms: C2_2  and  O2_4 
REMARK    2  A    between atoms: O2_4  and  C3_5 
REMARK    3  A    between atoms: C3_5  and  C4_6 
REMARK    4  A    between atoms: C4_6  and  O3_7 
REMARK    5  A    between atoms: C4_6  and  N1_9 
REMARK    6  A    between atoms: N1_9  and  C5_11 
REMARK    7  A    between atoms: C6_12  and  O4_13 
REMARK    8  A    between atoms: C8_16  and  O5_17 
REMARK    9  A    between atoms: C9_19  and  O6_20 
REMARK   10  A    between atoms: C10_22  and  N2_23 
REMARK   11  A    between atoms: N2_23  and  C11_25 
REMARK   12  A    between atoms: C12_28  and  O7_29 
REMARK   13  A    between atoms: C13_31  and  O8_32 
REMARK   14  A    between atoms: C14_34  and  O9_35 
REMARK   15  A    between atoms: C14_34  and  C15_37 
REMARK   16  A    between atoms: C15_37  and  O10_38 
REMARK   17  A    between atoms: C16_41  and  O12_42 
ROOT
HETATM    1  C5  UNL     1       2.917   0.234  -0.319  1.00  0.00     0.141 A 
HETATM    2  C6  UNL     1       2.176  -0.614  -1.133  1.00  0.00     0.114 A 
HETATM    3  C7  UNL     1       0.892  -0.937  -0.737  1.00  0.00     0.072 A 
HETATM    4  C8  UNL     1       0.126  -1.782  -1.530  1.00  0.00     0.117 A 
HETATM    5  C9  UNL     1      -1.171  -2.108  -1.129  1.00  0.00     0.129 A 
HETATM    6  C10 UNL     1      -1.706  -1.608   0.036  1.00  0.00     0.104 A 
HETATM    7  C16 UNL     1      -0.936  -0.777   0.805  1.00  0.00     0.130 A 
HETATM    8  C17 UNL     1       0.365  -0.439   0.419  1.00  0.00     0.131 A 
HETATM    9  O13 UNL     1       1.089   0.371   1.187  1.00  0.00    -0.270 OA
HETATM   10  C18 UNL     1       2.307   0.689   0.830  1.00  0.00     0.318 A 
HETATM   11  O14 UNL     1       3.005   1.466   1.562  1.00  0.00    -0.257 OA
ENDROOT
BRANCH   6  12
HETATM   12  N2  UNL     1      -3.007  -1.943   0.426  1.00  0.00    -0.343 N 
ATOM     13  H2  UNL     1      -3.104  -2.747   1.046  1.00  0.00     0.164 HD
BRANCH  12  14
HETATM   14  C11 UNL     1      -4.207  -1.283   0.050  1.00  0.00     0.335 C 
HETATM   15  N3  UNL     1      -4.447  -1.315  -1.397  1.00  0.00    -0.329 N 
HETATM   16  C12 UNL     1      -5.548  -0.723  -1.764  1.00  0.00     0.149 C 
ATOM     17  H3  UNL     1      -3.809  -1.761  -2.056  1.00  0.00     0.165 HD
HETATM   18  C13 UNL     1      -6.350  -0.130  -0.660  1.00  0.00     0.256 C 
HETATM   19  C14 UNL     1      -5.403   0.669   0.203  1.00  0.00     0.221 C 
HETATM   20  O11 UNL     1      -4.178   0.068   0.378  1.00  0.00    -0.308 OA
BRANCH  16  21
HETATM   21  O7  UNL     1      -5.975  -0.630  -3.058  1.00  0.00    -0.347 OA
ATOM     22  H7  UNL     1      -6.778  -0.198  -3.326  1.00  0.00     0.219 HD
ENDBRANCH  16  21
BRANCH  18  23
HETATM   23  O8  UNL     1      -7.313   0.754  -1.142  1.00  0.00    -0.382 OA
ATOM     24  H8  UNL     1      -7.825   1.133  -0.437  1.00  0.00     0.210 HD
ENDBRANCH  18  23
BRANCH  19  25
HETATM   25  O9  UNL     1      -5.195   1.887  -0.441  1.00  0.00    -0.361 OA
ATOM     26  H9  UNL     1      -4.599   2.390   0.102  1.00  0.00     0.213 HD
ENDBRANCH  19  25
BRANCH  19  27
HETATM   27  C15 UNL     1      -5.996   0.894   1.591  1.00  0.00     0.235 C 
BRANCH  27  28
HETATM   28  O10 UNL     1      -5.103   1.669   2.341  1.00  0.00    -0.395 OA
ATOM     29  H10 UNL     1      -5.472   1.809   3.205  1.00  0.00     0.209 HD
ENDBRANCH  27  28
ENDBRANCH  19  27
ENDBRANCH  12  14
ENDBRANCH   6  12
BRANCH   5  30
HETATM   30  O6  UNL     1      -1.967  -2.937  -1.875  1.00  0.00    -0.356 OA
ATOM     31  H6  UNL     1      -2.850  -3.159  -1.602  1.00  0.00     0.218 HD
ENDBRANCH   5  30
BRANCH   7  32
HETATM   32  O12 UNL     1      -1.378  -0.220   2.001  1.00  0.00    -0.356 OA
ATOM     33  H12 UNL     1      -0.844   0.357   2.535  1.00  0.00     0.218 HD
ENDBRANCH   7  32
BRANCH   4  34
HETATM   34  O5  UNL     1       0.695  -2.264  -2.690  1.00  0.00    -0.357 OA
ATOM     35  H5  UNL     1       0.171  -2.842  -3.232  1.00  0.00     0.217 HD
ENDBRANCH   4  34
BRANCH   2  36
HETATM   36  O4  UNL     1       2.668  -1.135  -2.304  1.00  0.00    -0.357 OA
ATOM     37  H4  UNL     1       2.161  -1.715  -2.861  1.00  0.00     0.217 HD
ENDBRANCH   2  36
BRANCH   1  38
HETATM   38  N1  UNL     1       4.223   0.579  -0.696  1.00  0.00    -0.355 N 
ATOM     39  H1  UNL     1       4.398   1.400  -1.276  1.00  0.00     0.162 HD
BRANCH  38  40
HETATM   40  C4  UNL     1       5.328  -0.261  -0.242  1.00  0.00     0.242 C 
BRANCH  40  41
HETATM   41  C3  UNL     1       6.641   0.262  -0.741  1.00  0.00     0.232 C 
BRANCH  41  42
HETATM   42  O2  UNL     1       6.924   1.552  -0.361  1.00  0.00    -0.317 OA
BRANCH  42  43
HETATM   43  C2  UNL     1       7.161   2.055   0.874  1.00  0.00     0.254 C 
HETATM   44  C1  UNL     1       7.438   3.534   1.033  1.00  0.00     0.126 C 
HETATM   45  O1  UNL     1       7.157   1.334   1.886  1.00  0.00    -0.266 OA
ENDBRANCH  42  43
ENDBRANCH  41  42
ENDBRANCH  40  41
BRANCH  40  46
HETATM   46  O3  UNL     1       5.321  -0.470   1.092  1.00  0.00    -0.375 OA
ATOM     47  H3  UNL     1       4.489  -0.801   1.408  1.00  0.00     0.212 HD
ENDBRANCH  40  46
ENDBRANCH  38  40
ENDBRANCH   1  38
TORSDOF 17
