REMARK  3 active torsions:
REMARK  status: ('A' for Active; 'I' for Inactive)
REMARK    1  A    between atoms: C2_2  and  N1_3 
REMARK       I    between atoms: C3_5  and  N3_7 
REMARK    2  A    between atoms: N3_7  and  C4_9 
REMARK    3  A    between atoms: C4_9  and  C5_10 
ROOT
HETATM    1  N1  UNL     1      -2.036   0.111   0.133  1.00  0.00    -0.365 N 
ATOM      2  H1  UNL     1      -1.736   1.007  -0.251  1.00  0.00     0.162 HD
HETATM    3  C3  UNL     1      -1.186  -0.827   0.364  1.00  0.00     0.184 C 
HETATM    4  N2  UNL     1      -1.580  -2.069   0.894  1.00  0.00    -0.064 NA
HETATM    5  N3  UNL     1       0.185  -0.595   0.075  1.00  0.00    -0.358 N 
ATOM      6  H3  UNL     1       0.606  -1.067  -0.725  1.00  0.00     0.162 HD
ENDROOT
BRANCH   5   7
HETATM    7  C4  UNL     1       1.009   0.290   0.878  1.00  0.00     0.195 C 
BRANCH   7   8
HETATM    8  C5  UNL     1       2.402   0.350   0.354  1.00  0.00     0.106 C 
HETATM    9  N4  UNL     1       3.210  -0.798   0.265  1.00  0.00    -0.086 NA
HETATM   10  N5  UNL     1       2.882   1.477  -0.026  1.00  0.00    -0.385 N 
HETATM   11  C6  UNL     1       4.233   1.528  -0.533  1.00  0.00     0.147 C 
ATOM     12  H5  UNL     1       2.318   2.325   0.029  1.00  0.00     0.159 HD
ENDBRANCH   7   8
ENDBRANCH   5   7
BRANCH   1  13
HETATM   13  C2  UNL     1      -3.431  -0.139   0.433  1.00  0.00     0.118 C 
HETATM   14  C1  UNL     1      -4.315   0.983  -0.053  1.00  0.00     0.026 C 
ENDBRANCH   1  13
TORSDOF 3
