REMARK  4 active torsions:
REMARK  status: ('A' for Active; 'I' for Inactive)
REMARK    1  A    between atoms: N1_1  and  N2_4 
REMARK    2  A    between atoms: C1_6  and  C2_7 
REMARK    3  A    between atoms: C2_7  and  C3_8 
REMARK    4  A    between atoms: C3_8  and  C4_9 
ROOT
HETATM    1  C2  UNL     1       1.517   0.273   0.314  1.00  0.00     0.048 C 
ENDROOT
BRANCH   1   2
HETATM    2  C1  UNL     1       2.318   1.199   1.148  1.00  0.00     0.079 C 
HETATM    3  N2  UNL     1       3.403   0.829   1.699  1.00  0.00    -0.322 N 
ATOM      4  H2  UNL     1       3.943   1.479   2.271  1.00  0.00     0.185 HD
BRANCH   3   5
HETATM    5  N1  UNL     1       3.842  -0.482   1.507  1.00  0.00    -0.346 N 
ATOM      6  H12 UNL     1       3.291  -1.119   0.932  1.00  0.00     0.176 HD
ATOM      7  H11 UNL     1       4.712  -0.779   1.949  1.00  0.00     0.176 HD
ENDBRANCH   3   5
ENDBRANCH   1   2
BRANCH   1   8
HETATM    8  C3  UNL     1       0.104   0.834   0.106  1.00  0.00     0.041 C 
BRANCH   8   9
HETATM    9  C4  UNL     1      -0.633  -0.147  -0.736  1.00  0.00     0.229 C 
HETATM   10  C5  UNL     1      -2.056   0.175  -1.085  1.00  0.00     0.049 C 
HETATM   11  C6  UNL     1      -2.666   0.439   0.255  1.00  0.00     0.038 C 
HETATM   12  C8  UNL     1      -2.151  -1.355  -1.143  1.00  0.00     0.279 C 
HETATM   13  C7  UNL     1      -2.060  -0.756   1.013  1.00  0.00     0.273 C 
HETATM   14  N3  UNL     1      -1.189  -1.294  -0.019  1.00  0.00     0.093 N 
ENDBRANCH   8   9
ENDBRANCH   1   8
TORSDOF 4
