REMARK  3 active torsions:
REMARK  status: ('A' for Active; 'I' for Inactive)
REMARK    1  A    between atoms: C1_2  and  N1_3 
REMARK    2  A    between atoms: C2_5  and  N2_6 
REMARK    3  A    between atoms: N2_6  and  C3_8 
ROOT
HETATM    1  C3  UNL     1      -0.312   0.362   0.335  1.00  0.00     0.284 C 
HETATM    2  C4  UNL     1      -1.601   0.670   1.067  1.00  0.00     0.056 C 
HETATM    3  C5  UNL     1      -2.670   0.150   0.120  1.00  0.00     0.031 C 
HETATM    4  C6  UNL     1      -1.953   0.394  -1.215  1.00  0.00     0.235 C 
HETATM    5  N3  UNL     1      -0.676  -0.266  -0.913  1.00  0.00    -0.054 N 
ATOM      6  H31 UNL     1      -0.708  -1.285  -0.893  1.00  0.00     0.279 HD
ATOM      7  H32 UNL     1       0.027  -0.209  -1.649  1.00  0.00     0.279 HD
ENDROOT
BRANCH   1   8
HETATM    8  N2  UNL     1       0.562  -0.459   1.143  1.00  0.00    -0.359 N 
ATOM      9  H2  UNL     1       0.279  -0.754   2.077  1.00  0.00     0.162 HD
BRANCH   8  10
HETATM   10  C2  UNL     1       1.820  -0.847   0.615  1.00  0.00     0.179 C 
HETATM   11  N1  UNL     1       2.875  -0.132   0.764  1.00  0.00    -0.331 N 
ATOM     12  H1  UNL     1       2.792   0.743   1.282  1.00  0.00     0.168 HD
BRANCH  11  13
HETATM   13  C1  UNL     1       4.144  -0.483   0.254  1.00  0.00     0.353 C 
HETATM   14  O1  UNL     1       4.617   0.078  -0.758  1.00  0.00    -0.283 OA
ENDBRANCH  11  13
ENDBRANCH   8  10
ENDBRANCH   1   8
TORSDOF 3
