REMARK  4 active torsions:
REMARK  status: ('A' for Active; 'I' for Inactive)
REMARK    1  A    between atoms: N3_4  and  C2_6 
REMARK    2  A    between atoms: C2_6  and  C3_7 
REMARK    3  A    between atoms: C3_7  and  N4_8 
REMARK    4  A    between atoms: C6_11  and  N5_12 
ROOT
HETATM    1  N4  UNL     1       1.155  -0.465   0.609  1.00  0.00     0.121 N 
HETATM    2  C4  UNL     1       2.017  -1.563   0.139  1.00  0.00     0.279 C 
HETATM    3  C5  UNL     1       3.185  -0.714   0.604  1.00  0.00     0.095 C 
HETATM    4  C6  UNL     1       2.235   0.429   0.253  1.00  0.00     0.418 C 
ENDROOT
BRANCH   1   5
HETATM    5  C3  UNL     1      -0.057  -0.318  -0.164  1.00  0.00     0.294 C 
BRANCH   5   6
HETATM    6  C2  UNL     1      -0.827   0.834   0.431  1.00  0.00     0.152 C 
BRANCH   6   7
HETATM    7  N3  UNL     1      -2.057   1.103  -0.231  1.00  0.00    -0.365 N 
HETATM    8  C1  UNL     1      -3.058   0.336  -0.043  1.00  0.00     0.197 C 
HETATM    9  N1  UNL     1      -2.954  -0.772   0.813  1.00  0.00    -0.067 NA
HETATM   10  N2  UNL     1      -4.278   0.609  -0.705  1.00  0.00    -0.067 NA
ATOM     11  H3  UNL     1      -2.138   1.907  -0.854  1.00  0.00     0.161 HD
ENDBRANCH   6   7
ENDBRANCH   5   6
ENDBRANCH   1   5
BRANCH   4  12
HETATM   12  N5  UNL     1       2.384   1.605   1.043  1.00  0.00    -0.048 N 
ATOM     13  H53 UNL     1       1.504   2.121   1.056  1.00  0.00     0.276 HD
ATOM     14  H52 UNL     1       2.465   1.347   2.027  1.00  0.00     0.276 HD
ATOM     15  H51 UNL     1       3.146   2.235   0.792  1.00  0.00     0.276 HD
ENDBRANCH   4  12
TORSDOF 4
