REMARK  4 active torsions:
REMARK  status: ('A' for Active; 'I' for Inactive)
REMARK    1  A    between atoms: C2_2  and  N1_4 
REMARK    2  A    between atoms: C2_2  and  C5_12 
REMARK    3  A    between atoms: N1_4  and  C4_6 
REMARK    4  A    between atoms: C4_6  and  N2_7 
ROOT
HETATM    1  N1  UNL     1       0.608  -0.592   1.171  1.00  0.00    -0.374 N 
ATOM      2  H1  UNL     1       0.632  -1.298   1.907  1.00  0.00     0.161 HD
ENDROOT
BRANCH   1   3
HETATM    3  C2  UNL     1      -0.440  -0.498   0.177  1.00  0.00     0.051 C 
HETATM    4  C1  UNL     1       0.043  -0.923  -1.176  1.00  0.00     0.041 C 
HETATM    5  C3  UNL     1      -1.535  -1.411   0.627  1.00  0.00     0.041 C 
BRANCH   3   6
HETATM    6  C5  UNL     1      -1.038   0.896   0.088  1.00  0.00     0.172 A 
HETATM    7  C6  UNL     1      -0.931   1.774  -1.019  1.00  0.00     0.202 A 
HETATM    8  O1  UNL     1      -2.003   0.813  -1.076  1.00  0.00    -0.379 OA
ENDBRANCH   3   6
ENDBRANCH   1   3
BRANCH   1   9
HETATM    9  C4  UNL     1       1.616   0.430   1.001  1.00  0.00     0.193 C 
BRANCH   9  10
HETATM   10  N2  UNL     1       2.524   0.261  -0.058  1.00  0.00    -0.303 N 
HETATM   11  N3  UNL     1       3.063   1.271  -0.539  1.00  0.00    -0.344 N 
ATOM     12  H32 UNL     1       2.841   2.193  -0.163  1.00  0.00     0.176 HD
ATOM     13  H31 UNL     1       3.722   1.148  -1.308  1.00  0.00     0.176 HD
ATOM     14  H2  UNL     1       2.735  -0.668  -0.422  1.00  0.00     0.187 HD
ENDBRANCH   9  10
ENDBRANCH   1   9
TORSDOF 4
