REMARK  12 active torsions:
REMARK  status: ('A' for Active; 'I' for Inactive)
REMARK    1  A    between atoms: C2_2  and  C3_3 
REMARK    2  A    between atoms: C2_2  and  C9_11 
REMARK    3  A    between atoms: C3_3  and  C4_4 
REMARK    4  A    between atoms: C4_4  and  C6_6 
REMARK    5  A    between atoms: C6_6  and  O1_9 
REMARK    6  A    between atoms: C9_11  and  C10_13 
REMARK    7  A    between atoms: C10_13  and  C11_15 
REMARK    8  A    between atoms: C11_15  and  C12_16 
REMARK    9  A    between atoms: C12_16  and  O4_17 
REMARK   10  A    between atoms: C12_16  and  C13_19 
REMARK   11  A    between atoms: C13_19  and  C14_20 
REMARK   12  A    between atoms: C14_20  and  C15_22 
ROOT
HETATM    1  C12 UNL     1      -0.418   2.877   0.177  1.00  0.00     0.132 C 
ENDROOT
BRANCH   1   2
HETATM    2  C11 UNL     1       0.588   3.321  -0.822  1.00  0.00     0.119 C 
BRANCH   2   3
HETATM    3  C10 UNL     1       1.646   2.351  -1.111  1.00  0.00     0.197 C 
HETATM    4  O3  UNL     1       1.373   1.384  -1.864  1.00  0.00    -0.289 OA
BRANCH   3   5
HETATM    5  C9  UNL     1       2.998   2.439  -0.578  1.00  0.00     0.198 C 
HETATM    6  O2  UNL     1       3.241   3.421   0.168  1.00  0.00    -0.289 OA
BRANCH   5   7
HETATM    7  C2  UNL     1       4.070   1.455  -0.863  1.00  0.00     0.060 C 
HETATM    8  C1  UNL     1       4.280   1.403  -2.352  1.00  0.00     0.018 C 
BRANCH   7   9
HETATM    9  C3  UNL     1       3.730   0.169  -0.232  1.00  0.00     0.019 C 
BRANCH   9  10
HETATM   10  C4  UNL     1       4.675  -0.959  -0.341  1.00  0.00     0.016 C 
HETATM   11  C5  UNL     1       4.026  -2.134   0.417  1.00  0.00     0.013 C 
BRANCH  10  12
HETATM   12  C6  UNL     1       6.023  -0.783   0.272  1.00  0.00     0.054 C 
HETATM   13  C7  UNL     1       6.863  -2.056   0.063  1.00  0.00     0.045 C 
HETATM   14  C8  UNL     1       5.976  -0.570   1.767  1.00  0.00     0.045 C 
BRANCH  12  15
HETATM   15  O1  UNL     1       6.791   0.238  -0.274  1.00  0.00    -0.390 OA
ATOM     16  H1  UNL     1       7.650   0.350   0.117  1.00  0.00     0.210 HD
ENDBRANCH  12  15
ENDBRANCH  10  12
ENDBRANCH   9  10
ENDBRANCH   7   9
ENDBRANCH   5   7
ENDBRANCH   3   5
ENDBRANCH   2   3
ENDBRANCH   1   2
BRANCH   1  17
HETATM   17  O4  UNL     1       0.228   2.613   1.382  1.00  0.00    -0.395 OA
ATOM     18  H4  UNL     1      -0.415   2.329   2.021  1.00  0.00     0.210 HD
ENDBRANCH   1  17
BRANCH   1  19
HETATM   19  C13 UNL     1      -1.286   1.746  -0.279  1.00  0.00     0.111 C 
BRANCH  19  20
HETATM   20  C14 UNL     1      -2.254   1.348   0.734  1.00  0.00     0.139 C 
HETATM   21  O5  UNL     1      -2.184   2.008   1.761  1.00  0.00    -0.297 OA
BRANCH  20  22
HETATM   22  C15 UNL     1      -3.260   0.290   0.667  1.00  0.00     0.034 C 
HETATM   23  C16 UNL     1      -4.029   0.265   1.965  1.00  0.00     0.025 C 
HETATM   24  C17 UNL     1      -2.631  -1.102   0.515  1.00  0.00     0.019 C 
HETATM   25  C18 UNL     1      -3.666  -2.156   0.677  1.00  0.00     0.010 C 
HETATM   26  C19 UNL     1      -4.898  -1.994  -0.115  1.00  0.00    -0.046 C 
HETATM   27  C20 UNL     1      -6.048  -2.628   0.690  1.00  0.00     0.015 C 
HETATM   28  C21 UNL     1      -4.842  -2.867  -1.377  1.00  0.00     0.015 C 
HETATM   29  C22 UNL     1      -5.319  -0.595  -0.415  1.00  0.00     0.030 C 
HETATM   30  C23 UNL     1      -4.218   0.402  -0.489  1.00  0.00     0.030 C 
HETATM   31  C24 UNL     1      -4.804   1.793  -0.510  1.00  0.00     0.029 C 
HETATM   32  S1  UNL     1      -3.369   0.045  -2.078  1.00  0.00    -0.086 SA
ENDBRANCH  20  22
ENDBRANCH  19  20
ENDBRANCH   1  19
TORSDOF 12
