REMARK  14 active torsions:
REMARK  status: ('A' for Active; 'I' for Inactive)
REMARK    1  A    between atoms: C2_2  and  O2_4 
REMARK    2  A    between atoms: O2_4  and  C3_5 
REMARK    3  A    between atoms: C3_5  and  C4_6 
REMARK    4  A    between atoms: C4_6  and  O4_8 
REMARK    5  A    between atoms: O4_8  and  C5_9 
REMARK    6  A    between atoms: C7_11  and  O5_12 
REMARK    7  A    between atoms: C8_14  and  C9_15 
REMARK    8  A    between atoms: C9_15  and  C10_16 
REMARK    9  A    between atoms: C11_17  and  C13_19 
REMARK   10  A    between atoms: C13_19  and  C14_20 
REMARK   11  A    between atoms: C14_20  and  C15_21 
REMARK   12  A    between atoms: C19_25  and  O6_26 
REMARK   13  A    between atoms: C20_28  and  C21_29 
REMARK   14  A    between atoms: C21_29  and  C22_30 
ROOT
HETATM    1  C5  UNL     1      -2.082  -0.117  -0.641  1.00  0.00     0.091 A 
HETATM    2  C6  UNL     1      -0.880   0.024  -1.344  1.00  0.00     0.075 A 
HETATM    3  C7  UNL     1       0.326  -0.437  -0.808  1.00  0.00     0.077 A 
HETATM    4  C8  UNL     1       0.282  -1.021   0.414  1.00  0.00     0.012 A 
HETATM    5  C19 UNL     1      -0.906  -1.174   1.136  1.00  0.00     0.084 A 
HETATM    6  C20 UNL     1      -2.106  -0.706   0.583  1.00  0.00     0.013 A 
ENDROOT
BRANCH   4   7
HETATM    7  C9  UNL     1       1.566  -1.489   1.066  1.00  0.00     0.072 C 
BRANCH   7   8
HETATM    8  C10 UNL     1       2.275  -0.371   1.711  1.00  0.00    -0.020 C 
HETATM    9  C11 UNL     1       3.527   0.004   1.673  1.00  0.00    -0.087 C 
HETATM   10  C12 UNL     1       3.935   1.230   2.468  1.00  0.00     0.043 C 
BRANCH   9  11
HETATM   11  C13 UNL     1       4.546  -0.764   0.937  1.00  0.00     0.037 C 
BRANCH  11  12
HETATM   12  C14 UNL     1       5.254  -0.077  -0.168  1.00  0.00     0.031 C 
BRANCH  12  13
HETATM   13  C15 UNL     1       6.016   1.129   0.155  1.00  0.00    -0.024 C 
HETATM   14  C16 UNL     1       7.319   1.264   0.035  1.00  0.00    -0.091 C 
HETATM   15  C17 UNL     1       7.978   2.536   0.395  1.00  0.00     0.042 C 
HETATM   16  C18 UNL     1       8.138   0.140  -0.463  1.00  0.00     0.042 C 
ENDBRANCH  12  13
ENDBRANCH  11  12
ENDBRANCH   9  11
ENDBRANCH   7   8
ENDBRANCH   4   7
BRANCH   3  17
HETATM   17  O5  UNL     1       1.495  -0.286  -1.538  1.00  0.00    -0.360 OA
ATOM     18  H5  UNL     1       2.315  -0.599  -1.174  1.00  0.00     0.217 HD
ENDBRANCH   3  17
BRANCH   5  19
HETATM   19  O6  UNL     1      -0.852  -1.776   2.357  1.00  0.00    -0.359 OA
ATOM     20  H6  UNL     1      -1.659  -1.880   2.847  1.00  0.00     0.217 HD
ENDBRANCH   5  19
BRANCH   6  21
HETATM   21  C21 UNL     1      -3.362  -0.857   1.337  1.00  0.00     0.072 C 
BRANCH  21  22
HETATM   22  C22 UNL     1      -4.213  -1.983   0.905  1.00  0.00    -0.020 C 
HETATM   23  C23 UNL     1      -5.489  -1.941   0.581  1.00  0.00    -0.091 C 
HETATM   24  C24 UNL     1      -6.356  -0.737   0.582  1.00  0.00     0.042 C 
HETATM   25  C25 UNL     1      -6.161  -3.235   0.164  1.00  0.00     0.042 C 
ENDBRANCH  21  22
ENDBRANCH   6  21
BRANCH   1  26
HETATM   26  O4  UNL     1      -3.234   0.366  -1.233  1.00  0.00    -0.277 OA
BRANCH  26  27
HETATM   27  C4  UNL     1      -3.759  -0.236  -2.395  1.00  0.00     0.288 C 
HETATM   28  O3  UNL     1      -3.097  -1.225  -2.818  1.00  0.00    -0.262 OA
BRANCH  27  29
HETATM   29  C3  UNL     1      -4.985   0.241  -3.077  1.00  0.00     0.290 C 
BRANCH  29  30
HETATM   30  O2  UNL     1      -5.567   1.368  -2.487  1.00  0.00    -0.312 OA
BRANCH  30  31
HETATM   31  C2  UNL     1      -4.923   2.570  -2.382  1.00  0.00     0.255 C 
HETATM   32  C1  UNL     1      -5.558   3.776  -1.743  1.00  0.00     0.126 C 
HETATM   33  O1  UNL     1      -3.761   2.682  -2.831  1.00  0.00    -0.266 OA
ENDBRANCH  30  31
ENDBRANCH  29  30
ENDBRANCH  27  29
ENDBRANCH  26  27
ENDBRANCH   1  26
TORSDOF 14
