REMARK  15 active torsions:
REMARK  status: ('A' for Active; 'I' for Inactive)
REMARK    1  A    between atoms: C2_2  and  O2_4 
REMARK    2  A    between atoms: O2_4  and  C3_5 
REMARK    3  A    between atoms: C3_5  and  C4_6 
REMARK    4  A    between atoms: C4_6  and  C21_30 
REMARK    5  A    between atoms: C5_7  and  C6_8 
REMARK    6  A    between atoms: C6_8  and  C7_9 
REMARK    7  A    between atoms: C6_8  and  C8_11 
REMARK    8  A    between atoms: C8_11  and  O4_12 
REMARK    9  A    between atoms: C8_11  and  C9_14 
REMARK   10  A    between atoms: C10_15  and  C11_16 
REMARK   11  A    between atoms: C13_18  and  O5_19 
REMARK   12  A    between atoms: C14_21  and  O6_22 
REMARK   13  A    between atoms: C15_24  and  C16_25 
REMARK   14  A    between atoms: C21_30  and  C22_31 
REMARK   15  A    between atoms: C22_31  and  C23_32 
ROOT
HETATM    1  C8  UNL     1       0.280  -2.290   1.784  1.00  0.00     0.155 C 
ENDROOT
BRANCH   1   2
HETATM    2  C6  UNL     1       0.863  -0.898   2.036  1.00  0.00     0.102 C 
BRANCH   2   3
HETATM    3  C5  UNL     1       2.316  -1.048   2.206  1.00  0.00    -0.007 C 
HETATM    4  C4  UNL     1       3.273  -0.510   1.490  1.00  0.00    -0.059 C 
BRANCH   4   5
HETATM    5  C3  UNL     1       4.693  -0.782   1.819  1.00  0.00     0.212 C 
BRANCH   5   6
HETATM    6  O2  UNL     1       5.403   0.400   2.128  1.00  0.00    -0.317 OA
BRANCH   6   7
HETATM    7  C2  UNL     1       5.035   1.211   3.183  1.00  0.00     0.255 C 
HETATM    8  C1  UNL     1       5.780   2.464   3.518  1.00  0.00     0.126 C 
HETATM    9  O1  UNL     1       4.052   0.886   3.875  1.00  0.00    -0.266 OA
ENDBRANCH   6   7
ENDBRANCH   5   6
ENDBRANCH   4   5
BRANCH   4  10
HETATM   10  C21 UNL     1       2.985   0.372   0.348  1.00  0.00     0.040 C 
BRANCH  10  11
HETATM   11  C22 UNL     1       3.592  -0.267  -0.893  1.00  0.00     0.031 C 
BRANCH  11  12
HETATM   12  C23 UNL     1       3.318   0.598  -2.069  1.00  0.00    -0.024 C 
HETATM   13  C24 UNL     1       4.306   1.100  -2.765  1.00  0.00    -0.091 C 
HETATM   14  C25 UNL     1       4.017   1.961  -3.935  1.00  0.00     0.042 C 
HETATM   15  C26 UNL     1       5.708   0.813  -2.390  1.00  0.00     0.042 C 
ENDBRANCH  11  12
ENDBRANCH  10  11
ENDBRANCH   4  10
ENDBRANCH   2   3
BRANCH   2  16
HETATM   16  C7  UNL     1       0.262  -0.459   3.348  1.00  0.00     0.242 C 
HETATM   17  O3  UNL     1      -0.051   0.693   3.489  1.00  0.00    -0.306 OA
ENDBRANCH   2  16
ENDBRANCH   1   2
BRANCH   1  18
HETATM   18  O4  UNL     1       0.803  -2.881   0.656  1.00  0.00    -0.391 OA
ATOM     19  H4  UNL     1       0.441  -3.745   0.500  1.00  0.00     0.210 HD
ENDBRANCH   1  18
BRANCH   1  20
HETATM   20  C9  UNL     1      -1.206  -2.176   1.619  1.00  0.00     0.006 C 
HETATM   21  C10 UNL     1      -1.673  -1.410   0.698  1.00  0.00     0.010 C 
BRANCH  21  22
HETATM   22  C11 UNL     1      -3.090  -1.231   0.457  1.00  0.00    -0.033 A 
HETATM   23  C12 UNL     1      -4.040  -1.873   1.204  1.00  0.00     0.051 A 
HETATM   24  C13 UNL     1      -5.376  -1.661   0.927  1.00  0.00     0.100 A 
HETATM   25  C14 UNL     1      -5.742  -0.818  -0.085  1.00  0.00     0.105 A 
HETATM   26  C15 UNL     1      -4.832  -0.144  -0.870  1.00  0.00    -0.014 A 
HETATM   27  C20 UNL     1      -3.510  -0.373  -0.574  1.00  0.00     0.022 A 
BRANCH  24  28
HETATM   28  O5  UNL     1      -6.361  -2.308   1.680  1.00  0.00    -0.358 OA
ATOM     29  H5  UNL     1      -7.280  -2.162   1.489  1.00  0.00     0.217 HD
ENDBRANCH  24  28
BRANCH  25  30
HETATM   30  O6  UNL     1      -7.091  -0.637  -0.326  1.00  0.00    -0.357 OA
ATOM     31  H6  UNL     1      -7.345  -0.051  -1.029  1.00  0.00     0.217 HD
ENDBRANCH  25  30
BRANCH  26  32
HETATM   32  C16 UNL     1      -5.232   0.758  -1.954  1.00  0.00    -0.021 C 
HETATM   33  C17 UNL     1      -6.076   1.917  -1.486  1.00  0.00     0.019 C 
HETATM   34  C18 UNL     1      -5.907  -0.018  -3.064  1.00  0.00     0.019 C 
HETATM   35  C19 UNL     1      -3.978   1.380  -2.583  1.00  0.00     0.019 C 
ENDBRANCH  26  32
ENDBRANCH  21  22
ENDBRANCH   1  20
TORSDOF 15
