REMARK  12 active torsions:
REMARK  status: ('A' for Active; 'I' for Inactive)
REMARK    1  A    between atoms: C2_2  and  C3_3 
REMARK    2  A    between atoms: C3_3  and  C4_4 
REMARK    3  A    between atoms: C4_4  and  C5_5 
REMARK    4  A    between atoms: C8_8  and  S1_9 
REMARK    5  A    between atoms: S1_9  and  C9_10 
REMARK    6  A    between atoms: C9_10  and  C10_11 
REMARK    7  A    between atoms: C10_11  and  C11_12 
REMARK    8  A    between atoms: C11_12  and  C12_13 
REMARK    9  A    between atoms: C12_13  and  O1_14 
REMARK   10  A    between atoms: C13_18  and  N2_19 
REMARK   11  A    between atoms: N2_19  and  C14_21 
REMARK   12  A    between atoms: N5_33  and  C23_34 
ROOT
HETATM    1  C5  UNL     1       2.411  -1.845  -0.738  1.00  0.00     0.014 A 
HETATM    2  C6  UNL     1       2.695  -0.484  -0.605  1.00  0.00     0.043 A 
HETATM    3  C7  UNL     1       1.545   0.133  -0.224  1.00  0.00     0.045 A 
HETATM    4  C8  UNL     1       1.224   1.453   0.054  1.00  0.00     0.100 A 
HETATM    5  N1  UNL     1      -0.013   1.760   0.410  1.00  0.00    -0.184 N 
ATOM      6  H1  UNL     1      -0.232   2.736   0.610  1.00  0.00     0.185 HD
HETATM    7  C13 UNL     1      -1.008   0.836   0.522  1.00  0.00     0.685 A 
HETATM    8  N4  UNL     1      -0.689  -0.438   0.251  1.00  0.00    -0.175 N 
ATOM      9  H4  UNL     1      -1.413  -1.153   0.326  1.00  0.00     0.186 HD
HETATM   10  C22 UNL     1       0.556  -0.809  -0.118  1.00  0.00     0.136 A 
HETATM   11  N5  UNL     1       1.121  -2.022  -0.441  1.00  0.00    -0.336 N 
ENDROOT
BRANCH   7  12
HETATM   12  N2  UNL     1      -2.149   1.248   0.866  1.00  0.00    -0.191 N 
ATOM     13  H2  UNL     1      -2.210   2.253   1.028  1.00  0.00     0.184 HD
BRANCH  12  14
HETATM   14  C14 UNL     1      -3.337   0.553   1.060  1.00  0.00     0.062 A 
HETATM   15  C15 UNL     1      -3.845   0.315   2.319  1.00  0.00    -0.034 A 
HETATM   16  C16 UNL     1      -3.073   0.832   3.471  1.00  0.00     0.050 C 
HETATM   17  C17 UNL     1      -5.044  -0.389   2.493  1.00  0.00     0.011 A 
HETATM   18  C18 UNL     1      -5.735  -0.855   1.405  1.00  0.00     0.028 A 
HETATM   19  C19 UNL     1      -5.241  -0.626   0.144  1.00  0.00     0.054 A 
HETATM   20  N3  UNL     1      -5.959  -1.110  -0.969  1.00  0.00    -0.102 NA
HETATM   21  C20 UNL     1      -4.046   0.075  -0.021  1.00  0.00    -0.010 A 
HETATM   22  C21 UNL     1      -3.602   0.268  -1.435  1.00  0.00     0.052 C 
ENDBRANCH  12  14
ENDBRANCH   7  12
BRANCH   4  23
HETATM   23  S1  UNL     1       2.487   2.703  -0.074  1.00  0.00    -0.111 SA
BRANCH  23  24
HETATM   24  C9  UNL     1       2.534   3.424  -1.736  1.00  0.00     0.081 C 
BRANCH  24  25
HETATM   25  C10 UNL     1       1.271   4.209  -2.031  1.00  0.00     0.013 C 
BRANCH  25  26
HETATM   26  C11 UNL     1       1.101   5.343  -1.037  1.00  0.00     0.027 C 
BRANCH  26  27
HETATM   27  C12 UNL     1      -0.143   6.135  -1.305  1.00  0.00     0.164 C 
BRANCH  27  28
HETATM   28  O1  UNL     1      -0.174   6.720  -2.563  1.00  0.00    -0.401 OA
ATOM     29  H1  UNL     1      -0.962   7.222  -2.733  1.00  0.00     0.209 HD
ENDBRANCH  27  28
ENDBRANCH  26  27
ENDBRANCH  25  26
ENDBRANCH  24  25
ENDBRANCH  23  24
ENDBRANCH   4  23
BRANCH  11  30
HETATM   30  C23 UNL     1       0.331  -3.217  -0.441  1.00  0.00     0.126 C 
HETATM   31  C24 UNL     1       0.185  -3.902   0.884  1.00  0.00     0.027 C 
ENDBRANCH  11  30
BRANCH   1  32
HETATM   32  C4  UNL     1       3.409  -2.795  -1.227  1.00  0.00     0.057 C 
BRANCH  32  33
HETATM   33  C3  UNL     1       4.440  -3.235  -0.255  1.00  0.00     0.006 C 
BRANCH  33  34
HETATM   34  C2  UNL     1       3.871  -3.920   0.939  1.00  0.00    -0.004 C 
HETATM   35  C1  UNL     1       5.008  -4.334   1.867  1.00  0.00     0.005 C 
ENDBRANCH  33  34
ENDBRANCH  32  33
ENDBRANCH   1  32
TORSDOF 12
