REMARK  9 active torsions:
REMARK  status: ('A' for Active; 'I' for Inactive)
REMARK    1  A    between atoms: C3_5  and  O1_6 
REMARK    2  A    between atoms: C4_8  and  C5_9 
REMARK    3  A    between atoms: C6_12  and  C7_13 
REMARK    4  A    between atoms: C7_13  and  O3_14 
REMARK    5  A    between atoms: C7_13  and  C8_16 
REMARK    6  A    between atoms: C8_16  and  N3_17 
REMARK    7  A    between atoms: C9_18  and  N4_19 
REMARK    8  A    between atoms: C10_20  and  C11_21 
REMARK    9  A    between atoms: C11_21  and  O4_22 
ROOT
HETATM    1  N3  UNL     1      -0.674   0.178  -0.417  1.00  0.00    -0.149 N 
HETATM    2  C9  UNL     1      -1.717   0.053   0.468  1.00  0.00     0.699 A 
HETATM    3  N6  UNL     1      -2.160   1.296   0.818  1.00  0.00    -0.173 N 
ATOM      4  H6  UNL     1      -2.923   1.492   1.466  1.00  0.00     0.186 HD
HETATM    5  C15 UNL     1      -1.449   2.195   0.190  1.00  0.00     0.160 A 
HETATM    6  C16 UNL     1      -0.529   1.540  -0.576  1.00  0.00     0.169 A 
HETATM    7  C17 UNL     1       0.345   2.280  -1.361  1.00  0.00     0.281 A 
HETATM    8  O5  UNL     1       1.213   1.764  -2.089  1.00  0.00    -0.265 OA
HETATM    9  N7  UNL     1       0.222   3.638  -1.308  1.00  0.00    -0.273 N 
ATOM     10  H7  UNL     1       0.851   4.209  -1.872  1.00  0.00     0.173 HD
HETATM   11  C18 UNL     1      -0.694   4.254  -0.543  1.00  0.00     0.330 A 
HETATM   12  O6  UNL     1      -0.791   5.516  -0.508  1.00  0.00    -0.246 OA
HETATM   13  N8  UNL     1      -1.547   3.559   0.220  1.00  0.00    -0.287 N 
HETATM   14  C19 UNL     1      -2.538   4.229   1.046  1.00  0.00     0.163 C 
ENDROOT
BRANCH   1  15
HETATM   15  C8  UNL     1       0.066  -0.794  -1.032  1.00  0.00     0.125 C 
BRANCH  15  16
HETATM   16  C7  UNL     1       1.308  -1.500  -0.781  1.00  0.00     0.194 C 
BRANCH  16  17
HETATM   17  C6  UNL     1       2.634  -0.931  -0.673  1.00  0.00     0.017 A 
HETATM   18  C2  UNL     1       3.637  -1.196  -1.672  1.00  0.00     0.017 A 
HETATM   19  C1  UNL     1       3.365  -1.940  -2.918  1.00  0.00     0.069 C 
HETATM   20  N1  UNL     1       4.794  -0.654  -1.324  1.00  0.00    -0.340 N 
HETATM   21  C3  UNL     1       4.671  -0.036  -0.165  1.00  0.00     0.156 A 
ATOM     22  H1  UNL     1       5.653  -0.707  -1.871  1.00  0.00     0.168 HD
HETATM   23  C4  UNL     1       3.314  -0.208   0.258  1.00  0.00     0.091 A 
BRANCH  21  24
HETATM   24  O1  UNL     1       5.624   0.666   0.566  1.00  0.00    -0.345 OA
ATOM     25  H1  UNL     1       5.535   1.111   1.401  1.00  0.00     0.219 HD
ENDBRANCH  21  24
BRANCH  23  26
HETATM   26  C5  UNL     1       2.889   0.265   1.558  1.00  0.00     0.270 C 
HETATM   27  N2  UNL     1       1.636   0.154   2.138  1.00  0.00    -0.057 NA
HETATM   28  O2  UNL     1       3.754   0.865   2.307  1.00  0.00    -0.271 OA
ENDBRANCH  23  26
ENDBRANCH  16  17
BRANCH  16  29
HETATM   29  O3  UNL     1       1.119  -2.340   0.421  1.00  0.00    -0.386 OA
ATOM     30  H3  UNL     1       0.248  -2.714   0.350  1.00  0.00     0.210 HD
ENDBRANCH  16  29
ENDBRANCH  15  16
ENDBRANCH   1  15
BRANCH   2  31
HETATM   31  N4  UNL     1      -2.397  -1.092   0.964  1.00  0.00    -0.136 N 
HETATM   32  C10 UNL     1      -3.226  -1.867   0.249  1.00  0.00     0.074 A 
HETATM   33  C12 UNL     1      -3.721  -2.861   1.102  1.00  0.00     0.117 A 
HETATM   34  N5  UNL     1      -3.179  -2.650   2.291  1.00  0.00    -0.353 N 
HETATM   35  C13 UNL     1      -2.377  -1.570   2.201  1.00  0.00     0.101 A 
ATOM     36  H5  UNL     1      -3.340  -3.208   3.130  1.00  0.00     0.166 HD
HETATM   37  C14 UNL     1      -1.669  -1.022   3.423  1.00  0.00     0.090 C 
BRANCH  32  38
HETATM   38  C11 UNL     1      -3.671  -1.746  -1.183  1.00  0.00     0.223 C 
BRANCH  38  39
HETATM   39  O4  UNL     1      -4.877  -2.431  -1.340  1.00  0.00    -0.395 OA
ATOM     40  H4  UNL     1      -5.158  -2.355  -2.244  1.00  0.00     0.209 HD
ENDBRANCH  38  39
ENDBRANCH  32  38
ENDBRANCH   2  31
TORSDOF 9
