REMARK  8 active torsions:
REMARK  status: ('A' for Active; 'I' for Inactive)
REMARK    1  A    between atoms: C5_9  and  N4_10 
REMARK       I    between atoms: N4_10  and  C6_12 
REMARK    2  A    between atoms: C6_12  and  C7_14 
REMARK    3  A    between atoms: C7_14  and  S1_15 
REMARK    4  A    between atoms: S1_15  and  C8_16 
REMARK    5  A    between atoms: C11_23  and  N7_24 
REMARK    6  A    between atoms: C12_29  and  N9_30 
REMARK    7  A    between atoms: N9_30  and  N10_32 
REMARK    8  A    between atoms: C13_34  and  C15_37 
ROOT
HETATM    1  N10 UNL     1       5.507   1.084   0.388  1.00  0.00    -0.272 N 
ATOM      2  H10 UNL     1       5.580   2.058   0.683  1.00  0.00     0.188 HD
HETATM    3  C13 UNL     1       6.554   0.354   0.434  1.00  0.00     0.194 C 
HETATM    4  C14 UNL     1       6.625  -1.024   0.059  1.00  0.00     0.124 C 
HETATM    5  N11 UNL     1       6.678  -2.150  -0.227  1.00  0.00    -0.190 NA
ENDROOT
BRANCH   3   6
HETATM    6  C15 UNL     1       7.806   0.964   0.897  1.00  0.00     0.293 C 
HETATM    7  N12 UNL     1       7.835   2.329   1.274  1.00  0.00    -0.055 NA
HETATM    8  O2  UNL     1       8.888   0.316   0.977  1.00  0.00    -0.269 OA
ENDBRANCH   3   6
BRANCH   1   9
HETATM    9  N9  UNL     1       4.303   0.625  -0.035  1.00  0.00    -0.131 N 
ATOM     10  H9  UNL     1       4.013   1.000  -0.938  1.00  0.00     0.205 HD
BRANCH   9  11
HETATM   11  C12 UNL     1       3.467  -0.182   0.478  1.00  0.00     0.699 A 
HETATM   12  N8  UNL     1       3.636  -0.795   1.658  1.00  0.00    -0.173 N 
HETATM   13  C11 UNL     1       2.706  -1.664   2.163  1.00  0.00     0.144 A 
ATOM     14  H8  UNL     1       4.482  -0.609   2.196  1.00  0.00     0.186 HD
HETATM   15  C10 UNL     1       1.561  -1.916   1.439  1.00  0.00     0.108 A 
HETATM   16  N6  UNL     1       0.603  -2.776   1.898  1.00  0.00    -0.347 N 
HETATM   17  C16 UNL     1       1.377  -1.297   0.236  1.00  0.00     0.113 A 
HETATM   18  C9  UNL     1      -0.502  -3.001   1.165  1.00  0.00     0.182 A 
ATOM     19  H6  UNL     1       0.726  -3.246   2.795  1.00  0.00     0.167 HD
HETATM   20  N5  UNL     1      -0.694  -2.400  -0.019  1.00  0.00    -0.345 N 
HETATM   21  C8  UNL     1       0.225  -1.545  -0.509  1.00  0.00     0.101 A 
ATOM     22  H5  UNL     1      -1.542  -2.592  -0.552  1.00  0.00     0.167 HD
HETATM   23  N13 UNL     1       2.323  -0.448  -0.223  1.00  0.00    -0.185 N 
ATOM     24  H13 UNL     1       2.179   0.010  -1.123  1.00  0.00     0.184 HD
BRANCH  13  25
HETATM   25  N7  UNL     1       2.875  -2.241   3.278  1.00  0.00    -0.383 N 
ATOM     26  H72 UNL     1       2.182  -2.888   3.654  1.00  0.00     0.157 HD
ATOM     27  H71 UNL     1       3.723  -2.054   3.814  1.00  0.00     0.157 HD
ENDBRANCH  13  25
BRANCH  21  28
HETATM   28  S1  UNL     1       0.093  -0.691  -2.042  1.00  0.00    -0.101 SA
BRANCH  28  29
HETATM   29  C7  UNL     1      -1.366  -1.005  -2.997  1.00  0.00     0.184 C 
BRANCH  29  30
HETATM   30  C6  UNL     1      -2.637  -0.518  -2.410  1.00  0.00     0.232 C 
HETATM   31  N4  UNL     1      -2.713   0.164  -1.179  1.00  0.00    -0.322 N 
ATOM     32  H4  UNL     1      -1.839   0.325  -0.679  1.00  0.00     0.169 HD
HETATM   33  O1  UNL     1      -3.693  -0.731  -3.049  1.00  0.00    -0.272 OA
BRANCH  31  34
HETATM   34  C5  UNL     1      -3.896   0.642  -0.582  1.00  0.00     0.101 A 
HETATM   35  C2  UNL     1      -4.785   0.004   0.261  1.00  0.00     0.052 A 
HETATM   36  C1  UNL     1      -4.685  -1.388   0.735  1.00  0.00     0.072 C 
HETATM   37  N1  UNL     1      -5.763   0.885   0.574  1.00  0.00    -0.300 N 
HETATM   38  N2  UNL     1      -5.560   2.026  -0.006  1.00  0.00    -0.281 N 
ATOM     39  H1  UNL     1      -6.554   0.679   1.184  1.00  0.00     0.187 HD
HETATM   40  C3  UNL     1      -6.381   3.241   0.073  1.00  0.00     0.179 C 
HETATM   41  C4  UNL     1      -4.414   1.929  -0.735  1.00  0.00     0.161 A 
HETATM   42  N3  UNL     1      -3.823   2.952  -1.519  1.00  0.00    -0.079 NA
ENDBRANCH  31  34
ENDBRANCH  29  30
ENDBRANCH  28  29
ENDBRANCH  21  28
ENDBRANCH   9  11
ENDBRANCH   1   9
TORSDOF 8
