REMARK  7 active torsions:
REMARK  status: ('A' for Active; 'I' for Inactive)
REMARK    1  A    between atoms: O1_2  and  C2_3 
REMARK    2  A    between atoms: C3_5  and  C4_6 
REMARK    3  A    between atoms: C4_6  and  O3_7 
REMARK    4  A    between atoms: O3_7  and  S1_8 
REMARK    5  A    between atoms: C8_15  and  N1_16 
REMARK    6  A    between atoms: N1_16  and  S2_18 
REMARK    7  A    between atoms: C10_22  and  O9_23 
ROOT
HETATM    1  C2  UNL     1      -0.005  -0.791  -0.883  1.00  0.00     0.291 C 
HETATM    2  O2  UNL     1       0.881   0.133  -1.171  1.00  0.00    -0.340 OA
HETATM    3  C3  UNL     1       1.608   0.890  -0.270  1.00  0.00     0.215 C 
HETATM    4  C5  UNL     1       0.793   1.242   0.818  1.00  0.00    -0.149 C 
HETATM    5  C6  UNL     1       0.044   1.749   1.883  1.00  0.00     0.085 C 
HETATM    6  C7  UNL     1      -1.338   1.029   1.803  1.00  0.00     0.040 C 
HETATM    7  C8  UNL     1      -1.762   0.553   0.479  1.00  0.00     0.127 C 
HETATM    8  C10 UNL     1      -1.308  -0.675  -0.186  1.00  0.00     0.196 C 
ENDROOT
BRANCH   3   9
HETATM    9  C4  UNL     1       2.841   0.118   0.148  1.00  0.00     0.236 C 
BRANCH   9  10
HETATM   10  O3  UNL     1       3.649  -0.194  -0.933  1.00  0.00    -0.254 OA
BRANCH  10  11
HETATM   11  S1  UNL     1       5.011  -1.046  -0.476  1.00  0.00     0.251 S 
HETATM   12  O4  UNL     1       5.560  -0.558   0.836  1.00  0.00    -0.572 OA
HETATM   13  O5  UNL     1       4.685  -2.516  -0.272  1.00  0.00    -0.572 OA
HETATM   14  O6  UNL     1       6.235  -0.927  -1.611  1.00  0.00    -0.572 OA
ENDBRANCH  10  11
ENDBRANCH   9  10
ENDBRANCH   3   9
BRANCH   1  15
HETATM   15  O1  UNL     1       0.743  -1.794  -0.183  1.00  0.00    -0.363 OA
HETATM   16  C1  UNL     1       0.842  -2.975  -0.850  1.00  0.00     0.204 C 
ENDBRANCH   1  15
BRANCH   8  17
HETATM   17  O9  UNL     1      -1.648  -1.855   0.512  1.00  0.00    -0.389 OA
ATOM     18  H9  UNL     1      -2.483  -1.781   0.959  1.00  0.00     0.210 HD
ENDBRANCH   8  17
BRANCH   7  19
HETATM   19  N1  UNL     1      -3.252   0.419   0.628  1.00  0.00    -0.312 N 
ATOM     20  H1  UNL     1      -3.666  -0.274   1.251  1.00  0.00     0.172 HD
BRANCH  19  21
HETATM   21  S2  UNL     1      -4.193   1.454  -0.270  1.00  0.00     0.223 S 
HETATM   22  C9  UNL     1      -3.943   1.234  -2.041  1.00  0.00     0.185 C 
HETATM   23  O7  UNL     1      -5.633   1.058  -0.043  1.00  0.00    -0.206 OA
HETATM   24  O8  UNL     1      -4.115   2.899   0.095  1.00  0.00    -0.206 OA
ENDBRANCH  19  21
ENDBRANCH   7  19
TORSDOF 7
