REMARK  8 active torsions:
REMARK  status: ('A' for Active; 'I' for Inactive)
REMARK    1  A    between atoms: C2_2  and  O1_3 
REMARK    2  A    between atoms: O1_3  and  C3_4 
REMARK    3  A    between atoms: C3_4  and  O2_5 
REMARK    4  A    between atoms: O2_5  and  C4_6 
REMARK    5  A    between atoms: C5_7  and  C6_8 
REMARK    6  A    between atoms: C6_8  and  N1_9 
REMARK    7  A    between atoms: C11_17  and  O4_18 
REMARK    8  A    between atoms: C17_26  and  O6_27 
ROOT
HETATM    1  C4  UNL     1      -1.727  -0.767   0.206  1.00  0.00     0.165 C 
HETATM    2  C5  UNL     1      -0.415  -0.599  -0.531  1.00  0.00     0.056 C 
HETATM    3  C12 UNL     1       0.072  -1.845  -1.171  1.00  0.00     0.020 C 
HETATM    4  C13 UNL     1      -0.997  -2.877  -1.415  1.00  0.00     0.029 A 
HETATM    5  C14 UNL     1      -0.457  -4.292  -1.395  1.00  0.00     0.043 A 
HETATM    6  C15 UNL     1      -1.189  -4.479  -0.083  1.00  0.00     0.161 A 
HETATM    7  O5  UNL     1      -2.549  -4.326  -0.137  1.00  0.00    -0.366 OA
HETATM    8  C16 UNL     1      -1.735  -3.239  -0.162  1.00  0.00     0.119 A 
HETATM    9  C17 UNL     1      -1.938  -2.139   0.787  1.00  0.00     0.185 C 
ENDROOT
BRANCH   2  10
HETATM   10  C6  UNL     1       0.608   0.113   0.287  1.00  0.00     0.073 C 
BRANCH  10  11
HETATM   11  N1  UNL     1       1.863   0.373  -0.215  1.00  0.00    -0.336 N 
HETATM   12  C7  UNL     1       2.826  -0.586  -0.470  1.00  0.00     0.166 C 
HETATM   13  C8  UNL     1       4.229  -0.087  -0.476  1.00  0.00     0.257 C 
HETATM   14  O3  UNL     1       5.134  -0.901  -0.780  1.00  0.00    -0.267 OA
HETATM   15  N2  UNL     1       4.575   1.230  -0.161  1.00  0.00    -0.348 N 
HETATM   16  C9  UNL     1       3.512   2.142   0.194  1.00  0.00     0.129 C 
ATOM     17  H2  UNL     1       5.547   1.538  -0.181  1.00  0.00     0.163 HD
HETATM   18  C10 UNL     1       3.461   2.236   1.695  1.00  0.00     0.036 C 
HETATM   19  C11 UNL     1       2.198   1.748  -0.419  1.00  0.00     0.246 C 
BRANCH  19  20
HETATM   20  O4  UNL     1       2.197   2.141  -1.756  1.00  0.00    -0.374 OA
ATOM     21  H4  UNL     1       2.420   3.055  -1.892  1.00  0.00     0.212 HD
ENDBRANCH  19  20
ENDBRANCH  10  11
ENDBRANCH   2  10
BRANCH   1  22
HETATM   22  O2  UNL     1      -2.805  -0.417  -0.591  1.00  0.00    -0.358 OA
BRANCH  22  23
HETATM   23  C3  UNL     1      -3.494   0.676  -0.119  1.00  0.00     0.338 C 
BRANCH  23  24
HETATM   24  O1  UNL     1      -2.712   1.830  -0.028  1.00  0.00    -0.367 OA
BRANCH  24  25
HETATM   25  C2  UNL     1      -3.562   2.834   0.465  1.00  0.00     0.166 C 
HETATM   26  C1  UNL     1      -2.822   4.148   0.608  1.00  0.00     0.033 C 
ENDBRANCH  24  25
ENDBRANCH  23  24
ENDBRANCH  22  23
ENDBRANCH   1  22
BRANCH   9  27
HETATM   27  O6  UNL     1      -1.118  -2.331   1.907  1.00  0.00    -0.390 OA
ATOM     28  H6  UNL     1      -1.251  -3.197   2.274  1.00  0.00     0.210 HD
ENDBRANCH   9  27
TORSDOF 8
