REMARK  10 active torsions:
REMARK  status: ('A' for Active; 'I' for Inactive)
REMARK       I    between atoms: C2_2  and  N1_4 
REMARK    1  A    between atoms: N1_4  and  C3_6 
REMARK    2  A    between atoms: C4_9  and  N3_10 
REMARK    3  A    between atoms: N3_10  and  C5_12 
REMARK    4  A    between atoms: C5_12  and  C6_13 
REMARK    5  A    between atoms: C6_13  and  C7_14 
REMARK    6  A    between atoms: C7_14  and  N4_15 
REMARK    7  A    between atoms: N4_15  and  C8_17 
REMARK    8  A    between atoms: C13_25  and  N6_26 
REMARK    9  A    between atoms: N6_26  and  N7_28 
REMARK   10  A    between atoms: N9_33  and  O3_34 
ROOT
HETATM    1  C3  UNL     1       4.271   0.199   0.090  1.00  0.00     0.741 A 
HETATM    2  N2  UNL     1       3.309  -0.496  -0.522  1.00  0.00    -0.019 N 
ATOM      3  H2  UNL     1       3.382  -1.509  -0.614  1.00  0.00     0.203 HD
HETATM    4  C4  UNL     1       2.244   0.157  -1.014  1.00  0.00     0.707 A 
HETATM    5  N5  UNL     1       2.112   1.475  -0.915  1.00  0.00    -0.018 N 
ATOM      6  H5  UNL     1       1.292   1.945  -1.299  1.00  0.00     0.203 HD
HETATM    7  C13 UNL     1       3.093   2.188  -0.291  1.00  0.00     0.754 A 
HETATM    8  N9  UNL     1       4.158   1.545   0.204  1.00  0.00     0.129 N 
ENDROOT
BRANCH   4   9
HETATM    9  N3  UNL     1       1.362  -0.553  -1.590  1.00  0.00    -0.225 N 
ATOM     10  H3  UNL     1       1.537  -1.557  -1.631  1.00  0.00     0.177 HD
BRANCH   9  11
HETATM   11  C5  UNL     1       0.175  -0.098  -2.174  1.00  0.00     0.143 C 
BRANCH  11  12
HETATM   12  C6  UNL     1      -1.052  -0.402  -1.306  1.00  0.00     0.064 C 
BRANCH  12  13
HETATM   13  C7  UNL     1      -0.958   0.224   0.031  1.00  0.00     0.057 C 
BRANCH  13  14
HETATM   14  N4  UNL     1      -1.998  -0.019   0.912  1.00  0.00    -0.397 N 
ATOM     15  H4  UNL     1      -1.804  -0.596   1.730  1.00  0.00     0.159 HD
BRANCH  14  16
HETATM   16  C8  UNL     1      -3.297   0.474   0.755  1.00  0.00     0.084 C 
HETATM   17  C9  UNL     1      -4.015  -0.116  -0.407  1.00  0.00     0.051 C 
HETATM   18  C10 UNL     1      -5.484  -0.388  -0.089  1.00  0.00     0.169 C 
HETATM   19  O2  UNL     1      -5.684  -1.143   1.032  1.00  0.00    -0.391 OA
HETATM   20  C11 UNL     1      -4.624  -1.212   1.905  1.00  0.00     0.169 C 
HETATM   21  C12 UNL     1      -4.057   0.167   2.067  1.00  0.00     0.051 C 
ENDBRANCH  14  16
ENDBRANCH  13  14
ENDBRANCH  12  13
ENDBRANCH  11  12
ENDBRANCH   9  11
ENDBRANCH   4   9
BRANCH   1  22
HETATM   22  N1  UNL     1       5.290  -0.424   0.561  1.00  0.00    -0.157 N 
HETATM   23  C2  UNL     1       5.357  -1.834   0.413  1.00  0.00     0.232 C 
HETATM   24  C1  UNL     1       4.762  -2.763   1.412  1.00  0.00     0.118 C 
HETATM   25  O1  UNL     1       5.941  -2.288  -0.600  1.00  0.00    -0.273 OA
ATOM     26  H1  UNL     1       6.038   0.085   1.033  1.00  0.00     0.187 HD
ENDBRANCH   1  22
BRANCH   7  27
HETATM   27  N6  UNL     1       2.990   3.594  -0.163  1.00  0.00    -0.115 N 
ATOM     28  H6  UNL     1       2.526   4.001   0.649  1.00  0.00     0.207 HD
BRANCH  27  29
HETATM   29  N7  UNL     1       3.466   4.330  -1.042  1.00  0.00    -0.235 N 
HETATM   30  N8  UNL     1       4.145   5.229  -1.532  1.00  0.00    -0.330 N 
ATOM     31  H82 UNL     1       4.575   5.567  -0.671  1.00  0.00     0.178 HD
ATOM     32  H81 UNL     1       4.536   5.834  -2.254  1.00  0.00     0.178 HD
ATOM     33  H7  UNL     1       3.010   3.956  -1.875  1.00  0.00     0.208 HD
ENDBRANCH  27  29
ENDBRANCH   7  27
BRANCH   8  34
HETATM   34  O3  UNL     1       5.169   2.228   0.841  1.00  0.00    -0.256 OA
ATOM     35  H3  UNL     1       5.090   3.171   0.921  1.00  0.00     0.246 HD
ENDBRANCH   8  34
TORSDOF 10
