REMARK  6 active torsions:
REMARK  status: ('A' for Active; 'I' for Inactive)
REMARK    1  A    between atoms: C2_2  and  C3_3 
REMARK    2  A    between atoms: C3_3  and  C4_4 
REMARK    3  A    between atoms: N1_6  and  N2_7 
REMARK    4  A    between atoms: C8_15  and  C9_16 
REMARK    5  A    between atoms: C12_19  and  C13_20 
REMARK    6  A    between atoms: C13_20  and  N4_21 
ROOT
HETATM    1  C9  UNL     1       1.257   0.484   0.592  1.00  0.00     0.157 C 
HETATM    2  C10 UNL     1       0.977  -0.652  -0.342  1.00  0.00     0.068 C 
HETATM    3  C11 UNL     1       2.080  -1.686  -0.456  1.00  0.00     0.040 C 
HETATM    4  C12 UNL     1       3.406  -1.259   0.065  1.00  0.00     0.077 C 
HETATM    5  C14 UNL     1       3.152  -0.630   1.419  1.00  0.00     0.204 C 
HETATM    6  O2  UNL     1       1.921  -0.156   1.670  1.00  0.00    -0.354 OA
HETATM    7  N5  UNL     1       3.921  -0.167  -0.801  1.00  0.00    -0.351 N 
ATOM      8  H5  UNL     1       4.724  -0.321  -1.410  1.00  0.00     0.163 HD
HETATM    9  C15 UNL     1       3.317   1.008  -0.766  1.00  0.00     0.189 C 
HETATM   10  N6  UNL     1       3.914   1.980  -1.654  1.00  0.00    -0.064 NA
HETATM   11  N7  UNL     1       2.199   1.451   0.007  1.00  0.00    -0.325 N 
HETATM   12  C16 UNL     1       2.032   2.866   0.208  1.00  0.00     0.156 C 
ENDROOT
BRANCH   1  13
HETATM   13  C8  UNL     1       0.038   1.096   1.137  1.00  0.00     0.040 C 
HETATM   14  C2  UNL     1      -1.012   1.729   0.419  1.00  0.00    -0.059 C 
HETATM   15  C1  UNL     1      -2.011   2.323   1.491  1.00  0.00     0.048 C 
BRANCH  14  16
HETATM   16  C3  UNL     1      -1.820   1.274  -0.693  1.00  0.00     0.040 C 
BRANCH  16  17
HETATM   17  C4  UNL     1      -2.944   0.336  -0.550  1.00  0.00     0.066 C 
HETATM   18  C5  UNL     1      -2.766  -1.018   0.002  1.00  0.00     0.208 C 
HETATM   19  N1  UNL     1      -4.063  -1.663   0.063  1.00  0.00    -0.306 N 
HETATM   20  C6  UNL     1      -5.164  -1.101  -0.652  1.00  0.00     0.171 C 
HETATM   21  C7  UNL     1      -5.236   0.400  -0.557  1.00  0.00     0.197 C 
HETATM   22  O1  UNL     1      -4.099   0.963  -0.018  1.00  0.00    -0.352 OA
BRANCH  19  23
HETATM   23  N2  UNL     1      -4.236  -2.817   0.806  1.00  0.00    -0.251 N 
HETATM   24  N3  UNL     1      -4.692  -3.869   0.262  1.00  0.00    -0.331 N 
ATOM     25  H32 UNL     1      -4.927  -3.847  -0.730  1.00  0.00     0.178 HD
ATOM     26  H31 UNL     1      -4.820  -4.720   0.810  1.00  0.00     0.178 HD
ATOM     27  H2  UNL     1      -3.996  -2.822   1.797  1.00  0.00     0.207 HD
ENDBRANCH  19  23
ENDBRANCH  16  17
ENDBRANCH  14  16
ENDBRANCH   1  13
BRANCH   4  28
HETATM   28  C13 UNL     1       4.355  -2.398   0.109  1.00  0.00     0.262 C 
BRANCH  28  29
HETATM   29  N4  UNL     1       4.540  -2.940  -1.220  1.00  0.00    -0.077 N 
ATOM     30  H43 UNL     1       3.654  -3.197  -1.655  1.00  0.00     0.274 HD
ATOM     31  H42 UNL     1       4.831  -2.225  -1.887  1.00  0.00     0.274 HD
ATOM     32  H41 UNL     1       5.193  -3.723  -1.190  1.00  0.00     0.274 HD
ENDBRANCH  28  29
ENDBRANCH   4  28
TORSDOF 6
