REMARK  8 active torsions:
REMARK  status: ('A' for Active; 'I' for Inactive)
REMARK    1  A    between atoms: S1_2  and  C2_4 
REMARK    2  A    between atoms: C2_4  and  C3_5 
REMARK    3  A    between atoms: C4_6  and  N1_7 
REMARK    4  A    between atoms: C6_12  and  C7_13 
REMARK    5  A    between atoms: C7_13  and  O2_14 
REMARK    6  A    between atoms: C8_16  and  N2_17 
REMARK       I    between atoms: N2_17  and  C9_19 
REMARK    7  A    between atoms: C9_19  and  C10_21 
REMARK    8  A    between atoms: C10_21  and  N3_22 
ROOT
HETATM    1  C3  UNL     1       2.577  -0.121   0.156  1.00  0.00     0.051 C 
HETATM    2  C4  UNL     1       3.290  -1.170   0.984  1.00  0.00     0.191 C 
HETATM    3  C5  UNL     1       2.595  -2.475   0.722  1.00  0.00     0.042 C 
HETATM    4  C6  UNL     1       1.682  -2.208  -0.441  1.00  0.00     0.034 C 
HETATM    5  C8  UNL     1       1.326  -0.724  -0.375  1.00  0.00     0.097 C 
ENDROOT
BRANCH   5   6
HETATM    6  N2  UNL     1       0.177  -0.580   0.460  1.00  0.00    -0.351 N 
HETATM    7  C9  UNL     1      -1.036  -0.083  -0.075  1.00  0.00     0.257 C 
HETATM    8  O3  UNL     1      -1.094   0.232  -1.295  1.00  0.00    -0.267 OA
ATOM      9  H2  UNL     1       0.230  -0.836   1.446  1.00  0.00     0.163 HD
BRANCH   7  10
HETATM   10  C10 UNL     1      -2.207   0.052   0.827  1.00  0.00     0.164 C 
BRANCH  10  11
HETATM   11  N3  UNL     1      -3.367   0.542   0.244  1.00  0.00    -0.361 N 
HETATM   12  C11 UNL     1      -3.430   1.870  -0.198  1.00  0.00     0.153 C 
HETATM   13  C12 UNL     1      -4.889   2.165  -0.580  1.00  0.00     0.188 C 
HETATM   14  O4  UNL     1      -5.722   1.973   0.507  1.00  0.00    -0.385 OA
HETATM   15  C13 UNL     1      -5.566   0.756   1.132  1.00  0.00     0.212 C 
HETATM   16  C14 UNL     1      -4.581  -0.156   0.408  1.00  0.00     0.089 C 
ENDBRANCH  10  11
ENDBRANCH   7  10
ENDBRANCH   5   6
BRANCH   1  17
HETATM   17  C2  UNL     1       2.391   1.087   1.003  1.00  0.00     0.117 C 
BRANCH  17  18
HETATM   18  S1  UNL     1       1.561   2.402   0.148  1.00  0.00     0.011 S 
HETATM   19  C1  UNL     1       2.501   2.884  -1.272  1.00  0.00     0.127 C 
HETATM   20  O1  UNL     1       1.320   3.718   1.159  1.00  0.00    -0.258 OA
ENDBRANCH  17  18
ENDBRANCH   1  17
BRANCH   4  21
HETATM   21  C7  UNL     1       2.348  -2.531  -1.763  1.00  0.00     0.170 C 
BRANCH  21  22
HETATM   22  O2  UNL     1       2.684  -3.883  -1.738  1.00  0.00    -0.400 OA
ATOM     23  H2  UNL     1       3.102  -4.086  -2.567  1.00  0.00     0.209 HD
ENDBRANCH  21  22
ENDBRANCH   4  21
BRANCH   2  24
HETATM   24  N1  UNL     1       4.709  -1.229   0.668  1.00  0.00    -0.075 N 
ATOM     25  H13 UNL     1       4.863  -1.374  -0.330  1.00  0.00     0.274 HD
ATOM     26  H12 UNL     1       5.150  -0.315   0.765  1.00  0.00     0.274 HD
ATOM     27  H11 UNL     1       5.189  -1.935   1.226  1.00  0.00     0.274 HD
ENDBRANCH   2  24
TORSDOF 8
