REMARK  9 active torsions:
REMARK  status: ('A' for Active; 'I' for Inactive)
REMARK    1  A    between atoms: N1_2  and  C2_3 
REMARK    2  A    between atoms: N1_2  and  S1_16 
REMARK    3  A    between atoms: C2_3  and  C3_4 
REMARK    4  A    between atoms: C5_7  and  O2_8 
REMARK    5  A    between atoms: C6_10  and  O3_11 
REMARK    6  A    between atoms: C7_13  and  O4_14 
REMARK    7  A    between atoms: S1_16  and  C8_19 
REMARK    8  A    between atoms: C8_19  and  C9_20 
REMARK    9  A    between atoms: C9_20  and  N2_21 
ROOT
HETATM    1  C2  UNL     1       1.938  -1.658   0.922  1.00  0.00     0.169 C 
ENDROOT
BRANCH   1   2
HETATM    2  N1  UNL     1       0.628  -1.403   0.447  1.00  0.00    -0.313 N 
HETATM    3  C1  UNL     1       0.163  -2.456  -0.388  1.00  0.00     0.162 C 
BRANCH   2   4
HETATM    4  S1  UNL     1      -0.443  -0.770   1.580  1.00  0.00     0.229 S 
HETATM    5  O5  UNL     1       0.260   0.211   2.474  1.00  0.00    -0.206 OA
HETATM    6  O6  UNL     1      -0.928  -1.866   2.545  1.00  0.00    -0.206 OA
BRANCH   4   7
HETATM    7  C8  UNL     1      -1.896  -0.019   0.953  1.00  0.00     0.193 C 
BRANCH   7   8
HETATM    8  C9  UNL     1      -2.761  -0.926   0.162  1.00  0.00     0.289 C 
BRANCH   8   9
HETATM    9  N2  UNL     1      -3.958  -0.307  -0.341  1.00  0.00     0.089 N 
HETATM   10  C10 UNL     1      -3.774   0.682  -1.340  1.00  0.00     0.272 C 
HETATM   11  C11 UNL     1      -5.098   1.460  -1.321  1.00  0.00     0.032 C 
HETATM   12  C12 UNL     1      -5.389   1.513   0.163  1.00  0.00     0.032 C 
HETATM   13  C13 UNL     1      -4.876   0.168   0.633  1.00  0.00     0.272 C 
ENDBRANCH   8   9
ENDBRANCH   7   8
ENDBRANCH   4   7
ENDBRANCH   2   4
ENDBRANCH   1   2
BRANCH   1  14
HETATM   14  C3  UNL     1       2.988  -0.639   0.647  1.00  0.00     0.171 C 
HETATM   15  O1  UNL     1       2.714   0.605   1.179  1.00  0.00    -0.379 OA
HETATM   16  C4  UNL     1       3.905   1.361   1.213  1.00  0.00     0.202 C 
HETATM   17  C5  UNL     1       4.369   1.659  -0.198  1.00  0.00     0.173 C 
HETATM   18  C6  UNL     1       3.376   0.989  -1.140  1.00  0.00     0.180 C 
HETATM   19  C7  UNL     1       3.387  -0.486  -0.779  1.00  0.00     0.180 C 
BRANCH  17  20
HETATM   20  O2  UNL     1       5.610   1.040  -0.465  1.00  0.00    -0.391 OA
ATOM     21  H2  UNL     1       5.901   1.227  -1.350  1.00  0.00     0.210 HD
ENDBRANCH  17  20
BRANCH  18  22
HETATM   22  O3  UNL     1       3.719   1.202  -2.475  1.00  0.00    -0.390 OA
ATOM     23  H3  UNL     1       3.100   0.784  -3.062  1.00  0.00     0.210 HD
ENDBRANCH  18  22
BRANCH  19  24
HETATM   24  O4  UNL     1       2.642  -1.194  -1.691  1.00  0.00    -0.390 OA
ATOM     25  H4  UNL     1       2.897  -1.096  -2.601  1.00  0.00     0.210 HD
ENDBRANCH  19  24
ENDBRANCH   1  14
TORSDOF 9
