REMARK  4 active torsions:
REMARK  status: ('A' for Active; 'I' for Inactive)
REMARK    1  A    between atoms: C5_6  and  C6_7 
REMARK    2  A    between atoms: C13_20  and  C14_21 
REMARK    3  A    between atoms: C15_24  and  N6_25 
REMARK    4  A    between atoms: C16_30  and  N8_31 
ROOT
HETATM    1  C1  UNL     1      -4.212   1.271  -4.396  1.00  0.00     0.104 C 
HETATM    2  C2  UNL     1      -3.547   1.679  -3.447  1.00  0.00    -0.138 C 
HETATM    3  C3  UNL     1      -2.756   2.164  -2.383  1.00  0.00     0.086 C 
HETATM    4  C4  UNL     1      -2.118   3.450  -2.569  1.00  0.00     0.107 C 
HETATM    5  N1  UNL     1      -1.600   4.476  -2.701  1.00  0.00    -0.191 NA
HETATM    6  C5  UNL     1      -2.592   1.500  -1.267  1.00  0.00     0.044 C 
ENDROOT
BRANCH   6   7
HETATM    7  C6  UNL     1      -3.204   0.220  -1.022  1.00  0.00    -0.002 A 
HETATM    8  C7  UNL     1      -4.560  -0.020  -1.225  1.00  0.00     0.102 A 
HETATM    9  N2  UNL     1      -4.840  -1.259  -0.864  1.00  0.00    -0.351 N 
HETATM   10  C8  UNL     1      -3.719  -1.838  -0.433  1.00  0.00     0.119 A 
ATOM     11  H2  UNL     1      -5.759  -1.699  -0.908  1.00  0.00     0.166 HD
HETATM   12  N3  UNL     1      -3.472  -3.045   0.072  1.00  0.00    -0.338 N 
HETATM   13  C18 UNL     1      -2.649  -0.919  -0.523  1.00  0.00     0.048 A 
HETATM   14  C9  UNL     1      -2.282  -3.437   0.494  1.00  0.00     0.182 A 
ATOM     15  H3  UNL     1      -4.246  -3.706   0.137  1.00  0.00     0.168 HD
HETATM   16  N4  UNL     1      -1.284  -2.568   0.402  1.00  0.00    -0.350 N 
HETATM   17  C10 UNL     1      -1.416  -1.289  -0.105  1.00  0.00     0.065 A 
ATOM     18  H4  UNL     1      -0.362  -2.862   0.725  1.00  0.00     0.166 HD
HETATM   19  C11 UNL     1      -0.183  -0.554  -0.284  1.00  0.00     0.033 A 
HETATM   20  C12 UNL     1       0.874  -0.660   0.632  1.00  0.00     0.037 A 
HETATM   21  S1  UNL     1       0.438   0.567  -1.363  1.00  0.00    -0.099 SA
HETATM   22  C13 UNL     1       1.962   0.076   0.422  1.00  0.00     0.017 A 
HETATM   23  C17 UNL     1       1.965   0.890  -0.687  1.00  0.00     0.065 A 
BRANCH  22  24
HETATM   24  C14 UNL     1       3.155   0.065   1.328  1.00  0.00     0.147 A 
HETATM   25  N5  UNL     1       3.132  -0.707   2.429  1.00  0.00    -0.175 N 
HETATM   26  C15 UNL     1       4.165  -0.754   3.279  1.00  0.00     0.692 A 
ATOM     27  H5  UNL     1       2.305  -1.272   2.622  1.00  0.00     0.186 HD
HETATM   28  N7  UNL     1       5.229   0.010   2.979  1.00  0.00    -0.023 N 
HETATM   29  C16 UNL     1       5.270   0.781   1.892  1.00  0.00     0.692 A 
ATOM     30  H7  UNL     1       6.034  -0.000   3.605  1.00  0.00     0.203 HD
HETATM   31  N9  UNL     1       4.210   0.807   1.053  1.00  0.00    -0.175 N 
ATOM     32  H9  UNL     1       4.226   1.393   0.218  1.00  0.00     0.186 HD
BRANCH  26  33
HETATM   33  N6  UNL     1       4.172  -1.484   4.345  1.00  0.00    -0.234 N 
ATOM     34  H62 UNL     1       3.364  -2.064   4.573  1.00  0.00     0.174 HD
ATOM     35  H61 UNL     1       4.959  -1.520   4.993  1.00  0.00     0.174 HD
ENDBRANCH  26  33
BRANCH  29  36
HETATM   36  N8  UNL     1       6.286   1.514   1.598  1.00  0.00    -0.234 N 
ATOM     37  H82 UNL     1       7.086   1.494   2.231  1.00  0.00     0.174 HD
ATOM     38  H81 UNL     1       6.317   2.104   0.766  1.00  0.00     0.174 HD
ENDBRANCH  29  36
ENDBRANCH  22  24
ENDBRANCH   6   7
TORSDOF 4
