REMARK  5 active torsions:
REMARK  status: ('A' for Active; 'I' for Inactive)
REMARK    1  A    between atoms: N1_2  and  C2_4 
REMARK    2  A    between atoms: C3_7  and  C4_8 
REMARK    3  A    between atoms: C5_10  and  N3_11 
REMARK    4  A    between atoms: N3_11  and  C6_13 
REMARK    5  A    between atoms: C7_16  and  C8_17 
ROOT
HETATM    1  C6  UNL     1       1.915  -0.964   1.259  1.00  0.00     0.684 A 
HETATM    2  N4  UNL     1       2.975  -1.066   0.403  1.00  0.00    -0.186 N 
ATOM      3  H4  UNL     1       3.161  -1.859  -0.210  1.00  0.00     0.184 HD
HETATM    4  C7  UNL     1       3.733   0.037   0.493  1.00  0.00     0.109 A 
HETATM    5  C12 UNL     1       3.122   0.843   1.431  1.00  0.00     0.140 A 
HETATM    6  N8  UNL     1       2.008   0.224   1.898  1.00  0.00    -0.199 N 
ATOM      7  H8  UNL     1       1.362   0.587   2.599  1.00  0.00     0.183 HD
ENDROOT
BRANCH   1   8
HETATM    8  N3  UNL     1       0.883  -1.887   1.483  1.00  0.00    -0.170 N 
ATOM      9  H3  UNL     1       1.066  -2.771   1.958  1.00  0.00     0.186 HD
BRANCH   8  10
HETATM   10  C5  UNL     1      -0.327  -1.583   1.064  1.00  0.00     0.164 A 
HETATM   11  S1  UNL     1      -1.756  -2.493   1.192  1.00  0.00    -0.049 SA
HETATM   12  C4  UNL     1      -2.838  -1.385   0.409  1.00  0.00     0.058 A 
HETATM   13  C13 UNL     1      -1.995  -0.367   0.094  1.00  0.00     0.027 A 
HETATM   14  N9  UNL     1      -0.732  -0.487   0.435  1.00  0.00    -0.339 N 
HETATM   15  C14 UNL     1      -2.475   0.860  -0.672  1.00  0.00     0.070 C 
ATOM     16  H9  UNL     1      -0.068   0.256   0.218  1.00  0.00     0.168 HD
BRANCH  12  17
HETATM   17  C3  UNL     1      -4.318  -1.571   0.254  1.00  0.00     0.060 A 
HETATM   18  N2  UNL     1      -5.199  -0.668  -0.042  1.00  0.00    -0.335 N 
HETATM   19  C2  UNL     1      -6.481  -1.010  -0.188  1.00  0.00     0.144 A 
ATOM     20  H2  UNL     1      -4.913   0.304  -0.163  1.00  0.00     0.168 HD
HETATM   21  S2  UNL     1      -6.468  -2.683   0.103  1.00  0.00    -0.064 SA
HETATM   22  C15 UNL     1      -4.809  -2.877   0.401  1.00  0.00     0.084 A 
BRANCH  19  23
HETATM   23  N1  UNL     1      -7.491  -0.216  -0.487  1.00  0.00    -0.375 N 
HETATM   24  C1  UNL     1      -7.249   1.174  -0.688  1.00  0.00     0.148 C 
ATOM     25  H1  UNL     1      -8.435  -0.593  -0.573  1.00  0.00     0.161 HD
ENDBRANCH  19  23
ENDBRANCH  12  17
ENDBRANCH   8  10
ENDBRANCH   1   8
BRANCH   4  26
HETATM   26  C8  UNL     1       4.955   0.338  -0.245  1.00  0.00     0.135 A 
HETATM   27  N5  UNL     1       5.616   1.479  -0.061  1.00  0.00    -0.327 N 
HETATM   28  C9  UNL     1       6.757   1.782  -0.736  1.00  0.00     0.101 A 
ATOM     29  H5  UNL     1       5.252   2.153   0.613  1.00  0.00     0.169 HD
HETATM   30  N6  UNL     1       7.388   2.893  -0.547  1.00  0.00    -0.385 N 
HETATM   31  C10 UNL     1       7.257   0.878  -1.651  1.00  0.00     0.065 A 
ATOM     32  H62 UNL     1       7.018   3.561   0.129  1.00  0.00     0.157 HD
ATOM     33  H61 UNL     1       8.244   3.120  -1.053  1.00  0.00     0.157 HD
HETATM   34  C11 UNL     1       6.572  -0.307  -1.843  1.00  0.00     0.093 A 
HETATM   35  N7  UNL     1       5.448  -0.537  -1.137  1.00  0.00    -0.350 N 
ATOM     36  H7  UNL     1       4.949  -1.414  -1.286  1.00  0.00     0.166 HD
ENDBRANCH   4  26
TORSDOF 5
