REMARK  5 active torsions:
REMARK  status: ('A' for Active; 'I' for Inactive)
REMARK    1  A    between atoms: N1_1  and  C1_4 
REMARK    2  A    between atoms: C3_8  and  C4_9 
REMARK    3  A    between atoms: C6_11  and  C7_12 
REMARK    4  A    between atoms: C10_21  and  C11_22 
REMARK    5  A    between atoms: C14_27  and  N7_28 
ROOT
HETATM    1  C4  UNL     1       2.313   0.235  -0.656  1.00  0.00    -0.021 A 
HETATM    2  C5  UNL     1       1.382  -0.175   0.221  1.00  0.00     0.028 A 
HETATM    3  C6  UNL     1      -0.013  -0.054   0.052  1.00  0.00     0.023 A 
HETATM    4  C9  UNL     1      -0.507   0.547  -1.111  1.00  0.00     0.008 A 
HETATM    5  C10 UNL     1      -1.785   0.781  -1.477  1.00  0.00     0.010 A 
HETATM    6  C15 UNL     1      -1.976   1.397  -2.729  1.00  0.00     0.065 A 
HETATM    7  S1  UNL     1      -0.424   1.622  -3.303  1.00  0.00    -0.100 SA
HETATM    8  C16 UNL     1       0.466   0.961  -2.011  1.00  0.00     0.017 A 
HETATM    9  C17 UNL     1       1.842   0.820  -1.810  1.00  0.00     0.032 A 
ENDROOT
BRANCH   1  10
HETATM   10  C3  UNL     1       3.751   0.101  -0.462  1.00  0.00     0.006 A 
HETATM   11  C2  UNL     1       4.588   1.052  -1.015  1.00  0.00     0.119 A 
HETATM   12  N2  UNL     1       5.926   0.978  -0.868  1.00  0.00    -0.201 N 
HETATM   13  C1  UNL     1       6.479  -0.020  -0.182  1.00  0.00     0.675 A 
ATOM     14  H2  UNL     1       6.520   1.694  -1.286  1.00  0.00     0.183 HD
HETATM   15  N9  UNL     1       5.682  -0.954   0.362  1.00  0.00    -0.201 N 
HETATM   16  C18 UNL     1       4.333  -0.923   0.243  1.00  0.00     0.119 A 
ATOM     17  H9  UNL     1       6.110  -1.718   0.886  1.00  0.00     0.183 HD
BRANCH  13  18
HETATM   18  N1  UNL     1       7.762  -0.131  -0.015  1.00  0.00    -0.234 N 
ATOM     19  H12 UNL     1       8.367   0.578  -0.428  1.00  0.00     0.174 HD
ATOM     20  H11 UNL     1       8.186  -0.896   0.511  1.00  0.00     0.174 HD
ENDBRANCH  13  18
ENDBRANCH   1  10
BRANCH   3  21
HETATM   21  C7  UNL     1      -0.763  -0.689   1.110  1.00  0.00     0.132 A 
HETATM   22  N3  UNL     1      -1.663  -1.659   1.020  1.00  0.00    -0.336 N 
HETATM   23  C8  UNL     1      -2.096  -1.979   2.254  1.00  0.00     0.199 A 
ATOM     24  H3  UNL     1      -1.978  -2.094   0.153  1.00  0.00     0.168 HD
HETATM   25  N4  UNL     1      -1.451  -1.189   3.128  1.00  0.00    -0.295 N 
HETATM   26  N5  UNL     1      -0.643  -0.407   2.433  1.00  0.00    -0.284 N 
ATOM     27  H4  UNL     1      -1.564  -1.192   4.142  1.00  0.00     0.187 HD
ATOM     28  H5  UNL     1      -0.024   0.300   2.830  1.00  0.00     0.188 HD
ENDBRANCH   3  21
BRANCH   5  29
HETATM   29  C11 UNL     1      -3.070   0.587  -0.727  1.00  0.00     0.062 A 
HETATM   30  C12 UNL     1      -4.086  -0.150  -1.331  1.00  0.00     0.048 A 
HETATM   31  C13 UNL     1      -5.281  -0.311  -0.658  1.00  0.00     0.108 A 
HETATM   32  N6  UNL     1      -5.442   0.235   0.542  1.00  0.00    -0.202 N 
HETATM   33  C14 UNL     1      -4.466   0.952   1.140  1.00  0.00     0.676 A 
ATOM     34  H6  UNL     1      -6.330   0.109   1.027  1.00  0.00     0.183 HD
HETATM   35  N8  UNL     1      -3.307   1.103   0.479  1.00  0.00    -0.191 N 
ATOM     36  H8  UNL     1      -2.566   1.643   0.925  1.00  0.00     0.184 HD
BRANCH  33  37
HETATM   37  N7  UNL     1      -4.640   1.484   2.326  1.00  0.00    -0.234 N 
ATOM     38  H72 UNL     1      -5.520   1.369   2.828  1.00  0.00     0.174 HD
ATOM     39  H71 UNL     1      -3.903   2.025   2.778  1.00  0.00     0.174 HD
ENDBRANCH  33  37
ENDBRANCH   5  29
TORSDOF 5
