REMARK  2 active torsions:
REMARK  status: ('A' for Active; 'I' for Inactive)
REMARK    1  A    between atoms: C2_2  and  C3_3 
REMARK    2  A    between atoms: C3_3  and  C4_4 
ROOT
HETATM    1  C4  UNL     1       0.205   0.197  -0.687  1.00  0.00    -0.001 C 
HETATM    2  C5  UNL     1       0.464  -0.020  -2.164  1.00  0.00     0.019 C 
HETATM    3  C6  UNL     1      -0.406  -1.035  -0.103  1.00  0.00     0.102 C 
HETATM    4  N1  UNL     1      -1.377  -1.676  -0.994  1.00  0.00    -0.375 N 
ATOM      5  H1  UNL     1      -1.186  -2.049  -1.924  1.00  0.00     0.161 HD
HETATM    6  C7  UNL     1      -2.633  -1.684  -0.328  1.00  0.00     0.096 C 
HETATM    7 CL1  UNL     1      -4.009  -2.700  -0.712  1.00  0.00    -0.065 Cl
HETATM    8  C8  UNL     1      -2.637  -0.797   0.655  1.00  0.00     0.024 C 
HETATM    9  C9  UNL     1      -1.336  -0.134   0.687  1.00  0.00     0.058 C 
HETATM   10  C10 UNL     1      -1.168   0.856  -0.443  1.00  0.00     0.051 C 
HETATM   11  C11 UNL     1      -1.076   2.263   0.075  1.00  0.00     0.034 C 
HETATM   12 CL2  UNL     1      -2.298   0.704  -1.780  1.00  0.00    -0.118 Cl
ENDROOT
BRANCH   1  13
HETATM   13  C3  UNL     1       1.241   0.891   0.083  1.00  0.00     0.013 C 
BRANCH  13  14
HETATM   14  C2  UNL     1       2.609   0.351   0.159  1.00  0.00    -0.004 C 
HETATM   15  C1  UNL     1       2.743  -1.011   0.771  1.00  0.00     0.005 C 
ENDBRANCH  13  14
ENDBRANCH   1  13
TORSDOF 2
