REMARK  3 active torsions:
REMARK  status: ('A' for Active; 'I' for Inactive)
REMARK    1  A    between atoms: C2_2  and  C4_4 
REMARK    2  A    between atoms: C4_4  and  N1_5 
REMARK    3  A    between atoms: N1_5  and  C5_7 
ROOT
HETATM    1  C4  UNL     1      -0.850   0.242   0.772  1.00  0.00     0.067 A 
HETATM    2  C9  UNL     1      -1.170   0.083   2.225  1.00  0.00     0.079 A 
HETATM    3  C10 UNL     1      -1.674   1.318   1.570  1.00  0.00     0.141 A 
HETATM    4 CL1  UNL     1      -0.908   2.876   1.866  1.00  0.00    -0.099 Cl
HETATM    5 CL2  UNL     1      -3.409   1.405   1.354  1.00  0.00    -0.099 Cl
ENDROOT
BRANCH   1   6
HETATM    6  C2  UNL     1      -1.777  -0.480  -0.162  1.00  0.00     0.008 C 
HETATM    7  C1  UNL     1      -2.124   0.451  -1.308  1.00  0.00     0.012 C 
HETATM    8  C3  UNL     1      -1.393  -1.799  -0.659  1.00  0.00     0.012 C 
ENDBRANCH   1   6
BRANCH   1   9
HETATM    9  N1  UNL     1       0.376   0.730   0.346  1.00  0.00    -0.402 N 
ATOM     10  H1  UNL     1       0.458   1.746   0.385  1.00  0.00     0.154 HD
BRANCH   9  11
HETATM   11  C5  UNL     1       1.490   0.099  -0.115  1.00  0.00     0.015 C 
HETATM   12  C6  UNL     1       2.167  -0.900   0.805  1.00  0.00     0.037 C 
HETATM   13  C7  UNL     1       2.600   1.234  -0.156  1.00  0.00     0.037 C 
HETATM   14  C8  UNL     1       1.563  -0.444  -1.514  1.00  0.00     0.037 C 
ENDBRANCH   9  11
ENDBRANCH   1   9
TORSDOF 3
