REMARK  5 active torsions:
REMARK  status: ('A' for Active; 'I' for Inactive)
REMARK    1  A    between atoms: N2_4  and  N3_6 
REMARK    2  A    between atoms: C1_8  and  N4_9 
REMARK    3  A    between atoms: N4_9  and  C2_11 
REMARK    4  A    between atoms: C2_11  and  N5_13 
REMARK       I    between atoms: N5_13  and  C3_15 
REMARK       I    between atoms: C3_15  and  N6_17 
REMARK    5  A    between atoms: N6_17  and  N7_19 
ROOT
HETATM    1  C2  UNL     1      -0.413  -0.571  -0.132  1.00  0.00     0.180 C 
HETATM    2  S1  UNL     1       0.050  -1.977  -0.817  1.00  0.00    -0.040 SA
ENDROOT
BRANCH   1   3
HETATM    3  N4  UNL     1      -1.792  -0.386   0.245  1.00  0.00    -0.328 N 
ATOM      4  H4  UNL     1      -2.105   0.484   0.675  1.00  0.00     0.169 HD
BRANCH   3   5
HETATM    5  C1  UNL     1      -2.699  -1.442   0.003  1.00  0.00     0.201 C 
HETATM    6  N3  UNL     1      -3.942  -1.247  -0.338  1.00  0.00    -0.282 N 
ATOM      7  H3  UNL     1      -4.578  -2.026  -0.508  1.00  0.00     0.189 HD
BRANCH   6   8
HETATM    8  N2  UNL     1      -4.359   0.069  -0.459  1.00  0.00    -0.248 N 
HETATM    9  N1  UNL     1      -5.511   0.427  -0.822  1.00  0.00    -0.331 N 
ATOM     10  H12 UNL     1      -6.173  -0.318  -1.039  1.00  0.00     0.178 HD
ATOM     11  H11 UNL     1      -5.818   1.396  -0.911  1.00  0.00     0.178 HD
ATOM     12  H2  UNL     1      -3.684   0.801  -0.238  1.00  0.00     0.207 HD
ENDBRANCH   6   8
ENDBRANCH   3   5
ENDBRANCH   1   3
BRANCH   1  13
HETATM   13  N5  UNL     1       0.543   0.447   0.084  1.00  0.00    -0.284 N 
HETATM   14  C3  UNL     1       1.891   0.269  -0.283  1.00  0.00     0.340 C 
HETATM   15  O1  UNL     1       2.256  -0.792  -0.804  1.00  0.00    -0.245 OA
HETATM   16  N6  UNL     1       2.848   1.307  -0.059  1.00  0.00    -0.258 N 
ATOM     17  H6  UNL     1       2.579   2.193   0.368  1.00  0.00     0.191 HD
ATOM     18  H5  UNL     1       0.252   1.325   0.513  1.00  0.00     0.173 HD
BRANCH  16  19
HETATM   19  N7  UNL     1       4.163   1.059  -0.448  1.00  0.00    -0.341 N 
ATOM     20  H72 UNL     1       4.416   0.167  -0.874  1.00  0.00     0.177 HD
ATOM     21  H71 UNL     1       4.846   1.800  -0.288  1.00  0.00     0.177 HD
ENDBRANCH  16  19
ENDBRANCH   1  13
TORSDOF 5
