REMARK  1 active torsions:
REMARK  status: ('A' for Active; 'I' for Inactive)
REMARK       I    between atoms: C1_2  and  N2_4 
REMARK    1  A    between atoms: C2_6  and  C3_7 
ROOT
HETATM    1  C3  UNL     1      -0.463   0.135  -0.093  1.00  0.00     0.089 A 
HETATM    2  C4  UNL     1      -1.682  -0.466  -0.283  1.00  0.00     0.137 A 
HETATM    3  N3  UNL     1      -1.706  -1.822  -0.706  1.00  0.00    -0.081 NA
HETATM    4  N4  UNL     1      -2.822   0.232  -0.067  1.00  0.00    -0.296 N 
ATOM      5  H4  UNL     1      -3.732  -0.208  -0.206  1.00  0.00     0.171 HD
HETATM    6  C5  UNL     1      -2.739   1.513   0.333  1.00  0.00     0.328 A 
HETATM    7  O2  UNL     1      -3.828   2.146   0.529  1.00  0.00    -0.247 OA
HETATM    8  N5  UNL     1      -1.573   2.154   0.535  1.00  0.00    -0.275 N 
ATOM      9  H5  UNL     1      -1.546   3.127   0.839  1.00  0.00     0.173 HD
HETATM   10  C6  UNL     1      -0.431   1.446   0.316  1.00  0.00     0.264 A 
HETATM   11  O3  UNL     1       0.672   2.008   0.494  1.00  0.00    -0.267 OA
ENDROOT
BRANCH   1  12
HETATM   12  C2  UNL     1       0.797  -0.550  -0.305  1.00  0.00     0.112 C 
HETATM   13  N2  UNL     1       1.937  -0.007  -0.134  1.00  0.00    -0.320 N 
HETATM   14  C1  UNL     1       3.173  -0.649  -0.332  1.00  0.00     0.332 C 
ATOM     15  H2  UNL     1       1.955   0.967   0.169  1.00  0.00     0.169 HD
HETATM   16  N1  UNL     1       4.170  -0.562   0.661  1.00  0.00    -0.040 NA
HETATM   17  O1  UNL     1       3.415  -1.297  -1.365  1.00  0.00    -0.251 OA
ENDBRANCH   1  12
TORSDOF 1
