REMARK  1 active torsions:
REMARK  status: ('A' for Active; 'I' for Inactive)
REMARK    1  A    between atoms: N1_1  and  N2_4 
REMARK       I    between atoms: N2_4  and  C1_6 
REMARK       I    between atoms: C1_6  and  N3_8 
ROOT
HETATM    1  N2  UNL     1       2.953   0.474   0.338  1.00  0.00    -0.258 N 
ATOM      2  H2  UNL     1       2.673   1.245   0.945  1.00  0.00     0.191 HD
HETATM    3  C1  UNL     1       1.962  -0.210  -0.369  1.00  0.00     0.344 C 
HETATM    4  O1  UNL     1       2.412  -1.173  -1.104  1.00  0.00    -0.245 OA
HETATM    5  N3  UNL     1       0.572   0.049  -0.348  1.00  0.00    -0.250 N 
HETATM    6  C2  UNL     1      -0.139  -0.924  -1.155  1.00  0.00     0.140 C 
HETATM    7  C3  UNL     1      -1.611  -0.870  -0.986  1.00  0.00     0.040 C 
HETATM    8  C4  UNL     1      -1.912  -1.245   0.454  1.00  0.00     0.122 C 
HETATM    9  N4  UNL     1      -2.751  -0.232   0.982  1.00  0.00    -0.386 N 
ATOM     10  H4  UNL     1      -3.749  -0.174   0.777  1.00  0.00     0.160 HD
HETATM   11  C5  UNL     1      -2.086   0.687   1.814  1.00  0.00     0.180 C 
HETATM   12  N5  UNL     1      -0.923   1.345   1.323  1.00  0.00    -0.305 N 
ATOM     13  H5  UNL     1      -0.809   2.243   1.792  1.00  0.00     0.171 HD
HETATM   14  C6  UNL     1       0.131   1.150   0.387  1.00  0.00     0.331 C 
HETATM   15  O2  UNL     1       0.849   2.166   0.134  1.00  0.00    -0.246 OA
ENDROOT
BRANCH   1  16
HETATM   16  N1  UNL     1       4.330   0.147   0.251  1.00  0.00    -0.341 N 
ATOM     17  H12 UNL     1       4.592  -0.626  -0.361  1.00  0.00     0.177 HD
ATOM     18  H11 UNL     1       5.054   0.647   0.767  1.00  0.00     0.177 HD
ENDBRANCH   1  16
TORSDOF 1
