REMARK  2 active torsions:
REMARK  status: ('A' for Active; 'I' for Inactive)
REMARK       I    between atoms: C1_2  and  N2_4 
REMARK    1  A    between atoms: N2_4  and  C2_6 
REMARK    2  A    between atoms: C3_9  and  C4_10 
ROOT
HETATM    1  C2  UNL     1      -0.793  -0.793   0.291  1.00  0.00     0.234 A 
HETATM    2  N3  UNL     1       0.516  -1.022   0.449  1.00  0.00    -0.314 N 
ATOM      3  H3  UNL     1       0.929  -1.889   0.793  1.00  0.00     0.170 HD
HETATM    4  C3  UNL     1       1.198   0.074   0.082  1.00  0.00     0.149 A 
HETATM    5  C5  UNL     1       0.259   1.007  -0.315  1.00  0.00     0.192 A 
HETATM    6  N5  UNL     1       0.561   2.304  -0.777  1.00  0.00    -0.072 NA
HETATM    7  O3  UNL     1      -0.904   0.429  -0.167  1.00  0.00    -0.262 OA
ENDROOT
BRANCH   1   8
HETATM    8  N2  UNL     1      -1.777  -1.626   0.543  1.00  0.00    -0.276 N 
HETATM    9  C1  UNL     1      -3.121  -1.259   0.332  1.00  0.00     0.335 C 
HETATM   10  N1  UNL     1      -3.562   0.010   0.793  1.00  0.00    -0.040 NA
HETATM   11  O1  UNL     1      -3.867  -2.079  -0.259  1.00  0.00    -0.251 OA
ATOM     12  H2  UNL     1      -1.564  -2.558   0.899  1.00  0.00     0.173 HD
ENDBRANCH   1   8
BRANCH   4  13
HETATM   13  C4  UNL     1       2.631   0.251   0.098  1.00  0.00     0.285 C 
HETATM   14  N4  UNL     1       3.457  -0.808   0.535  1.00  0.00    -0.056 NA
HETATM   15  O2  UNL     1       3.123   1.334  -0.275  1.00  0.00    -0.269 OA
ENDBRANCH   4  13
TORSDOF 2
