REMARK  6 active torsions:
REMARK  status: ('A' for Active; 'I' for Inactive)
REMARK    1  A    between atoms: C2_2  and  C4_4 
REMARK    2  A    between atoms: C4_4  and  C5_5 
REMARK    3  A    between atoms: C4_4  and  C6_8 
REMARK    4  A    between atoms: C6_8  and  N2_9 
REMARK    5  A    between atoms: C6_8  and  N3_13 
REMARK       I    between atoms: N3_13  and  C7_15 
REMARK    6  A    between atoms: C7_15  and  C8_17 
ROOT
HETATM    1  C6  UNL     1      -1.143   0.016  -1.080  1.00  0.00     0.297 C 
ENDROOT
BRANCH   1   2
HETATM    2  C4  UNL     1      -2.207   0.638  -0.252  1.00  0.00     0.128 C 
BRANCH   2   3
HETATM    3  C2  UNL     1      -3.601   0.204  -0.506  1.00  0.00    -0.006 C 
HETATM    4  C1  UNL     1      -4.511   1.004   0.408  1.00  0.00     0.010 C 
HETATM    5  C3  UNL     1      -4.108   0.308  -1.890  1.00  0.00     0.010 C 
ENDBRANCH   2   3
BRANCH   2   6
HETATM    6  C5  UNL     1      -1.899   0.368   1.178  1.00  0.00     0.239 C 
HETATM    7  N1  UNL     1      -1.958  -0.930   1.760  1.00  0.00    -0.062 NA
HETATM    8  O1  UNL     1      -1.566   1.300   1.952  1.00  0.00    -0.276 OA
ENDBRANCH   2   6
ENDBRANCH   1   2
BRANCH   1   9
HETATM    9  N2  UNL     1      -1.263   0.221  -2.495  1.00  0.00    -0.058 N 
ATOM     10  H23 UNL     1      -2.181  -0.088  -2.816  1.00  0.00     0.276 HD
ATOM     11  H22 UNL     1      -1.326   1.218  -2.699  1.00  0.00     0.276 HD
ATOM     12  H21 UNL     1      -0.532  -0.206  -3.064  1.00  0.00     0.276 HD
ENDBRANCH   1   9
BRANCH   1  13
HETATM   13  N3  UNL     1       0.134   0.572  -0.674  1.00  0.00    -0.329 N 
HETATM   14  C7  UNL     1       1.200  -0.240  -0.187  1.00  0.00     0.243 C 
HETATM   15  O2  UNL     1       1.003  -1.462  -0.119  1.00  0.00    -0.269 OA
ATOM     16  H3  UNL     1       0.274   1.580  -0.739  1.00  0.00     0.164 HD
BRANCH  14  17
HETATM   17  C8  UNL     1       2.457   0.347   0.207  1.00  0.00     0.087 C 
HETATM   18  C9  UNL     1       3.524  -0.242   0.674  1.00  0.00     0.016 C 
HETATM   19  C10 UNL     1       4.780   0.518   1.045  1.00  0.00     0.064 C 
HETATM   20  C12 UNL     1       3.838  -1.621   0.971  1.00  0.00     0.247 C 
HETATM   21  C11 UNL     1       5.881  -0.474   0.729  1.00  0.00     0.128 C 
HETATM   22  N4  UNL     1       5.250  -1.767   0.737  1.00  0.00    -0.357 N 
ATOM     23  H4  UNL     1       5.732  -2.655   0.598  1.00  0.00     0.162 HD
HETATM   24  O3  UNL     1       3.059  -2.518   1.356  1.00  0.00    -0.268 OA
ENDBRANCH  14  17
ENDBRANCH   1  13
TORSDOF 6
