REMARK  5 active torsions:
REMARK  status: ('A' for Active; 'I' for Inactive)
REMARK    1  A    between atoms: C4_4  and  C5_5 
REMARK    2  A    between atoms: C5_5  and  C6_6 
REMARK    3  A    between atoms: C6_6  and  N1_7 
REMARK    4  A    between atoms: C6_6  and  C12_22 
REMARK       I    between atoms: N1_7  and  C7_9 
REMARK       I    between atoms: C7_9  and  N3_14 
REMARK    5  A    between atoms: N2_10  and  O1_12 
ROOT
HETATM    1  C1  UNL     1       6.160  -0.038   0.426  1.00  0.00     0.017 C 
HETATM    2  C2  UNL     1       5.160   0.546   0.783  1.00  0.00    -0.090 C 
HETATM    3  C3  UNL     1       3.975   1.241   1.182  1.00  0.00     0.059 C 
HETATM    4  C4  UNL     1       2.909   1.391   0.446  1.00  0.00    -0.015 C 
ENDROOT
BRANCH   4   5
HETATM    5  C5  UNL     1       2.823   0.837  -0.913  1.00  0.00     0.062 C 
BRANCH   5   6
HETATM    6  C6  UNL     1       1.675  -0.131  -1.112  1.00  0.00     0.192 C 
BRANCH   6   7
HETATM    7  N1  UNL     1       0.405   0.525  -0.843  1.00  0.00    -0.211 N 
HETATM    8  C7  UNL     1      -0.805  -0.194  -1.004  1.00  0.00     0.696 C 
HETATM    9  N2  UNL     1      -0.845  -1.231  -1.796  1.00  0.00    -0.099 N 
HETATM   10  N3  UNL     1      -2.017   0.143  -0.350  1.00  0.00    -0.213 N 
ATOM     11  H2  UNL     1       0.010  -1.499  -2.284  1.00  0.00     0.213 HD
HETATM   12  C8  UNL     1      -3.106   0.730  -1.098  1.00  0.00     0.168 C 
HETATM   13  C11 UNL     1      -2.219  -0.080   1.062  1.00  0.00     0.168 C 
HETATM   14  C9  UNL     1      -4.036   1.467  -0.139  1.00  0.00     0.252 C 
HETATM   15  N4  UNL     1      -4.585   0.573   0.833  1.00  0.00    -0.072 N 
HETATM   16  C10 UNL     1      -3.681  -0.487   1.230  1.00  0.00     0.252 C 
ATOM     17  H42 UNL     1      -4.915   1.088   1.649  1.00  0.00     0.277 HD
ATOM     18  H41 UNL     1      -5.470   0.186   0.506  1.00  0.00     0.277 HD
ATOM     19  H1  UNL     1       0.386   1.499  -0.540  1.00  0.00     0.178 HD
BRANCH   9  20
HETATM   20  O1  UNL     1      -1.962  -1.972  -2.005  1.00  0.00    -0.276 OA
ATOM     21  H1  UNL     1      -1.991  -2.727  -2.581  1.00  0.00     0.245 HD
ENDBRANCH   9  20
ENDBRANCH   6   7
BRANCH   6  22
HETATM   22  C12 UNL     1       1.845  -1.356  -0.326  1.00  0.00     0.254 C 
HETATM   23  N5  UNL     1       2.967  -2.212  -0.454  1.00  0.00    -0.060 NA
HETATM   24  O2  UNL     1       0.983  -1.737   0.533  1.00  0.00    -0.275 OA
ENDBRANCH   6  22
ENDBRANCH   5   6
ENDBRANCH   4   5
TORSDOF 5
