REMARK  5 active torsions:
REMARK  status: ('A' for Active; 'I' for Inactive)
REMARK    1  A    between atoms: C2_3  and  N2_4 
REMARK    2  A    between atoms: C2_3  and  C9_13 
REMARK       I    between atoms: N2_4  and  C3_6 
REMARK    3  A    between atoms: C3_6  and  C4_8 
REMARK       I    between atoms: C9_13  and  N3_15 
REMARK    4  A    between atoms: N3_15  and  N4_17 
REMARK    5  A    between atoms: N4_17  and  C10_19 
ROOT
HETATM    1  N1  UNL     1       1.285  -1.737  -2.757  1.00  0.00    -0.195 NA
HETATM    2  C1  UNL     1       1.244  -0.846  -2.026  1.00  0.00     0.094 C 
HETATM    3  C2  UNL     1       1.180   0.301  -1.071  1.00  0.00     0.286 C 
ENDROOT
BRANCH   3   4
HETATM    4  N2  UNL     1      -0.069   0.182  -0.333  1.00  0.00    -0.336 N 
HETATM    5  C3  UNL     1      -1.158   1.043  -0.562  1.00  0.00     0.223 C 
HETATM    6  O1  UNL     1      -1.043   1.955  -1.458  1.00  0.00    -0.273 OA
ATOM      7  H2  UNL     1      -0.158  -0.549   0.373  1.00  0.00     0.164 HD
BRANCH   5   8
HETATM    8  C4  UNL     1      -2.398   0.916   0.198  1.00  0.00     0.078 C 
HETATM    9  C5  UNL     1      -2.870  -0.516   0.363  1.00  0.00     0.014 C 
HETATM   10  C6  UNL     1      -4.366  -0.470   0.477  1.00  0.00     0.001 C 
HETATM   11  C7  UNL     1      -4.741   0.988   0.261  1.00  0.00     0.001 C 
HETATM   12  C8  UNL     1      -3.595   1.479  -0.595  1.00  0.00     0.014 C 
ENDBRANCH   5   8
ENDBRANCH   3   4
BRANCH   3  13
HETATM   13  C9  UNL     1       2.303   0.087  -0.131  1.00  0.00     0.273 C 
HETATM   14  O2  UNL     1       2.067  -0.201   1.063  1.00  0.00    -0.268 OA
HETATM   15  N3  UNL     1       3.675   0.202  -0.555  1.00  0.00    -0.266 N 
ATOM     16  H3  UNL     1       3.893   0.440  -1.523  1.00  0.00     0.190 HD
BRANCH  15  17
HETATM   17  N4  UNL     1       4.713  -0.014   0.368  1.00  0.00    -0.276 N 
ATOM     18  H4  UNL     1       5.268   0.780   0.687  1.00  0.00     0.189 HD
BRANCH  17  19
HETATM   19  C10 UNL     1       5.008  -1.307   0.867  1.00  0.00     0.199 C 
HETATM   20  N5  UNL     1       6.047  -1.571   1.799  1.00  0.00    -0.068 NA
HETATM   21  S1  UNL     1       4.137  -2.623   0.384  1.00  0.00    -0.043 SA
ENDBRANCH  17  19
ENDBRANCH  15  17
ENDBRANCH   3  13
TORSDOF 5
