REMARK  5 active torsions:
REMARK  status: ('A' for Active; 'I' for Inactive)
REMARK    1  A    between atoms: C3_9  and  N3_10 
REMARK    2  A    between atoms: N3_10  and  C4_12 
REMARK    3  A    between atoms: C4_12  and  C5_13 
REMARK    4  A    between atoms: C5_13  and  C6_14 
REMARK    5  A    between atoms: C6_14  and  N4_15 
ROOT
HETATM    1  N3  UNL     1       2.479  -1.535   0.068  1.00  0.00    -0.226 N 
ATOM      2  H3  UNL     1       2.268  -2.264  -0.613  1.00  0.00     0.177 HD
ENDROOT
BRANCH   1   3
HETATM    3  C3  UNL     1       3.507  -0.819  -0.104  1.00  0.00     0.686 A 
HETATM    4  N2  UNL     1       3.843   0.149   0.746  1.00  0.00    -0.141 N 
HETATM    5  C2  UNL     1       4.974   0.864   0.467  1.00  0.00     0.342 A 
ATOM      6  H2  UNL     1       3.279   0.349   1.572  1.00  0.00     0.189 HD
HETATM    7  N1  UNL     1       5.729   0.617  -0.614  1.00  0.00    -0.260 N 
HETATM    8  O2  UNL     1       5.317   1.792   1.260  1.00  0.00    -0.246 OA
HETATM    9  C1  UNL     1       5.381  -0.368  -1.471  1.00  0.00     0.342 A 
ATOM     10  H1  UNL     1       6.566   1.173  -0.789  1.00  0.00     0.175 HD
HETATM   11  O1  UNL     1       6.056  -0.636  -2.496  1.00  0.00    -0.246 OA
HETATM   12  N6  UNL     1       4.274  -1.054  -1.182  1.00  0.00    -0.141 N 
ATOM     13  H6  UNL     1       3.993  -1.801  -1.817  1.00  0.00     0.189 HD
ENDBRANCH   1   3
BRANCH   1  14
HETATM   14  C4  UNL     1       1.597  -1.358   1.191  1.00  0.00     0.139 C 
BRANCH  14  15
HETATM   15  C5  UNL     1       0.623  -0.235   0.853  1.00  0.00     0.040 C 
BRANCH  15  16
HETATM   16  C6  UNL     1      -0.156  -0.663  -0.400  1.00  0.00     0.122 C 
BRANCH  16  17
HETATM   17  N4  UNL     1      -1.074   0.382  -0.730  1.00  0.00    -0.380 N 
HETATM   18  C7  UNL     1      -2.329   0.404  -0.369  1.00  0.00     0.072 C 
HETATM   19  C8  UNL     1      -3.130   1.551  -0.793  1.00  0.00     0.076 C 
HETATM   20  N5  UNL     1      -2.922  -0.611   0.396  1.00  0.00    -0.380 N 
HETATM   21  C9  UNL     1      -4.435   1.715  -0.112  1.00  0.00     0.009 C 
HETATM   22  C10 UNL     1      -5.118   0.498   0.376  1.00  0.00     0.020 C 
HETATM   23  C11 UNL     1      -4.338  -0.778   0.325  1.00  0.00     0.121 C 
ATOM     24  H5  UNL     1      -2.354  -1.216   0.990  1.00  0.00     0.160 HD
ATOM     25  H4  UNL     1      -0.725   1.163  -1.285  1.00  0.00     0.160 HD
ENDBRANCH  16  17
ENDBRANCH  15  16
ENDBRANCH  14  15
ENDBRANCH   1  14
TORSDOF 5
