REMARK  12 active torsions:
REMARK  status: ('A' for Active; 'I' for Inactive)
REMARK    1  A    between atoms: C2_2  and  C3_3 
REMARK    2  A    between atoms: C3_3  and  N1_4 
REMARK    3  A    between atoms: C6_8  and  C7_9 
REMARK    4  A    between atoms: N3_15  and  C11_17 
REMARK    5  A    between atoms: C13_21  and  N5_22 
REMARK    6  A    between atoms: N5_22  and  C14_23 
REMARK       I    between atoms: N5_22  and  C20_32 
REMARK    7  A    between atoms: C14_23  and  C15_24 
REMARK       I    between atoms: C15_24  and  N6_26 
REMARK    8  A    between atoms: N6_26  and  C16_28 
REMARK    9  A    between atoms: C20_32  and  C21_34 
REMARK   10  A    between atoms: C24_37  and  O3_38 
REMARK   11  A    between atoms: O3_38  and  C25_39 
REMARK   12  A    between atoms: C25_39  and  C26_40 
ROOT
HETATM    1  C11 UNL     1      -0.671  -0.565   0.035  1.00  0.00     0.098 A 
HETATM    2  C12 UNL     1      -1.543   0.366   0.524  1.00  0.00     0.122 A 
HETATM    3  N4  UNL     1      -2.778   0.489   0.053  1.00  0.00    -0.350 N 
ATOM      4  H4  UNL     1      -3.382   1.204   0.459  1.00  0.00     0.166 HD
HETATM    5  C13 UNL     1      -3.282  -0.292  -0.947  1.00  0.00     0.113 A 
HETATM    6  C23 UNL     1      -2.414  -1.238  -1.452  1.00  0.00     0.087 A 
HETATM    7  C24 UNL     1      -1.110  -1.418  -1.004  1.00  0.00     0.101 A 
ENDROOT
BRANCH   1   8
HETATM    8  N3  UNL     1       0.662  -0.688   0.534  1.00  0.00    -0.188 N 
HETATM    9  C10 UNL     1       1.611  -0.062  -0.073  1.00  0.00     0.683 A 
HETATM   10  N2  UNL     1       1.323   0.685  -1.156  1.00  0.00    -0.202 N 
HETATM   11  N7  UNL     1       2.884  -0.121   0.372  1.00  0.00    -0.189 N 
HETATM   12  C9  UNL     1       2.263   1.374  -1.812  1.00  0.00     0.108 A 
ATOM     13  H2  UNL     1       0.359   0.727  -1.486  1.00  0.00     0.183 HD
HETATM   14  C8  UNL     1       3.556   1.295  -1.334  1.00  0.00     0.050 A 
HETATM   15  C7  UNL     1       3.878   0.539  -0.227  1.00  0.00     0.077 A 
ATOM     16  H7  UNL     1       3.093  -0.689   1.193  1.00  0.00     0.184 HD
ATOM     17  H3  UNL     1       0.859  -1.260   1.355  1.00  0.00     0.184 HD
BRANCH  15  18
HETATM   18  C6  UNL     1       5.253   0.504   0.264  1.00  0.00     0.064 A 
HETATM   19  C5  UNL     1       5.606  -0.191   1.395  1.00  0.00     0.080 A 
HETATM   20  C4  UNL     1       6.929  -0.187   1.859  1.00  0.00     0.104 A 
HETATM   21  N1  UNL     1       7.204  -0.844   2.917  1.00  0.00    -0.373 N 
HETATM   22  N9  UNL     1       7.887   0.497   1.209  1.00  0.00    -0.333 N 
ATOM     23  H1  UNL     1       6.430  -1.338   3.361  1.00  0.00     0.161 HD
HETATM   24  C28 UNL     1       7.510   1.171   0.098  1.00  0.00     0.079 A 
ATOM     25  H9  UNL     1       8.852   0.507   1.538  1.00  0.00     0.168 HD
HETATM   26  N8  UNL     1       6.249   1.172  -0.351  1.00  0.00    -0.344 N 
HETATM   27  C29 UNL     1       8.559   1.930  -0.629  1.00  0.00     0.089 C 
ATOM     28  H8  UNL     1       6.032   1.701  -1.195  1.00  0.00     0.167 HD
BRANCH  21  29
HETATM   29  C3  UNL     1       8.473  -0.960   3.541  1.00  0.00     0.147 C 
BRANCH  29  30
HETATM   30  C2  UNL     1       8.702   0.076   4.588  1.00  0.00    -0.018 C 
HETATM   31  C1  UNL     1       9.673   0.960   4.578  1.00  0.00     0.008 C 
ENDBRANCH  29  30
ENDBRANCH  21  29
ENDBRANCH  15  18
ENDBRANCH   1   8
BRANCH   7  32
HETATM   32  O3  UNL     1      -0.247  -2.351  -1.492  1.00  0.00    -0.349 OA
BRANCH  32  33
HETATM   33  C25 UNL     1      -0.304  -3.303  -2.468  1.00  0.00     0.175 C 
BRANCH  33  34
HETATM   34  C26 UNL     1      -0.484  -2.839  -3.877  1.00  0.00     0.022 C 
HETATM   35  C27 UNL     1      -0.522  -4.056  -4.816  1.00  0.00     0.007 C 
ENDBRANCH  33  34
ENDBRANCH  32  33
ENDBRANCH   7  32
BRANCH   5  36
HETATM   36  N5  UNL     1      -4.604  -0.072  -1.394  1.00  0.00    -0.291 N 
HETATM   37  C20 UNL     1      -5.520  -1.107  -1.627  1.00  0.00     0.248 C 
HETATM   38  O2  UNL     1      -6.678  -0.718  -2.055  1.00  0.00    -0.268 OA
BRANCH  36  39
HETATM   39  C14 UNL     1      -5.006   1.319  -1.634  1.00  0.00     0.236 C 
BRANCH  39  40
HETATM   40  C15 UNL     1      -5.617   1.976  -0.487  1.00  0.00     0.236 C 
HETATM   41  O1  UNL     1      -5.969   3.180  -0.611  1.00  0.00    -0.272 OA
HETATM   42  N6  UNL     1      -5.845   1.363   0.760  1.00  0.00    -0.352 N 
ATOM     43  H6  UNL     1      -5.571   0.387   0.874  1.00  0.00     0.163 HD
BRANCH  42  44
HETATM   44  C16 UNL     1      -6.447   2.041   1.890  1.00  0.00     0.022 C 
HETATM   45  C17 UNL     1      -7.844   2.526   1.622  1.00  0.00     0.037 C 
HETATM   46  C18 UNL     1      -5.563   3.267   2.162  1.00  0.00     0.037 C 
HETATM   47  C19 UNL     1      -6.391   1.186   3.141  1.00  0.00     0.037 C 
ENDBRANCH  42  44
ENDBRANCH  39  40
ENDBRANCH  36  39
BRANCH  37  48
HETATM   48  C21 UNL     1      -5.336  -2.522  -1.456  1.00  0.00     0.064 C 
HETATM   49  C22 UNL     1      -6.376  -3.344  -1.761  1.00  0.00     0.017 C 
ENDBRANCH  37  48
ENDBRANCH   5  36
TORSDOF 12
