REMARK  14 active torsions:
REMARK  status: ('A' for Active; 'I' for Inactive)
REMARK    1  A    between atoms: N1_2  and  C2_3 
REMARK    2  A    between atoms: C2_3  and  C3_4 
REMARK    3  A    between atoms: C3_4  and  C4_5 
REMARK    4  A    between atoms: C4_5  and  C5_6 
REMARK    5  A    between atoms: C5_6  and  C6_7 
REMARK    6  A    between atoms: C6_7  and  C7_8 
REMARK    7  A    between atoms: C7_8  and  N2_9 
REMARK    8  A    between atoms: C12_14  and  C13_15 
REMARK    9  A    between atoms: C14_16  and  C15_17 
REMARK   10  A    between atoms: C15_17  and  O1_18 
REMARK   11  A    between atoms: O1_18  and  C16_19 
REMARK   12  A    between atoms: C21_30  and  N6_31 
REMARK   13  A    between atoms: C24_36  and  C25_37 
REMARK   14  A    between atoms: C25_37  and  O4_38 
ROOT
HETATM    1  C16 UNL     1      -8.627   0.708   0.180  1.00  0.00     0.109 A 
HETATM    2  C17 UNL     1      -7.878   1.571   0.945  1.00  0.00     0.080 A 
HETATM    3  C18 UNL     1      -7.997   2.936   0.699  1.00  0.00     0.118 A 
HETATM    4  C19 UNL     1      -7.205   3.843   1.507  1.00  0.00     0.117 C 
HETATM    5  N3  UNL     1      -6.583   4.577   2.161  1.00  0.00    -0.190 NA
HETATM    6  N4  UNL     1      -8.820   3.388  -0.258  1.00  0.00    -0.332 N 
ATOM      7  H4  UNL     1      -8.888   4.393  -0.419  1.00  0.00     0.168 HD
HETATM    8  C20 UNL     1      -9.563   2.549  -1.017  1.00  0.00     0.136 A 
HETATM    9  N5  UNL     1     -10.343   3.012  -1.924  1.00  0.00    -0.383 N 
ATOM     10  H51 UNL     1     -10.903   2.380  -2.496  1.00  0.00     0.157 HD
ATOM     11  H52 UNL     1     -10.403   4.019  -2.073  1.00  0.00     0.157 HD
HETATM   12  C21 UNL     1      -9.483   1.201  -0.817  1.00  0.00     0.179 A 
ENDROOT
BRANCH   1  13
HETATM   13  O1  UNL     1      -8.561  -0.629   0.363  1.00  0.00    -0.337 OA
BRANCH  13  14
HETATM   14  C15 UNL     1      -7.823  -1.382   1.242  1.00  0.00     0.269 C 
BRANCH  14  15
HETATM   15  C14 UNL     1      -6.397  -1.163   1.001  1.00  0.00    -0.074 C 
HETATM   16  C13 UNL     1      -5.193  -0.999   0.816  1.00  0.00    -0.065 C 
BRANCH  16  17
HETATM   17  C12 UNL     1      -3.784  -0.820   0.626  1.00  0.00     0.018 A 
HETATM   18  C11 UNL     1      -3.240   0.425   0.416  1.00  0.00     0.021 A 
HETATM   19  C10 UNL     1      -1.874   0.600   0.233  1.00  0.00     0.011 A 
HETATM   20  C9  UNL     1      -1.034  -0.469   0.258  1.00  0.00    -0.032 A 
HETATM   21  C8  UNL     1       0.444  -0.573   0.095  1.00  0.00     0.162 C 
HETATM   22  C23 UNL     1      -1.546  -1.745   0.467  1.00  0.00    -0.024 A 
HETATM   23  N2  UNL     1       0.726  -1.962   0.012  1.00  0.00    -0.378 N 
HETATM   24  C24 UNL     1      -0.402  -2.709   0.443  1.00  0.00     0.141 C 
HETATM   25  C22 UNL     1      -2.884  -1.892   0.644  1.00  0.00     0.030 A 
BRANCH  23  26
HETATM   26  C7  UNL     1       1.430  -2.434  -1.106  1.00  0.00     0.059 C 
BRANCH  26  27
HETATM   27  C6  UNL     1       2.865  -1.944  -1.080  1.00  0.00     0.044 C 
BRANCH  27  28
HETATM   28  C5  UNL     1       3.460  -2.490   0.213  1.00  0.00     0.005 C 
BRANCH  28  29
HETATM   29  C4  UNL     1       4.887  -2.069   0.293  1.00  0.00     0.002 C 
BRANCH  29  30
HETATM   30  C3  UNL     1       5.102  -0.575   0.288  1.00  0.00     0.028 C 
BRANCH  30  31
HETATM   31  C2  UNL     1       6.589  -0.324   0.374  1.00  0.00     0.237 C 
BRANCH  31  32
HETATM   32  N1  UNL     1       6.971   1.047   0.375  1.00  0.00    -0.067 N 
HETATM   33  C1  UNL     1       7.296   1.431   1.752  1.00  0.00     0.272 C 
HETATM   34  C26 UNL     1       6.017   1.944  -0.232  1.00  0.00     0.263 C 
HETATM   35  C27 UNL     1       6.469   3.373   0.056  1.00  0.00     0.195 C 
HETATM   36  O5  UNL     1       7.835   3.498   0.129  1.00  0.00    -0.388 OA
HETATM   37  C28 UNL     1       8.480   2.622  -0.709  1.00  0.00     0.195 C 
HETATM   38  C29 UNL     1       8.212   1.173  -0.405  1.00  0.00     0.263 C 
ENDBRANCH  31  32
ENDBRANCH  30  31
ENDBRANCH  29  30
ENDBRANCH  28  29
ENDBRANCH  27  28
ENDBRANCH  26  27
ENDBRANCH  23  26
BRANCH  24  39
HETATM   39  C25 UNL     1      -0.787  -3.844  -0.469  1.00  0.00     0.194 C 
BRANCH  39  40
HETATM   40  O4  UNL     1      -1.094  -3.323  -1.737  1.00  0.00    -0.398 OA
ATOM     41  H4  UNL     1      -1.337  -4.039  -2.312  1.00  0.00     0.209 HD
ENDBRANCH  39  40
ENDBRANCH  24  39
ENDBRANCH  16  17
ENDBRANCH  14  15
ENDBRANCH  13  14
ENDBRANCH   1  13
BRANCH  12  42
HETATM   42  N6  UNL     1     -10.242   0.294  -1.586  1.00  0.00    -0.109 N 
HETATM   43  O2  UNL     1      -9.773  -0.439  -2.480  1.00  0.00    -0.532 OA
HETATM   44  O3  UNL     1     -11.592   0.194  -1.353  1.00  0.00    -0.532 OA
ENDBRANCH  12  42
TORSDOF 14
