REMARK  12 active torsions:
REMARK  status: ('A' for Active; 'I' for Inactive)
REMARK    1  A    between atoms: O1_2  and  C2_3 
REMARK    2  A    between atoms: C2_3  and  C3_4 
REMARK    3  A    between atoms: C3_4  and  C4_5 
REMARK    4  A    between atoms: C4_5  and  N1_6 
REMARK    5  A    between atoms: C11_14  and  N2_15 
REMARK    6  A    between atoms: N2_15  and  C12_17 
REMARK    7  A    between atoms: C13_20  and  O3_21 
REMARK    8  A    between atoms: O3_21  and  C14_22 
REMARK    9  A    between atoms: C14_22  and  C15_23 
REMARK   10  A    between atoms: C15_23  and  C16_24 
REMARK   11  A    between atoms: C16_24  and  C17_25 
REMARK   12  A    between atoms: C17_25  and  N4_26 
ROOT
HETATM    1  C12 UNL     1      -0.406   0.263   0.909  1.00  0.00     0.686 A 
HETATM    2  N3  UNL     1       0.728   0.960   1.088  1.00  0.00    -0.170 N 
ATOM      3  H3  UNL     1       0.696   1.844   1.597  1.00  0.00     0.186 HD
HETATM    4  C13 UNL     1       1.914   0.514   0.607  1.00  0.00     0.169 A 
HETATM    5  C20 UNL     1       1.894  -0.687  -0.071  1.00  0.00     0.062 A 
HETATM    6  C21 UNL     1       0.712  -1.380  -0.239  1.00  0.00     0.172 A 
HETATM    7  N5  UNL     1      -0.435  -0.918   0.242  1.00  0.00    -0.169 N 
ATOM      8  H5  UNL     1      -1.307  -1.432   0.115  1.00  0.00     0.186 HD
HETATM    9  O4  UNL     1       0.848  -2.588  -0.951  1.00  0.00    -0.303 OA
HETATM   10  C22 UNL     1       1.950  -3.446  -0.668  1.00  0.00     0.141 C 
HETATM   11  C23 UNL     1       2.188  -4.407  -1.807  1.00  0.00     0.088 C 
HETATM   12  C24 UNL     1       2.400  -5.827  -1.323  1.00  0.00     0.237 C 
HETATM   13  N6  UNL     1       3.247  -5.911  -0.167  1.00  0.00    -0.075 N 
ATOM     14  H61 UNL     1       4.214  -5.696  -0.410  1.00  0.00     0.277 HD
ATOM     15  H62 UNL     1       3.360  -6.880   0.130  1.00  0.00     0.277 HD
HETATM   16  C25 UNL     1       2.798  -5.087   0.930  1.00  0.00     0.237 C 
HETATM   17  C26 UNL     1       1.565  -4.291   0.553  1.00  0.00     0.088 C 
HETATM   18  N7  UNL     1       3.138  -2.732  -0.345  1.00  0.00    -0.387 N 
ATOM     19  H7  UNL     1       3.951  -3.182   0.076  1.00  0.00     0.156 HD
HETATM   20  C27 UNL     1       3.107  -1.320  -0.659  1.00  0.00     0.164 C 
ENDROOT
BRANCH   1  21
HETATM   21  N2  UNL     1      -1.492   0.756   1.408  1.00  0.00    -0.192 N 
ATOM     22  H2  UNL     1      -1.478   1.640   1.916  1.00  0.00     0.184 HD
BRANCH  21  23
HETATM   23  C11 UNL     1      -2.711   0.036   1.232  1.00  0.00     0.051 A 
HETATM   24  C10 UNL     1      -2.986  -1.067   2.050  1.00  0.00     0.030 A 
HETATM   25  C9  UNL     1      -4.146  -1.771   1.887  1.00  0.00     0.012 A 
HETATM   26  C8  UNL     1      -5.090  -1.436   0.925  1.00  0.00    -0.030 A 
HETATM   27  C7  UNL     1      -6.308  -2.297   0.830  1.00  0.00     0.050 C 
HETATM   28  C29 UNL     1      -4.837  -0.354   0.113  1.00  0.00     0.050 A 
HETATM   29  C6  UNL     1      -7.442  -1.469   0.296  1.00  0.00     0.108 C 
HETATM   30  C5  UNL     1      -6.964  -0.859  -0.973  1.00  0.00     0.228 C 
HETATM   31  N1  UNL     1      -5.795  -0.028  -0.882  1.00  0.00    -0.296 N 
HETATM   32  O2  UNL     1      -7.565  -1.079  -2.026  1.00  0.00    -0.273 OA
HETATM   33  C28 UNL     1      -3.663   0.345   0.288  1.00  0.00     0.060 A 
BRANCH  31  34
HETATM   34  C4  UNL     1      -5.633   1.037  -1.791  1.00  0.00     0.075 C 
BRANCH  34  35
HETATM   35  C3  UNL     1      -6.255   2.355  -1.439  1.00  0.00     0.071 C 
BRANCH  35  36
HETATM   36  C2  UNL     1      -5.851   2.999  -0.181  1.00  0.00     0.172 C 
BRANCH  36  37
HETATM   37  O1  UNL     1      -6.482   4.214  -0.007  1.00  0.00    -0.396 OA
HETATM   38  C1  UNL     1      -7.843   4.196   0.073  1.00  0.00     0.201 C 
ENDBRANCH  36  37
ENDBRANCH  35  36
ENDBRANCH  34  35
ENDBRANCH  31  34
ENDBRANCH  21  23
ENDBRANCH   1  21
BRANCH   4  39
HETATM   39  O3  UNL     1       3.115   1.147   0.737  1.00  0.00    -0.335 OA
BRANCH  39  40
HETATM   40  C14 UNL     1       3.398   2.356   1.367  1.00  0.00     0.178 C 
BRANCH  40  41
HETATM   41  C15 UNL     1       4.924   2.567   1.186  1.00  0.00     0.032 C 
BRANCH  41  42
HETATM   42  C16 UNL     1       5.144   2.585  -0.281  1.00  0.00     0.046 C 
BRANCH  42  43
HETATM   43  C17 UNL     1       6.552   2.723  -0.691  1.00  0.00     0.057 C 
BRANCH  43  44
HETATM   44  N4  UNL     1       7.184   3.902  -0.282  1.00  0.00    -0.402 N 
HETATM   45  C18 UNL     1       7.517   4.113   1.060  1.00  0.00     0.148 C 
HETATM   46  C19 UNL     1       8.094   4.441  -1.246  1.00  0.00     0.148 C 
ENDBRANCH  43  44
ENDBRANCH  42  43
ENDBRANCH  41  42
ENDBRANCH  40  41
ENDBRANCH  39  40
ENDBRANCH   4  39
TORSDOF 12
