REMARK  12 active torsions:
REMARK  status: ('A' for Active; 'I' for Inactive)
REMARK    1  A    between atoms: C2_2  and  C3_3 
REMARK    2  A    between atoms: C4_4  and  N1_5 
REMARK    3  A    between atoms: N1_5  and  C5_6 
REMARK    4  A    between atoms: N3_10  and  C7_12 
REMARK    5  A    between atoms: C7_12  and  C8_13 
REMARK    6  A    between atoms: C8_13  and  C9_14 
REMARK    7  A    between atoms: C9_14  and  C10_15 
REMARK    8  A    between atoms: C10_15  and  C11_16 
REMARK    9  A    between atoms: C11_16  and  C12_17 
REMARK   10  A    between atoms: C12_17  and  C13_18 
REMARK   11  A    between atoms: C13_18  and  C14_19 
REMARK   12  A    between atoms: C16_25  and  C17_26 
REMARK       I    between atoms: C17_26  and  N5_28 
ROOT
HETATM    1  C5  UNL     1      -0.643   0.709  -1.211  1.00  0.00     0.213 A 
HETATM    2  N2  UNL     1       0.734   0.788  -1.191  1.00  0.00    -0.163 N 
ATOM      3  H2  UNL     1       1.230   0.083  -0.647  1.00  0.00     0.187 HD
HETATM    4  C6  UNL     1       1.463   1.686  -1.807  1.00  0.00     0.680 A 
HETATM    5  N3  UNL     1       2.746   1.755  -1.787  1.00  0.00    -0.226 N 
ATOM      6  H3  UNL     1       3.223   2.496  -2.301  1.00  0.00     0.177 HD
HETATM    7  N4  UNL     1       0.811   2.638  -2.541  1.00  0.00    -0.201 N 
ATOM      8  H4  UNL     1       1.340   3.355  -3.037  1.00  0.00     0.183 HD
HETATM    9  C15 UNL     1      -0.504   2.622  -2.603  1.00  0.00     0.128 A 
HETATM   10  C16 UNL     1      -1.297   1.683  -1.960  1.00  0.00     0.106 A 
ENDROOT
BRANCH   1  11
HETATM   11  N1  UNL     1      -1.171  -0.168  -0.617  1.00  0.00    -0.367 NA
BRANCH  11  12
HETATM   12  C4  UNL     1      -2.073  -0.982  -0.088  1.00  0.00     0.190 A 
HETATM   13  C3  UNL     1      -1.849  -2.373   0.002  1.00  0.00     0.029 A 
HETATM   14  C28 UNL     1      -2.757  -3.244   0.542  1.00  0.00     0.072 A 
HETATM   15  C25 UNL     1      -3.954  -2.766   1.028  1.00  0.00     0.032 A 
HETATM   16  N9  UNL     1      -2.794  -4.583   0.746  1.00  0.00    -0.298 N 
HETATM   17  C23 UNL     1      -4.180  -1.405   0.943  1.00  0.00     0.022 A 
HETATM   18  C26 UNL     1      -4.675  -3.832   1.509  1.00  0.00     0.125 A 
HETATM   19  N7  UNL     1      -3.272  -0.582   0.410  1.00  0.00    -0.334 N 
HETATM   20  C24 UNL     1      -5.483  -0.892   1.471  1.00  0.00     0.069 C 
ATOM     21  H7  UNL     1      -3.494   0.413   0.375  1.00  0.00     0.168 HD
HETATM   22  N8  UNL     1      -3.927  -4.938   1.319  1.00  0.00    -0.306 N 
HETATM   23  C27 UNL     1      -4.342  -6.296   1.700  1.00  0.00     0.177 C 
ATOM     24  H9  UNL     1      -2.047  -5.229   0.491  1.00  0.00     0.187 HD
BRANCH  13  25
HETATM   25  C2  UNL     1      -0.559  -2.859  -0.524  1.00  0.00     0.041 C 
HETATM   26  C1  UNL     1      -0.569  -2.894  -2.036  1.00  0.00     0.010 C 
ENDBRANCH  13  25
ENDBRANCH  11  12
ENDBRANCH   1  11
BRANCH  10  27
HETATM   27  C17 UNL     1      -2.732   1.797  -2.097  1.00  0.00     0.260 C 
HETATM   28  O3  UNL     1      -3.346   1.170  -2.983  1.00  0.00    -0.267 OA
HETATM   29  N5  UNL     1      -3.449   2.630  -1.222  1.00  0.00    -0.344 N 
HETATM   30  C18 UNL     1      -4.884   2.790  -1.314  1.00  0.00     0.156 C 
HETATM   31  C22 UNL     1      -2.768   3.363  -0.175  1.00  0.00     0.156 C 
HETATM   32  C19 UNL     1      -5.264   4.007  -0.481  1.00  0.00     0.291 C 
HETATM   33  N6  UNL     1      -4.860   3.914   0.889  1.00  0.00     0.087 N 
HETATM   34  C20 UNL     1      -4.783   5.279   1.413  1.00  0.00     0.310 C 
HETATM   35  C21 UNL     1      -3.575   3.320   1.107  1.00  0.00     0.291 C 
ENDBRANCH  10  27
BRANCH   5  36
HETATM   36  C7  UNL     1       3.514   0.787  -1.039  1.00  0.00     0.138 C 
BRANCH  36  37
HETATM   37  C8  UNL     1       3.548   1.263   0.384  1.00  0.00     0.020 C 
BRANCH  37  38
HETATM   38  C9  UNL     1       4.295   0.297   1.245  1.00  0.00     0.002 C 
BRANCH  38  39
HETATM   39  C10 UNL     1       5.707   0.149   0.766  1.00  0.00     0.000 C 
BRANCH  39  40
HETATM   40  C11 UNL     1       6.386  -0.822   1.727  1.00  0.00     0.001 C 
BRANCH  40  41
HETATM   41  C12 UNL     1       7.823  -1.061   1.346  1.00  0.00     0.010 C 
BRANCH  41  42
HETATM   42  C13 UNL     1       7.947  -1.653  -0.041  1.00  0.00     0.113 C 
BRANCH  42  43
HETATM   43  C14 UNL     1       9.390  -1.850  -0.312  1.00  0.00     0.172 C 
HETATM   44  O1  UNL     1      10.131  -0.864  -0.492  1.00  0.00    -0.648 OA
HETATM   45  O2  UNL     1       9.906  -3.131  -0.363  1.00  0.00    -0.648 OA
ENDBRANCH  42  43
ENDBRANCH  41  42
ENDBRANCH  40  41
ENDBRANCH  39  40
ENDBRANCH  38  39
ENDBRANCH  37  38
ENDBRANCH  36  37
ENDBRANCH   5  36
TORSDOF 12
