REMARK  13 active torsions:
REMARK  status: ('A' for Active; 'I' for Inactive)
REMARK    1  A    between atoms: C2_2  and  C3_3 
REMARK    2  A    between atoms: C4_4  and  C5_5 
REMARK    3  A    between atoms: C5_5  and  C6_6 
REMARK    4  A    between atoms: C5_5  and  C19_22 
REMARK    5  A    between atoms: C6_6  and  C7_7 
REMARK    6  A    between atoms: C7_7  and  N1_8 
REMARK    7  A    between atoms: C11_12  and  N2_13 
REMARK    8  A    between atoms: N2_13  and  C13_15 
REMARK    9  A    between atoms: C13_15  and  C14_16 
REMARK   10  A    between atoms: C14_16  and  C15_17 
REMARK   11  A    between atoms: C15_17  and  N3_18 
REMARK   12  A    between atoms: C21_24  and  O1_25 
REMARK   13  A    between atoms: N4_30  and  O2_31 
ROOT
HETATM    1  C5  UNL     1      -2.753  -1.312   0.737  1.00  0.00     0.054 C 
ENDROOT
BRANCH   1   2
HETATM    2  C4  UNL     1      -3.157  -2.256  -0.304  1.00  0.00    -0.036 A 
HETATM    3  C3  UNL     1      -4.228  -3.085  -0.182  1.00  0.00     0.017 A 
HETATM    4  C30 UNL     1      -4.531  -3.945  -1.254  1.00  0.00     0.252 A 
HETATM    5  N5  UNL     1      -3.835  -3.998  -2.379  1.00  0.00    -0.327 N 
HETATM    6  O5  UNL     1      -5.526  -4.726  -1.160  1.00  0.00    -0.268 OA
HETATM    7  C28 UNL     1      -2.776  -3.196  -2.530  1.00  0.00     0.009 A 
ATOM      8  H5  UNL     1      -4.104  -4.643  -3.122  1.00  0.00     0.169 HD
HETATM    9  C27 UNL     1      -2.442  -2.336  -1.504  1.00  0.00     0.033 A 
HETATM   10  C29 UNL     1      -1.984  -3.245  -3.787  1.00  0.00     0.068 C 
BRANCH   3  11
HETATM   11  C2  UNL     1      -5.058  -3.131   1.018  1.00  0.00     0.040 C 
HETATM   12  C1  UNL     1      -4.365  -3.879   2.164  1.00  0.00     0.010 C 
ENDBRANCH   3  11
ENDBRANCH   1   2
BRANCH   1  13
HETATM   13  C6  UNL     1      -1.258  -0.981   0.703  1.00  0.00     0.044 C 
BRANCH  13  14
HETATM   14  C7  UNL     1      -0.994  -0.013   1.835  1.00  0.00     0.273 C 
BRANCH  14  15
HETATM   15  N1  UNL     1       0.401   0.374   1.915  1.00  0.00     0.090 N 
HETATM   16  C8  UNL     1       0.649   1.270   2.965  1.00  0.00     0.272 C 
HETATM   17  C9  UNL     1       1.891   2.089   2.878  1.00  0.00     0.032 C 
HETATM   18  C10 UNL     1       2.339   2.409   1.488  1.00  0.00     0.028 C 
HETATM   19  C11 UNL     1       2.222   1.299   0.496  1.00  0.00     0.107 C 
HETATM   20  C18 UNL     1       0.899   0.655   0.637  1.00  0.00     0.297 C 
BRANCH  19  21
HETATM   21  N2  UNL     1       3.344   0.431   0.414  1.00  0.00    -0.411 N 
HETATM   22  C12 UNL     1       3.719  -0.328   1.529  1.00  0.00     0.143 C 
BRANCH  21  23
HETATM   23  C13 UNL     1       4.428   0.929  -0.354  1.00  0.00     0.118 C 
BRANCH  23  24
HETATM   24  C14 UNL     1       5.598  -0.007  -0.423  1.00  0.00     0.049 C 
BRANCH  24  25
HETATM   25  C15 UNL     1       6.660   0.658  -1.271  1.00  0.00     0.273 C 
BRANCH  25  26
HETATM   26  N3  UNL     1       7.841  -0.162  -1.408  1.00  0.00     0.080 N 
HETATM   27  C16 UNL     1       8.843   0.482  -2.216  1.00  0.00     0.309 C 
HETATM   28  C17 UNL     1       8.423  -0.573  -0.171  1.00  0.00     0.309 C 
ENDBRANCH  25  26
ENDBRANCH  24  25
ENDBRANCH  23  24
ENDBRANCH  21  23
ENDBRANCH  19  21
ENDBRANCH  14  15
ENDBRANCH  13  14
ENDBRANCH   1  13
BRANCH   1  29
HETATM   29  C19 UNL     1      -3.422   0.036   0.634  1.00  0.00    -0.044 A 
HETATM   30  C20 UNL     1      -4.209   0.533   1.641  1.00  0.00     0.047 A 
HETATM   31  C21 UNL     1      -4.833   1.753   1.576  1.00  0.00     0.102 A 
HETATM   32  C22 UNL     1      -4.642   2.499   0.424  1.00  0.00     0.131 A 
HETATM   33  C23 UNL     1      -3.848   2.011  -0.604  1.00  0.00     0.102 A 
HETATM   34  O4  UNL     1      -5.239   3.735   0.290  1.00  0.00    -0.337 OA
HETATM   35  C24 UNL     1      -3.234   0.783  -0.512  1.00  0.00     0.043 A 
HETATM   36  N4  UNL     1      -3.675   2.805  -1.774  1.00  0.00    -0.187 N 
HETATM   37  C25 UNL     1      -4.324   4.070  -1.844  1.00  0.00     0.272 C 
HETATM   38  O3  UNL     1      -3.916   4.965  -2.627  1.00  0.00    -0.268 OA
HETATM   39  C26 UNL     1      -5.510   4.330  -0.966  1.00  0.00     0.281 C 
BRANCH  31  40
HETATM   40  O1  UNL     1      -5.632   2.244   2.611  1.00  0.00    -0.358 OA
ATOM     41  H1  UNL     1      -6.064   3.089   2.566  1.00  0.00     0.217 HD
ENDBRANCH  31  40
BRANCH  36  42
HETATM   42  O2  UNL     1      -2.905   2.372  -2.812  1.00  0.00    -0.280 OA
ATOM     43  H2  UNL     1      -2.790   2.902  -3.592  1.00  0.00     0.245 HD
ENDBRANCH  36  42
ENDBRANCH   1  29
TORSDOF 13
