REMARK  12 active torsions:
REMARK  status: ('A' for Active; 'I' for Inactive)
REMARK    1  A    between atoms: C2_2  and  C3_3 
REMARK    2  A    between atoms: C3_3  and  C5_5 
REMARK    3  A    between atoms: C5_5  and  N1_6 
REMARK    4  A    between atoms: C5_5  and  C12_19 
REMARK    5  A    between atoms: C7_13  and  C8_14 
REMARK       I    between atoms: C12_19  and  N4_21 
REMARK    6  A    between atoms: C16_26  and  C17_27 
REMARK    7  A    between atoms: C17_27  and  C18_28 
REMARK    8  A    between atoms: C18_28  and  S2_29 
REMARK    9  A    between atoms: S2_29  and  C19_30 
REMARK   10  A    between atoms: C19_30  and  C20_31 
REMARK   11  A    between atoms: C20_31  and  C21_32 
REMARK   12  A    between atoms: N7_38  and  C23_40 
ROOT
HETATM    1  C12 UNL     1      -1.566  -1.175  -1.178  1.00  0.00     0.246 C 
HETATM    2  O1  UNL     1      -1.327  -0.433  -2.145  1.00  0.00    -0.271 OA
HETATM    3  N4  UNL     1      -0.558  -1.990  -0.621  1.00  0.00    -0.310 N 
ATOM      4  H4  UNL     1      -0.679  -3.001  -0.682  1.00  0.00     0.170 HD
HETATM    5  C13 UNL     1       0.500  -1.552  -0.043  1.00  0.00     0.122 A 
HETATM    6  C14 UNL     1       0.839  -0.238   0.134  1.00  0.00     0.052 A 
HETATM    7  C15 UNL     1       2.021   0.099   0.766  1.00  0.00     0.030 A 
HETATM    8  C16 UNL     1       2.895  -0.867   1.243  1.00  0.00     0.026 A 
HETATM    9  N8  UNL     1       2.509  -2.132   1.042  1.00  0.00    -0.303 N 
ATOM     10  H8  UNL     1       3.122  -2.876   1.375  1.00  0.00     0.186 HD
HETATM   11  N9  UNL     1       1.399  -2.476   0.448  1.00  0.00    -0.285 N 
ATOM     12  H9  UNL     1       1.188  -3.468   0.343  1.00  0.00     0.188 HD
ENDROOT
BRANCH   1  13
HETATM   13  C5  UNL     1      -2.949  -1.230  -0.576  1.00  0.00     0.180 C 
BRANCH  13  14
HETATM   14  C3  UNL     1      -3.203  -2.660  -0.178  1.00  0.00     0.013 C 
HETATM   15  C4  UNL     1      -4.460  -2.802   0.615  1.00  0.00     0.012 C 
BRANCH  14  16
HETATM   16  C2  UNL     1      -3.166  -3.593  -1.374  1.00  0.00     0.002 C 
HETATM   17  C1  UNL     1      -3.217  -5.026  -0.996  1.00  0.00     0.005 C 
ENDBRANCH  14  16
ENDBRANCH  13  14
BRANCH  13  18
HETATM   18  N1  UNL     1      -3.895  -0.705  -1.504  1.00  0.00    -0.356 N 
HETATM   19  C6  UNL     1      -4.780   0.194  -1.200  1.00  0.00     0.161 A 
HETATM   20  N2  UNL     1      -5.700   0.730  -2.021  1.00  0.00    -0.279 N 
HETATM   21  S1  UNL     1      -5.134   1.015   0.270  1.00  0.00    -0.037 SA
HETATM   22  N3  UNL     1      -6.499   1.594  -1.579  1.00  0.00    -0.295 N 
ATOM     23  H2  UNL     1      -5.749   0.437  -2.997  1.00  0.00     0.189 HD
HETATM   24  C7  UNL     1      -6.431   1.976  -0.302  1.00  0.00     0.077 A 
ATOM     25  H3  UNL     1      -7.200   2.003  -2.197  1.00  0.00     0.187 HD
ATOM     26  H1  UNL     1      -3.875  -1.056  -2.462  1.00  0.00     0.162 HD
BRANCH  24  27
HETATM   27  C8  UNL     1      -7.282   2.984   0.414  1.00  0.00    -0.001 C 
HETATM   28  C9  UNL     1      -8.277   2.317   1.327  1.00  0.00     0.021 C 
HETATM   29  C10 UNL     1      -7.997   3.779  -0.656  1.00  0.00     0.021 C 
HETATM   30  C11 UNL     1      -6.363   3.931   1.125  1.00  0.00     0.021 C 
ENDBRANCH  24  27
ENDBRANCH  13  18
ENDBRANCH   1  13
BRANCH   8  31
HETATM   31  C17 UNL     1       4.164  -0.644   1.915  1.00  0.00     0.068 C 
BRANCH  31  32
HETATM   32  C18 UNL     1       4.618   0.760   2.072  1.00  0.00     0.080 C 
BRANCH  32  33
HETATM   33  S2  UNL     1       4.906   1.645   0.528  1.00  0.00    -0.168 SA
BRANCH  33  34
HETATM   34  C19 UNL     1       6.303   0.929  -0.381  1.00  0.00     0.082 C 
BRANCH  34  35
HETATM   35  C20 UNL     1       7.549   1.149   0.465  1.00  0.00     0.096 C 
BRANCH  35  36
HETATM   36  C21 UNL     1       8.715   0.549  -0.245  1.00  0.00     0.142 A 
HETATM   37  N5  UNL     1       9.169  -0.707  -0.183  1.00  0.00    -0.280 N 
HETATM   38  N6  UNL     1      10.234  -0.833  -0.954  1.00  0.00    -0.263 N 
ATOM     39  H5  UNL     1       8.756  -1.454   0.375  1.00  0.00     0.189 HD
HETATM   40  C22 UNL     1      10.459   0.358  -1.520  1.00  0.00     0.247 A 
ATOM     41  H6  UNL     1      10.783  -1.681  -1.092  1.00  0.00     0.190 HD
HETATM   42  N7  UNL     1      11.429   0.624  -2.360  1.00  0.00    -0.298 N 
HETATM   43  O3  UNL     1       9.526   1.165  -1.071  1.00  0.00    -0.264 OA
ATOM     44  H7  UNL     1      12.103  -0.085  -2.648  1.00  0.00     0.171 HD
BRANCH  42  45
HETATM   45  C23 UNL     1      11.487   1.950  -2.843  1.00  0.00     0.356 C 
HETATM   46  O2  UNL     1      11.431   2.195  -4.072  1.00  0.00    -0.283 OA
ENDBRANCH  42  45
ENDBRANCH  35  36
ENDBRANCH  34  35
ENDBRANCH  33  34
ENDBRANCH  32  33
ENDBRANCH  31  32
ENDBRANCH   8  31
TORSDOF 12
