REMARK  13 active torsions:
REMARK  status: ('A' for Active; 'I' for Inactive)
REMARK    1  A    between atoms: C4_4  and  O1_5 
REMARK    2  A    between atoms: C5_7  and  O2_8 
REMARK    3  A    between atoms: C6_10  and  N1_11 
REMARK    4  A    between atoms: C8_13  and  C9_14 
REMARK    5  A    between atoms: C9_14  and  C10_15 
REMARK    6  A    between atoms: C10_15  and  C11_16 
REMARK    7  A    between atoms: C11_16  and  C12_17 
REMARK    8  A    between atoms: C12_17  and  C13_18 
REMARK    9  A    between atoms: C13_18  and  C14_19 
REMARK   10  A    between atoms: C14_19  and  C15_20 
REMARK   11  A    between atoms: C15_20  and  N2_21 
REMARK       I    between atoms: N6_32  and  C19_33 
REMARK   12  A    between atoms: C19_33  and  C20_35 
REMARK   13  A    between atoms: N7_37  and  C22_38 
ROOT
HETATM    1  C1  UNL     1      -2.132   1.859  -2.064  1.00  0.00     0.032 C 
HETATM    2  C2  UNL     1      -2.871   0.534  -2.036  1.00  0.00     0.087 C 
HETATM    3  C3  UNL     1      -2.881  -0.122  -3.424  1.00  0.00     0.059 C 
HETATM    4  C4  UNL     1      -1.559  -0.669  -3.827  1.00  0.00     0.152 C 
HETATM    5  C5  UNL     1      -0.608  -0.987  -2.727  1.00  0.00     0.191 C 
HETATM    6  C6  UNL     1      -1.167  -1.142  -1.370  1.00  0.00     0.243 C 
HETATM    7  N6  UNL     1      -2.346  -0.391  -1.058  1.00  0.00    -0.322 N 
HETATM    8  C19 UNL     1      -2.964  -0.596   0.200  1.00  0.00     0.227 C 
HETATM    9  O4  UNL     1      -2.464  -1.403   1.061  1.00  0.00    -0.273 OA
ENDROOT
BRANCH   6  10
HETATM   10  N1  UNL     1      -0.091  -0.991  -0.406  1.00  0.00    -0.261 N 
HETATM   11  C7  UNL     1       0.206  -0.043   0.473  1.00  0.00     0.140 A 
HETATM   12  C8  UNL     1       1.352  -0.419   1.142  1.00  0.00     0.044 A 
HETATM   13  N4  UNL     1       1.705  -1.590   0.633  1.00  0.00    -0.289 N 
HETATM   14  N5  UNL     1       0.856  -1.939  -0.287  1.00  0.00    -0.239 N 
ATOM     15  H4  UNL     1       2.519  -2.134   0.919  1.00  0.00     0.188 HD
ATOM     16  H5  UNL     1       0.901  -2.799  -0.834  1.00  0.00     0.208 HD
BRANCH  12  17
HETATM   17  C9  UNL     1       2.084   0.293   2.217  1.00  0.00     0.060 C 
BRANCH  17  18
HETATM   18  C10 UNL     1       3.148   1.217   1.730  1.00  0.00     0.006 C 
BRANCH  18  19
HETATM   19  C11 UNL     1       4.240   0.558   0.940  1.00  0.00     0.000 C 
BRANCH  19  20
HETATM   20  C12 UNL     1       4.943  -0.486   1.773  1.00  0.00     0.000 C 
BRANCH  20  21
HETATM   21  C13 UNL     1       6.038  -1.157   0.997  1.00  0.00     0.002 C 
BRANCH  21  22
HETATM   22  C14 UNL     1       7.102  -0.217   0.527  1.00  0.00     0.020 C 
BRANCH  22  23
HETATM   23  C15 UNL     1       8.174  -0.955  -0.250  1.00  0.00     0.127 C 
BRANCH  23  24
HETATM   24  N2  UNL     1       9.225  -0.091  -0.719  1.00  0.00    -0.333 N 
HETATM   25  C16 UNL     1       9.373   0.654  -1.944  1.00  0.00     0.147 C 
HETATM   26  C17 UNL     1      10.341   1.764  -1.597  1.00  0.00     0.144 C 
HETATM   27  N3  UNL     1      11.191   1.161  -0.590  1.00  0.00    -0.341 N 
HETATM   28  C18 UNL     1      10.395   0.183   0.044  1.00  0.00     0.318 C 
ATOM     29  H3  UNL     1      12.162   1.395  -0.383  1.00  0.00     0.164 HD
HETATM   30  O3  UNL     1      10.713  -0.362   1.155  1.00  0.00    -0.247 OA
ENDBRANCH  23  24
ENDBRANCH  22  23
ENDBRANCH  21  22
ENDBRANCH  20  21
ENDBRANCH  19  20
ENDBRANCH  18  19
ENDBRANCH  17  18
ENDBRANCH  12  17
ENDBRANCH   6  10
BRANCH   5  31
HETATM   31  O2  UNL     1       0.481  -0.126  -2.841  1.00  0.00    -0.389 OA
ATOM     32  H2  UNL     1       1.088  -0.329  -2.139  1.00  0.00     0.210 HD
ENDBRANCH   5  31
BRANCH   4  33
HETATM   33  O1  UNL     1      -1.810  -1.784  -4.665  1.00  0.00    -0.393 OA
ATOM     34  H1  UNL     1      -0.965  -2.134  -4.923  1.00  0.00     0.210 HD
ENDBRANCH   4  33
BRANCH   8  35
HETATM   35  C20 UNL     1      -4.210   0.063   0.658  1.00  0.00     0.098 C 
HETATM   36  C21 UNL     1      -5.418  -0.623   0.109  1.00  0.00     0.132 C 
HETATM   37  N7  UNL     1      -6.468  -0.243   1.032  1.00  0.00    -0.400 N 
HETATM   38  C25 UNL     1      -5.935  -0.297   2.286  1.00  0.00     0.021 C 
HETATM   39  C26 UNL     1      -6.079  -1.746   2.790  1.00  0.00     0.038 C 
HETATM   40  C27 UNL     1      -6.494   0.566   3.387  1.00  0.00     0.038 C 
HETATM   41  C28 UNL     1      -4.424  -0.076   2.146  1.00  0.00     0.045 C 
BRANCH  37  42
HETATM   42  C22 UNL     1      -7.368   0.628   0.487  1.00  0.00     0.071 C 
HETATM   43  C23 UNL     1      -8.081  -0.043  -0.697  1.00  0.00     0.031 C 
HETATM   44  C24 UNL     1      -8.431   1.287   1.285  1.00  0.00     0.031 C 
ENDBRANCH  37  42
ENDBRANCH   8  35
TORSDOF 13
