REMARK  11 active torsions:
REMARK  status: ('A' for Active; 'I' for Inactive)
REMARK    1  A    between atoms: N1_1  and  C1_4 
REMARK    2  A    between atoms: C1_4  and  C2_6 
REMARK    3  A    between atoms: C2_6  and  N3_7 
REMARK    4  A    between atoms: N3_7  and  C3_9 
REMARK    5  A    between atoms: C3_9  and  C4_10 
REMARK    6  A    between atoms: C4_10  and  O1_11 
REMARK    7  A    between atoms: O1_11  and  N4_12 
REMARK    8  A    between atoms: N4_12  and  C5_14 
REMARK    9  A    between atoms: C5_14  and  C6_15 
REMARK   10  A    between atoms: C5_14  and  C7_18 
REMARK   11  A    between atoms: C12_29  and  N9_30 
ROOT
HETATM    1  C5  UNL     1      -1.243  -1.532   1.050  1.00  0.00     0.231 C 
ENDROOT
BRANCH   1   2
HETATM    2  N4  UNL     1       0.108  -1.490   1.210  1.00  0.00    -0.284 N 
ATOM      3  H4  UNL     1       0.575  -2.001   1.959  1.00  0.00     0.189 HD
BRANCH   2   4
HETATM    4  O1  UNL     1       0.794  -0.742   0.331  1.00  0.00    -0.282 OA
BRANCH   4   5
HETATM    5  C4  UNL     1       1.760  -1.525  -0.399  1.00  0.00     0.220 C 
BRANCH   5   6
HETATM    6  C3  UNL     1       3.024  -0.683  -0.125  1.00  0.00     0.148 C 
BRANCH   6   7
HETATM    7  N3  UNL     1       3.019   0.648  -0.581  1.00  0.00    -0.394 N 
ATOM      8  H3  UNL     1       2.465   0.992  -1.365  1.00  0.00     0.159 HD
BRANCH   7   9
HETATM    9  C2  UNL     1       3.900   1.452   0.210  1.00  0.00     0.128 C 
BRANCH   9  10
HETATM   10  C1  UNL     1       5.316   1.312   0.105  1.00  0.00     0.125 C 
HETATM   11  N2  UNL     1       6.084   0.142   0.113  1.00  0.00    -0.082 NA
BRANCH  10  12
HETATM   12  N1  UNL     1       6.046   2.428   0.115  1.00  0.00    -0.387 N 
ATOM     13  H12 UNL     1       7.058   2.328   0.040  1.00  0.00     0.157 HD
ATOM     14  H11 UNL     1       5.486   3.281   0.109  1.00  0.00     0.157 HD
ENDBRANCH  10  12
ENDBRANCH   9  10
ENDBRANCH   7   9
ENDBRANCH   6   7
ENDBRANCH   5   6
ENDBRANCH   4   5
ENDBRANCH   2   4
ENDBRANCH   1   2
BRANCH   1  15
HETATM   15  C6  UNL     1      -1.432  -2.503  -0.130  1.00  0.00     0.260 C 
HETATM   16  N5  UNL     1      -2.152  -1.995  -1.224  1.00  0.00    -0.060 NA
HETATM   17  O2  UNL     1      -0.955  -3.613  -0.045  1.00  0.00    -0.274 OA
ENDBRANCH   1  15
BRANCH   1  18
HETATM   18  C7  UNL     1      -2.061  -0.375   0.768  1.00  0.00     0.019 A 
HETATM   19  C8  UNL     1      -1.575   0.823   0.343  1.00  0.00     0.102 A 
HETATM   20  N6  UNL     1      -2.353   1.795  -0.125  1.00  0.00    -0.350 N 
HETATM   21  C9  UNL     1      -3.692   1.639  -0.203  1.00  0.00     0.135 A 
ATOM     22  H6  UNL     1      -1.931   2.672  -0.430  1.00  0.00     0.166 HD
HETATM   23  N7  UNL     1      -4.693   2.429  -0.651  1.00  0.00    -0.337 N 
HETATM   24  C11 UNL     1      -4.272   0.446   0.215  1.00  0.00     0.104 A 
HETATM   25  C10 UNL     1      -5.836   1.771  -0.508  1.00  0.00     0.182 A 
ATOM     26  H7  UNL     1      -4.588   3.369  -1.033  1.00  0.00     0.168 HD
HETATM   27  N8  UNL     1      -5.558   0.598   0.018  1.00  0.00    -0.347 N 
ATOM     28  H8  UNL     1      -6.259  -0.108   0.245  1.00  0.00     0.167 HD
HETATM   29  C12 UNL     1      -3.421  -0.553   0.706  1.00  0.00     0.067 A 
BRANCH  29  30
HETATM   30  N9  UNL     1      -3.973  -1.629   1.196  1.00  0.00    -0.397 N 
ATOM     31  H92 UNL     1      -3.354  -2.356   1.553  1.00  0.00     0.156 HD
ATOM     32  H91 UNL     1      -4.983  -1.761   1.150  1.00  0.00     0.156 HD
ENDBRANCH  29  30
ENDBRANCH   1  18
TORSDOF 11
