REMARK  11 active torsions:
REMARK  status: ('A' for Active; 'I' for Inactive)
REMARK    1  A    between atoms: N1_1  and  N2_4 
REMARK       I    between atoms: N2_4  and  C1_6 
REMARK       I    between atoms: C1_6  and  N3_8 
REMARK    2  A    between atoms: N3_8  and  O2_10 
REMARK    3  A    between atoms: O2_10  and  C2_11 
REMARK    4  A    between atoms: C2_11  and  C3_12 
REMARK    5  A    between atoms: C3_12  and  N4_13 
REMARK    6  A    between atoms: N4_13  and  C4_15 
REMARK    7  A    between atoms: C4_15  and  O3_16 
REMARK    8  A    between atoms: C4_15  and  N5_18 
REMARK    9  A    between atoms: C4_15  and  N7_28 
REMARK   10  A    between atoms: N5_18  and  N6_20 
REMARK   11  A    between atoms: N6_20  and  C5_22 
REMARK       I    between atoms: N7_28  and  C11_30 
ROOT
HETATM    1  C4  UNL     1      -0.367  -1.167   0.029  1.00  0.00     0.319 C 
ENDROOT
BRANCH   1   2
HETATM    2  N4  UNL     1       0.533  -1.194  -1.085  1.00  0.00    -0.333 N 
ATOM      3  H4  UNL     1       0.289  -0.716  -1.952  1.00  0.00     0.165 HD
BRANCH   2   4
HETATM    4  C3  UNL     1       1.749  -1.880  -0.978  1.00  0.00     0.090 C 
BRANCH   4   5
HETATM    5  C2  UNL     1       2.704  -1.209  -0.038  1.00  0.00     0.245 C 
BRANCH   5   6
HETATM    6  O2  UNL     1       2.955   0.084  -0.495  1.00  0.00    -0.271 OA
BRANCH   6   7
HETATM    7  N3  UNL     1       3.812   0.656   0.378  1.00  0.00    -0.215 N 
HETATM    8  C1  UNL     1       4.838   1.491  -0.111  1.00  0.00     0.358 C 
HETATM    9  N2  UNL     1       5.739   2.094   0.803  1.00  0.00    -0.257 N 
HETATM   10  O1  UNL     1       4.916   1.671  -1.356  1.00  0.00    -0.243 OA
ATOM     11  H2  UNL     1       5.650   1.929   1.806  1.00  0.00     0.191 HD
ATOM     12  H3  UNL     1       3.718   0.486   1.379  1.00  0.00     0.199 HD
BRANCH   9  13
HETATM   13  N1  UNL     1       6.745   2.914   0.306  1.00  0.00    -0.341 N 
ATOM     14  H12 UNL     1       6.820   3.069  -0.699  1.00  0.00     0.177 HD
ATOM     15  H11 UNL     1       7.393   3.348   0.963  1.00  0.00     0.177 HD
ENDBRANCH   9  13
ENDBRANCH   6   7
ENDBRANCH   5   6
ENDBRANCH   4   5
ENDBRANCH   2   4
ENDBRANCH   1   2
BRANCH   1  16
HETATM   16  O3  UNL     1       0.162  -0.496   1.123  1.00  0.00    -0.335 OA
ATOM     17  H3  UNL     1      -0.435  -0.478   1.862  1.00  0.00     0.216 HD
ENDBRANCH   1  16
BRANCH   1  18
HETATM   18  N5  UNL     1      -1.524  -0.443  -0.425  1.00  0.00    -0.265 N 
ATOM     19  H5  UNL     1      -1.575  -0.073  -1.374  1.00  0.00     0.187 HD
BRANCH  18  20
HETATM   20  N6  UNL     1      -2.542  -0.269   0.448  1.00  0.00    -0.300 N 
ATOM     21  H6  UNL     1      -2.708  -0.937   1.201  1.00  0.00     0.186 HD
BRANCH  20  22
HETATM   22  C5  UNL     1      -3.385   0.886   0.283  1.00  0.00     0.048 A 
HETATM   23  C6  UNL     1      -3.131   1.806  -0.731  1.00  0.00     0.031 A 
HETATM   24  C7  UNL     1      -3.948   2.900  -0.877  1.00  0.00     0.002 A 
HETATM   25  C8  UNL     1      -5.014   3.133  -0.065  1.00  0.00     0.000 A 
HETATM   26  C9  UNL     1      -5.294   2.228   0.961  1.00  0.00     0.002 A 
HETATM   27  C10 UNL     1      -4.468   1.136   1.098  1.00  0.00     0.031 A 
ENDBRANCH  20  22
ENDBRANCH  18  20
ENDBRANCH   1  18
BRANCH   1  28
HETATM   28  N7  UNL     1      -0.680  -2.512   0.452  1.00  0.00    -0.276 N 
HETATM   29  C11 UNL     1      -1.628  -3.306  -0.233  1.00  0.00     0.333 C 
HETATM   30  N8  UNL     1      -1.955  -4.621   0.152  1.00  0.00    -0.040 NA
HETATM   31  O4  UNL     1      -2.208  -2.803  -1.243  1.00  0.00    -0.251 OA
ATOM     32  H7  UNL     1      -0.204  -2.899   1.267  1.00  0.00     0.170 HD
ENDBRANCH   1  28
TORSDOF 11
