REMARK  7 active torsions:
REMARK  status: ('A' for Active; 'I' for Inactive)
REMARK    1  A    between atoms: O1_2  and  C2_3 
REMARK       I    between atoms: C2_3  and  N1_5 
REMARK    2  A    between atoms: N1_5  and  C3_7 
REMARK    3  A    between atoms: C4_8  and  N2_9 
REMARK    4  A    between atoms: N2_9  and  N3_11 
REMARK    5  A    between atoms: C5_14  and  O3_15 
REMARK       I    between atoms: N5_20  and  C7_22 
REMARK       I    between atoms: C7_22  and  N6_23 
REMARK       I    between atoms: C7_22  and  N7_27 
REMARK    6  A    between atoms: C8_31  and  N8_32 
REMARK    7  A    between atoms: N8_32  and  O4_34 
ROOT
HETATM    1  C3  UNL     1       0.734  -0.089   0.678  1.00  0.00     0.102 A 
HETATM    2  C4  UNL     1       0.658  -1.434   0.418  1.00  0.00     0.128 A 
HETATM    3  C5  UNL     1      -0.554  -2.001   0.053  1.00  0.00     0.172 A 
HETATM    4  N4  UNL     1      -1.647  -1.205  -0.040  1.00  0.00    -0.319 N 
ATOM      5  H4  UNL     1      -2.539  -1.621  -0.309  1.00  0.00     0.169 HD
HETATM    6  C6  UNL     1      -1.595   0.104   0.208  1.00  0.00     0.137 A 
HETATM    7  N5  UNL     1      -2.605   0.852   0.125  1.00  0.00    -0.325 N 
ATOM      8  H5  UNL     1      -2.436   1.835   0.339  1.00  0.00     0.165 HD
HETATM    9  C7  UNL     1      -3.954   0.529  -0.225  1.00  0.00     0.481 C 
HETATM   10  N6  UNL     1      -4.797   0.939   0.885  1.00  0.00    -0.033 N 
ATOM     11  H61 UNL     1      -5.759   0.709   0.635  1.00  0.00     0.278 HD
ATOM     12  H62 UNL     1      -4.674   1.919   1.139  1.00  0.00     0.278 HD
ATOM     13  H63 UNL     1      -4.508   0.535   1.776  1.00  0.00     0.278 HD
HETATM   14  N7  UNL     1      -4.271   1.271  -1.433  1.00  0.00    -0.033 N 
ATOM     15  H71 UNL     1      -5.233   1.041  -1.683  1.00  0.00     0.278 HD
ATOM     16  H72 UNL     1      -3.610   1.103  -2.191  1.00  0.00     0.278 HD
ATOM     17  H73 UNL     1      -4.111   2.274  -1.340  1.00  0.00     0.278 HD
HETATM   18  C8  UNL     1      -0.391   0.688   0.575  1.00  0.00     0.127 A 
ENDROOT
BRANCH  18  19
HETATM   19  N8  UNL     1      -0.349   2.082   0.836  1.00  0.00    -0.263 N 
ATOM     20  H8  UNL     1       0.038   2.448   1.706  1.00  0.00     0.194 HD
BRANCH  19  21
HETATM   21  O4  UNL     1      -0.807   2.844  -0.046  1.00  0.00    -0.289 OA
ATOM     22  H4  UNL     1      -0.779   3.777   0.129  1.00  0.00     0.244 HD
ENDBRANCH  19  21
ENDBRANCH  18  19
BRANCH   3  23
HETATM   23  O3  UNL     1      -0.643  -3.373  -0.214  1.00  0.00    -0.344 OA
ATOM     24  H3  UNL     1      -1.473  -3.761  -0.464  1.00  0.00     0.219 HD
ENDBRANCH   3  23
BRANCH   1  25
HETATM   25  N1  UNL     1       1.996   0.461   1.048  1.00  0.00    -0.298 N 
HETATM   26  C2  UNL     1       2.906   0.989   0.117  1.00  0.00     0.364 C 
HETATM   27  O2  UNL     1       2.614   0.988  -1.097  1.00  0.00    -0.238 OA
ATOM     28  H1  UNL     1       2.250   0.472   2.036  1.00  0.00     0.171 HD
BRANCH  26  29
HETATM   29  O1  UNL     1       4.111   1.505   0.537  1.00  0.00    -0.309 OA
HETATM   30  C1  UNL     1       5.048   2.045  -0.385  1.00  0.00     0.215 C 
ENDBRANCH  26  29
ENDBRANCH   1  25
BRANCH   2  31
HETATM   31  N2  UNL     1       1.794  -2.284   0.514  1.00  0.00    -0.301 N 
ATOM     32  H2  UNL     1       2.038  -2.721   1.403  1.00  0.00     0.186 HD
BRANCH  31  33
HETATM   33  N3  UNL     1       2.564  -2.511  -0.613  1.00  0.00    -0.344 N 
ATOM     34  H32 UNL     1       2.306  -2.066  -1.494  1.00  0.00     0.176 HD
ATOM     35  H31 UNL     1       3.379  -3.121  -0.544  1.00  0.00     0.176 HD
ENDBRANCH  31  33
ENDBRANCH   2  31
TORSDOF 7
