REMARK  12 active torsions:
REMARK  status: ('A' for Active; 'I' for Inactive)
REMARK    1  A    between atoms: C2_2  and  N1_3 
REMARK    2  A    between atoms: N1_3  and  C3_4 
REMARK    3  A    between atoms: N1_3  and  N2_6 
REMARK    4  A    between atoms: N2_6  and  C5_8 
REMARK    5  A    between atoms: C5_8  and  O1_9 
REMARK    6  A    between atoms: C5_8  and  N3_11 
REMARK    7  A    between atoms: N3_11  and  C6_13 
REMARK    8  A    between atoms: C6_13  and  O2_14 
REMARK    9  A    between atoms: C6_13  and  N4_16 
REMARK   10  A    between atoms: N4_16  and  C7_18 
REMARK   11  A    between atoms: C8_21  and  N6_22 
REMARK   12  A    between atoms: N6_22  and  N7_23 
ROOT
HETATM    1  C6  UNL     1       0.898  -1.328   1.220  1.00  0.00     0.227 C 
ENDROOT
BRANCH   1   2
HETATM    2  N3  UNL     1      -0.414  -1.430   1.624  1.00  0.00    -0.287 N 
ATOM      3  H3  UNL     1      -0.539  -2.088   2.393  1.00  0.00     0.173 HD
BRANCH   2   4
HETATM    4  C5  UNL     1      -1.608  -0.841   1.223  1.00  0.00     0.239 C 
BRANCH   4   5
HETATM    5  N2  UNL     1      -1.866   0.092   0.217  1.00  0.00    -0.267 N 
ATOM      6  H2  UNL     1      -1.101   0.438  -0.362  1.00  0.00     0.190 HD
BRANCH   5   7
HETATM    7  N1  UNL     1      -3.172   0.556  -0.002  1.00  0.00    -0.326 N 
BRANCH   7   8
HETATM    8  C2  UNL     1      -4.057  -0.377  -0.590  1.00  0.00     0.138 C 
HETATM    9  C1  UNL     1      -3.300  -1.142  -1.664  1.00  0.00     0.028 C 
ENDBRANCH   7   8
BRANCH   7  10
HETATM   10  C3  UNL     1      -3.663   1.387   1.030  1.00  0.00     0.138 C 
HETATM   11  C4  UNL     1      -4.673   2.418   0.620  1.00  0.00     0.028 C 
ENDBRANCH   7  10
ENDBRANCH   5   7
ENDBRANCH   4   5
BRANCH   4  12
HETATM   12  O1  UNL     1      -2.685  -1.196   1.879  1.00  0.00    -0.331 OA
ATOM     13  H1  UNL     1      -2.509  -1.831   2.564  1.00  0.00     0.221 HD
ENDBRANCH   4  12
ENDBRANCH   2   4
ENDBRANCH   1   2
BRANCH   1  14
HETATM   14  O2  UNL     1       1.721  -2.083   1.916  1.00  0.00    -0.332 OA
ATOM     15  H2  UNL     1       2.626  -2.013   1.637  1.00  0.00     0.221 HD
ENDBRANCH   1  14
BRANCH   1  16
HETATM   16  N4  UNL     1       1.474  -0.554   0.195  1.00  0.00    -0.293 N 
ATOM     17  H4  UNL     1       0.873   0.038  -0.378  1.00  0.00     0.172 HD
BRANCH  16  18
HETATM   18  C7  UNL     1       2.883  -0.577  -0.063  1.00  0.00     0.196 C 
HETATM   19  N5  UNL     1       3.421   0.148  -1.046  1.00  0.00    -0.327 N 
HETATM   20  C8  UNL     1       4.834  -0.059  -1.086  1.00  0.00     0.313 C 
ATOM     21  H5  UNL     1       2.901   0.759  -1.675  1.00  0.00     0.165 HD
HETATM   22  N8  UNL     1       5.119  -1.132  -0.156  1.00  0.00    -0.094 NA
HETATM   23  N9  UNL     1       3.909  -1.269   0.585  1.00  0.00    -0.272 N 
ATOM     24  H9  UNL     1       3.808  -1.792   1.455  1.00  0.00     0.185 HD
BRANCH  20  25
HETATM   25  N6  UNL     1       5.577   1.118  -0.673  1.00  0.00    -0.103 NA
BRANCH  25  26
HETATM   26  N7  UNL     1       5.163   1.460   0.618  1.00  0.00    -0.345 N 
ATOM     27  H72 UNL     1       4.460   0.960   1.162  1.00  0.00     0.172 HD
ATOM     28  H71 UNL     1       5.685   2.287   0.908  1.00  0.00     0.172 HD
ENDBRANCH  25  26
ENDBRANCH  20  25
ENDBRANCH  16  18
ENDBRANCH   1  16
TORSDOF 12
