REMARK  9 active torsions:
REMARK  status: ('A' for Active; 'I' for Inactive)
REMARK    1  A    between atoms: O1_2  and  C2_3 
REMARK    2  A    between atoms: C2_3  and  C3_9 
REMARK    3  A    between atoms: N1_4  and  N2_6 
REMARK    4  A    between atoms: C4_10  and  N3_11 
REMARK    5  A    between atoms: N3_11  and  O2_12 
REMARK    6  A    between atoms: N4_14  and  O3_15 
REMARK    7  A    between atoms: C5_17  and  S1_18 
REMARK    8  A    between atoms: S1_18  and  S2_19 
REMARK    9  A    between atoms: S2_19  and  C6_20 
ROOT
HETATM    1  C3  UNL     1      -0.299  -0.833   0.647  1.00  0.00     0.130 C 
HETATM    2  C4  UNL     1      -0.798  -1.789  -0.420  1.00  0.00     0.221 C 
HETATM    3  N4  UNL     1       0.576  -1.845  -0.881  1.00  0.00    -0.161 NA
HETATM    4  C5  UNL     1       0.669  -0.445  -0.457  1.00  0.00     0.175 C 
ENDROOT
BRANCH   1   5
HETATM    5  C2  UNL     1      -1.286   0.172   1.020  1.00  0.00     0.141 C 
HETATM    6  N1  UNL     1      -1.698   0.242   2.238  1.00  0.00    -0.290 N 
ATOM      7  H1  UNL     1      -2.388   0.959   2.461  1.00  0.00     0.188 HD
BRANCH   5   8
HETATM    8  O1  UNL     1      -1.794   1.056   0.106  1.00  0.00    -0.343 OA
HETATM    9  C1  UNL     1      -2.518   2.218   0.503  1.00  0.00     0.211 C 
ENDBRANCH   5   8
BRANCH   6  10
HETATM   10  N2  UNL     1      -1.276  -0.580   3.266  1.00  0.00    -0.343 N 
ATOM     11  H22 UNL     1      -0.585  -1.291   3.024  1.00  0.00     0.176 HD
ATOM     12  H21 UNL     1      -1.602  -0.525   4.231  1.00  0.00     0.176 HD
ENDBRANCH   6  10
ENDBRANCH   1   5
BRANCH   2  13
HETATM   13  N3  UNL     1      -1.334  -3.027   0.083  1.00  0.00    -0.080 NA
BRANCH  13  14
HETATM   14  O2  UNL     1      -0.330  -3.641   0.771  1.00  0.00    -0.294 OA
ATOM     15  H2  UNL     1      -0.684  -4.458   1.103  1.00  0.00     0.238 HD
ENDBRANCH  13  14
ENDBRANCH   2  13
BRANCH   4  16
HETATM   16  S1  UNL     1       2.285   0.011  -0.019  1.00  0.00    -0.067 SA
BRANCH  16  17
HETATM   17  S2  UNL     1       3.149   0.433  -1.901  1.00  0.00    -0.023 SA
BRANCH  17  18
HETATM   18  C6  UNL     1       2.888   2.111  -2.090  1.00  0.00     0.158 C 
HETATM   19  N5  UNL     1       3.303   2.730  -3.167  1.00  0.00    -0.382 N 
ATOM     20  H52 UNL     1       3.777   2.150  -3.859  1.00  0.00     0.157 HD
ATOM     21  H51 UNL     1       3.147   3.732  -3.280  1.00  0.00     0.157 HD
HETATM   22  N6  UNL     1       2.229   2.918  -1.127  1.00  0.00    -0.074 NA
ENDBRANCH  17  18
ENDBRANCH  16  17
ENDBRANCH   4  16
BRANCH   3  23
HETATM   23  O3  UNL     1       0.739  -2.038  -2.201  1.00  0.00    -0.310 OA
ATOM     24  H3  UNL     1       1.639  -2.075  -2.503  1.00  0.00     0.237 HD
ENDBRANCH   3  23
TORSDOF 9
