REMARK  8 active torsions:
REMARK  status: ('A' for Active; 'I' for Inactive)
REMARK    1  A    between atoms: C2_2  and  O1_3 
REMARK    2  A    between atoms: C2_2  and  N1_5 
REMARK    3  A    between atoms: N1_5  and  C3_7 
REMARK    4  A    between atoms: C4_10  and  N3_11 
REMARK    5  A    between atoms: C5_16  and  N5_17 
REMARK    6  A    between atoms: N5_17  and  C6_19 
REMARK    7  A    between atoms: C9_24  and  N8_25 
REMARK    8  A    between atoms: N8_25  and  O2_27 
ROOT
HETATM    1  C3  UNL     1       1.595   0.002  -0.032  1.00  0.00     0.151 A 
HETATM    2  N2  UNL     1       1.653  -1.335  -0.135  1.00  0.00    -0.175 N 
ATOM      3  H2  UNL     1       2.554  -1.774  -0.324  1.00  0.00     0.186 HD
HETATM    4  C4  UNL     1       0.564  -2.122   0.002  1.00  0.00     0.679 A 
HETATM    5  N4  UNL     1      -0.648  -1.591   0.254  1.00  0.00    -0.175 N 
ATOM      6  H4  UNL     1      -1.469  -2.187   0.358  1.00  0.00     0.186 HD
HETATM    7  C5  UNL     1      -0.746  -0.260   0.364  1.00  0.00     0.150 A 
HETATM    8  C9  UNL     1       0.366   0.572   0.226  1.00  0.00     0.142 A 
ENDROOT
BRANCH   7   9
HETATM    9  N5  UNL     1      -1.860   0.300   0.600  1.00  0.00    -0.354 N 
ATOM     10  H5  UNL     1      -1.872   1.317   0.673  1.00  0.00     0.163 HD
BRANCH   9  11
HETATM   11  C6  UNL     1      -3.110  -0.399   0.772  1.00  0.00     0.194 C 
HETATM   12  C7  UNL     1      -4.144   0.657   1.167  1.00  0.00     0.061 C 
HETATM   13  C8  UNL     1      -4.502   1.164  -0.225  1.00  0.00     0.133 C 
HETATM   14  N6  UNL     1      -4.604  -0.117  -0.937  1.00  0.00    -0.146 NA
HETATM   15  N7  UNL     1      -3.548  -0.874  -0.498  1.00  0.00    -0.123 NA
ENDBRANCH   9  11
ENDBRANCH   7   9
BRANCH   8  16
HETATM   16  N8  UNL     1       0.249   1.979   0.345  1.00  0.00    -0.262 N 
ATOM     17  H8  UNL     1       0.464   2.399   1.249  1.00  0.00     0.194 HD
BRANCH  16  18
HETATM   18  O2  UNL     1      -0.095   2.731  -0.571  1.00  0.00    -0.289 OA
ATOM     19  H2  UNL     1      -0.173   3.674  -0.491  1.00  0.00     0.244 HD
ENDBRANCH  16  18
ENDBRANCH   8  16
BRANCH   4  20
HETATM   20  N3  UNL     1       0.644  -3.410  -0.102  1.00  0.00    -0.234 N 
ATOM     21  H32 UNL     1       1.562  -3.812  -0.293  1.00  0.00     0.174 HD
ATOM     22  H31 UNL     1      -0.178  -4.004   0.001  1.00  0.00     0.174 HD
ENDBRANCH   4  20
BRANCH   1  23
HETATM   23  N1  UNL     1       2.736   0.831  -0.176  1.00  0.00    -0.348 N 
ATOM     24  H1  UNL     1       2.625   1.841  -0.087  1.00  0.00     0.163 HD
BRANCH  23  25
HETATM   25  C2  UNL     1       4.056   0.293  -0.446  1.00  0.00     0.215 C 
HETATM   26  C1  UNL     1       5.094   1.365  -0.564  1.00  0.00     0.063 C 
BRANCH  25  27
HETATM   27  O1  UNL     1       4.406  -0.478   0.683  1.00  0.00    -0.377 OA
ATOM     28  H1  UNL     1       3.747  -1.158   0.758  1.00  0.00     0.212 HD
ENDBRANCH  25  27
ENDBRANCH  23  25
ENDBRANCH   1  23
TORSDOF 8
