REMARK  10 active torsions:
REMARK  status: ('A' for Active; 'I' for Inactive)
REMARK    1  A    between atoms: O1_2  and  C2_3 
REMARK       I    between atoms: C2_3  and  N1_5 
REMARK    2  A    between atoms: N1_5  and  C3_7 
REMARK    3  A    between atoms: C4_10  and  N3_11 
REMARK    4  A    between atoms: C5_16  and  C6_17 
REMARK    5  A    between atoms: C6_17  and  O3_18 
REMARK    6  A    between atoms: C6_17  and  N5_20 
REMARK    7  A    between atoms: N5_20  and  N6_21 
REMARK    8  A    between atoms: C7_24  and  N7_25 
REMARK    9  A    between atoms: N7_25  and  N8_27 
REMARK   10  A    between atoms: N8_27  and  O4_29 
ROOT
HETATM    1  C3  UNL     1       0.929  -0.172   0.049  1.00  0.00     0.155 A 
HETATM    2  N2  UNL     1       1.120   0.806  -0.834  1.00  0.00    -0.174 N 
ATOM      3  H2  UNL     1       2.059   1.050  -1.150  1.00  0.00     0.186 HD
HETATM    4  C4  UNL     1       0.045   1.462  -1.297  1.00  0.00     0.677 A 
HETATM    5  N4  UNL     1      -1.186   1.157  -0.897  1.00  0.00    -0.189 N 
ATOM      6  H4  UNL     1      -1.979   1.678  -1.272  1.00  0.00     0.184 HD
HETATM    7  C5  UNL     1      -1.407   0.146   0.018  1.00  0.00     0.104 A 
HETATM    8  C7  UNL     1      -0.349  -0.542   0.513  1.00  0.00     0.121 A 
ENDROOT
BRANCH   7   9
HETATM    9  C6  UNL     1      -2.821  -0.065   0.295  1.00  0.00     0.284 C 
BRANCH   9  10
HETATM   10  O3  UNL     1      -3.429   1.172   0.589  1.00  0.00    -0.372 OA
ATOM     11  H3  UNL     1      -4.351   1.034   0.770  1.00  0.00     0.212 HD
ENDBRANCH   9  10
BRANCH   9  12
HETATM   12  N5  UNL     1      -3.275  -1.095   1.124  1.00  0.00    -0.110 NA
BRANCH  12  13
HETATM   13  N6  UNL     1      -4.692  -0.937   1.241  1.00  0.00    -0.346 N 
ATOM     14  H62 UNL     1      -5.250  -0.207   0.798  1.00  0.00     0.172 HD
ATOM     15  H61 UNL     1      -5.023  -1.689   1.846  1.00  0.00     0.172 HD
ENDBRANCH  12  13
ENDBRANCH   9  12
ENDBRANCH   7   9
BRANCH   8  16
HETATM   16  N7  UNL     1      -0.449  -1.568   1.450  1.00  0.00    -0.276 N 
ATOM     17  H7  UNL     1      -1.347  -1.818   1.865  1.00  0.00     0.189 HD
BRANCH  16  18
HETATM   18  N8  UNL     1       0.745  -2.255   1.809  1.00  0.00    -0.210 N 
ATOM     19  H8  UNL     1       1.531  -1.731   2.195  1.00  0.00     0.215 HD
BRANCH  18  20
HETATM   20  O4  UNL     1       0.843  -3.495   1.657  1.00  0.00    -0.274 OA
ATOM     21  H4  UNL     1       1.640  -3.953   1.897  1.00  0.00     0.246 HD
ENDBRANCH  18  20
ENDBRANCH  16  18
ENDBRANCH   8  16
BRANCH   4  22
HETATM   22  N3  UNL     1       0.236   2.430  -2.166  1.00  0.00    -0.234 N 
ATOM     23  H32 UNL     1       1.180   2.664  -2.473  1.00  0.00     0.174 HD
ATOM     24  H31 UNL     1      -0.581   2.929  -2.518  1.00  0.00     0.174 HD
ENDBRANCH   4  22
BRANCH   1  25
HETATM   25  N1  UNL     1       1.964  -0.809   0.498  1.00  0.00    -0.286 N 
HETATM   26  C2  UNL     1       3.284  -0.545   0.122  1.00  0.00     0.365 C 
HETATM   27  O2  UNL     1       3.900  -1.281  -0.722  1.00  0.00    -0.238 OA
ATOM     28  H1  UNL     1       1.804  -1.556   1.174  1.00  0.00     0.172 HD
BRANCH  26  29
HETATM   29  O1  UNL     1       4.027   0.534   0.634  1.00  0.00    -0.309 OA
HETATM   30  C1  UNL     1       5.373   0.762   0.220  1.00  0.00     0.215 C 
ENDBRANCH  26  29
ENDBRANCH   1  25
TORSDOF 10
