REMARK  14 active torsions:
REMARK  status: ('A' for Active; 'I' for Inactive)
REMARK    1  A    between atoms: N1_2  and  C3_4 
REMARK    2  A    between atoms: N1_2  and  C21_31 
REMARK    3  A    between atoms: C3_4  and  C4_5 
REMARK    4  A    between atoms: C4_5  and  C5_6 
REMARK    5  A    between atoms: C5_6  and  C6_7 
REMARK    6  A    between atoms: C6_7  and  C7_8 
REMARK    7  A    between atoms: C7_8  and  C8_9 
REMARK    8  A    between atoms: C8_9  and  C9_10 
REMARK    9  A    between atoms: C9_10  and  C10_11 
REMARK   10  A    between atoms: C10_11  and  N2_12 
REMARK       I    between atoms: N2_12  and  C11_14 
REMARK   11  A    between atoms: C11_14  and  C12_16 
REMARK   12  A    between atoms: C12_16  and  C13_17 
REMARK   13  A    between atoms: C13_17  and  N3_18 
REMARK       I    between atoms: N3_18  and  C14_20 
REMARK   14  A    between atoms: N5_22  and  C15_24 
ROOT
HETATM    1  C10 UNL     1       1.946   0.619   2.419  1.00  0.00     0.122 C 
ENDROOT
BRANCH   1   2
HETATM    2  C9  UNL     1       1.079   0.329   1.237  1.00  0.00     0.020 C 
BRANCH   2   3
HETATM    3  C8  UNL     1      -0.355   0.807   1.477  1.00  0.00     0.002 C 
BRANCH   3   4
HETATM    4  C7  UNL     1      -0.991   0.140   2.683  1.00  0.00     0.004 C 
BRANCH   4   5
HETATM    5  C6  UNL     1      -1.036  -1.317   2.493  1.00  0.00     0.027 C 
BRANCH   5   6
HETATM    6  C5  UNL     1      -1.886  -1.856   1.415  1.00  0.00    -0.025 C 
BRANCH   6   7
HETATM    7  C4  UNL     1      -3.329  -1.793   1.449  1.00  0.00     0.021 C 
BRANCH   7   8
HETATM    8  C3  UNL     1      -4.241  -0.678   1.393  1.00  0.00     0.204 C 
BRANCH   8   9
HETATM    9  N1  UNL     1      -4.425   0.132   0.254  1.00  0.00    -0.023 N 
HETATM   10  C1  UNL     1      -3.981   1.487   0.570  1.00  0.00     0.280 C 
HETATM   11  C2  UNL     1      -3.665  -0.255  -0.927  1.00  0.00     0.280 C 
BRANCH   9  12
HETATM   12  C21 UNL     1      -5.798   0.268  -0.218  1.00  0.00     0.428 C 
HETATM   13  C22 UNL     1      -6.852  -0.440   0.551  1.00  0.00     0.071 C 
HETATM   14  C23 UNL     1      -8.156  -0.179  -0.239  1.00  0.00    -0.009 C 
HETATM   15  C24 UNL     1      -8.352   1.249  -0.566  1.00  0.00     0.006 C 
HETATM   16  C28 UNL     1      -8.146  -1.087  -1.448  1.00  0.00     0.035 C 
HETATM   17  C25 UNL     1      -7.605   1.782  -1.724  1.00  0.00     0.031 C 
HETATM   18  C26 UNL     1      -6.641   0.901  -2.397  1.00  0.00     0.275 C 
HETATM   19  N6  UNL     1      -5.980  -0.095  -1.604  1.00  0.00     0.120 N 
HETATM   20  C27 UNL     1      -6.698  -1.331  -1.801  1.00  0.00     0.275 C 
ENDBRANCH   9  12
ENDBRANCH   8   9
ENDBRANCH   7   8
ENDBRANCH   6   7
ENDBRANCH   5   6
ENDBRANCH   4   5
ENDBRANCH   3   4
ENDBRANCH   2   3
ENDBRANCH   1   2
BRANCH   1  21
HETATM   21  N2  UNL     1       3.294   0.180   2.233  1.00  0.00    -0.361 N 
HETATM   22  C11 UNL     1       4.105   0.708   1.211  1.00  0.00     0.219 C 
HETATM   23  O1  UNL     1       3.695   1.579   0.432  1.00  0.00    -0.274 OA
ATOM     24  H2  UNL     1       3.677  -0.532   2.855  1.00  0.00     0.162 HD
BRANCH  22  25
HETATM   25  C12 UNL     1       5.506   0.158   1.111  1.00  0.00     0.122 C 
BRANCH  25  26
HETATM   26  C13 UNL     1       6.179   0.852  -0.027  1.00  0.00     0.131 C 
BRANCH  26  27
HETATM   27  N3  UNL     1       7.545   0.428  -0.246  1.00  0.00    -0.364 N 
HETATM   28  C14 UNL     1       7.858  -0.854  -0.731  1.00  0.00     0.188 C 
HETATM   29  N4  UNL     1       6.827  -1.813  -0.874  1.00  0.00    -0.064 NA
HETATM   30  N5  UNL     1       9.031  -1.183  -1.054  1.00  0.00    -0.331 N 
ATOM     31  H5  UNL     1       9.130  -2.141  -1.391  1.00  0.00     0.168 HD
ATOM     32  H3  UNL     1       8.304   1.079  -0.042  1.00  0.00     0.162 HD
BRANCH  30  33
HETATM   33  C15 UNL     1      10.222  -0.443  -1.024  1.00  0.00     0.034 A 
HETATM   34  C16 UNL     1      10.372   0.805  -1.570  1.00  0.00     0.031 A 
HETATM   35  C17 UNL     1      11.563   1.466  -1.498  1.00  0.00     0.021 A 
HETATM   36  C18 UNL     1      12.642   0.897  -0.877  1.00  0.00     0.011 A 
HETATM   37 BR1  UNL     1      14.321   1.780  -0.751  1.00  0.00    -0.051 Br
HETATM   38  C19 UNL     1      12.513  -0.358  -0.321  1.00  0.00     0.021 A 
HETATM   39  C20 UNL     1      11.313  -1.021  -0.395  1.00  0.00     0.031 A 
ENDBRANCH  30  33
ENDBRANCH  26  27
ENDBRANCH  25  26
ENDBRANCH  22  25
ENDBRANCH   1  21
TORSDOF 14
