REMARK  14 active torsions:
REMARK  status: ('A' for Active; 'I' for Inactive)
REMARK    1  A    between atoms: N1_2  and  C2_3 
REMARK    2  A    between atoms: C2_3  and  C3_4 
REMARK    3  A    between atoms: N2_14  and  C13_15 
REMARK    4  A    between atoms: C13_15  and  C14_16 
REMARK    5  A    between atoms: C14_16  and  C15_17 
REMARK    6  A    between atoms: C15_17  and  C16_18 
REMARK    7  A    between atoms: C16_18  and  C17_19 
REMARK    8  A    between atoms: C17_19  and  C18_20 
REMARK    9  A    between atoms: C18_20  and  C19_21 
REMARK   10  A    between atoms: C19_21  and  N3_22 
REMARK       I    between atoms: N3_22  and  C20_24 
REMARK   11  A    between atoms: C20_24  and  C21_26 
REMARK   12  A    between atoms: C21_26  and  N4_27 
REMARK       I    between atoms: N4_27  and  C22_29 
REMARK       I    between atoms: C22_29  and  N5_31 
REMARK   13  A    between atoms: N5_31  and  C23_33 
REMARK   14  A    between atoms: C23_33  and  C24_34 
ROOT
HETATM    1  C17 UNL     1       1.967  -1.766   0.038  1.00  0.00     0.028 C 
ENDROOT
BRANCH   1   2
HETATM    2  C16 UNL     1       1.286  -3.040  -0.414  1.00  0.00     0.004 C 
BRANCH   2   3
HETATM    3  C15 UNL     1       0.416  -3.687   0.580  1.00  0.00     0.002 C 
BRANCH   3   4
HETATM    4  C14 UNL     1      -0.817  -3.012   1.037  1.00  0.00     0.030 C 
BRANCH   4   5
HETATM    5  C13 UNL     1      -1.890  -2.785   0.045  1.00  0.00     0.272 C 
BRANCH   5   6
HETATM    6  N2  UNL     1      -1.694  -1.908  -1.046  1.00  0.00     0.090 N 
HETATM    7  C12 UNL     1      -2.730  -2.153  -2.085  1.00  0.00     0.274 C 
HETATM    8  C11 UNL     1      -4.084  -1.708  -1.655  1.00  0.00     0.058 C 
HETATM    9  C10 UNL     1      -4.200  -0.214  -1.784  1.00  0.00     0.238 C 
HETATM   10  N1  UNL     1      -4.052   0.482  -0.519  1.00  0.00    -0.069 N 
HETATM   11  C1  UNL     1      -3.798   1.869  -0.847  1.00  0.00     0.272 C 
HETATM   12  C31 UNL     1      -2.860  -0.054   0.153  1.00  0.00     0.267 C 
HETATM   13  C30 UNL     1      -1.757  -0.484  -0.719  1.00  0.00     0.300 C 
BRANCH  10  14
HETATM   14  C2  UNL     1      -5.134   0.271   0.383  1.00  0.00     0.241 C 
BRANCH  14  15
HETATM   15  C3  UNL     1      -6.208   1.281   0.477  1.00  0.00     0.012 C 
HETATM   16  C4  UNL     1      -6.924   1.469  -0.837  1.00  0.00     0.006 C 
HETATM   17  C5  UNL     1      -8.171   2.319  -0.541  1.00  0.00     0.000 C 
HETATM   18  C6  UNL     1      -7.734   3.486   0.274  1.00  0.00     0.000 C 
HETATM   19  C7  UNL     1      -7.715   3.226   1.748  1.00  0.00     0.000 C 
HETATM   20  C8  UNL     1      -8.035   1.822   2.133  1.00  0.00     0.000 C 
HETATM   21  C9  UNL     1      -7.287   0.751   1.440  1.00  0.00     0.006 C 
ENDBRANCH  14  15
ENDBRANCH  10  14
ENDBRANCH   5   6
ENDBRANCH   4   5
ENDBRANCH   3   4
ENDBRANCH   2   3
ENDBRANCH   1   2
BRANCH   1  22
HETATM   22  C18 UNL     1       2.874  -1.921   1.183  1.00  0.00    -0.010 C 
BRANCH  22  23
HETATM   23  C19 UNL     1       4.082  -2.732   1.185  1.00  0.00     0.087 C 
BRANCH  23  24
HETATM   24  N3  UNL     1       5.219  -2.477   0.423  1.00  0.00    -0.333 N 
HETATM   25  C20 UNL     1       5.434  -2.479  -0.942  1.00  0.00     0.260 C 
HETATM   26  O1  UNL     1       4.500  -2.783  -1.746  1.00  0.00    -0.267 OA
ATOM     27  H3  UNL     1       6.046  -2.246   0.974  1.00  0.00     0.168 HD
BRANCH  25  28
HETATM   28  C21 UNL     1       6.726  -2.149  -1.618  1.00  0.00     0.167 C 
BRANCH  28  29
HETATM   29  N4  UNL     1       7.716  -1.698  -0.725  1.00  0.00    -0.314 N 
HETATM   30  C22 UNL     1       7.596  -0.464  -0.016  1.00  0.00     0.320 C 
HETATM   31  O2  UNL     1       6.570   0.240  -0.226  1.00  0.00    -0.247 OA
HETATM   32  N5  UNL     1       8.608  -0.036   0.906  1.00  0.00    -0.339 N 
ATOM     33  H5  UNL     1       9.426  -0.621   1.079  1.00  0.00     0.164 HD
ATOM     34  H4  UNL     1       8.547  -2.272  -0.579  1.00  0.00     0.170 HD
BRANCH  32  35
HETATM   35  C23 UNL     1       8.464   1.213   1.580  1.00  0.00     0.164 C 
BRANCH  35  36
HETATM   36  C24 UNL     1       8.591   2.367   0.685  1.00  0.00    -0.019 A 
HETATM   37  C25 UNL     1       8.928   2.217  -0.626  1.00  0.00     0.010 A 
HETATM   38  C26 UNL     1       9.084   3.332  -1.460  1.00  0.00     0.001 A 
HETATM   39  C27 UNL     1       8.908   4.597  -0.992  1.00  0.00     0.002 A 
HETATM   40  C28 UNL     1       8.569   4.736   0.333  1.00  0.00     0.024 A 
HETATM   41  C29 UNL     1       8.411   3.663   1.161  1.00  0.00     0.042 A 
HETATM   42 CL1  UNL     1       7.982   3.875   2.830  1.00  0.00    -0.084 Cl
ENDBRANCH  35  36
ENDBRANCH  32  35
ENDBRANCH  28  29
ENDBRANCH  25  28
ENDBRANCH  23  24
ENDBRANCH  22  23
ENDBRANCH   1  22
TORSDOF 14
