REMARK  3 active torsions:
REMARK  status: ('A' for Active; 'I' for Inactive)
REMARK    1  A    between atoms: N1_2  and  N2_3 
REMARK    2  A    between atoms: N1_2  and  N3_6 
REMARK    3  A    between atoms: N4_8  and  C2_10 
ROOT
HETATM    1  N3  UNL     1       2.226  -0.308   1.477  1.00  0.00    -0.231 N 
ATOM      2  H3  UNL     1       2.661  -0.590   2.355  1.00  0.00     0.209 HD
HETATM    3  N4  UNL     1       0.970  -0.444   1.388  1.00  0.00    -0.316 N 
ATOM      4  H4  UNL     1       0.437  -0.820   2.172  1.00  0.00     0.182 HD
ENDROOT
BRANCH   3   5
HETATM    5  C2  UNL     1       0.307  -0.067   0.182  1.00  0.00     0.101 C 
HETATM    6  C3  UNL     1      -0.386   1.282   0.292  1.00  0.00     0.027 C 
HETATM    7  C4  UNL     1      -1.603   1.100  -0.586  1.00  0.00     0.011 C 
HETATM    8  C5  UNL     1      -2.066  -0.285  -0.179  1.00  0.00    -0.046 C 
HETATM    9  C6  UNL     1      -3.086  -0.841  -1.124  1.00  0.00     0.015 C 
HETATM   10  C7  UNL     1      -2.528  -0.323   1.260  1.00  0.00     0.015 C 
HETATM   11  C8  UNL     1      -0.756  -1.057  -0.238  1.00  0.00     0.035 C 
ENDBRANCH   3   5
BRANCH   1  12
HETATM   12  N1  UNL     1       3.059   0.186   0.496  1.00  0.00    -0.231 N 
HETATM   13  C1  UNL     1       3.772  -0.781  -0.350  1.00  0.00     0.201 C 
BRANCH  12  14
HETATM   14  N2  UNL     1       3.291   1.527   0.226  1.00  0.00    -0.328 N 
ATOM     15  H22 UNL     1       3.907   1.893  -0.500  1.00  0.00     0.178 HD
ATOM     16  H21 UNL     1       2.796   2.198   0.813  1.00  0.00     0.178 HD
ENDBRANCH  12  14
ENDBRANCH   1  12
TORSDOF 3
