REMARK  6 active torsions:
REMARK  status: ('A' for Active; 'I' for Inactive)
REMARK    1  A    between atoms: C2_2  and  C3_3 
REMARK    2  A    between atoms: C6_6  and  C7_7 
REMARK    3  A    between atoms: C8_8  and  C9_9 
REMARK    4  A    between atoms: C10_10  and  C11_11 
REMARK    5  A    between atoms: C11_11  and  O1_12 
REMARK    6  A    between atoms: N1_14  and  O2_16 
ROOT
HETATM    1  C3  UNL     1      -0.354  -0.992  -0.332  1.00  0.00    -0.028 A 
HETATM    2  C4  UNL     1       0.503   0.080  -0.265  1.00  0.00     0.010 A 
HETATM    3  C5  UNL     1       1.757  -0.047   0.250  1.00  0.00     0.012 A 
HETATM    4  C6  UNL     1       2.244  -1.261   0.738  1.00  0.00    -0.036 A 
HETATM    5  C12 UNL     1       1.397  -2.348   0.686  1.00  0.00     0.012 A 
HETATM    6  C13 UNL     1       0.100  -2.191   0.145  1.00  0.00     0.010 A 
ENDROOT
BRANCH   1   7
HETATM    7  C2  UNL     1      -1.682  -0.905  -0.915  1.00  0.00     0.084 C 
HETATM    8  C1  UNL     1      -1.611  -0.110  -2.258  1.00  0.00     0.046 C 
HETATM    9  N2  UNL     1      -2.159  -2.204  -1.306  1.00  0.00    -0.328 N 
HETATM   10  C14 UNL     1      -3.572  -2.040  -1.566  1.00  0.00     0.317 C 
ATOM     11  H2  UNL     1      -1.614  -3.063  -1.384  1.00  0.00     0.165 HD
HETATM   12  O3  UNL     1      -4.250  -2.622  -2.395  1.00  0.00    -0.247 OA
HETATM   13  N3  UNL     1      -3.991  -1.031  -0.605  1.00  0.00    -0.331 N 
HETATM   14  C15 UNL     1      -2.792  -0.347  -0.162  1.00  0.00     0.068 C 
ATOM     15  H3  UNL     1      -4.946  -0.841  -0.301  1.00  0.00     0.165 HD
HETATM   16  C16 UNL     1      -2.727  -0.243   1.318  1.00  0.00     0.039 C 
HETATM   17  C21 UNL     1      -3.043   1.145  -0.270  1.00  0.00     0.021 C 
HETATM   18  C17 UNL     1      -3.314   1.155   1.219  1.00  0.00    -0.006 C 
HETATM   19  C18 UNL     1      -4.781   1.275   1.439  1.00  0.00     0.005 C 
HETATM   20  C19 UNL     1      -5.345   1.806   0.128  1.00  0.00     0.001 C 
HETATM   21  C20 UNL     1      -4.323   1.541  -0.954  1.00  0.00     0.007 C 
ENDBRANCH   1   7
BRANCH   4  22
HETATM   22  C7  UNL     1       3.608  -1.440   1.208  1.00  0.00     0.011 C 
HETATM   23  C8  UNL     1       4.547  -0.583   0.857  1.00  0.00     0.001 C 
BRANCH  23  24
HETATM   24  C9  UNL     1       5.902  -0.736   1.321  1.00  0.00     0.004 C 
HETATM   25  C10 UNL     1       6.951  -0.032   1.040  1.00  0.00     0.057 C 
BRANCH  25  26
HETATM   26  C11 UNL     1       7.095   1.088   0.183  1.00  0.00     0.159 C 
HETATM   27  N1  UNL     1       6.211   1.612  -0.522  1.00  0.00    -0.248 N 
ATOM     28  H1  UNL     1       5.272   1.215  -0.494  1.00  0.00     0.196 HD
BRANCH  26  29
HETATM   29  O1  UNL     1       8.427   1.705   0.105  1.00  0.00    -0.345 OA
ATOM     30  H1  UNL     1       8.524   2.456  -0.469  1.00  0.00     0.219 HD
ENDBRANCH  26  29
BRANCH  27  31
HETATM   31  O2  UNL     1       6.441   2.719  -1.352  1.00  0.00    -0.288 OA
ATOM     32  H2  UNL     1       5.767   3.118  -1.889  1.00  0.00     0.244 HD
ENDBRANCH  27  31
ENDBRANCH  25  26
ENDBRANCH  23  24
ENDBRANCH   4  22
TORSDOF 6
