REMARK  7 active torsions:
REMARK  status: ('A' for Active; 'I' for Inactive)
REMARK    1  A    between atoms: C4_4  and  C5_5 
REMARK    2  A    between atoms: C7_10  and  O1_11 
REMARK    3  A    between atoms: C11_16  and  C12_17 
REMARK    4  A    between atoms: C13_18  and  C14_19 
REMARK    5  A    between atoms: C15_20  and  O2_22 
REMARK    6  A    between atoms: C20_27  and  C22_29 
REMARK    7  A    between atoms: C22_29  and  N2_30 
ROOT
HETATM    1  C12 UNL     1       0.196  -0.154  -0.922  1.00  0.00    -0.020 C 
HETATM    2  C13 UNL     1      -0.487   0.578  -0.085  1.00  0.00     0.003 C 
ENDROOT
BRANCH   1   3
HETATM    3  C11 UNL     1       1.615  -0.392  -1.071  1.00  0.00     0.032 C 
HETATM    4  C5  UNL     1       2.579   0.100  -0.066  1.00  0.00     0.065 C 
HETATM    5  C6  UNL     1       2.192  -0.650   1.156  1.00  0.00     0.018 C 
HETATM    6  N1  UNL     1       2.036  -0.346   2.361  1.00  0.00    -0.403 N 
HETATM    7  C7  UNL     1       2.000  -2.054   0.627  1.00  0.00     0.172 C 
ATOM      8  H12 UNL     1       2.165   0.601   2.718  1.00  0.00     0.155 HD
ATOM      9  H11 UNL     1       1.770  -0.861   3.200  1.00  0.00     0.155 HD
HETATM   10  C8  UNL     1       1.864  -1.914  -0.876  1.00  0.00    -0.009 C 
HETATM   11  C9  UNL     1       0.673  -2.678  -1.408  1.00  0.00     0.018 C 
HETATM   12  C10 UNL     1       3.093  -2.352  -1.619  1.00  0.00     0.018 C 
BRANCH   4  13
HETATM   13  C4  UNL     1       2.813   1.515   0.075  1.00  0.00    -0.014 C 
HETATM   14  C2  UNL     1       4.034   2.005  -0.114  1.00  0.00    -0.091 C 
HETATM   15  C1  UNL     1       5.167   1.100  -0.473  1.00  0.00     0.042 C 
HETATM   16  C3  UNL     1       4.296   3.466   0.027  1.00  0.00     0.042 C 
ENDBRANCH   4  13
BRANCH   7  17
HETATM   17  O1  UNL     1       0.962  -2.714   1.232  1.00  0.00    -0.389 OA
ATOM     18  H1  UNL     1       0.841  -3.596   0.900  1.00  0.00     0.210 HD
ENDBRANCH   7  17
ENDBRANCH   1   3
BRANCH   2  19
HETATM   19  C14 UNL     1      -1.965   0.748  -0.030  1.00  0.00    -0.037 C 
HETATM   20  C15 UNL     1      -2.718   0.402  -1.261  1.00  0.00     0.078 C 
HETATM   21  C16 UNL     1      -2.154   1.150  -2.456  1.00  0.00     0.051 C 
HETATM   22  C17 UNL     1      -4.128   0.994  -1.101  1.00  0.00     0.042 C 
HETATM   23  C18 UNL     1      -4.786   0.582   0.169  1.00  0.00     0.004 C 
HETATM   24  C19 UNL     1      -3.946   0.923   1.385  1.00  0.00     0.015 C 
HETATM   25  C20 UNL     1      -2.553   0.302   1.256  1.00  0.00     0.006 C 
HETATM   26  C21 UNL     1      -1.730   0.941   2.382  1.00  0.00     0.022 C 
BRANCH  20  27
HETATM   27  O2  UNL     1      -2.891  -0.930  -1.531  1.00  0.00    -0.386 OA
ATOM     28  H2  UNL     1      -3.373  -1.152  -2.319  1.00  0.00     0.211 HD
ENDBRANCH  20  27
BRANCH  25  29
HETATM   29  C22 UNL     1      -2.649  -1.146   1.504  1.00  0.00     0.243 C 
BRANCH  29  30
HETATM   30  N2  UNL     1      -3.253  -1.380   2.825  1.00  0.00    -0.078 N 
ATOM     31  H23 UNL     1      -2.752  -0.894   3.569  1.00  0.00     0.274 HD
ATOM     32  H22 UNL     1      -4.154  -0.912   2.925  1.00  0.00     0.274 HD
ATOM     33  H21 UNL     1      -3.320  -2.383   2.997  1.00  0.00     0.274 HD
ENDBRANCH  29  30
ENDBRANCH  25  29
ENDBRANCH   2  19
TORSDOF 7
