REMARK  4 active torsions:
REMARK  status: ('A' for Active; 'I' for Inactive)
REMARK    1  A    between atoms: C4_4  and  C5_5 
REMARK    2  A    between atoms: C8_12  and  C9_13 
REMARK    3  A    between atoms: C14_18  and  C15_19 
REMARK    4  A    between atoms: C15_19  and  C16_20 
ROOT
HETATM    1  C5  UNL     1       5.071   1.505  -0.705  1.00  0.00     0.180 C 
HETATM    2  C6  UNL     1       5.585   2.285   0.426  1.00  0.00     0.065 C 
HETATM    3  N1  UNL     1       5.980   2.878   1.323  1.00  0.00    -0.197 NA
ENDROOT
BRANCH   1   4
HETATM    4  C4  UNL     1       3.671   1.078  -0.489  1.00  0.00     0.024 A 
HETATM    5  C3  UNL     1       3.418  -0.083   0.220  1.00  0.00     0.033 A 
HETATM    6  C2  UNL     1       2.136  -0.544   0.416  1.00  0.00    -0.050 A 
HETATM    7  C1  UNL     1       2.010  -1.817   1.156  1.00  0.00     0.049 C 
HETATM    8  C8  UNL     1       1.016   0.180  -0.118  1.00  0.00    -0.010 A 
HETATM    9  C7  UNL     1       1.326   1.328  -0.811  1.00  0.00     0.108 A 
HETATM   10  N2  UNL     1       2.616   1.742  -0.977  1.00  0.00    -0.349 N 
HETATM   11  S1  UNL     1       0.131   2.263  -1.360  1.00  0.00    -0.060 SA
ATOM     12  H2  UNL     1       2.785   2.601  -1.500  1.00  0.00     0.166 HD
BRANCH   8  13
HETATM   13  C9  UNL     1      -0.235  -0.412   0.204  1.00  0.00     0.026 C 
HETATM   14  C10 UNL     1      -0.563  -1.394  -0.954  1.00  0.00     0.010 C 
HETATM   15  C11 UNL     1      -1.262  -2.569  -0.352  1.00  0.00     0.001 C 
HETATM   16  C12 UNL     1      -1.703  -2.254   1.062  1.00  0.00     0.000 C 
HETATM   17  C13 UNL     1      -2.295  -0.896   1.259  1.00  0.00     0.005 C 
HETATM   18  C14 UNL     1      -1.546   0.227   0.423  1.00  0.00    -0.002 C 
BRANCH  18  19
HETATM   19  C15 UNL     1      -2.484   0.420  -0.719  1.00  0.00     0.065 C 
BRANCH  19  20
HETATM   20  C16 UNL     1      -3.763   1.131  -0.467  1.00  0.00     0.175 C 
HETATM   21  C17 UNL     1      -3.697   2.525   0.073  1.00  0.00     0.070 C 
HETATM   22  F1  UNL     1      -4.781   0.468   0.144  1.00  0.00    -0.226 F 
HETATM   23 CL1  UNL     1      -4.450   1.374  -2.173  1.00  0.00    -0.083 Cl
ENDBRANCH  19  20
ENDBRANCH  18  19
ENDBRANCH   8  13
ENDBRANCH   1   4
TORSDOF 4
