REMARK  3 active torsions:
REMARK  status: ('A' for Active; 'I' for Inactive)
REMARK    1  A    between atoms: C4_5  and  N1_6 
REMARK    2  A    between atoms: N1_6  and  C5_8 
REMARK    3  A    between atoms: C8_12  and  C9_13 
ROOT
HETATM    1  C5  UNL     1       0.979  -0.451   0.127  1.00  0.00     0.155 A 
HETATM    2  O1  UNL     1       0.768  -1.666   0.535  1.00  0.00    -0.297 OA
HETATM    3  C6  UNL     1      -0.359  -1.794   1.182  1.00  0.00     0.062 A 
HETATM    4  C7  UNL     1      -0.947  -0.519   1.195  1.00  0.00    -0.017 A 
HETATM    5  C8  UNL     1      -0.132   0.343   0.543  1.00  0.00     0.006 A 
HETATM    6  C15 UNL     1      -2.243  -0.224   1.808  1.00  0.00     0.042 C 
HETATM    7  C16 UNL     1      -3.085  -1.491   2.027  1.00  0.00     0.005 C 
HETATM    8  C17 UNL     1      -3.098  -2.400   0.839  1.00  0.00     0.001 C 
HETATM    9  C18 UNL     1      -2.094  -3.523   0.961  1.00  0.00     0.006 C 
HETATM   10  C19 UNL     1      -0.888  -3.048   1.774  1.00  0.00     0.066 C 
ENDROOT
BRANCH   1  11
HETATM   11  N1  UNL     1       2.081   0.053  -0.594  1.00  0.00    -0.334 N 
ATOM     12  H1  UNL     1       2.077   1.050  -0.809  1.00  0.00     0.168 HD
BRANCH  11  13
HETATM   13  C4  UNL     1       3.187  -0.694  -1.044  1.00  0.00     0.073 A 
HETATM   14  C3  UNL     1       3.358  -2.045  -0.858  1.00  0.00     0.036 A 
HETATM   15  C2  UNL     1       4.479  -2.683  -1.340  1.00  0.00     0.044 A 
HETATM   16  C1  UNL     1       5.469  -2.021  -2.019  1.00  0.00     0.119 A 
HETATM   17  F1  UNL     1       6.575  -2.620  -2.501  1.00  0.00    -0.206 F 
HETATM   18  C21 UNL     1       5.293  -0.675  -2.201  1.00  0.00     0.086 A 
HETATM   19  C20 UNL     1       4.199  -0.038  -1.733  1.00  0.00     0.145 A 
HETATM   20  F2  UNL     1       4.113   1.312  -1.964  1.00  0.00    -0.204 F 
ENDBRANCH  11  13
ENDBRANCH   1  11
BRANCH   5  21
HETATM   21  C9  UNL     1      -0.247   1.741   0.224  1.00  0.00     0.023 C 
HETATM   22  C10 UNL     1      -1.139   2.635   0.980  1.00  0.00     0.009 C 
HETATM   23  C11 UNL     1      -2.274   3.248   0.152  1.00  0.00     0.001 C 
HETATM   24  C12 UNL     1      -1.689   4.110  -0.967  1.00  0.00     0.000 C 
HETATM   25  C13 UNL     1      -0.379   3.475  -1.464  1.00  0.00     0.001 C 
HETATM   26  C14 UNL     1      -0.561   1.987  -1.259  1.00  0.00     0.009 C 
ENDBRANCH   5  21
TORSDOF 3
