REMARK  1 active torsions:
REMARK  status: ('A' for Active; 'I' for Inactive)
REMARK    1  A    between atoms: C6_6  and  O1_8 
ROOT
HETATM    1  C1  UNL     1       2.525  -0.668  -0.026  1.00  0.00     0.010 C 
HETATM    2  C2  UNL     1       1.226  -0.136  -0.623  1.00  0.00    -0.016 C 
HETATM    3  C3  UNL     1       1.067   1.274  -0.190  1.00  0.00     0.004 C 
HETATM    4  C4  UNL     1      -0.296   1.777   0.029  1.00  0.00     0.003 C 
HETATM    5  C5  UNL     1      -1.413   0.878  -0.375  1.00  0.00     0.037 C 
HETATM    6  C6  UNL     1      -1.203  -0.565  -0.054  1.00  0.00     0.054 C 
HETATM    7  C7  UNL     1      -1.606  -0.756   1.417  1.00  0.00     0.045 C 
HETATM    8  C8  UNL     1       0.152  -1.089  -0.320  1.00  0.00     0.041 C 
ENDROOT
BRANCH   6   9
HETATM    9  O1  UNL     1      -2.193  -1.261  -0.761  1.00  0.00    -0.390 OA
ATOM     10  H1  UNL     1      -2.059  -2.179  -0.557  1.00  0.00     0.210 HD
ENDBRANCH   6   9
TORSDOF 1
