REMARK  1 active torsions:
REMARK  status: ('A' for Active; 'I' for Inactive)
REMARK    1  A    between atoms: C4_4  and  O1_5 
ROOT
HETATM    1  C1  UNL     1      -2.064  -0.816   0.207  1.00  0.00     0.011 C 
HETATM    2  C2  UNL     1      -0.690  -0.423   0.649  1.00  0.00    -0.002 C 
HETATM    3  C3  UNL     1       0.401  -1.171  -0.096  1.00  0.00     0.037 C 
HETATM    4  C4  UNL     1       1.600  -0.293   0.288  1.00  0.00     0.119 C 
HETATM    5  C5  UNL     1       1.081   1.068  -0.077  1.00  0.00     0.048 C 
HETATM    6  C6  UNL     1      -0.351   1.009   0.435  1.00  0.00     0.065 C 
HETATM    7  S1  UNL     1      -1.497   1.898  -0.611  1.00  0.00    -0.092 SA
ENDROOT
BRANCH   4   8
HETATM    8  O1  UNL     1       2.748  -0.659  -0.348  1.00  0.00    -0.396 OA
ATOM      9  H1  UNL     1       3.490  -0.116  -0.110  1.00  0.00     0.210 HD
ENDBRANCH   4   8
TORSDOF 1
