REMARK  2 active torsions:
REMARK  status: ('A' for Active; 'I' for Inactive)
REMARK    1  A    between atoms: C2_2  and  O1_3 
REMARK    2  A    between atoms: C5_7  and  O2_8 
ROOT
HETATM    1  C1  UNL     1      -2.373  -0.261  -0.797  1.00  0.00     0.045 C 
HETATM    2  C2  UNL     1      -1.047  -0.205  -0.077  1.00  0.00     0.054 C 
HETATM    3  C3  UNL     1      -0.006  -1.020  -0.830  1.00  0.00     0.040 C 
HETATM    4  C4  UNL     1       1.168  -1.098   0.149  1.00  0.00     0.034 C 
HETATM    5  C5  UNL     1       1.801   0.248   0.179  1.00  0.00     0.118 C 
HETATM    6  C6  UNL     1       0.898   1.396  -0.030  1.00  0.00     0.034 C 
HETATM    7  C7  UNL     1      -0.549   1.172   0.117  1.00  0.00     0.040 C 
ENDROOT
BRANCH   2   8
HETATM    8  O1  UNL     1      -1.232  -0.875   1.152  1.00  0.00    -0.390 OA
ATOM      9  H1  UNL     1      -0.398  -0.840   1.605  1.00  0.00     0.210 HD
ENDBRANCH   2   8
BRANCH   5  10
HETATM   10  O2  UNL     1       2.827   0.238  -0.797  1.00  0.00    -0.396 OA
ATOM     11  H2  UNL     1       3.231   1.098  -0.778  1.00  0.00     0.210 HD
ENDBRANCH   5  10
TORSDOF 2
