REMARK  1 active torsions:
REMARK  status: ('A' for Active; 'I' for Inactive)
REMARK    1  A    between atoms: N1_8  and  O1_9 
ROOT
HETATM    1  C1  UNL     1       2.267  -0.827  -0.385  1.00  0.00     0.029 C 
HETATM    2  C2  UNL     1       1.225  -0.026   0.407  1.00  0.00     0.082 C 
HETATM    3  C3  UNL     1       0.835   1.168  -0.388  1.00  0.00     0.022 C 
HETATM    4  C4  UNL     1      -0.479   1.770  -0.023  1.00  0.00     0.003 C 
HETATM    5  C5  UNL     1      -1.533   0.798   0.369  1.00  0.00     0.022 C 
HETATM    6  C6  UNL     1      -1.106  -0.645   0.281  1.00  0.00     0.082 C 
HETATM    7  C7  UNL     1      -1.267  -1.133  -1.118  1.00  0.00     0.029 C 
HETATM    8  N1  UNL     1       0.169  -0.847   0.866  1.00  0.00    -0.191 NA
ENDROOT
BRANCH   8   9
HETATM    9  O1  UNL     1       0.007  -0.771   2.219  1.00  0.00    -0.312 OA
ATOM     10  H1  UNL     1      -0.702  -1.323   2.527  1.00  0.00     0.237 HD
ENDBRANCH   8   9
TORSDOF 1
