REMARK  2 active torsions:
REMARK  status: ('A' for Active; 'I' for Inactive)
REMARK    1  A    between atoms: C2_2  and  O1_3 
REMARK    2  A    between atoms: C7_9  and  O2_10 
ROOT
HETATM    1  C1  UNL     1      -2.158   0.267  -0.828  1.00  0.00     0.048 C 
HETATM    2  C2  UNL     1      -0.955  -0.110  -0.008  1.00  0.00     0.080 C 
HETATM    3  C3  UNL     1      -0.100  -1.171  -0.713  1.00  0.00     0.040 C 
HETATM    4  C4  UNL     1       1.068  -1.430   0.248  1.00  0.00     0.003 C 
HETATM    5  C5  UNL     1       2.030  -0.272   0.041  1.00  0.00     0.003 C 
HETATM    6  C6  UNL     1       1.291   1.004  -0.196  1.00  0.00     0.035 C 
HETATM    7  C7  UNL     1      -0.089   1.035   0.374  1.00  0.00     0.152 C 
ENDROOT
BRANCH   2   8
HETATM    8  O1  UNL     1      -1.451  -0.759   1.147  1.00  0.00    -0.388 OA
ATOM      9  H1  UNL     1      -0.691  -0.997   1.665  1.00  0.00     0.210 HD
ENDBRANCH   2   8
BRANCH   7  10
HETATM   10  O2  UNL     1      -0.676   2.250  -0.026  1.00  0.00    -0.393 OA
ATOM     11  H2  UNL     1      -0.122   2.982   0.218  1.00  0.00     0.210 HD
ENDBRANCH   7  10
TORSDOF 2
