REMARK  2 active torsions:
REMARK  status: ('A' for Active; 'I' for Inactive)
REMARK    1  A    between atoms: O1_1  and  C1_3 
REMARK    2  A    between atoms: C7_9  and  O2_10 
ROOT
HETATM    1  C1  UNL     1      -0.909  -0.450  -0.998  1.00  0.00     0.124 C 
HETATM    2  C2  UNL     1      -1.573  -0.151   0.297  1.00  0.00     0.032 C 
HETATM    3  C3  UNL     1      -0.669   0.289   1.391  1.00  0.00     0.010 C 
HETATM    4  C4  UNL     1       0.780   0.113   1.063  1.00  0.00     0.015 C 
HETATM    5  C5  UNL     1       1.056  -1.215   0.368  1.00  0.00     0.017 C 
HETATM    6  C6  UNL     1       0.581  -0.541  -0.902  1.00  0.00     0.044 C 
HETATM    7  C7  UNL     1       1.070   0.774  -0.288  1.00  0.00     0.128 C 
ENDROOT
BRANCH   1   8
HETATM    8  O1  UNL     1      -1.198   0.615  -1.879  1.00  0.00    -0.395 OA
ATOM      9  H1  UNL     1      -0.773   0.424  -2.707  1.00  0.00     0.210 HD
ENDBRANCH   1   8
BRANCH   7  10
HETATM   10  O2  UNL     1       2.429   0.999  -0.429  1.00  0.00    -0.395 OA
ATOM     11  H2  UNL     1       2.609   1.409  -1.267  1.00  0.00     0.210 HD
ENDBRANCH   7  10
TORSDOF 2
