REMARK  3 active torsions:
REMARK  status: ('A' for Active; 'I' for Inactive)
REMARK    1  A    between atoms: O1_2  and  N1_3 
REMARK    2  A    between atoms: C2_5  and  C4_7 
REMARK    3  A    between atoms: C7_15  and  N5_16 
ROOT
HETATM    1  C4  UNL     1       0.339  -0.225  -0.430  1.00  0.00     0.099 A 
HETATM    2  C5  UNL     1      -0.407  -0.189  -1.572  1.00  0.00     0.149 A 
HETATM    3  N2  UNL     1       0.156  -0.329  -2.867  1.00  0.00    -0.081 NA
HETATM    4  N3  UNL     1      -1.763  -0.008  -1.464  1.00  0.00    -0.176 N 
ATOM      5  H3  UNL     1      -2.329   0.021  -2.312  1.00  0.00     0.185 HD
HETATM    6  C6  UNL     1      -2.363   0.132  -0.273  1.00  0.00     0.711 A 
HETATM    7  N4  UNL     1      -3.697   0.309  -0.179  1.00  0.00    -0.021 N 
ATOM      8  H4  UNL     1      -4.258   0.336  -1.030  1.00  0.00     0.203 HD
HETATM    9  C7  UNL     1      -4.302   0.450   1.013  1.00  0.00     0.694 A 
HETATM   10  N6  UNL     1      -3.610   0.422   2.169  1.00  0.00    -0.140 N 
ATOM     11  H6  UNL     1      -4.075   0.530   3.071  1.00  0.00     0.189 HD
HETATM   12  C8  UNL     1      -2.287   0.246   2.082  1.00  0.00     0.362 A 
HETATM   13  O2  UNL     1      -1.601   0.213   3.123  1.00  0.00    -0.245 OA
HETATM   14  N7  UNL     1      -1.664   0.102   0.874  1.00  0.00    -0.057 N 
HETATM   15  C9  UNL     1      -0.348  -0.072   0.789  1.00  0.00     0.286 A 
HETATM   16  O3  UNL     1       0.341  -0.106   1.824  1.00  0.00    -0.266 OA
ENDROOT
BRANCH   1  17
HETATM   17  C2  UNL     1       1.763  -0.409  -0.434  1.00  0.00     0.047 C 
HETATM   18  N1  UNL     1       2.436  -0.436   0.704  1.00  0.00    -0.271 N 
ATOM     19  H1  UNL     1       1.903  -0.322   1.566  1.00  0.00     0.194 HD
HETATM   20  C3  UNL     1       2.589  -0.578  -1.635  1.00  0.00     0.071 C 
BRANCH  18  21
HETATM   21  O1  UNL     1       3.756  -0.600   0.816  1.00  0.00    -0.285 OA
HETATM   22  C1  UNL     1       4.698   0.266   1.372  1.00  0.00     0.237 C 
ENDBRANCH  18  21
ENDBRANCH   1  17
BRANCH   9  23
HETATM   23  N5  UNL     1      -5.571   0.617   1.076  1.00  0.00    -0.234 N 
ATOM     24  H52 UNL     1      -6.095   0.638   0.201  1.00  0.00     0.174 HD
ATOM     25  H51 UNL     1      -6.030   0.724   1.981  1.00  0.00     0.174 HD
ENDBRANCH   9  23
TORSDOF 3
