REMARK  3 active torsions:
REMARK  status: ('A' for Active; 'I' for Inactive)
REMARK    1  A    between atoms: N1_1  and  C1_4 
REMARK    2  A    between atoms: C2_7  and  N3_8 
REMARK    3  A    between atoms: C7_18  and  N6_19 
ROOT
HETATM    1  C1  UNL     1       0.067   2.034   1.838  1.00  0.00     0.705 A 
HETATM    2  N2  UNL     1       1.115   1.279   1.560  1.00  0.00    -0.022 N 
ATOM      3  H2  UNL     1       1.992   1.430   2.059  1.00  0.00     0.203 HD
HETATM    4  C2  UNL     1       1.037   0.285   0.599  1.00  0.00     0.709 A 
HETATM    5  N5  UNL     1      -0.103   0.101  -0.039  1.00  0.00    -0.021 N 
ATOM      6  H5  UNL     1      -0.151  -0.635  -0.743  1.00  0.00     0.203 HD
HETATM    7  C7  UNL     1      -1.196   0.831   0.192  1.00  0.00     0.709 A 
HETATM    8  N7  UNL     1      -1.071   1.806   1.155  1.00  0.00    -0.022 N 
ATOM      9  H7  UNL     1      -1.883   2.387   1.362  1.00  0.00     0.203 HD
ENDROOT
BRANCH   4  10
HETATM   10  N3  UNL     1       2.185  -0.505   0.331  1.00  0.00    -0.213 N 
HETATM   11  C3  UNL     1       3.096  -0.274  -0.779  1.00  0.00     0.168 C 
HETATM   12  C4  UNL     1       4.470  -0.090  -0.121  1.00  0.00     0.252 C 
HETATM   13  N4  UNL     1       4.845  -1.330   0.517  1.00  0.00    -0.072 N 
HETATM   14  C5  UNL     1       3.762  -2.263   0.678  1.00  0.00     0.252 C 
ATOM     15  H42 UNL     1       5.621  -1.767   0.019  1.00  0.00     0.277 HD
ATOM     16  H41 UNL     1       5.295  -1.148   1.414  1.00  0.00     0.277 HD
HETATM   17  C6  UNL     1       2.515  -1.612   1.234  1.00  0.00     0.168 C 
ENDBRANCH   4  10
BRANCH   1  18
HETATM   18  N1  UNL     1       0.026   2.942   2.812  1.00  0.00    -0.234 N 
ATOM     19  H12 UNL     1       0.888   3.115   3.329  1.00  0.00     0.174 HD
ATOM     20  H11 UNL     1      -0.783   3.525   3.027  1.00  0.00     0.174 HD
ENDBRANCH   1  18
BRANCH   7  21
HETATM   21  N6  UNL     1      -2.403   0.658  -0.472  1.00  0.00    -0.213 N 
HETATM   22  C8  UNL     1      -2.658  -0.381  -1.423  1.00  0.00     0.167 C 
HETATM   23  C9  UNL     1      -3.915  -1.102  -0.889  1.00  0.00     0.188 C 
HETATM   24  O1  UNL     1      -4.944  -0.199  -0.925  1.00  0.00    -0.388 OA
HETATM   25  C10 UNL     1      -4.827   0.902  -0.128  1.00  0.00     0.188 C 
HETATM   26  C11 UNL     1      -3.487   1.584  -0.209  1.00  0.00     0.167 C 
ENDBRANCH   7  21
TORSDOF 3
