REMARK  3 active torsions:
REMARK  status: ('A' for Active; 'I' for Inactive)
REMARK    1  A    between atoms: C3_4  and  C4_5 
REMARK    2  A    between atoms: C6_10  and  N4_11 
REMARK    3  A    between atoms: N5_16  and  O3_17 
ROOT
HETATM    1  N1  UNL     1      -4.737  -1.940  -0.210  1.00  0.00    -0.191 NA
HETATM    2  C1  UNL     1      -3.641  -1.565  -0.182  1.00  0.00     0.106 C 
HETATM    3  C2  UNL     1      -2.277  -1.138  -0.152  1.00  0.00     0.132 A 
HETATM    4  C3  UNL     1      -1.965   0.182   0.036  1.00  0.00     0.083 A 
HETATM    5  C5  UNL     1      -0.624   0.537   0.056  1.00  0.00     0.109 A 
HETATM    6  N3  UNL     1      -0.291   1.919   0.253  1.00  0.00    -0.097 NA
HETATM    7  C6  UNL     1       0.355  -0.407  -0.107  1.00  0.00     0.162 A 
HETATM    8  N5  UNL     1       0.046  -1.700  -0.291  1.00  0.00    -0.168 N 
HETATM    9  C10 UNL     1      -1.253  -2.060  -0.313  1.00  0.00     0.295 A 
HETATM   10  O4  UNL     1      -1.537  -3.276  -0.487  1.00  0.00    -0.264 OA
ENDROOT
BRANCH   4  11
HETATM   11  C4  UNL     1      -2.957   1.239   0.218  1.00  0.00     0.268 C 
HETATM   12  N2  UNL     1      -4.343   1.018   0.217  1.00  0.00    -0.057 NA
HETATM   13  O1  UNL     1      -2.588   2.450   0.390  1.00  0.00    -0.271 OA
ENDBRANCH   4  11
BRANCH   8  14
HETATM   14  O3  UNL     1       1.009  -2.663  -0.458  1.00  0.00    -0.278 OA
ATOM     15  H3  UNL     1       0.790  -3.578  -0.588  1.00  0.00     0.245 HD
ENDBRANCH   8  14
BRANCH   7  16
HETATM   16  N4  UNL     1       1.713   0.031  -0.075  1.00  0.00    -0.340 N 
HETATM   17  C7  UNL     1       2.539   0.171   1.133  1.00  0.00     0.153 C 
HETATM   18  C8  UNL     1       3.923   0.141   0.555  1.00  0.00     0.189 C 
HETATM   19  O2  UNL     1       3.789  -0.217  -0.786  1.00  0.00    -0.370 OA
HETATM   20  C9  UNL     1       2.594   0.428  -1.155  1.00  0.00     0.294 C 
ENDBRANCH   7  16
TORSDOF 3
