REMARK  4 active torsions:
REMARK  status: ('A' for Active; 'I' for Inactive)
REMARK    1  A    between atoms: O1_2  and  C2_3 
REMARK    2  A    between atoms: C3_4  and  N1_5 
REMARK    3  A    between atoms: N1_5  and  O2_6 
REMARK       I    between atoms: N1_5  and  C4_8 
REMARK    4  A    between atoms: C9_18  and  N4_19 
ROOT
HETATM    1  C2  UNL     1      -0.612  -0.726   0.004  1.00  0.00     0.230 C 
HETATM    2  C3  UNL     1      -1.436  -0.452   1.220  1.00  0.00     0.273 C 
HETATM    3  N3  UNL     1      -0.655   0.517   1.961  1.00  0.00    -0.066 NA
HETATM    4  O4  UNL     1       0.637   0.260   1.701  1.00  0.00    -0.239 OA
HETATM    5  C5  UNL     1       0.743  -0.175   0.410  1.00  0.00     0.247 C 
HETATM    6  O5  UNL     1       1.818  -1.016   0.130  1.00  0.00    -0.337 OA
HETATM    7  C6  UNL     1       2.604   0.122  -0.113  1.00  0.00     0.091 C 
HETATM    8  C7  UNL     1       3.221   0.606   1.183  1.00  0.00     0.048 C 
HETATM    9  C8  UNL     1       3.589  -0.012  -1.235  1.00  0.00     0.048 C 
HETATM   10  C9  UNL     1       1.341   0.836  -0.514  1.00  0.00     0.283 C 
ENDROOT
BRANCH   1  11
HETATM   11  O1  UNL     1      -0.437  -2.097  -0.172  1.00  0.00    -0.381 OA
HETATM   12  C1  UNL     1      -0.747  -2.517  -1.455  1.00  0.00     0.202 C 
ENDBRANCH   1  11
BRANCH  10  13
HETATM   13  N4  UNL     1       1.018   0.743  -1.900  1.00  0.00    -0.067 N 
ATOM     14  H43 UNL     1       1.244  -0.193  -2.235  1.00  0.00     0.275 HD
ATOM     15  H42 UNL     1       0.004   0.747  -2.009  1.00  0.00     0.275 HD
ATOM     16  H41 UNL     1       1.426   1.433  -2.531  1.00  0.00     0.275 HD
ENDBRANCH  10  13
BRANCH   2  17
HETATM   17  N1  UNL     1      -2.724   0.092   0.983  1.00  0.00    -0.187 N 
HETATM   18  C4  UNL     1      -2.991   1.284   0.256  1.00  0.00     0.356 C 
HETATM   19  N2  UNL     1      -4.320   1.728   0.086  1.00  0.00    -0.038 NA
HETATM   20  O3  UNL     1      -2.107   2.006  -0.270  1.00  0.00    -0.248 OA
BRANCH  17  21
HETATM   21  O2  UNL     1      -3.776  -0.590   1.498  1.00  0.00    -0.282 OA
ATOM     22  H2  UNL     1      -4.639  -0.226   1.339  1.00  0.00     0.245 HD
ENDBRANCH  17  21
ENDBRANCH   2  17
TORSDOF 4
