REMARK  4 active torsions:
REMARK  status: ('A' for Active; 'I' for Inactive)
REMARK    1  A    between atoms: O1_2  and  C2_3 
REMARK    2  A    between atoms: C5_11  and  C6_12 
REMARK    3  A    between atoms: C8_16  and  N5_17 
REMARK    4  A    between atoms: N6_20  and  O3_21 
ROOT
HETATM    1  C2  UNL     1      -2.618  -0.628   0.182  1.00  0.00     0.226 A 
HETATM    2  N1  UNL     1      -1.961  -1.800   0.222  1.00  0.00    -0.308 N 
ATOM      3  H1  UNL     1      -2.449  -2.680   0.391  1.00  0.00     0.170 HD
HETATM    4  C3  UNL     1      -0.634  -1.759   0.029  1.00  0.00     0.150 A 
HETATM    5  N2  UNL     1       0.087  -2.991   0.067  1.00  0.00    -0.080 NA
HETATM    6  C4  UNL     1       0.025  -0.570  -0.200  1.00  0.00     0.121 A 
HETATM    7  N3  UNL     1       1.369  -0.734  -0.372  1.00  0.00    -0.346 N 
ATOM      8  H3  UNL     1       1.663  -1.639  -0.740  1.00  0.00     0.166 HD
HETATM    9  C5  UNL     1       2.359   0.148  -0.118  1.00  0.00     0.102 C 
HETATM   10  C7  UNL     1       2.189   1.512  -0.056  1.00  0.00     0.085 C 
HETATM   11  C8  UNL     1       1.048   2.271  -0.324  1.00  0.00     0.131 C 
HETATM   12  N6  UNL     1      -0.222   1.852  -0.441  1.00  0.00    -0.189 N 
HETATM   13  C9  UNL     1      -0.711   0.598  -0.229  1.00  0.00     0.168 A 
HETATM   14  N7  UNL     1      -2.022   0.557  -0.038  1.00  0.00    -0.304 N 
ATOM     15  H7  UNL     1      -2.573   1.415  -0.058  1.00  0.00     0.171 HD
ENDROOT
BRANCH   9  16
HETATM   16  C6  UNL     1       3.693  -0.363   0.105  1.00  0.00     0.281 C 
HETATM   17  N4  UNL     1       4.050  -1.716   0.079  1.00  0.00    -0.056 NA
HETATM   18  O2  UNL     1       4.614   0.479   0.342  1.00  0.00    -0.269 OA
ENDBRANCH   9  16
BRANCH  11  19
HETATM   19  N5  UNL     1       1.219   3.527  -0.479  1.00  0.00    -0.384 N 
ATOM     20  H52 UNL     1       2.184   3.845  -0.390  1.00  0.00     0.157 HD
ATOM     21  H51 UNL     1       0.386   4.081  -0.675  1.00  0.00     0.157 HD
ENDBRANCH  11  19
BRANCH  12  22
HETATM   22  O3  UNL     1      -1.191   2.751  -0.818  1.00  0.00    -0.279 OA
ATOM     23  H3  UNL     1      -2.090   2.454  -0.901  1.00  0.00     0.245 HD
ENDBRANCH  12  22
BRANCH   1  24
HETATM   24  O1  UNL     1      -4.004  -0.696   0.386  1.00  0.00    -0.327 OA
HETATM   25  C1  UNL     1      -4.815   0.456   0.370  1.00  0.00     0.213 C 
ENDBRANCH   1  24
TORSDOF 4
