REMARK  7 active torsions:
REMARK  status: ('A' for Active; 'I' for Inactive)
REMARK    1  A    between atoms: C2_2  and  C3_4 
REMARK    2  A    between atoms: C3_4  and  O2_5 
REMARK    3  A    between atoms: C4_7  and  C6_9 
REMARK    4  A    between atoms: C8_12  and  O4_14 
REMARK    5  A    between atoms: C10_16  and  O5_17 
REMARK    6  A    between atoms: C12_21  and  O6_22 
REMARK    7  A    between atoms: C12_21  and  O7_24 
ROOT
HETATM    1  C3  UNL     1       1.164  -0.064  -0.084  1.00  0.00     0.191 C 
HETATM    2  C4  UNL     1       0.391  -1.265   0.386  1.00  0.00     0.056 C 
HETATM    3  C5  UNL     1       1.131  -2.031   1.460  1.00  0.00     0.027 C 
HETATM    4  C7  UNL     1      -0.969  -0.892   0.923  1.00  0.00     0.062 C 
HETATM    5  C8  UNL     1      -1.777  -0.068  -0.021  1.00  0.00     0.105 C 
HETATM    6  C9  UNL     1      -2.744   0.764   0.836  1.00  0.00     0.050 C 
HETATM    7  C10 UNL     1      -1.055   0.843  -0.916  1.00  0.00     0.237 C 
HETATM    8  C11 UNL     1      -1.273   2.267  -0.532  1.00  0.00     0.107 C 
HETATM    9  N1  UNL     1      -1.461   3.394  -0.244  1.00  0.00    -0.194 NA
HETATM   10  C12 UNL     1       0.387   0.620  -1.157  1.00  0.00     0.249 C 
ENDROOT
BRANCH   7  11
HETATM   11  O5  UNL     1      -1.691   0.768  -2.190  1.00  0.00    -0.368 OA
ATOM     12  H5  UNL     1      -1.223   1.358  -2.770  1.00  0.00     0.212 HD
ENDBRANCH   7  11
BRANCH   5  13
HETATM   13  O4  UNL     1      -2.598  -0.933  -0.749  1.00  0.00    -0.386 OA
ATOM     14  H4  UNL     1      -3.113  -0.408  -1.350  1.00  0.00     0.210 HD
ENDBRANCH   5  13
BRANCH  10  15
HETATM   15  O6  UNL     1       0.553  -0.015  -2.409  1.00  0.00    -0.360 OA
ATOM     16  H6  UNL     1       0.058   0.421  -3.093  1.00  0.00     0.213 HD
ENDBRANCH  10  15
BRANCH  10  17
HETATM   17  O7  UNL     1       1.015   1.879  -1.349  1.00  0.00    -0.360 OA
ATOM     18  H7  UNL     1       0.520   2.315  -2.033  1.00  0.00     0.213 HD
ENDBRANCH  10  17
BRANCH   1  19
HETATM   19  C2  UNL     1       1.509   0.867   0.990  1.00  0.00     0.164 C 
HETATM   20  C1  UNL     1       2.956   1.183   1.283  1.00  0.00     0.094 C 
HETATM   21  O1  UNL     1       0.726   1.451   1.718  1.00  0.00    -0.295 OA
ENDBRANCH   1  19
BRANCH   1  22
HETATM   22  O2  UNL     1       2.350  -0.542  -0.653  1.00  0.00    -0.376 OA
ATOM     23  H2  UNL     1       2.126  -1.147  -1.351  1.00  0.00     0.211 HD
ENDBRANCH   1  22
BRANCH   2  24
HETATM   24  C6  UNL     1       0.199  -2.199  -0.752  1.00  0.00     0.244 C 
HETATM   25  O3  UNL     1       1.227  -2.597  -1.302  1.00  0.00    -0.306 OA
ENDBRANCH   2  24
TORSDOF 7
