REMARK  8 active torsions:
REMARK  status: ('A' for Active; 'I' for Inactive)
REMARK    1  A    between atoms: O1_2  and  C2_3 
REMARK    2  A    between atoms: C2_3  and  C3_4 
REMARK    3  A    between atoms: C3_4  and  O2_5 
REMARK    4  A    between atoms: N1_9  and  O3_11 
REMARK    5  A    between atoms: O3_11  and  C6_12 
REMARK    6  A    between atoms: N3_17  and  N4_18 
REMARK    7  A    between atoms: C9_21  and  O4_23 
REMARK    8  A    between atoms: C11_25  and  N5_26 
ROOT
HETATM    1  C2  UNL     1      -2.326  -0.680  -0.007  1.00  0.00     0.117 C 
HETATM    2  C4  UNL     1      -0.885  -0.579  -0.386  1.00  0.00     0.100 C 
HETATM    3  C5  UNL     1      -0.338   0.652   0.277  1.00  0.00     0.049 C 
HETATM    4  N1  UNL     1       0.820   1.147   0.104  1.00  0.00    -0.263 N 
ATOM      5  H1  UNL     1       1.086   1.991   0.612  1.00  0.00     0.194 HD
HETATM    6  C9  UNL     1      -1.381   1.202   1.179  1.00  0.00     0.125 C 
HETATM    7  C10 UNL     1      -1.360   2.707   1.174  1.00  0.00     0.055 C 
HETATM    8  C11 UNL     1      -2.638   0.764   0.424  1.00  0.00     0.259 C 
ENDROOT
BRANCH   4   9
HETATM    9  O3  UNL     1       1.721   0.563  -0.757  1.00  0.00    -0.200 OA
BRANCH   9  10
HETATM   10  C6  UNL     1       3.095   0.554  -0.459  1.00  0.00     0.259 C 
HETATM   11  N2  UNL     1       3.676   1.452   0.225  1.00  0.00    -0.352 N 
HETATM   12  C7  UNL     1       5.088   1.185   0.371  1.00  0.00     0.145 C 
ATOM     13  H2  UNL     1       3.203   2.263   0.623  1.00  0.00     0.163 HD
HETATM   14  C8  UNL     1       5.204  -0.267  -0.053  1.00  0.00     0.172 C 
HETATM   15  N3  UNL     1       4.015  -0.431  -0.865  1.00  0.00    -0.260 N 
BRANCH  15  16
HETATM   16  N4  UNL     1       3.779  -1.380  -1.879  1.00  0.00    -0.340 N 
ATOM     17  H42 UNL     1       2.942  -1.495  -2.451  1.00  0.00     0.177 HD
ATOM     18  H41 UNL     1       4.446  -2.094  -2.173  1.00  0.00     0.177 HD
ENDBRANCH  15  16
ENDBRANCH   9  10
ENDBRANCH   4   9
BRANCH   6  19
HETATM   19  O4  UNL     1      -1.369   0.647   2.433  1.00  0.00    -0.382 OA
ATOM     20  H4  UNL     1      -2.036   0.999   3.010  1.00  0.00     0.211 HD
ENDBRANCH   6  19
BRANCH   1  21
HETATM   21  O1  UNL     1      -2.538  -1.544   1.038  1.00  0.00    -0.380 OA
HETATM   22  C1  UNL     1      -2.339  -2.850   0.676  1.00  0.00     0.202 C 
ENDBRANCH   1  21
BRANCH   1  23
HETATM   23  C3  UNL     1      -3.231  -0.937  -1.184  1.00  0.00     0.204 C 
BRANCH  23  24
HETATM   24  O2  UNL     1      -4.552  -0.806  -0.757  1.00  0.00    -0.398 OA
ATOM     25  H2  UNL     1      -5.123  -0.968  -1.499  1.00  0.00     0.209 HD
ENDBRANCH  23  24
ENDBRANCH   1  23
BRANCH   8  26
HETATM   26  N5  UNL     1      -2.757   1.613  -0.719  1.00  0.00    -0.069 N 
ATOM     27  H53 UNL     1      -1.930   1.565  -1.314  1.00  0.00     0.275 HD
ATOM     28  H52 UNL     1      -3.444   1.259  -1.384  1.00  0.00     0.275 HD
ATOM     29  H51 UNL     1      -2.964   2.570  -0.433  1.00  0.00     0.275 HD
ENDBRANCH   8  26
TORSDOF 8
