REMARK  6 active torsions:
REMARK  status: ('A' for Active; 'I' for Inactive)
REMARK    1  A    between atoms: C2_2  and  C3_3 
REMARK    2  A    between atoms: C5_7  and  O3_8 
REMARK    3  A    between atoms: C6_11  and  O5_13 
REMARK    4  A    between atoms: C8_15  and  O6_16 
REMARK    5  A    between atoms: C8_15  and  C9_18 
REMARK    6  A    between atoms: C10_20  and  O8_21 
ROOT
HETATM    1  C3  UNL     1       2.216   0.536  -0.891  1.00  0.00     0.291 C 
HETATM    2  O1  UNL     1       1.524   0.056   0.246  1.00  0.00    -0.314 OA
HETATM    3  C4  UNL     1       0.581  -0.453  -0.640  1.00  0.00     0.262 C 
HETATM    4  O2  UNL     1       0.999   0.464  -1.567  1.00  0.00    -0.314 OA
HETATM    5  C5  UNL     1       0.753  -1.907  -0.990  1.00  0.00     0.327 C 
HETATM    6  O4  UNL     1      -0.495  -2.512  -0.853  1.00  0.00    -0.317 OA
HETATM    7  C6  UNL     1      -1.092  -1.827   0.219  1.00  0.00     0.203 C 
HETATM    8  C7  UNL     1      -2.540  -2.160   0.359  1.00  0.00     0.082 C 
HETATM    9  C8  UNL     1      -0.847  -0.387  -0.195  1.00  0.00     0.225 C 
ENDROOT
BRANCH   9  10
HETATM   10  O6  UNL     1      -1.731  -0.067  -1.196  1.00  0.00    -0.375 OA
ATOM     11  H6  UNL     1      -2.637  -0.025  -0.914  1.00  0.00     0.211 HD
ENDBRANCH   9  10
BRANCH   9  12
HETATM   12  C9  UNL     1      -0.940   0.557   0.974  1.00  0.00     0.316 C 
HETATM   13  O7  UNL     1      -0.656   1.856   0.551  1.00  0.00    -0.305 OA
HETATM   14  C10 UNL     1      -1.684   2.282   1.393  1.00  0.00     0.415 C 
HETATM   15  O9  UNL     1      -2.231   1.005   1.267  1.00  0.00    -0.305 OA
BRANCH  14  16
HETATM   16  O8  UNL     1      -2.463   3.309   0.881  1.00  0.00    -0.349 OA
ATOM     17  H8  UNL     1      -3.163   3.599   1.454  1.00  0.00     0.215 HD
ENDBRANCH  14  16
ENDBRANCH   9  12
BRANCH   7  18
HETATM   18  O5  UNL     1      -0.346  -2.158   1.353  1.00  0.00    -0.363 OA
ATOM     19  H5  UNL     1      -0.750  -1.695   2.078  1.00  0.00     0.213 HD
ENDBRANCH   7  18
BRANCH   5  20
HETATM   20  O3  UNL     1       1.218  -1.966  -2.301  1.00  0.00    -0.366 OA
ATOM     21  H3  UNL     1       1.327  -2.884  -2.522  1.00  0.00     0.212 HD
ENDBRANCH   5  20
BRANCH   1  22
HETATM   22  C2  UNL     1       2.765   1.883  -0.718  1.00  0.00     0.023 C 
HETATM   23  C1  UNL     1       3.850   2.053   0.014  1.00  0.00     0.012 C 
ENDBRANCH   1  22
TORSDOF 6
