REMARK  4 active torsions:
REMARK  status: ('A' for Active; 'I' for Inactive)
REMARK    1  A    between atoms: C2_3  and  C3_4 
REMARK    2  A    between atoms: C4_5  and  O1_6 
REMARK    3  A    between atoms: N3_12  and  C6_13 
REMARK    4  A    between atoms: N4_14  and  O3_16 
ROOT
HETATM    1  C3  UNL     1       0.274  -0.889  -0.041  1.00  0.00     0.122 A 
HETATM    2  C4  UNL     1      -0.014  -2.218  -0.107  1.00  0.00     0.174 A 
HETATM    3  N2  UNL     1       1.020  -2.883   0.501  1.00  0.00    -0.287 N 
ATOM      4  H2  UNL     1       1.102  -3.893   0.617  1.00  0.00     0.172 HD
HETATM    5  C5  UNL     1       1.885  -1.983   0.906  1.00  0.00     0.334 A 
HETATM    6  O2  UNL     1       2.983  -2.224   1.517  1.00  0.00    -0.246 OA
HETATM    7  N3  UNL     1       1.487  -0.727   0.604  1.00  0.00    -0.252 N 
ENDROOT
BRANCH   1   8
HETATM    8  C2  UNL     1      -0.547   0.246  -0.420  1.00  0.00     0.075 A 
HETATM    9  N1  UNL     1      -1.839   0.395  -0.200  1.00  0.00    -0.301 N 
HETATM   10  C1  UNL     1      -2.656  -0.612   0.475  1.00  0.00     0.161 C 
HETATM   11  C9  UNL     1      -2.496   1.567  -0.516  1.00  0.00     0.329 A 
HETATM   12  N5  UNL     1      -1.822   2.587  -1.058  1.00  0.00    -0.275 N 
HETATM   13  O5  UNL     1      -3.721   1.640  -0.284  1.00  0.00    -0.246 OA
HETATM   14  C8  UNL     1      -0.510   2.476  -1.295  1.00  0.00     0.251 A 
ATOM     15  H5  UNL     1      -2.310   3.452  -1.291  1.00  0.00     0.173 HD
HETATM   16  C7  UNL     1       0.146   1.316  -0.985  1.00  0.00     0.106 A 
HETATM   17  O4  UNL     1       0.161   3.434  -1.810  1.00  0.00    -0.268 OA
ENDBRANCH   1   8
BRANCH   2  18
HETATM   18  O1  UNL     1      -1.095  -2.906  -0.656  1.00  0.00    -0.344 OA
ATOM     19  H1  UNL     1      -1.296  -3.833  -0.702  1.00  0.00     0.219 HD
ENDBRANCH   2  18
BRANCH   7  20
HETATM   20  C6  UNL     1       2.181   0.463   0.931  1.00  0.00     0.217 C 
HETATM   21  N4  UNL     1       3.455   0.490   0.863  1.00  0.00    -0.264 N 
ATOM     22  H4  UNL     1       3.926  -0.366   0.570  1.00  0.00     0.194 HD
BRANCH  21  23
HETATM   23  O3  UNL     1       4.235   1.563   1.148  1.00  0.00    -0.289 OA
ATOM     24  H3  UNL     1       5.183   1.583   1.097  1.00  0.00     0.244 HD
ENDBRANCH  21  23
ENDBRANCH   7  20
TORSDOF 4
