REMARK  6 active torsions:
REMARK  status: ('A' for Active; 'I' for Inactive)
REMARK    1  A    between atoms: C1_2  and  O2_4 
REMARK    2  A    between atoms: O2_4  and  N2_5 
REMARK    3  A    between atoms: C2_7  and  O3_8 
REMARK    4  A    between atoms: C2_7  and  C3_10 
REMARK    5  A    between atoms: C4_11  and  S1_12 
REMARK    6  A    between atoms: S1_12  and  N3_13 
ROOT
HETATM    1  C3  UNL     1      -1.247  -0.687  -0.605  1.00  0.00     0.090 A 
HETATM    2  C4  UNL     1      -2.228   0.098  -0.082  1.00  0.00     0.172 A 
HETATM    3  N4  UNL     1      -3.428   0.027  -0.689  1.00  0.00    -0.313 N 
ATOM      4  H4  UNL     1      -4.274   0.539  -0.439  1.00  0.00     0.175 HD
HETATM    5  S2  UNL     1      -3.249  -1.066  -1.928  1.00  0.00     0.003 SA
HETATM    6  C5  UNL     1      -1.615  -1.461  -1.695  1.00  0.00     0.121 A 
HETATM    7  N5  UNL     1      -0.780  -2.376  -2.431  1.00  0.00    -0.092 NA
ENDROOT
BRANCH   1   8
HETATM    8  C2  UNL     1       0.171  -0.705  -0.134  1.00  0.00     0.176 C 
HETATM    9  N2  UNL     1       0.629   0.021   0.806  1.00  0.00    -0.234 N 
ATOM     10  H2  UNL     1      -0.028   0.655   1.260  1.00  0.00     0.197 HD
BRANCH   9  11
HETATM   11  O2  UNL     1       1.898   0.033   1.259  1.00  0.00    -0.181 OA
BRANCH  11  12
HETATM   12  C1  UNL     1       2.946   0.583   0.519  1.00  0.00     0.394 C 
HETATM   13  N1  UNL     1       4.245   0.547   1.081  1.00  0.00    -0.031 NA
HETATM   14  O1  UNL     1       2.674   1.077  -0.602  1.00  0.00    -0.240 OA
ENDBRANCH  11  12
ENDBRANCH   9  11
BRANCH   8  15
HETATM   15  O3  UNL     1       1.093  -1.555  -0.729  1.00  0.00    -0.344 OA
ATOM     16  H3  UNL     1       0.751  -2.097  -1.431  1.00  0.00     0.219 HD
ENDBRANCH   8  15
ENDBRANCH   1   8
BRANCH   2  17
HETATM   17  S1  UNL     1      -2.088   1.140   1.368  1.00  0.00     0.274 S 
HETATM   18  O4  UNL     1      -3.508   1.567   1.799  1.00  0.00    -0.199 OA
HETATM   19  O5  UNL     1      -1.517   0.428   2.530  1.00  0.00    -0.199 OA
BRANCH  17  20
HETATM   20  N3  UNL     1      -1.287   2.580   0.974  1.00  0.00    -0.323 N 
ATOM     21  H32 UNL     1      -0.941   2.806   0.042  1.00  0.00     0.169 HD
ATOM     22  H31 UNL     1      -1.207   3.173   1.800  1.00  0.00     0.169 HD
ENDBRANCH  17  20
ENDBRANCH   2  17
TORSDOF 6
