REMARK  4 active torsions:
REMARK  status: ('A' for Active; 'I' for Inactive)
REMARK    1  A    between atoms: C6_7  and  N2_8 
REMARK    2  A    between atoms: N2_8  and  C7_10 
REMARK    3  A    between atoms: C7_10  and  C8_11 
REMARK    4  A    between atoms: C8_11  and  C9_12 
ROOT
HETATM    1  N1  UNL     1      -3.334   3.609   1.497  1.00  0.00    -0.190 NA
HETATM    2  C1  UNL     1      -3.259   2.521   1.092  1.00  0.00     0.117 C 
HETATM    3  C2  UNL     1      -3.154   1.179   0.584  1.00  0.00     0.115 A 
HETATM    4  C3  UNL     1      -4.291   0.448   0.312  1.00  0.00     0.041 A 
HETATM    5  C4  UNL     1      -4.210  -0.828  -0.171  1.00  0.00     0.007 A 
HETATM    6  C5  UNL     1      -2.975  -1.426  -0.403  1.00  0.00     0.048 A 
HETATM    7  C6  UNL     1      -1.868  -0.655  -0.116  1.00  0.00     0.101 A 
HETATM    8  N5  UNL     1      -1.948   0.599   0.359  1.00  0.00    -0.334 N 
ATOM      9  H5  UNL     1      -1.093   1.121   0.553  1.00  0.00     0.168 HD
ENDROOT
BRANCH   7  10
HETATM   10  N2  UNL     1      -0.702  -1.156  -0.311  1.00  0.00    -0.376 N 
ATOM     11  H2  UNL     1      -0.623  -2.107  -0.671  1.00  0.00     0.161 HD
BRANCH  10  12
HETATM   12  C7  UNL     1       0.496  -0.408  -0.034  1.00  0.00     0.127 C 
BRANCH  12  13
HETATM   13  C8  UNL     1       1.693  -1.232  -0.522  1.00  0.00     0.078 C 
BRANCH  13  14
HETATM   14  C9  UNL     1       2.917  -0.446  -0.227  1.00  0.00     0.027 A 
HETATM   15  C10 UNL     1       3.724  -0.434   0.900  1.00  0.00     0.114 A 
HETATM   16  N3  UNL     1       4.731   0.438   0.730  1.00  0.00    -0.360 N 
HETATM   17  C11 UNL     1       4.579   0.982  -0.489  1.00  0.00     0.180 A 
ATOM     18  H3  UNL     1       5.471   0.648   1.400  1.00  0.00     0.166 HD
HETATM   19  N4  UNL     1       3.477   0.439  -1.061  1.00  0.00    -0.355 N 
ATOM     20  H4  UNL     1       3.126   0.671  -1.990  1.00  0.00     0.166 HD
ENDBRANCH  13  14
ENDBRANCH  12  13
ENDBRANCH  10  12
ENDBRANCH   7  10
TORSDOF 4
