REMARK  4 active torsions:
REMARK  status: ('A' for Active; 'I' for Inactive)
REMARK    1  A    between atoms: C4_5  and  C5_6 
REMARK    2  A    between atoms: C5_6  and  C6_7 
REMARK    3  A    between atoms: C6_7  and  N2_8 
REMARK    4  A    between atoms: N2_8  and  C7_10 
ROOT
HETATM    1  N2  UNL     1       1.177  -0.328  -0.628  1.00  0.00    -0.375 N 
ATOM      2  H2  UNL     1       0.485   0.349  -0.948  1.00  0.00     0.161 HD
ENDROOT
BRANCH   1   3
HETATM    3  C6  UNL     1       0.681  -1.623  -0.338  1.00  0.00     0.126 C 
BRANCH   3   4
HETATM    4  C5  UNL     1      -0.265  -1.597   0.841  1.00  0.00     0.058 C 
BRANCH   4   5
HETATM    5  C4  UNL     1      -1.440  -0.722   0.597  1.00  0.00    -0.057 A 
HETATM    6  C3  UNL     1      -2.561  -1.251   0.032  1.00  0.00     0.009 A 
HETATM    7  C2  UNL     1      -3.700  -0.508  -0.230  1.00  0.00     0.027 A 
HETATM    8  C1  UNL     1      -3.717   0.841   0.091  1.00  0.00     0.046 A 
HETATM    9  N1  UNL     1      -4.833   1.675  -0.141  1.00  0.00    -0.102 NA
HETATM   10  C12 UNL     1      -2.573   1.384   0.668  1.00  0.00     0.027 A 
HETATM   11  C11 UNL     1      -1.448   0.619   0.919  1.00  0.00     0.009 A 
ENDBRANCH   4   5
ENDBRANCH   3   4
ENDBRANCH   1   3
BRANCH   1  12
HETATM   12  C7  UNL     1       2.361   0.099  -0.543  1.00  0.00     0.116 A 
HETATM   13  C8  UNL     1       2.581   1.437  -0.895  1.00  0.00     0.136 A 
HETATM   14  N3  UNL     1       3.804   1.985  -0.838  1.00  0.00    -0.371 N 
HETATM   15  C9  UNL     1       4.869   1.263  -0.437  1.00  0.00     0.104 A 
ATOM     16  H3  UNL     1       3.930   2.962  -1.102  1.00  0.00     0.164 HD
HETATM   17  C10 UNL     1       4.675  -0.052  -0.087  1.00  0.00     0.106 A 
HETATM   18  N4  UNL     1       3.435  -0.587  -0.151  1.00  0.00    -0.350 N 
ATOM     19  H4  UNL     1       3.315  -1.565   0.114  1.00  0.00     0.166 HD
ENDBRANCH   1  12
TORSDOF 4
