REMARK  4 active torsions:
REMARK  status: ('A' for Active; 'I' for Inactive)
REMARK    1  A    between atoms: C4_7  and  N2_8 
REMARK    2  A    between atoms: N2_8  and  C5_10 
REMARK    3  A    between atoms: C5_10  and  C6_11 
REMARK    4  A    between atoms: C6_11  and  C7_12 
ROOT
HETATM    1  N2  UNL     1      -0.531  -0.144  -0.227  1.00  0.00    -0.226 N 
ATOM      2  H2  UNL     1       0.096   0.564  -0.610  1.00  0.00     0.177 HD
ENDROOT
BRANCH   1   3
HETATM    3  C4  UNL     1      -1.743   0.199  -0.002  1.00  0.00     0.680 A 
HETATM    4  N1  UNL     1      -2.630  -0.677   0.501  1.00  0.00    -0.202 N 
HETATM    5  C3  UNL     1      -3.909  -0.298   0.732  1.00  0.00     0.111 A 
ATOM      6  H1  UNL     1      -2.338  -1.632   0.710  1.00  0.00     0.183 HD
HETATM    7  C2  UNL     1      -4.280   1.002   0.441  1.00  0.00     0.092 A 
HETATM    8  C1  UNL     1      -3.374   1.894  -0.072  1.00  0.00     0.260 A 
HETATM    9  O1  UNL     1      -3.659   3.093  -0.355  1.00  0.00    -0.268 OA
HETATM   10  N4  UNL     1      -2.111   1.467  -0.285  1.00  0.00    -0.156 N 
ATOM     11  H4  UNL     1      -1.422   2.115  -0.667  1.00  0.00     0.187 HD
ENDBRANCH   1   3
BRANCH   1  12
HETATM   12  C5  UNL     1       0.013  -1.446   0.018  1.00  0.00     0.142 C 
BRANCH  12  13
HETATM   13  C6  UNL     1       1.296  -1.571  -0.775  1.00  0.00     0.058 C 
BRANCH  13  14
HETATM   14  C7  UNL     1       2.294  -0.563  -0.392  1.00  0.00    -0.054 A 
HETATM   15  C8  UNL     1       3.192  -0.848   0.612  1.00  0.00     0.024 A 
HETATM   16  C9  UNL     1       4.131   0.103   0.972  1.00  0.00     0.088 A 
HETATM   17  N3  UNL     1       4.156   1.288   0.338  1.00  0.00    -0.375 N 
HETATM   18  C10 UNL     1       3.303   1.620  -0.650  1.00  0.00     0.088 A 
ATOM     19  H3  UNL     1       4.858   1.972   0.620  1.00  0.00     0.164 HD
HETATM   20  C11 UNL     1       2.367   0.667  -1.005  1.00  0.00     0.024 A 
ENDBRANCH  13  14
ENDBRANCH  12  13
ENDBRANCH   1  12
TORSDOF 4
