REMARK  4 active torsions:
REMARK  status: ('A' for Active; 'I' for Inactive)
REMARK    1  A    between atoms: C3_8  and  N3_9 
REMARK    2  A    between atoms: N3_9  and  C4_11 
REMARK    3  A    between atoms: C4_11  and  C5_12 
REMARK    4  A    between atoms: C5_12  and  C6_13 
ROOT
HETATM    1  O1  UNL     1       4.040   3.004  -0.355  1.00  0.00    -0.266 OA
HETATM    2  C1  UNL     1       3.674   1.851  -0.015  1.00  0.00     0.276 A 
HETATM    3  C2  UNL     1       4.483   1.008   0.714  1.00  0.00     0.182 A 
HETATM    4  N1  UNL     1       4.059  -0.222   1.062  1.00  0.00    -0.292 N 
ATOM      5  H1  UNL     1       4.651  -0.852   1.603  1.00  0.00     0.186 HD
HETATM    6  N2  UNL     1       2.844  -0.583   0.676  1.00  0.00    -0.132 N 
ATOM      7  H2  UNL     1       2.509  -1.512   0.931  1.00  0.00     0.205 HD
HETATM    8  C3  UNL     1       2.038   0.212  -0.031  1.00  0.00     0.695 A 
HETATM    9  N4  UNL     1       2.442   1.437  -0.385  1.00  0.00    -0.154 N 
ATOM     10  H4  UNL     1       1.830   2.049  -0.925  1.00  0.00     0.187 HD
ENDROOT
BRANCH   8  11
HETATM   11  N3  UNL     1       0.880  -0.194  -0.371  1.00  0.00    -0.224 N 
ATOM     12  H3  UNL     1       0.267   0.416  -0.911  1.00  0.00     0.177 HD
BRANCH  11  13
HETATM   13  C4  UNL     1       0.432  -1.510   0.003  1.00  0.00     0.142 C 
BRANCH  13  14
HETATM   14  C5  UNL     1      -0.867  -1.785  -0.731  1.00  0.00     0.058 C 
BRANCH  14  15
HETATM   15  C6  UNL     1      -1.911  -0.795  -0.381  1.00  0.00    -0.057 A 
HETATM   16  C7  UNL     1      -2.789  -0.973   0.669  1.00  0.00     0.007 A 
HETATM   17  C8  UNL     1      -3.765  -0.044   0.993  1.00  0.00     0.001 A 
HETATM   18  C9  UNL     1      -3.837   1.105   0.209  1.00  0.00     0.000 A 
HETATM   19  C10 UNL     1      -2.980   1.323  -0.850  1.00  0.00     0.001 A 
HETATM   20  C11 UNL     1      -2.020   0.361  -1.132  1.00  0.00     0.007 A 
ENDBRANCH  14  15
ENDBRANCH  13  14
ENDBRANCH  11  13
ENDBRANCH   8  11
TORSDOF 4
