REMARK  8 active torsions:
REMARK  status: ('A' for Active; 'I' for Inactive)
REMARK    1  A    between atoms: C2_2  and  N1_3 
REMARK    2  A    between atoms: N1_3  and  C3_5 
REMARK    3  A    between atoms: C6_10  and  N3_11 
REMARK    4  A    between atoms: N3_11  and  C7_12 
REMARK    5  A    between atoms: C7_12  and  C8_13 
REMARK    6  A    between atoms: C7_12  and  C13_20 
REMARK    7  A    between atoms: N6_30  and  C21_31 
REMARK    8  A    between atoms: C21_31  and  C22_32 
ROOT
HETATM    1  C22 UNL     1      -5.399  -3.252   1.394  1.00  0.00     0.168 C 
HETATM    2  C23 UNL     1      -6.090  -3.213   0.123  1.00  0.00     0.064 C 
HETATM    3  N7  UNL     1      -6.638  -3.204  -0.881  1.00  0.00    -0.197 NA
ENDROOT
BRANCH   1   4
HETATM    4  C21 UNL     1      -4.893  -1.940   1.884  1.00  0.00     0.077 C 
BRANCH   4   5
HETATM    5  N6  UNL     1      -3.965  -1.260   1.069  1.00  0.00    -0.372 N 
HETATM    6  C20 UNL     1      -2.702  -1.865   0.943  1.00  0.00     0.068 C 
HETATM    7  C19 UNL     1      -1.772  -1.328  -0.083  1.00  0.00     0.090 C 
HETATM    8  C5  UNL     1      -1.585   0.117  -0.063  1.00  0.00     0.029 A 
HETATM    9  C4  UNL     1      -2.544   1.072   0.091  1.00  0.00     0.039 A 
HETATM   10  C6  UNL     1      -0.220   0.423  -0.228  1.00  0.00     0.202 A 
HETATM   11  N2  UNL     1      -2.175   2.356   0.085  1.00  0.00    -0.195 N 
HETATM   12  C25 UNL     1      -4.034   0.969   0.276  1.00  0.00     0.078 C 
HETATM   13  C3  UNL     1      -0.881   2.720  -0.070  1.00  0.00     0.680 A 
ATOM     14  H2  UNL     1      -2.885   3.079   0.200  1.00  0.00     0.184 HD
HETATM   15  N5  UNL     1       0.035   1.745  -0.219  1.00  0.00    -0.164 N 
ATOM     16  H5  UNL     1       1.007   2.033  -0.335  1.00  0.00     0.187 HD
HETATM   17  C24 UNL     1      -4.458  -0.469   0.007  1.00  0.00     0.133 C 
BRANCH  13  18
HETATM   18  N1  UNL     1      -0.530   3.965  -0.074  1.00  0.00    -0.226 N 
ATOM     19  H1  UNL     1       0.445   4.241  -0.190  1.00  0.00     0.177 HD
BRANCH  18  20
HETATM   20  C2  UNL     1      -1.577   4.951   0.093  1.00  0.00     0.133 C 
HETATM   21  C1  UNL     1      -1.023   6.354   0.177  1.00  0.00     0.027 C 
ENDBRANCH  18  20
ENDBRANCH  13  18
BRANCH  10  22
HETATM   22  N3  UNL     1       0.573  -0.457  -0.359  1.00  0.00    -0.389 NA
BRANCH  22  23
HETATM   23  C7  UNL     1       1.730  -1.145  -0.531  1.00  0.00     0.102 C 
BRANCH  23  24
HETATM   24  C8  UNL     1       2.397  -0.980  -1.861  1.00  0.00     0.016 A 
HETATM   25  C9  UNL     1       2.750  -2.059  -2.673  1.00  0.00     0.017 A 
HETATM   26  C10 UNL     1       3.354  -1.948  -3.885  1.00  0.00     0.018 A 
HETATM   27  C11 UNL     1       3.648  -0.687  -4.368  1.00  0.00     0.087 A 
HETATM   28  N4  UNL     1       3.321   0.386  -3.610  1.00  0.00    -0.374 N 
HETATM   29  C12 UNL     1       2.724   0.241  -2.413  1.00  0.00     0.102 A 
ATOM     30  H4  UNL     1       3.531   1.323  -3.953  1.00  0.00     0.164 HD
ENDBRANCH  23  24
BRANCH  23  31
HETATM   31  C13 UNL     1       2.715  -1.113   0.633  1.00  0.00     0.051 C 
HETATM   32  C14 UNL     1       3.943  -1.902   0.381  1.00  0.00     0.012 C 
HETATM   33  C15 UNL     1       5.208  -1.049   0.247  1.00  0.00     0.001 C 
HETATM   34  C16 UNL     1       5.472  -0.301   1.539  1.00  0.00     0.000 C 
HETATM   35  C17 UNL     1       4.154   0.097   2.181  1.00  0.00     0.001 C 
HETATM   36  C18 UNL     1       3.095   0.265   1.078  1.00  0.00     0.012 C 
ENDBRANCH  23  31
ENDBRANCH  22  23
ENDBRANCH  10  22
ENDBRANCH   4   5
ENDBRANCH   1   4
TORSDOF 8
