REMARK  11 active torsions:
REMARK  status: ('A' for Active; 'I' for Inactive)
REMARK    1  A    between atoms: C2_3  and  C4_6 
REMARK    2  A    between atoms: C4_6  and  C5_7 
REMARK    3  A    between atoms: C7_9  and  C12_16 
REMARK    4  A    between atoms: C9_11  and  C10_12 
REMARK    5  A    between atoms: C10_12  and  C11_13 
REMARK       I    between atoms: N3_18  and  C14_19 
REMARK       I    between atoms: C14_19  and  N4_21 
REMARK    6  A    between atoms: N4_21  and  C15_23 
REMARK    7  A    between atoms: C15_23  and  C16_24 
REMARK    8  A    between atoms: C19_27  and  C20_28 
REMARK    9  A    between atoms: C20_28  and  N5_29 
REMARK   10  A    between atoms: N5_29  and  N6_31 
REMARK   11  A    between atoms: N6_31  and  N7_32 
ROOT
HETATM    1  N1  UNL     1      -6.542  -0.672  -4.207  1.00  0.00    -0.191 NA
HETATM    2  C1  UNL     1      -6.268  -0.321  -3.142  1.00  0.00     0.110 C 
HETATM    3  C2  UNL     1      -5.895   0.113  -1.755  1.00  0.00     0.124 C 
HETATM    4  C3  UNL     1      -6.560   1.331  -1.397  1.00  0.00     0.110 C 
HETATM    5  N2  UNL     1      -7.129   2.328  -1.133  1.00  0.00    -0.191 NA
ENDROOT
BRANCH   3   6
HETATM    6  C4  UNL     1      -5.088  -0.611  -1.074  1.00  0.00     0.037 C 
BRANCH   6   7
HETATM    7  C5  UNL     1      -4.532  -0.515   0.218  1.00  0.00    -0.070 C 
HETATM    8  C6  UNL     1      -5.018   0.494   1.217  1.00  0.00     0.040 C 
HETATM    9  C7  UNL     1      -3.840   0.584   2.189  1.00  0.00    -0.001 C 
HETATM   10  C8  UNL     1      -3.120  -0.721   1.955  1.00  0.00     0.017 C 
HETATM   11  C9  UNL     1      -3.031  -0.537   0.388  1.00  0.00     0.055 C 
BRANCH   9  12
HETATM   12  C12 UNL     1      -2.877   1.538   1.492  1.00  0.00     0.048 C 
HETATM   13  C10 UNL     1      -2.255   0.706   0.397  1.00  0.00     0.138 C 
HETATM   14  N3  UNL     1      -1.013   0.588   1.230  1.00  0.00    -0.313 N 
HETATM   15  C13 UNL     1      -1.525   1.630   2.083  1.00  0.00     0.137 C 
HETATM   16  C14 UNL     1       0.169  -0.175   1.221  1.00  0.00     0.319 C 
HETATM   17  O3  UNL     1       1.037  -0.010   2.127  1.00  0.00    -0.247 OA
HETATM   18  N4  UNL     1       0.478  -1.149   0.244  1.00  0.00    -0.343 N 
ATOM     19  H4  UNL     1      -0.207  -1.301  -0.497  1.00  0.00     0.164 HD
BRANCH  13  20
HETATM   20  C11 UNL     1      -1.931   1.404  -0.864  1.00  0.00     0.204 C 
HETATM   21  O1  UNL     1      -2.797   1.709  -1.665  1.00  0.00    -0.646 OA
HETATM   22  O2  UNL     1      -0.612   1.744  -1.195  1.00  0.00    -0.646 OA
ENDBRANCH  13  20
BRANCH  18  23
HETATM   23  C15 UNL     1       1.660  -1.934   0.206  1.00  0.00     0.129 C 
BRANCH  23  24
HETATM   24  C16 UNL     1       2.943  -1.148   0.089  1.00  0.00     0.003 C 
HETATM   25  C17 UNL     1       4.148  -2.081   0.054  1.00  0.00     0.007 C 
HETATM   26  C18 UNL     1       5.399  -1.261  -0.082  1.00  0.00     0.007 C 
HETATM   27  C19 UNL     1       5.377  -0.317  -1.241  1.00  0.00     0.006 C 
HETATM   28  C21 UNL     1       4.127  -0.603  -2.058  1.00  0.00     0.007 C 
HETATM   29  C22 UNL     1       2.906  -0.393  -1.216  1.00  0.00     0.007 C 
BRANCH  27  30
HETATM   30  C20 UNL     1       5.382   1.129  -0.765  1.00  0.00     0.160 C 
BRANCH  30  31
HETATM   31  N5  UNL     1       6.594   1.326   0.007  1.00  0.00    -0.252 N 
ATOM     32  H5  UNL     1       7.388   0.714  -0.181  1.00  0.00     0.196 HD
BRANCH  31  33
HETATM   33  N6  UNL     1       6.719   2.183   0.870  1.00  0.00    -0.249 NA
BRANCH  33  34
HETATM   34  N7  UNL     1       6.794   2.863   1.881  1.00  0.00    -0.261 N 
ATOM     35  H72 UNL     1       6.571   2.042   2.444  1.00  0.00     0.193 HD
ATOM     36  H71 UNL     1       6.898   3.578   2.601  1.00  0.00     0.193 HD
ENDBRANCH  33  34
ENDBRANCH  31  33
ENDBRANCH  30  31
ENDBRANCH  27  30
ENDBRANCH  23  24
ENDBRANCH  18  23
ENDBRANCH   9  12
ENDBRANCH   6   7
ENDBRANCH   3   6
TORSDOF 11
