REMARK  6 active torsions:
REMARK  status: ('A' for Active; 'I' for Inactive)
REMARK    1  A    between atoms: N1_2  and  C3_4 
REMARK    2  A    between atoms: C3_4  and  C4_5 
REMARK    3  A    between atoms: C4_5  and  C5_6 
REMARK    4  A    between atoms: C13_14  and  C14_15 
REMARK    5  A    between atoms: C14_15  and  O1_16 
REMARK    6  A    between atoms: C22_27  and  C23_28 
ROOT
HETATM    1  C5  UNL     1       1.354   0.247  -0.832  1.00  0.00    -0.034 C 
HETATM    2  C6  UNL     1       1.829  -0.653  -2.179  1.00  0.00     0.037 C 
HETATM    3  C7  UNL     1       0.650  -0.056  -2.934  1.00  0.00    -0.022 C 
HETATM    4  C8  UNL     1      -0.381  -0.157  -2.128  1.00  0.00    -0.063 C 
HETATM    5  C9  UNL     1      -1.736   0.353  -2.196  1.00  0.00     0.044 C 
HETATM    6  C10 UNL     1      -1.043   1.532  -1.121  1.00  0.00     0.019 C 
HETATM    7  C11 UNL     1       0.448   1.308  -1.161  1.00  0.00     0.019 C 
HETATM    8  C12 UNL     1      -1.634   1.352   0.146  1.00  0.00    -0.072 C 
HETATM    9  C13 UNL     1      -1.723   2.538   0.783  1.00  0.00     0.002 C 
HETATM   10  C15 UNL     1      -2.233   0.335   1.073  1.00  0.00     0.032 C 
HETATM   11  C16 UNL     1      -3.630   0.831   1.380  1.00  0.00     0.018 C 
HETATM   12  C17 UNL     1      -4.517  -0.217   0.831  1.00  0.00     0.080 C 
HETATM   13  C18 UNL     1      -3.684  -1.430   0.821  1.00  0.00     0.137 C 
HETATM   14  O2  UNL     1      -4.166  -2.546   0.868  1.00  0.00    -0.297 OA
HETATM   15  C19 UNL     1      -2.205  -1.050   0.746  1.00  0.00     0.039 C 
HETATM   16  C20 UNL     1      -1.656  -1.847   1.948  1.00  0.00     0.025 C 
HETATM   17  C21 UNL     1      -1.705  -1.638  -0.476  1.00  0.00     0.098 C 
HETATM   18  S1  UNL     1      -1.848  -3.478  -0.107  1.00  0.00    -0.089 SA
HETATM   19  C22 UNL     1      -0.365  -1.352  -1.066  1.00  0.00     0.086 C 
HETATM   20  C24 UNL     1       0.704  -0.985  -0.130  1.00  0.00     0.036 C 
ENDROOT
BRANCH   1  21
HETATM   21  C4  UNL     1       2.613   0.665  -0.262  1.00  0.00     0.040 C 
BRANCH  21  22
HETATM   22  C3  UNL     1       3.543  -0.429   0.171  1.00  0.00     0.272 C 
BRANCH  22  23
HETATM   23  N1  UNL     1       4.742   0.227   0.707  1.00  0.00     0.080 N 
HETATM   24  C1  UNL     1       5.624  -0.876   1.117  1.00  0.00     0.309 C 
HETATM   25  C2  UNL     1       4.381   1.013   1.871  1.00  0.00     0.309 C 
ENDBRANCH  22  23
ENDBRANCH  21  22
ENDBRANCH   1  21
BRANCH  19  26
HETATM   26  C23 UNL     1      -0.112  -2.618  -1.784  1.00  0.00     0.187 C 
HETATM   27  O3  UNL     1      -0.373  -2.653  -3.033  1.00  0.00    -0.647 OA
HETATM   28  O4  UNL     1       0.388  -3.748  -1.146  1.00  0.00    -0.647 OA
ENDBRANCH  19  26
BRANCH   9  29
HETATM   29  C14 UNL     1      -1.304   3.846   0.310  1.00  0.00     0.191 C 
BRANCH  29  30
HETATM   30  O1  UNL     1      -2.481   4.650   0.300  1.00  0.00    -0.397 OA
ATOM     31  H1  UNL     1      -2.207   5.505  -0.009  1.00  0.00     0.209 HD
ENDBRANCH  29  30
ENDBRANCH   9  29
TORSDOF 6
