REMARK  8 active torsions:
REMARK  status: ('A' for Active; 'I' for Inactive)
REMARK    1  A    between atoms: C3_3  and  C4_4 
REMARK    2  A    between atoms: C4_4  and  C5_5 
REMARK    3  A    between atoms: C5_5  and  C7_7 
REMARK    4  A    between atoms: C14_14  and  O1_15 
REMARK    5  A    between atoms: C14_14  and  C15_17 
REMARK    6  A    between atoms: C15_17  and  N1_18 
REMARK    7  A    between atoms: N2_21  and  C18_22 
REMARK    8  A    between atoms: C21_25  and  O2_26 
ROOT
HETATM    1  C7  UNL     1      -2.232  -0.382  -0.812  1.00  0.00     0.023 C 
HETATM    2  C8  UNL     1      -1.305   0.758  -0.737  1.00  0.00    -0.007 C 
HETATM    3  C9  UNL     1      -0.949   1.115  -2.190  1.00  0.00     0.010 C 
HETATM    4  C10 UNL     1      -0.199  -0.071  -2.712  1.00  0.00    -0.003 C 
HETATM    5  C11 UNL     1       1.181   0.059  -2.119  1.00  0.00     0.013 C 
HETATM    6  C12 UNL     1       1.152   0.045  -0.609  1.00  0.00     0.028 C 
HETATM    7  C13 UNL     1      -0.045   0.599   0.031  1.00  0.00     0.013 C 
HETATM    8  C14 UNL     1       1.587  -1.323  -0.136  1.00  0.00     0.134 C 
HETATM    9  C21 UNL     1       0.574  -2.406  -0.407  1.00  0.00     0.195 C 
HETATM   10  C22 UNL     1       0.791  -3.120  -1.722  1.00  0.00     0.073 C 
HETATM   11  C23 UNL     1       0.145  -2.473  -2.892  1.00  0.00     0.017 C 
HETATM   12  C24 UNL     1      -0.840  -1.385  -2.529  1.00  0.00    -0.013 C 
HETATM   13  C25 UNL     1      -1.960  -1.472  -3.575  1.00  0.00     0.018 C 
HETATM   14  C26 UNL     1      -1.483  -1.642  -1.211  1.00  0.00     0.138 C 
HETATM   15  O3  UNL     1      -0.714  -2.034  -0.197  1.00  0.00    -0.346 OA
ENDROOT
BRANCH   8  16
HETATM   16  O1  UNL     1       2.712  -1.643  -0.941  1.00  0.00    -0.382 OA
ATOM     17  H1  UNL     1       2.985  -2.503  -0.644  1.00  0.00     0.210 HD
ENDBRANCH   8  16
BRANCH   8  18
HETATM   18  C15 UNL     1       2.089  -1.365   1.270  1.00  0.00     0.173 C 
BRANCH  18  19
HETATM   19  N1  UNL     1       3.225  -0.554   1.559  1.00  0.00    -0.348 N 
HETATM   20  C16 UNL     1       4.518  -0.930   1.446  1.00  0.00     0.109 A 
HETATM   21  C17 UNL     1       5.318   0.120   1.826  1.00  0.00     0.109 A 
HETATM   22  N2  UNL     1       4.507   1.132   2.168  1.00  0.00    -0.352 N 
HETATM   23  C20 UNL     1       3.257   0.720   2.005  1.00  0.00     0.185 A 
BRANCH  22  24
HETATM   24  C18 UNL     1       4.987   2.443   2.634  1.00  0.00     0.124 C 
HETATM   25  C19 UNL     1       5.191   3.403   1.511  1.00  0.00     0.027 C 
ENDBRANCH  22  24
ENDBRANCH  18  19
ENDBRANCH   8  18
BRANCH   9  26
HETATM   26  O2  UNL     1       0.841  -3.394   0.584  1.00  0.00    -0.363 OA
ATOM     27  H2  UNL     1       0.203  -4.076   0.413  1.00  0.00     0.213 HD
ENDBRANCH   9  26
BRANCH   1  28
HETATM   28  C5  UNL     1      -3.229  -0.575   0.255  1.00  0.00    -0.008 C 
HETATM   29  C6  UNL     1      -2.765  -0.860   1.628  1.00  0.00     0.011 C 
BRANCH  28  30
HETATM   30  C4  UNL     1      -4.174   0.631   0.358  1.00  0.00     0.031 C 
BRANCH  30  31
HETATM   31  C3  UNL     1      -5.322   0.351   1.219  1.00  0.00    -0.031 C 
HETATM   32  C2  UNL     1      -5.538   1.078   2.295  1.00  0.00    -0.035 C 
HETATM   33  C1  UNL     1      -4.605   2.197   2.641  1.00  0.00     0.036 C 
ENDBRANCH  30  31
ENDBRANCH  28  30
ENDBRANCH   1  28
TORSDOF 8
