REMARK  8 active torsions:
REMARK  status: ('A' for Active; 'I' for Inactive)
REMARK    1  A    between atoms: N1_2  and  C2_4 
REMARK    2  A    between atoms: C2_4  and  C6_10 
REMARK    3  A    between atoms: N2_5  and  C3_7 
REMARK    4  A    between atoms: N3_13  and  C9_14 
REMARK    5  A    between atoms: C10_17  and  N5_18 
REMARK    6  A    between atoms: N5_18  and  C11_20 
REMARK    7  A    between atoms: C17_26  and  C18_27 
REMARK    8  A    between atoms: C18_27  and  C19_29 
ROOT
HETATM    1  C9  UNL     1      -0.680  -1.194   1.092  1.00  0.00     0.681 A 
HETATM    2  N4  UNL     1      -1.681  -0.408   0.581  1.00  0.00    -0.176 N 
ATOM      3  H4  UNL     1      -1.494   0.586   0.447  1.00  0.00     0.186 HD
HETATM    4  C10 UNL     1      -2.887  -0.874   0.250  1.00  0.00     0.132 A 
HETATM    5  C17 UNL     1      -3.110  -2.244   0.447  1.00  0.00     0.070 A 
HETATM    6  C22 UNL     1      -2.119  -3.050   0.958  1.00  0.00     0.125 A 
HETATM    7  N6  UNL     1      -0.907  -2.498   1.274  1.00  0.00    -0.201 N 
ATOM      8  H6  UNL     1      -0.168  -3.090   1.653  1.00  0.00     0.183 HD
ENDROOT
BRANCH   1   9
HETATM    9  N3  UNL     1       0.570  -0.630   1.419  1.00  0.00    -0.217 N 
HETATM   10  C8  UNL     1       0.742   0.818   1.190  1.00  0.00     0.142 C 
HETATM   11  C7  UNL     1       2.220   1.140   1.217  1.00  0.00     0.033 C 
HETATM   12  C6  UNL     1       2.920   0.156   0.309  1.00  0.00     0.056 C 
HETATM   13  C24 UNL     1       2.922  -1.172   1.008  1.00  0.00     0.033 C 
HETATM   14  C23 UNL     1       1.718  -1.295   1.957  1.00  0.00     0.142 C 
BRANCH  12  15
HETATM   15  C2  UNL     1       4.278   0.614  -0.086  1.00  0.00     0.077 C 
HETATM   16  N2  UNL     1       4.793   1.708   0.293  1.00  0.00    -0.376 N 
ATOM     17  H2  UNL     1       4.212   2.281   0.905  1.00  0.00     0.161 HD
BRANCH  15  18
HETATM   18  N1  UNL     1       5.012  -0.248  -0.938  1.00  0.00    -0.384 N 
HETATM   19  C1  UNL     1       5.788  -1.381  -0.479  1.00  0.00     0.147 C 
ATOM     20  H1  UNL     1       4.992  -0.058  -1.940  1.00  0.00     0.160 HD
ENDBRANCH  15  18
BRANCH  16  21
HETATM   21  C3  UNL     1       6.073   2.244  -0.020  1.00  0.00     0.074 C 
HETATM   22  C4  UNL     1       7.211   1.642   0.742  1.00  0.00     0.031 C 
HETATM   23  C5  UNL     1       6.425   2.128  -1.509  1.00  0.00     0.031 C 
ENDBRANCH  16  21
ENDBRANCH  12  15
ENDBRANCH   1   9
BRANCH   4  24
HETATM   24  N5  UNL     1      -3.835  -0.190  -0.222  1.00  0.00    -0.370 N 
ATOM     25  H5  UNL     1      -4.685  -0.720  -0.416  1.00  0.00     0.161 HD
BRANCH  24  26
HETATM   26  C11 UNL     1      -3.918   1.190  -0.528  1.00  0.00     0.083 C 
HETATM   27  C12 UNL     1      -2.627   1.938  -0.566  1.00  0.00     0.025 C 
HETATM   28  C13 UNL     1      -2.887   3.308  -1.154  1.00  0.00     0.002 C 
HETATM   29  C14 UNL     1      -4.331   3.540  -1.495  1.00  0.00     0.000 C 
HETATM   30  C15 UNL     1      -5.281   3.208  -0.394  1.00  0.00     0.002 C 
HETATM   31  C16 UNL     1      -4.870   1.955   0.366  1.00  0.00     0.025 C 
ENDBRANCH  24  26
ENDBRANCH   4  24
BRANCH   5  32
HETATM   32  C18 UNL     1      -4.420  -2.753   0.088  1.00  0.00     0.168 C 
HETATM   33  O1  UNL     1      -5.327  -2.008  -0.384  1.00  0.00    -0.292 OA
BRANCH  32  34
HETATM   34  C19 UNL     1      -4.749  -4.171   0.259  1.00  0.00     0.061 A 
HETATM   35  C20 UNL     1      -6.161  -4.629   0.327  1.00  0.00     0.013 A 
HETATM   36  C21 UNL     1      -5.457  -4.750  -0.977  1.00  0.00     0.013 A 
ENDBRANCH  32  34
ENDBRANCH   5  32
TORSDOF 8
