REMARK  7 active torsions:
REMARK  status: ('A' for Active; 'I' for Inactive)
REMARK    1  A    between atoms: C18_19  and  O2_20 
REMARK    2  A    between atoms: C18_19  and  C19_22 
REMARK    3  A    between atoms: C19_22  and  N1_23 
REMARK    4  A    between atoms: N1_23  and  C20_24 
REMARK    5  A    between atoms: N1_23  and  C22_27 
REMARK    6  A    between atoms: C22_27  and  C23_28 
REMARK    7  A    between atoms: C23_28  and  C24_29 
ROOT
HETATM    1  C20 UNL     1       4.510  -2.242   0.246  1.00  0.00     0.184 C 
HETATM    2  C21 UNL     1       5.745  -2.642   0.962  1.00  0.00     0.105 C 
HETATM    3  N2  UNL     1       6.700  -2.955   1.541  1.00  0.00    -0.191 NA
ENDROOT
BRANCH   1   4
HETATM    4  N1  UNL     1       4.480  -0.886  -0.073  1.00  0.00    -0.358 N 
BRANCH   4   5
HETATM    5  C19 UNL     1       3.370  -0.443  -0.813  1.00  0.00     0.101 C 
BRANCH   5   6
HETATM    6  C18 UNL     1       2.100  -0.453  -0.070  1.00  0.00     0.091 C 
HETATM    7  C17 UNL     1       1.025   0.376  -0.878  1.00  0.00     0.049 C 
HETATM    8  C16 UNL     1      -0.146  -0.037  -0.044  1.00  0.00     0.002 C 
HETATM    9  C2  UNL     1      -0.084  -1.528  -0.222  1.00  0.00    -0.037 C 
HETATM   10  C6  UNL     1      -1.430   0.621  -0.337  1.00  0.00    -0.001 C 
HETATM   11  C1  UNL     1      -0.229  -2.007  -1.625  1.00  0.00     0.015 C 
HETATM   12  C3  UNL     1      -1.024  -2.148   0.748  1.00  0.00     0.010 C 
HETATM   13  C25 UNL     1       1.400  -1.750   0.148  1.00  0.00     0.053 C 
HETATM   14  C4  UNL     1      -2.292  -1.330   0.978  1.00  0.00     0.007 C 
HETATM   15  C5  UNL     1      -2.558  -0.351  -0.137  1.00  0.00     0.003 C 
HETATM   16  C14 UNL     1      -3.889   0.286   0.014  1.00  0.00    -0.016 C 
HETATM   17  C9  UNL     1      -3.923   1.614   0.632  1.00  0.00    -0.068 C 
HETATM   18  C13 UNL     1      -4.550   0.456  -1.364  1.00  0.00     0.021 C 
HETATM   19  C15 UNL     1      -4.822  -0.659   0.764  1.00  0.00     0.020 C 
HETATM   20  C8  UNL     1      -2.854   2.306   0.867  1.00  0.00    -0.022 C 
HETATM   21  C10 UNL     1      -5.256   2.175   0.977  1.00  0.00     0.113 C 
HETATM   22  C7  UNL     1      -1.517   1.823   0.556  1.00  0.00     0.033 C 
HETATM   23  C11 UNL     1      -5.989   2.238  -0.337  1.00  0.00     0.130 C 
HETATM   24  O1  UNL     1      -6.647   3.221  -0.569  1.00  0.00    -0.298 OA
HETATM   25  C12 UNL     1      -5.886   1.126  -1.279  1.00  0.00     0.079 C 
BRANCH   6  26
HETATM   26  O2  UNL     1       2.202   0.304   1.115  1.00  0.00    -0.384 OA
ATOM     27  H2  UNL     1       2.848  -0.195   1.601  1.00  0.00     0.211 HD
ENDBRANCH   6  26
ENDBRANCH   5   6
ENDBRANCH   4   5
BRANCH   4  28
HETATM   28  C22 UNL     1       5.705  -0.197  -0.299  1.00  0.00     0.138 C 
BRANCH  28  29
HETATM   29  C23 UNL     1       5.665   1.227   0.220  1.00  0.00     0.133 C 
BRANCH  29  30
HETATM   30  C24 UNL     1       6.996   1.841  -0.089  1.00  0.00     0.174 C 
HETATM   31  O3  UNL     1       7.930   1.223  -0.657  1.00  0.00    -0.648 OA
HETATM   32  O4  UNL     1       7.256   3.181   0.259  1.00  0.00    -0.648 OA
ENDBRANCH  29  30
ENDBRANCH  28  29
ENDBRANCH   4  28
ENDBRANCH   1   4
TORSDOF 7
