REMARK  8 active torsions:
REMARK  status: ('A' for Active; 'I' for Inactive)
REMARK    1  A    between atoms: C2_2  and  O1_3 
REMARK    2  A    between atoms: O1_3  and  C3_4 
REMARK    3  A    between atoms: C3_4  and  C4_6 
REMARK    4  A    between atoms: C8_13  and  N2_14 
REMARK    5  A    between atoms: N2_14  and  N3_16 
REMARK    6  A    between atoms: C9_18  and  C10_19 
REMARK    7  A    between atoms: C9_18  and  C12_22 
REMARK    8  A    between atoms: C12_22  and  C13_23 
ROOT
HETATM    1  C10 UNL     1      -5.722  -0.159   1.895  1.00  0.00     0.177 C 
HETATM    2  C11 UNL     1      -6.159   1.205   2.048  1.00  0.00     0.065 C 
HETATM    3  N4  UNL     1      -6.508   2.298   2.204  1.00  0.00    -0.197 NA
ENDROOT
BRANCH   1   4
HETATM    4  C9  UNL     1      -4.848  -0.438   0.748  1.00  0.00     0.019 C 
HETATM    5  N3  UNL     1      -3.624  -0.803   1.032  1.00  0.00    -0.294 N 
ATOM      6  H3  UNL     1      -3.361  -0.869   2.015  1.00  0.00     0.186 HD
BRANCH   5   7
HETATM    7  N2  UNL     1      -2.672  -1.102   0.090  1.00  0.00    -0.132 N 
ATOM      8  H2  UNL     1      -2.923  -1.584  -0.773  1.00  0.00     0.205 HD
BRANCH   7   9
HETATM    9  C8  UNL     1      -1.432  -0.752   0.328  1.00  0.00     0.703 A 
HETATM   10  N1  UNL     1      -1.100  -0.121   1.450  1.00  0.00    -0.154 N 
HETATM   11  C7  UNL     1       0.161   0.224   1.667  1.00  0.00     0.273 A 
ATOM     12  H1  UNL     1      -1.815   0.097   2.143  1.00  0.00     0.187 HD
HETATM   13  C6  UNL     1       1.103  -0.087   0.707  1.00  0.00     0.079 A 
HETATM   14  O3  UNL     1       0.539   0.826   2.716  1.00  0.00    -0.267 OA
HETATM   15  C5  UNL     1       2.414   0.275   0.938  1.00  0.00     0.044 A 
HETATM   16  C15 UNL     1       0.736  -0.754  -0.477  1.00  0.00     0.143 A 
HETATM   17  C4  UNL     1       3.358  -0.019   0.008  1.00  0.00     0.108 A 
HETATM   18  C17 UNL     1       2.964  -0.668  -1.129  1.00  0.00     0.265 A 
HETATM   19  N6  UNL     1       1.664  -1.050  -1.404  1.00  0.00    -0.302 N 
HETATM   20  O4  UNL     1       3.818  -0.961  -2.023  1.00  0.00    -0.267 OA
HETATM   21  C16 UNL     1       1.349  -1.715  -2.610  1.00  0.00     0.161 C 
HETATM   22  N5  UNL     1      -0.553  -1.096  -0.676  1.00  0.00    -0.170 N 
HETATM   23  C14 UNL     1      -0.986  -1.767  -1.834  1.00  0.00     0.177 C 
BRANCH  17  24
HETATM   24  C3  UNL     1       4.768   0.336   0.189  1.00  0.00     0.298 C 
HETATM   25  O2  UNL     1       5.612   0.044  -0.697  1.00  0.00    -0.259 OA
BRANCH  24  26
HETATM   26  O1  UNL     1       5.243   0.987   1.301  1.00  0.00    -0.318 OA
BRANCH  26  27
HETATM   27  C2  UNL     1       6.556   1.358   1.551  1.00  0.00     0.174 C 
HETATM   28  C1  UNL     1       7.175   2.284   0.578  1.00  0.00     0.034 C 
ENDBRANCH  26  27
ENDBRANCH  24  26
ENDBRANCH  17  24
ENDBRANCH   7   9
ENDBRANCH   5   7
BRANCH   4  29
HETATM   29  C12 UNL     1      -5.320  -0.312  -0.632  1.00  0.00     0.091 C 
BRANCH  29  30
HETATM   30  C13 UNL     1      -5.747   1.050  -1.076  1.00  0.00     0.183 C 
HETATM   31 CL1  UNL     1      -4.398   2.227  -0.942  1.00  0.00    -0.108 Cl
HETATM   32 CL2  UNL     1      -6.122   1.002  -2.849  1.00  0.00    -0.108 Cl
ENDBRANCH  29  30
ENDBRANCH   4  29
ENDBRANCH   1   4
TORSDOF 8
