REMARK  9 active torsions:
REMARK  status: ('A' for Active; 'I' for Inactive)
REMARK    1  A    between atoms: C1_2  and  O2_3 
REMARK    2  A    between atoms: C1_2  and  C4_8 
REMARK    3  A    between atoms: O2_3  and  C2_4 
REMARK    4  A    between atoms: C2_4  and  C3_5 
REMARK    5  A    between atoms: C3_5  and  O3_6 
REMARK    6  A    between atoms: C10_15  and  O4_16 
REMARK    7  A    between atoms: O4_16  and  C11_17 
REMARK    8  A    between atoms: C11_17  and  C12_18 
REMARK    9  A    between atoms: C16_25  and  O7_26 
ROOT
HETATM    1  C4  UNL     1       2.376   1.492   0.054  1.00  0.00     0.149 C 
HETATM    2  C5  UNL     1       1.473   0.283   0.189  1.00  0.00     0.066 C 
HETATM    3  C6  UNL     1       0.135   0.463  -0.498  1.00  0.00     0.101 C 
HETATM    4  C7  UNL     1       0.345   1.264  -1.757  1.00  0.00     0.051 C 
HETATM    5  C8  UNL     1       1.517   0.775  -2.581  1.00  0.00     0.077 C 
HETATM    6  S1  UNL     1       2.999   1.391  -1.675  1.00  0.00    -0.154 SA
HETATM    7  C9  UNL     1      -0.421  -0.897  -0.735  1.00  0.00     0.076 C 
HETATM    8  C10 UNL     1      -1.978  -0.908  -0.768  1.00  0.00     0.164 C 
HETATM    9  C13 UNL     1      -2.373  -0.036   0.350  1.00  0.00     0.145 C 
HETATM   10  O5  UNL     1      -1.901   1.255   0.030  1.00  0.00    -0.224 OA
HETATM   11  O6  UNL     1      -0.633   1.237   0.366  1.00  0.00    -0.229 OA
HETATM   12  C14 UNL     1      -1.895  -0.450   1.716  1.00  0.00     0.033 C 
HETATM   13  C15 UNL     1      -3.040  -1.215   2.369  1.00  0.00     0.047 C 
HETATM   14  C16 UNL     1      -3.779   0.123   2.159  1.00  0.00     0.078 C 
HETATM   15  C17 UNL     1      -2.447   0.734   2.532  1.00  0.00     0.047 C 
HETATM   16  C18 UNL     1      -3.848   0.098   0.639  1.00  0.00     0.157 C 
HETATM   17 CL1  UNL     1      -4.735  -1.378   0.156  1.00  0.00    -0.118 Cl
ENDROOT
BRANCH   1  18
HETATM   18  C1  UNL     1       3.478   1.431   1.013  1.00  0.00     0.273 C 
HETATM   19  O1  UNL     1       3.605   2.334   1.856  1.00  0.00    -0.264 OA
BRANCH  18  20
HETATM   20  O2  UNL     1       4.389   0.389   1.008  1.00  0.00    -0.318 OA
BRANCH  20  21
HETATM   21  C2  UNL     1       5.424   0.410   1.971  1.00  0.00     0.204 C 
BRANCH  21  22
HETATM   22  C3  UNL     1       6.308  -0.808   1.800  1.00  0.00     0.191 C 
BRANCH  22  23
HETATM   23  O3  UNL     1       6.880  -0.832   0.540  1.00  0.00    -0.399 OA
ATOM     24  H3  UNL     1       7.434  -1.596   0.433  1.00  0.00     0.209 HD
ENDBRANCH  22  23
ENDBRANCH  21  22
ENDBRANCH  20  21
ENDBRANCH  18  20
ENDBRANCH   1  18
BRANCH   8  25
HETATM   25  O4  UNL     1      -2.280  -0.333  -1.986  1.00  0.00    -0.380 OA
BRANCH  25  26
HETATM   26  C11 UNL     1      -2.795  -1.171  -2.937  1.00  0.00     0.199 C 
BRANCH  26  27
HETATM   27  C12 UNL     1      -3.078  -0.356  -4.192  1.00  0.00     0.248 C 
HETATM   28  F1  UNL     1      -1.885   0.177  -4.622  1.00  0.00    -0.253 F 
ENDBRANCH  26  27
ENDBRANCH  25  26
ENDBRANCH   8  25
BRANCH  14  29
HETATM   29  O7  UNL     1      -4.863   0.363   2.877  1.00  0.00    -0.388 OA
ATOM     30  H7  UNL     1      -5.318   1.187   2.748  1.00  0.00     0.210 HD
ENDBRANCH  14  29
TORSDOF 9
