REMARK  8 active torsions:
REMARK  status: ('A' for Active; 'I' for Inactive)
REMARK    1  A    between atoms: C2_2  and  O1_3 
REMARK    2  A    between atoms: O1_3  and  C3_4 
REMARK    3  A    between atoms: C3_4  and  C4_6 
REMARK    4  A    between atoms: C5_8  and  O3_9 
REMARK    5  A    between atoms: O3_9  and  C6_10 
REMARK    6  A    between atoms: C8_13  and  N1_14 
REMARK       I    between atoms: N1_14  and  C9_16 
REMARK    7  A    between atoms: C9_16  and  C10_18 
REMARK    8  A    between atoms: C10_18  and  N2_21 
ROOT
HETATM    1  C6  UNL     1      -0.071  -0.693  -0.913  1.00  0.00     0.232 C 
HETATM    2  C7  UNL     1      -1.197  -0.132  -0.131  1.00  0.00     0.183 C 
HETATM    3  O4  UNL     1      -1.214   0.946   0.391  1.00  0.00    -0.293 OA
HETATM    4  C8  UNL     1      -2.277  -1.161  -0.127  1.00  0.00     0.188 C 
HETATM    5  C13 UNL     1      -2.035  -1.898  -1.424  1.00  0.00     0.184 A 
HETATM    6  O6  UNL     1      -1.095  -2.957  -1.284  1.00  0.00    -0.370 OA
HETATM    7  C14 UNL     1      -0.651  -1.765  -1.798  1.00  0.00     0.190 A 
ENDROOT
BRANCH   1   8
HETATM    8  O3  UNL     1       0.926  -1.208  -0.029  1.00  0.00    -0.327 OA
BRANCH   8   9
HETATM    9  C5  UNL     1       2.220  -0.653  -0.105  1.00  0.00     0.135 A 
HETATM   10  S1  UNL     1       2.874   0.597   0.849  1.00  0.00    -0.056 SA
HETATM   11  C4  UNL     1       4.437   0.682   0.158  1.00  0.00     0.106 A 
HETATM   12  C16 UNL     1       4.392  -0.281  -0.805  1.00  0.00     0.082 A 
HETATM   13  C15 UNL     1       3.255  -0.973  -0.948  1.00  0.00     0.097 A 
HETATM   14 CL2  UNL     1       5.834  -0.570  -1.819  1.00  0.00    -0.081 Cl
HETATM   15 CL1  UNL     1       3.003  -2.272  -2.151  1.00  0.00    -0.079 Cl
BRANCH  11  16
HETATM   16  C3  UNL     1       5.550   1.580   0.522  1.00  0.00     0.302 C 
HETATM   17  O2  UNL     1       5.368   2.402   1.445  1.00  0.00    -0.259 OA
BRANCH  16  18
HETATM   18  O1  UNL     1       6.739   1.518  -0.125  1.00  0.00    -0.317 OA
BRANCH  18  19
HETATM   19  C2  UNL     1       7.858   2.356   0.175  1.00  0.00     0.174 C 
HETATM   20  C1  UNL     1       8.966   1.948  -0.773  1.00  0.00     0.034 C 
ENDBRANCH  18  19
ENDBRANCH  16  18
ENDBRANCH  11  16
ENDBRANCH   8   9
ENDBRANCH   1   8
BRANCH   4  21
HETATM   21  N1  UNL     1      -3.592  -0.621   0.011  1.00  0.00    -0.345 N 
HETATM   22  C9  UNL     1      -4.432  -0.915   1.121  1.00  0.00     0.253 C 
HETATM   23  O5  UNL     1      -3.972  -1.685   2.003  1.00  0.00    -0.271 OA
ATOM     24  H1  UNL     1      -3.944   0.001  -0.717  1.00  0.00     0.163 HD
BRANCH  22  25
HETATM   25  C10 UNL     1      -5.781  -0.372   1.281  1.00  0.00     0.196 C 
HETATM   26  C11 UNL     1      -5.679   1.146   1.324  1.00  0.00     0.056 C 
HETATM   27  C12 UNL     1      -6.696  -0.739   0.134  1.00  0.00     0.056 C 
BRANCH  25  28
HETATM   28  N2  UNL     1      -6.378  -0.848   2.490  1.00  0.00    -0.062 N 
ATOM     29  H23 UNL     1      -6.373  -1.867   2.538  1.00  0.00     0.275 HD
ATOM     30  H22 UNL     1      -5.793  -0.653   3.303  1.00  0.00     0.275 HD
ATOM     31  H21 UNL     1      -7.319  -0.469   2.602  1.00  0.00     0.275 HD
ENDBRANCH  25  28
ENDBRANCH  22  25
ENDBRANCH   4  21
TORSDOF 8
