REMARK  7 active torsions:
REMARK  status: ('A' for Active; 'I' for Inactive)
REMARK    1  A    between atoms: C2_2  and  C9_21 
REMARK    2  A    between atoms: N1_3  and  O1_5 
REMARK    3  A    between atoms: O1_5  and  C3_6 
REMARK    4  A    between atoms: C3_6  and  O2_7 
REMARK    5  A    between atoms: C3_6  and  C4_9 
REMARK    6  A    between atoms: C4_9  and  N2_10 
REMARK    7  A    between atoms: C6_12  and  C7_13 
ROOT
HETATM    1  C3  UNL     1       0.157  -0.293  -0.116  1.00  0.00     0.305 C 
ENDROOT
BRANCH   1   2
HETATM    2  O1  UNL     1      -1.134  -0.378  -0.670  1.00  0.00    -0.246 OA
BRANCH   2   3
HETATM    3  N1  UNL     1      -2.005  -1.310  -0.259  1.00  0.00    -0.267 N 
HETATM    4  C2  UNL     1      -3.174  -1.206   0.215  1.00  0.00     0.046 C 
HETATM    5  C1  UNL     1      -3.892  -2.450   0.580  1.00  0.00     0.071 C 
ATOM      6  H1  UNL     1      -1.667  -2.269  -0.343  1.00  0.00     0.194 HD
BRANCH   4   7
HETATM    7  C9  UNL     1      -3.809   0.069   0.399  1.00  0.00     0.082 A 
HETATM    8  C10 UNL     1      -3.366   1.349   0.130  1.00  0.00     0.186 A 
HETATM    9  O3  UNL     1      -4.332   2.192   0.477  1.00  0.00    -0.246 OA
HETATM   10  N5  UNL     1      -5.339   1.561   0.937  1.00  0.00    -0.225 N 
HETATM   11  C11 UNL     1      -5.085   0.254   0.918  1.00  0.00     0.279 A 
ATOM     12  H5  UNL     1      -6.203   1.990   1.268  1.00  0.00     0.198 HD
HETATM   13  O4  UNL     1      -5.837  -0.696   1.293  1.00  0.00    -0.265 OA
ENDBRANCH   4   7
ENDBRANCH   2   3
ENDBRANCH   1   2
BRANCH   1  14
HETATM   14  O2  UNL     1       0.257   0.918   0.562  1.00  0.00    -0.367 OA
ATOM     15  H2  UNL     1       1.128   0.975   0.936  1.00  0.00     0.212 HD
ENDBRANCH   1  14
BRANCH   1  16
HETATM   16  C4  UNL     1       1.170  -0.407  -1.221  1.00  0.00     0.212 C 
BRANCH  16  17
HETATM   17  N2  UNL     1       2.525  -0.329  -0.766  1.00  0.00    -0.282 N 
HETATM   18  C5  UNL     1       3.286   0.747  -0.632  1.00  0.00     0.142 A 
HETATM   19  C6  UNL     1       4.543   0.379  -0.154  1.00  0.00     0.068 A 
HETATM   20  N3  UNL     1       4.467  -0.971  -0.018  1.00  0.00    -0.285 N 
HETATM   21  N4  UNL     1       3.248  -1.366  -0.391  1.00  0.00    -0.240 N 
ATOM     22  H3  UNL     1       5.215  -1.580   0.313  1.00  0.00     0.188 HD
ATOM     23  H4  UNL     1       2.922  -2.332  -0.387  1.00  0.00     0.208 HD
BRANCH  19  24
HETATM   24  C7  UNL     1       5.676   1.250   0.130  1.00  0.00     0.059 C 
HETATM   25  C8  UNL     1       6.896   0.811  -0.126  1.00  0.00     0.059 C 
HETATM   26 BR1  UNL     1       8.406   1.932   0.236  1.00  0.00    -0.043 Br
HETATM   27 BR2  UNL     1       7.160  -0.949  -0.857  1.00  0.00    -0.043 Br
ENDBRANCH  19  24
ENDBRANCH  16  17
ENDBRANCH   1  16
TORSDOF 7
