REMARK  5 active torsions:
REMARK  status: ('A' for Active; 'I' for Inactive)
REMARK    1  A    between atoms: N1_2  and  C2_5 
REMARK    2  A    between atoms: C2_5  and  C3_6 
REMARK    3  A    between atoms: C3_6  and  C4_7 
REMARK    4  A    between atoms: C4_7  and  O1_8 
REMARK    5  A    between atoms: O1_8  and  C5_9 
ROOT
HETATM    1  C5  UNL     1      -0.860   0.103  -0.033  1.00  0.00     0.338 C 
HETATM    2  C6  UNL     1      -1.818   1.228  -0.353  1.00  0.00     0.175 C 
HETATM    3  N2  UNL     1      -2.692   0.883  -1.413  1.00  0.00    -0.417 N 
ATOM      4  H2  UNL     1      -2.543   1.231  -2.360  1.00  0.00     0.153 HD
HETATM    5  C7  UNL     1      -3.778   0.036  -1.102  1.00  0.00     0.115 C 
HETATM    6  C8  UNL     1      -3.816  -0.489   0.297  1.00  0.00     0.047 C 
HETATM    7  C9  UNL     1      -2.665  -1.318   0.704  1.00  0.00     0.237 C 
HETATM    8  N3  UNL     1      -1.496  -1.189  -0.129  1.00  0.00    -0.047 N 
ATOM      9  H31 UNL     1      -0.829  -1.935   0.067  1.00  0.00     0.280 HD
ATOM     10  H32 UNL     1      -1.718  -1.411  -1.100  1.00  0.00     0.280 HD
ENDROOT
BRANCH   1  11
HETATM   11  O1  UNL     1      -0.225   0.294   1.183  1.00  0.00    -0.358 OA
BRANCH  11  12
HETATM   12  C4  UNL     1       1.132   0.437   1.138  1.00  0.00     0.172 C 
BRANCH  12  13
HETATM   13  C3  UNL     1       1.809  -0.774   0.589  1.00  0.00     0.054 C 
BRANCH  13  14
HETATM   14  C2  UNL     1       3.323  -0.614   0.542  1.00  0.00     0.234 C 
BRANCH  14  15
HETATM   15  N1  UNL     1       3.704   0.506  -0.294  1.00  0.00    -0.079 N 
HETATM   16  C1  UNL     1       5.118   0.692  -0.366  1.00  0.00     0.266 C 
ATOM     17  H12 UNL     1       3.239   1.362   0.009  1.00  0.00     0.276 HD
ATOM     18  H11 UNL     1       3.300   0.418  -1.227  1.00  0.00     0.276 HD
ENDBRANCH  14  15
ENDBRANCH  13  14
ENDBRANCH  12  13
ENDBRANCH  11  12
ENDBRANCH   1  11
TORSDOF 5
