REMARK  7 active torsions:
REMARK  status: ('A' for Active; 'I' for Inactive)
REMARK    1  A    between atoms: N1_1  and  C1_5 
REMARK    2  A    between atoms: C1_5  and  C2_6 
REMARK    3  A    between atoms: C2_6  and  C3_7 
REMARK    4  A    between atoms: C3_7  and  C4_8 
REMARK    5  A    between atoms: C4_8  and  N2_9 
REMARK    6  A    between atoms: C4_8  and  C5_13 
REMARK    7  A    between atoms: C5_13  and  N3_14 
ROOT
HETATM    1  C4  UNL     1      -0.880  -1.093  -0.424  1.00  0.00     0.211 C 
ENDROOT
BRANCH   1   2
HETATM    2  C3  UNL     1      -1.661   0.069  -0.993  1.00  0.00     0.036 C 
BRANCH   2   3
HETATM    3  C2  UNL     1      -2.413   0.817   0.050  1.00  0.00     0.029 C 
BRANCH   3   4
HETATM    4  C1  UNL     1      -3.413  -0.067   0.752  1.00  0.00     0.229 C 
BRANCH   4   5
HETATM    5  N1  UNL     1      -4.072   0.789   1.746  1.00  0.00    -0.079 N 
ATOM      6  H13 UNL     1      -3.422   1.254   2.380  1.00  0.00     0.274 HD
ATOM      7  H12 UNL     1      -4.482   1.635   1.349  1.00  0.00     0.274 HD
ATOM      8  H11 UNL     1      -4.748   0.191   2.221  1.00  0.00     0.274 HD
ENDBRANCH   4   5
ENDBRANCH   3   4
ENDBRANCH   2   3
ENDBRANCH   1   2
BRANCH   1   9
HETATM    9  N2  UNL     1      -0.163  -1.782  -1.477  1.00  0.00    -0.073 N 
ATOM     10  H23 UNL     1      -0.784  -2.074  -2.231  1.00  0.00     0.274 HD
ATOM     11  H22 UNL     1       0.433  -1.148  -2.009  1.00  0.00     0.274 HD
ATOM     12  H21 UNL     1       0.364  -2.566  -1.093  1.00  0.00     0.274 HD
ENDBRANCH   1   9
BRANCH   1  13
HETATM   13  C5  UNL     1       0.055  -0.618   0.674  1.00  0.00     0.306 C 
BRANCH  13  14
HETATM   14  N3  UNL     1       0.961   0.329   0.156  1.00  0.00     0.107 N 
HETATM   15  C6  UNL     1       1.948   0.038  -0.717  1.00  0.00     0.283 A 
HETATM   16  C7  UNL     1       3.074   0.816  -1.297  1.00  0.00     0.270 C 
HETATM   17  C9  UNL     1       2.146   0.686   0.694  1.00  0.00     0.283 A 
HETATM   18  N4  UNL     1       4.142   0.401  -0.368  1.00  0.00    -0.071 N 
HETATM   19  C8  UNL     1       3.465   0.063   0.893  1.00  0.00     0.270 C 
ATOM     20  H42 UNL     1       4.730  -0.350  -0.730  1.00  0.00     0.277 HD
ATOM     21  H41 UNL     1       4.883   1.094  -0.261  1.00  0.00     0.277 HD
ENDBRANCH  13  14
ENDBRANCH   1  13
TORSDOF 7
