REMARK  6 active torsions:
REMARK  status: ('A' for Active; 'I' for Inactive)
REMARK    1  A    between atoms: C2_5  and  N3_6 
REMARK    2  A    between atoms: N5_12  and  C4_14 
REMARK    3  A    between atoms: C4_14  and  C5_15 
REMARK    4  A    between atoms: C5_15  and  C6_16 
REMARK    5  A    between atoms: C6_16  and  C7_17 
REMARK    6  A    between atoms: C7_17  and  N6_18 
ROOT
HETATM    1  C1  UNL     1       2.294  -1.368  -1.184  1.00  0.00     0.198 C 
HETATM    2  N1  UNL     1       2.659  -0.155  -0.464  1.00  0.00    -0.114 N 
HETATM    3  N2  UNL     1       3.916   0.305  -0.306  1.00  0.00    -0.116 N 
ATOM      4  H2  UNL     1       4.760  -0.138  -0.670  1.00  0.00     0.206 HD
HETATM    5  C2  UNL     1       3.878   1.433   0.403  1.00  0.00     0.705 A 
HETATM    6  N4  UNL     1       2.604   1.665   0.678  1.00  0.00    -0.020 N 
ATOM      7  H4  UNL     1       2.259   2.463   1.212  1.00  0.00     0.203 HD
HETATM    8  C3  UNL     1       1.811   0.674   0.140  1.00  0.00     0.709 A 
HETATM    9  N5  UNL     1       0.555   0.722   0.297  1.00  0.00    -0.224 N 
ATOM     10  H5  UNL     1       0.192   1.514   0.828  1.00  0.00     0.177 HD
ENDROOT
BRANCH   9  11
HETATM   11  C4  UNL     1      -0.400  -0.207  -0.186  1.00  0.00     0.138 C 
BRANCH  11  12
HETATM   12  C5  UNL     1      -1.785   0.034   0.419  1.00  0.00     0.022 C 
BRANCH  12  13
HETATM   13  C6  UNL     1      -2.708  -1.003  -0.162  1.00  0.00     0.029 C 
BRANCH  13  14
HETATM   14  C7  UNL     1      -4.119  -0.869   0.363  1.00  0.00     0.229 C 
BRANCH  14  15
HETATM   15  N6  UNL     1      -4.709   0.395   0.069  1.00  0.00    -0.079 N 
ATOM     16  H63 UNL     1      -4.122   1.157   0.407  1.00  0.00     0.274 HD
ATOM     17  H62 UNL     1      -4.674   0.588  -0.932  1.00  0.00     0.274 HD
ATOM     18  H61 UNL     1      -5.661   0.485   0.423  1.00  0.00     0.274 HD
ENDBRANCH  14  15
ENDBRANCH  13  14
ENDBRANCH  12  13
ENDBRANCH  11  12
ENDBRANCH   9  11
BRANCH   5  19
HETATM   19  N3  UNL     1       4.904   2.131   0.734  1.00  0.00    -0.233 N 
ATOM     20  H32 UNL     1       5.886   1.952   0.522  1.00  0.00     0.174 HD
ATOM     21  H31 UNL     1       4.875   2.994   1.277  1.00  0.00     0.174 HD
ENDBRANCH   5  19
TORSDOF 6
