REMARK  7 active torsions:
REMARK  status: ('A' for Active; 'I' for Inactive)
REMARK    1  A    between atoms: C2_2  and  O1_3 
REMARK    2  A    between atoms: C2_2  and  C3_5 
REMARK    3  A    between atoms: C3_5  and  N1_6 
REMARK    4  A    between atoms: C3_5  and  C4_10 
REMARK    5  A    between atoms: C4_10  and  N2_11 
REMARK    6  A    between atoms: C4_10  and  C5_15 
REMARK    7  A    between atoms: C5_15  and  N3_16 
ROOT
HETATM    1  C4  UNL     1      -0.831   0.611   0.909  1.00  0.00     0.254 C 
ENDROOT
BRANCH   1   2
HETATM    2  C3  UNL     1      -1.463  -0.599   0.304  1.00  0.00     0.246 C 
BRANCH   2   3
HETATM    3  C2  UNL     1      -2.180  -0.431  -0.980  1.00  0.00     0.146 C 
HETATM    4  C1  UNL     1      -3.495   0.328  -0.825  1.00  0.00     0.041 C 
BRANCH   3   5
HETATM    5  O1  UNL     1      -1.491   0.078  -2.032  1.00  0.00    -0.394 OA
ATOM      6  H1  UNL     1      -0.672  -0.394  -2.128  1.00  0.00     0.210 HD
ENDBRANCH   3   5
ENDBRANCH   2   3
BRANCH   2   7
HETATM    7  N1  UNL     1      -2.394  -1.183   1.278  1.00  0.00    -0.070 N 
ATOM      8  H13 UNL     1      -3.252  -0.641   1.375  1.00  0.00     0.274 HD
ATOM      9  H12 UNL     1      -2.816  -2.051   0.947  1.00  0.00     0.274 HD
ATOM     10  H11 UNL     1      -1.900  -1.299   2.163  1.00  0.00     0.274 HD
ENDBRANCH   2   7
ENDBRANCH   1   2
BRANCH   1  11
HETATM   11  N2  UNL     1      -0.212   0.222   2.204  1.00  0.00    -0.068 N 
ATOM     12  H23 UNL     1      -0.874  -0.230   2.834  1.00  0.00     0.275 HD
ATOM     13  H22 UNL     1       0.442  -0.555   2.108  1.00  0.00     0.275 HD
ATOM     14  H21 UNL     1       0.220   1.049   2.617  1.00  0.00     0.275 HD
ENDBRANCH   1  11
BRANCH   1  15
HETATM   15  C5  UNL     1       0.306   1.135   0.048  1.00  0.00     0.092 C 
BRANCH  15  16
HETATM   16  N3  UNL     1       1.346   0.223  -0.142  1.00  0.00    -0.391 N 
HETATM   17  C6  UNL     1       2.217  -0.120   0.913  1.00  0.00     0.122 C 
HETATM   18  C7  UNL     1       3.640  -0.081   0.294  1.00  0.00     0.021 C 
HETATM   19  C8  UNL     1       3.335  -0.594  -1.093  1.00  0.00     0.021 C 
HETATM   20  C9  UNL     1       2.016   0.145  -1.388  1.00  0.00     0.122 C 
ENDBRANCH  15  16
ENDBRANCH   1  15
TORSDOF 7
