REMARK  2 active torsions:
REMARK  status: ('A' for Active; 'I' for Inactive)
REMARK    1  A    between atoms: C4_4  and  O1_5 
REMARK    2  A    between atoms: C5_7  and  O2_9 
ROOT
HETATM    1  C1  UNL     1      -2.541  -0.646  -0.539  1.00  0.00     0.010 C 
HETATM    2  C2  UNL     1      -1.383  -0.089   0.232  1.00  0.00    -0.013 C 
HETATM    3  C3  UNL     1      -0.794   1.136  -0.441  1.00  0.00     0.039 C 
HETATM    4  C4  UNL     1       0.632   1.090   0.133  1.00  0.00     0.152 C 
HETATM    5  C5  UNL     1       0.987  -0.341  -0.212  1.00  0.00     0.080 C 
HETATM    6  C6  UNL     1       2.274  -0.778   0.422  1.00  0.00     0.048 C 
HETATM    7  C7  UNL     1      -0.214  -1.083   0.278  1.00  0.00     0.044 C 
ENDROOT
BRANCH   5   8
HETATM    8  O2  UNL     1       1.127  -0.431  -1.590  1.00  0.00    -0.388 OA
ATOM      9  H2  UNL     1       1.350  -1.329  -1.806  1.00  0.00     0.210 HD
ENDBRANCH   5   8
BRANCH   4  10
HETATM   10  O1  UNL     1       1.442   2.013  -0.476  1.00  0.00    -0.393 OA
ATOM     11  H1  UNL     1       2.323   1.985  -0.121  1.00  0.00     0.210 HD
ENDBRANCH   4  10
TORSDOF 2
