REMARK  0 active torsions:
REMARK  status: ('A' for Active; 'I' for Inactive)
REMARK       I    between atoms: N1_7  and  C7_8 
ROOT
HETATM    1  C1  UNL     1       0.826   1.893   0.300  1.00  0.00     0.032 C 
HETATM    2  C2  UNL     1       0.152   0.902  -0.664  1.00  0.00     0.086 C 
HETATM    3  C3  UNL     1      -1.314   1.008  -0.576  1.00  0.00     0.025 C 
HETATM    4  C4  UNL     1      -2.041   0.017   0.244  1.00  0.00     0.004 C 
HETATM    5  C5  UNL     1      -1.429  -1.312   0.455  1.00  0.00     0.020 C 
HETATM    6  C6  UNL     1       0.029  -1.440   0.323  1.00  0.00     0.129 C 
HETATM    7  N1  UNL     1       0.717  -0.384  -0.362  1.00  0.00    -0.322 N 
HETATM    8  C7  UNL     1       2.054  -0.630  -0.771  1.00  0.00     0.286 C 
HETATM    9  O1  UNL     1       2.725   0.244  -1.376  1.00  0.00    -0.630 OA
HETATM   10  O2  UNL     1       2.669  -1.845  -0.517  1.00  0.00    -0.630 OA
ENDROOT
TORSDOF 0
