REMARK  1 active torsions:
REMARK  status: ('A' for Active; 'I' for Inactive)
REMARK    1  A    between atoms: C2_2  and  N2_6 
ROOT
HETATM    1  N2  UNL     1      -0.636  -0.150  -0.124  1.00  0.00    -0.246 N 
HETATM    2  C3  UNL     1       0.115  -1.409  -0.209  1.00  0.00     0.160 C 
HETATM    3  C4  UNL     1       1.499  -0.928   0.159  1.00  0.00     0.056 C 
HETATM    4  C5  UNL     1       1.445   0.500  -0.404  1.00  0.00     0.150 C 
HETATM    5  C6  UNL     1       2.562   1.261   0.220  1.00  0.00     0.042 C 
HETATM    6  O1  UNL     1       0.189   0.893  -0.036  1.00  0.00    -0.272 OA
ENDROOT
BRANCH   1   7
HETATM    7  C2  UNL     1      -2.048  -0.116  -0.139  1.00  0.00     0.093 C 
HETATM    8  C1  UNL     1      -2.860   0.851   0.652  1.00  0.00     0.090 C 
HETATM    9  N1  UNL     1      -2.737  -0.957  -0.871  1.00  0.00    -0.388 N 
ATOM     10  H12 UNL     1      -3.757  -0.932  -0.882  1.00  0.00     0.157 HD
ATOM     11  H11 UNL     1      -2.181  -1.619  -1.412  1.00  0.00     0.157 HD
ENDBRANCH   1   7
TORSDOF 1
