REMARK  9 active torsions:
REMARK  status: ('A' for Active; 'I' for Inactive)
REMARK    1  A    between atoms: C2_2  and  C3_3 
REMARK    2  A    between atoms: C3_3  and  N1_4 
REMARK    3  A    between atoms: C3_3  and  C16_31 
REMARK    4  A    between atoms: N1_4  and  C4_6 
REMARK    5  A    between atoms: C7_11  and  N3_12 
REMARK    6  A    between atoms: C8_14  and  O1_15 
REMARK    7  A    between atoms: C8_14  and  C9_17 
REMARK    8  A    between atoms: C12_25  and  N6_26 
REMARK    9  A    between atoms: N6_26  and  C13_28 
ROOT
HETATM    1  C4  UNL     1       0.799   0.354   0.639  1.00  0.00     0.131 A 
HETATM    2  N2  UNL     1       1.055   0.070   1.928  1.00  0.00    -0.351 N 
ATOM      3  H2  UNL     1       1.984   0.212   2.324  1.00  0.00     0.166 HD
HETATM    4  C5  UNL     1       0.041  -0.410   2.681  1.00  0.00     0.092 A 
HETATM    5  C6  UNL     1      -1.220  -0.616   2.185  1.00  0.00     0.049 A 
HETATM    6  C7  UNL     1      -1.499  -0.318   0.825  1.00  0.00     0.066 A 
HETATM    7  C12 UNL     1      -0.460   0.176   0.080  1.00  0.00     0.100 A 
ENDROOT
BRANCH   6   8
HETATM    8  N3  UNL     1      -2.700  -0.773   0.297  1.00  0.00    -0.334 N 
HETATM    9  C8  UNL     1      -3.827  -0.927   0.772  1.00  0.00     0.157 C 
ATOM     10  H3  UNL     1      -2.637  -1.034  -0.687  1.00  0.00     0.168 HD
BRANCH   9  11
HETATM   11  O1  UNL     1      -4.234  -0.637   2.071  1.00  0.00    -0.345 OA
ATOM     12  H1  UNL     1      -5.103  -0.756   2.437  1.00  0.00     0.219 HD
ENDBRANCH   9  11
BRANCH   9  13
HETATM   13  C9  UNL     1      -4.871  -1.510  -0.121  1.00  0.00     0.089 A 
HETATM   14  C10 UNL     1      -6.182  -1.885   0.296  1.00  0.00     0.127 A 
HETATM   15  N4  UNL     1      -6.759  -2.447  -0.781  1.00  0.00    -0.309 N 
HETATM   16  N5  UNL     1      -5.964  -2.459  -1.806  1.00  0.00    -0.275 N 
ATOM     17  H4  UNL     1      -7.709  -2.819  -0.791  1.00  0.00     0.186 HD
HETATM   18  C11 UNL     1      -4.808  -1.884  -1.412  1.00  0.00     0.218 A 
ATOM     19  H5  UNL     1      -6.172  -2.832  -2.732  1.00  0.00     0.189 HD
HETATM   20  F1  UNL     1      -3.711  -1.714  -2.234  1.00  0.00    -0.184 F 
ENDBRANCH   9  13
ENDBRANCH   6   8
BRANCH   7  21
HETATM   21  N6  UNL     1      -0.670   0.635  -1.284  1.00  0.00    -0.380 N 
ATOM     22  H6  UNL     1      -0.749   0.023  -2.096  1.00  0.00     0.160 HD
BRANCH  21  23
HETATM   23  C13 UNL     1      -0.753   2.099  -1.333  1.00  0.00     0.082 A 
HETATM   24  C14 UNL     1      -1.787   2.789  -0.532  1.00  0.00     0.027 A 
HETATM   25  C15 UNL     1      -1.688   2.898  -2.091  1.00  0.00     0.027 A 
ENDBRANCH  21  23
ENDBRANCH   7  21
BRANCH   1  26
HETATM   26  N1  UNL     1       1.758   0.641  -0.215  1.00  0.00    -0.364 N 
ATOM     27  H1  UNL     1       1.500   0.858  -1.178  1.00  0.00     0.162 HD
BRANCH  26  28
HETATM   28  C3  UNL     1       3.116   0.664   0.131  1.00  0.00     0.135 C 
BRANCH  28  29
HETATM   29  C2  UNL     1       3.986   1.528  -0.697  1.00  0.00     0.027 C 
HETATM   30  C1  UNL     1       5.420   1.639  -0.385  1.00  0.00     0.007 C 
ENDBRANCH  28  29
BRANCH  28  31
HETATM   31  C16 UNL     1       3.720  -0.694   0.396  1.00  0.00     0.064 A 
HETATM   32  N7  UNL     1       4.679  -0.867   1.258  1.00  0.00    -0.360 N 
HETATM   33  C17 UNL     1       5.037  -2.065   1.659  1.00  0.00     0.140 A 
ATOM     34  H7  UNL     1       5.165  -0.052   1.632  1.00  0.00     0.165 HD
HETATM   35  S1  UNL     1       3.983  -3.069   0.791  1.00  0.00    -0.068 SA
HETATM   36  C18 UNL     1       3.117  -1.847  -0.069  1.00  0.00     0.113 A 
HETATM   37  N8  UNL     1       2.143  -2.043  -1.093  1.00  0.00    -0.092 NA
ENDBRANCH  28  31
ENDBRANCH  26  28
ENDBRANCH   1  26
TORSDOF 9
