REMARK  9 active torsions:
REMARK  status: ('A' for Active; 'I' for Inactive)
REMARK    1  A    between atoms: N1_1  and  N2_4 
REMARK    2  A    between atoms: N2_4  and  C1_5 
REMARK    3  A    between atoms: C1_5  and  C2_6 
REMARK    4  A    between atoms: C2_6  and  C3_7 
REMARK    5  A    between atoms: C3_7  and  O1_8 
REMARK    6  A    between atoms: C3_7  and  N3_10 
REMARK    7  A    between atoms: N6_22  and  C10_23 
REMARK    8  A    between atoms: C15_28  and  N7_29 
REMARK    9  A    between atoms: N8_31  and  C16_33 
ROOT
HETATM    1  N3  UNL     1      -3.127  -1.355   0.641  1.00  0.00    -0.348 N 
ATOM      2  H3  UNL     1      -2.761  -1.768   1.499  1.00  0.00     0.163 HD
HETATM    3  C4  UNL     1      -2.365  -0.562  -0.015  1.00  0.00     0.132 A 
HETATM    4  N4  UNL     1      -2.771   0.019  -1.151  1.00  0.00    -0.351 N 
ATOM      5  H4  UNL     1      -3.709  -0.173  -1.504  1.00  0.00     0.166 HD
HETATM    6  C5  UNL     1      -1.968   0.850  -1.835  1.00  0.00     0.092 A 
HETATM    7  C6  UNL     1      -0.681   1.146  -1.403  1.00  0.00     0.049 A 
HETATM    8  C7  UNL     1      -0.220   0.571  -0.238  1.00  0.00     0.072 A 
HETATM    9  C8  UNL     1      -1.071  -0.270   0.429  1.00  0.00     0.105 A 
HETATM   10  N5  UNL     1      -0.392  -0.690   1.511  1.00  0.00    -0.347 N 
ATOM     11  H5  UNL     1      -0.743  -1.331   2.222  1.00  0.00     0.167 HD
HETATM   12  C9  UNL     1       0.846  -0.114   1.498  1.00  0.00     0.189 A 
HETATM   13  N6  UNL     1       0.955   0.670   0.411  1.00  0.00    -0.303 N 
ENDROOT
BRANCH  13  14
HETATM   14  C10 UNL     1       2.045   1.469  -0.032  1.00  0.00     0.068 A 
HETATM   15  C11 UNL     1       2.081   2.823   0.229  1.00  0.00     0.032 A 
HETATM   16  C12 UNL     1       3.140   3.612  -0.199  1.00  0.00     0.002 A 
HETATM   17  C13 UNL     1       4.195   3.072  -0.902  1.00  0.00     0.002 A 
HETATM   18  C14 UNL     1       4.174   1.718  -1.173  1.00  0.00     0.033 A 
HETATM   19  C15 UNL     1       3.121   0.930  -0.747  1.00  0.00     0.075 A 
BRANCH  19  20
HETATM   20  N7  UNL     1       3.084  -0.439  -1.012  1.00  0.00    -0.298 N 
HETATM   21  N8  UNL     1       3.951  -1.308  -0.863  1.00  0.00    -0.297 N 
ATOM     22  H8  UNL     1       3.668  -2.249  -1.137  1.00  0.00     0.187 HD
ATOM     23  H7  UNL     1       2.199  -0.778  -1.390  1.00  0.00     0.187 HD
BRANCH  21  24
HETATM   24  C16 UNL     1       5.257  -1.203  -0.378  1.00  0.00     0.086 A 
HETATM   25  C17 UNL     1       6.323  -1.473  -1.194  1.00  0.00     0.034 A 
HETATM   26  C18 UNL     1       7.607  -1.371  -0.718  1.00  0.00     0.002 A 
HETATM   27  C19 UNL     1       7.843  -0.998   0.588  1.00  0.00     0.003 A 
HETATM   28  C20 UNL     1       6.789  -0.722   1.428  1.00  0.00     0.045 A 
HETATM   29  C21 UNL     1       5.498  -0.831   0.923  1.00  0.00     0.144 A 
HETATM   30  F1  UNL     1       4.505  -0.546   1.807  1.00  0.00    -0.204 F 
ENDBRANCH  21  24
ENDBRANCH  19  20
ENDBRANCH  13  14
BRANCH   1  31
HETATM   31  C3  UNL     1      -4.455  -1.698   0.250  1.00  0.00     0.220 C 
BRANCH  31  32
HETATM   32  C2  UNL     1      -5.473  -0.650   0.707  1.00  0.00     0.071 C 
BRANCH  32  33
HETATM   33  C1  UNL     1      -6.822  -1.108   0.193  1.00  0.00     0.138 C 
BRANCH  33  34
HETATM   34  N2  UNL     1      -7.837  -0.142   0.600  1.00  0.00    -0.148 NA
BRANCH  34  35
HETATM   35  N1  UNL     1      -9.060  -0.618   0.097  1.00  0.00    -0.348 N 
ATOM     36  H12 UNL     1      -9.195  -1.472  -0.444  1.00  0.00     0.172 HD
ATOM     37  H11 UNL     1      -9.770   0.057   0.382  1.00  0.00     0.172 HD
ENDBRANCH  34  35
ENDBRANCH  33  34
ENDBRANCH  32  33
ENDBRANCH  31  32
BRANCH  31  38
HETATM   38  O1  UNL     1      -4.876  -2.897   0.829  1.00  0.00    -0.377 OA
ATOM     39  H1  UNL     1      -4.244  -3.547   0.545  1.00  0.00     0.212 HD
ENDBRANCH  31  38
ENDBRANCH   1  31
TORSDOF 9
