REMARK  8 active torsions:
REMARK  status: ('A' for Active; 'I' for Inactive)
REMARK    1  A    between atoms: C2_2  and  O1_3 
REMARK    2  A    between atoms: N2_11  and  C6_12 
REMARK    3  A    between atoms: C7_15  and  S1_16 
REMARK    4  A    between atoms: S1_16  and  C8_17 
REMARK    5  A    between atoms: C8_17  and  N4_18 
REMARK    6  A    between atoms: C9_25  and  N8_26 
REMARK    7  A    between atoms: C10_31  and  N10_32 
REMARK    8  A    between atoms: C11_37  and  N12_38 
ROOT
HETATM    1  C6  UNL     1      -0.914   0.495  -0.431  1.00  0.00     0.152 C 
HETATM    2  N3  UNL     1       0.131   0.601   0.428  1.00  0.00    -0.319 N 
ATOM      3  H3  UNL     1      -0.032   1.147   1.274  1.00  0.00     0.169 HD
HETATM    4  C7  UNL     1       1.395   0.050   0.284  1.00  0.00     0.166 C 
HETATM    5  N9  UNL     1       1.971  -0.222  -0.891  1.00  0.00    -0.170 N 
ATOM      6  H9  UNL     1       2.991  -0.193  -0.884  1.00  0.00     0.186 HD
HETATM    7  C10 UNL     1       1.417  -0.532  -2.098  1.00  0.00     0.679 C 
HETATM    8  N11 UNL     1       0.220  -0.157  -2.534  1.00  0.00    -0.173 N 
ATOM      9  H11 UNL     1       0.031  -0.294  -3.527  1.00  0.00     0.186 HD
HETATM   10  C11 UNL     1      -0.776   0.388  -1.796  1.00  0.00     0.159 C 
ENDROOT
BRANCH   4  11
HETATM   11  S1  UNL     1       2.247  -0.325   1.758  1.00  0.00    -0.045 SA
BRANCH  11  12
HETATM   12  C8  UNL     1       3.888  -0.983   1.675  1.00  0.00     0.189 C 
BRANCH  12  13
HETATM   13  N4  UNL     1       4.939  -0.106   1.257  1.00  0.00    -0.074 N 
HETATM   14  N5  UNL     1       5.478   0.777   2.130  1.00  0.00    -0.206 N 
HETATM   15  N6  UNL     1       6.397   1.509   1.535  1.00  0.00    -0.213 N 
ATOM     16  H5  UNL     1       5.210   0.863   3.110  1.00  0.00     0.211 HD
HETATM   17  N7  UNL     1       6.496   1.144   0.274  1.00  0.00    -0.115 N 
ATOM     18  H6  UNL     1       6.946   2.244   1.981  1.00  0.00     0.210 HD
HETATM   19  C9  UNL     1       5.583   0.139   0.122  1.00  0.00     0.714 A 
ATOM     20  H7  UNL     1       7.119   1.528  -0.436  1.00  0.00     0.207 HD
BRANCH  19  21
HETATM   21  N8  UNL     1       5.441  -0.471  -0.977  1.00  0.00    -0.231 N 
ATOM     22  H82 UNL     1       4.759  -1.221  -1.090  1.00  0.00     0.174 HD
ATOM     23  H81 UNL     1       5.936  -0.283  -1.849  1.00  0.00     0.174 HD
ENDBRANCH  19  21
ENDBRANCH  12  13
ENDBRANCH  11  12
ENDBRANCH   4  11
BRANCH   1  24
HETATM   24  N2  UNL     1      -2.222   0.483   0.059  1.00  0.00    -0.330 N 
HETATM   25  C2  UNL     1      -3.183  -0.573  -0.020  1.00  0.00     0.155 C 
HETATM   26  C1  UNL     1      -2.562  -1.951   0.199  1.00  0.00     0.073 C 
HETATM   27  C3  UNL     1      -4.176  -0.399   1.140  1.00  0.00     0.292 C 
HETATM   28  N1  UNL     1      -4.927   0.829   0.982  1.00  0.00    -0.069 N 
HETATM   29  C4  UNL     1      -4.133   1.898   0.432  1.00  0.00     0.252 C 
ATOM     30  H12 UNL     1      -5.769   0.675   0.427  1.00  0.00     0.277 HD
ATOM     31  H11 UNL     1      -5.360   1.110   1.862  1.00  0.00     0.277 HD
HETATM   32  C5  UNL     1      -2.669   1.708   0.745  1.00  0.00     0.155 C 
BRANCH  25  33
HETATM   33  O1  UNL     1      -3.942  -0.618  -1.159  1.00  0.00    -0.369 OA
ATOM     34  H1  UNL     1      -4.328   0.239  -1.295  1.00  0.00     0.212 HD
ENDBRANCH  25  33
ENDBRANCH   1  24
BRANCH   7  35
HETATM   35  N10 UNL     1       2.110  -1.262  -2.902  1.00  0.00    -0.234 N 
ATOM     36 2H10 UNL     1       3.029  -1.550  -2.567  1.00  0.00     0.174 HD
ATOM     37 1H10 UNL     1       1.696  -1.494  -3.805  1.00  0.00     0.174 HD
ENDBRANCH   7  35
BRANCH  10  38
HETATM   38  N12 UNL     1      -1.724   0.877  -2.491  1.00  0.00    -0.382 N 
ATOM     39 2H12 UNL     1      -2.474   1.288  -1.935  1.00  0.00     0.157 HD
ATOM     40 1H12 UNL     1      -1.622   0.798  -3.503  1.00  0.00     0.157 HD
ENDBRANCH  10  38
TORSDOF 8
