REMARK  6 active torsions:
REMARK  status: ('A' for Active; 'I' for Inactive)
REMARK    1  A    between atoms: O1_2  and  N1_3 
REMARK    2  A    between atoms: N1_3  and  C2_5 
REMARK    3  A    between atoms: C3_6  and  C4_7 
REMARK       I    between atoms: C4_7  and  N2_9 
REMARK    4  A    between atoms: N2_9  and  N3_11 
REMARK    5  A    between atoms: C6_16  and  C7_17 
REMARK    6  A    between atoms: C12_31  and  N12_32 
ROOT
HETATM    1  C2  UNL     1      -2.395   0.510   0.426  1.00  0.00     0.130 C 
HETATM    2  C3  UNL     1      -1.358  -0.388   0.158  1.00  0.00     0.136 C 
HETATM    3  N8  UNL     1      -1.503  -1.721  -0.084  1.00  0.00    -0.338 N 
ATOM      4  H8  UNL     1      -0.633  -2.239  -0.206  1.00  0.00     0.167 HD
HETATM    5  C9  UNL     1      -2.637  -2.461  -0.186  1.00  0.00     0.156 C 
HETATM    6  C10 UNL     1      -2.476  -3.820  -0.610  1.00  0.00     0.121 C 
HETATM    7  N9  UNL     1      -2.341  -4.943  -0.939  1.00  0.00    -0.190 NA
HETATM    8  C11 UNL     1      -3.951  -2.057   0.073  1.00  0.00     0.155 C 
HETATM    9  N10 UNL     1      -4.956  -3.028  -0.217  1.00  0.00    -0.079 NA
HETATM   10  N11 UNL     1      -4.416  -0.887   0.558  1.00  0.00    -0.327 N 
ATOM     11  H11 UNL     1      -5.425  -0.792   0.670  1.00  0.00     0.168 HD
HETATM   12  C12 UNL     1      -3.636   0.187   0.913  1.00  0.00     0.131 C 
ENDROOT
BRANCH   2  13
HETATM   13  C4  UNL     1      -0.007   0.180   0.133  1.00  0.00     0.289 C 
HETATM   14  O2  UNL     1       0.076   1.389   0.345  1.00  0.00    -0.264 OA
HETATM   15  N2  UNL     1       1.088  -0.644  -0.122  1.00  0.00    -0.254 N 
ATOM     16  H2  UNL     1       0.840  -1.621  -0.277  1.00  0.00     0.191 HD
BRANCH  15  17
HETATM   17  N3  UNL     1       2.435  -0.394  -0.205  1.00  0.00    -0.208 N 
HETATM   18  C5  UNL     1       3.338  -1.385  -0.472  1.00  0.00     0.216 A 
HETATM   19  N4  UNL     1       3.033  -2.755  -0.693  1.00  0.00    -0.061 NA
HETATM   20  N5  UNL     1       4.563  -0.851  -0.491  1.00  0.00    -0.322 N 
HETATM   21  C6  UNL     1       4.520   0.460  -0.248  1.00  0.00     0.143 A 
ATOM     22  H5  UNL     1       5.419  -1.377  -0.668  1.00  0.00     0.169 HD
HETATM   23  C8  UNL     1       3.149   0.726  -0.068  1.00  0.00     0.173 A 
HETATM   24  N7  UNL     1       2.720   2.045   0.213  1.00  0.00    -0.078 NA
BRANCH  21  25
HETATM   25  C7  UNL     1       5.622   1.414  -0.178  1.00  0.00     0.284 C 
HETATM   26  N6  UNL     1       6.949   0.991  -0.382  1.00  0.00    -0.056 NA
HETATM   27  O3  UNL     1       5.386   2.615   0.063  1.00  0.00    -0.269 OA
ENDBRANCH  21  25
ENDBRANCH  15  17
ENDBRANCH   2  13
BRANCH   1  28
HETATM   28  N1  UNL     1      -2.128   1.706   0.175  1.00  0.00    -0.261 N 
ATOM     29  H1  UNL     1      -1.184   1.835  -0.189  1.00  0.00     0.194 HD
BRANCH  28  30
HETATM   30  O1  UNL     1      -2.806   2.847   0.279  1.00  0.00    -0.285 OA
HETATM   31  C1  UNL     1      -2.761   3.925  -0.635  1.00  0.00     0.237 C 
ENDBRANCH  28  30
ENDBRANCH   1  28
BRANCH  12  32
HETATM   32  N12 UNL     1      -4.120   0.946   1.808  1.00  0.00    -0.383 N 
ATOM     33 2H12 UNL     1      -3.541   1.743   2.072  1.00  0.00     0.157 HD
ATOM     34 1H12 UNL     1      -5.043   0.706   2.170  1.00  0.00     0.157 HD
ENDBRANCH  12  32
TORSDOF 6
