REMARK  8 active torsions:
REMARK  status: ('A' for Active; 'I' for Inactive)
REMARK    1  A    between atoms: O1_2  and  C2_3 
REMARK    2  A    between atoms: C5_11  and  O4_12 
REMARK    3  A    between atoms: O4_12  and  C6_13 
REMARK    4  A    between atoms: C8_15  and  O5_16 
REMARK    5  A    between atoms: C9_18  and  O6_19 
REMARK    6  A    between atoms: C9_18  and  O7_21 
REMARK    7  A    between atoms: C10_23  and  O8_24 
REMARK    8  A    between atoms: C12_28  and  N2_29 
ROOT
HETATM    1  C2  UNL     1      -3.410  -0.081  -0.655  1.00  0.00     0.243 C 
HETATM    2  O2  UNL     1      -4.586   0.296  -0.037  1.00  0.00    -0.196 OA
HETATM    3  O3  UNL     1      -3.954   1.134   0.789  1.00  0.00    -0.224 OA
HETATM    4  C3  UNL     1      -2.695   0.636   0.430  1.00  0.00     0.259 C 
HETATM    5  C4  UNL     1      -2.242  -0.375   1.451  1.00  0.00     0.252 C 
HETATM    6  N1  UNL     1      -0.824  -0.601   1.434  1.00  0.00    -0.030 N 
ATOM      7  H11 UNL     1      -0.585  -1.447   1.951  1.00  0.00     0.281 HD
ATOM      8  H12 UNL     1      -0.339   0.089   2.008  1.00  0.00     0.281 HD
HETATM    9  C5  UNL     1      -0.270  -0.640   0.096  1.00  0.00     0.387 C 
HETATM   10  S1  UNL     1      -1.263  -1.714  -0.946  1.00  0.00    -0.097 SA
HETATM   11  C11 UNL     1      -2.999  -1.518  -0.452  1.00  0.00     0.146 C 
HETATM   12  C12 UNL     1      -3.028  -1.618   1.076  1.00  0.00     0.151 C 
ENDROOT
BRANCH   9  13
HETATM   13  O4  UNL     1       1.054  -1.102   0.225  1.00  0.00    -0.343 OA
BRANCH  13  14
HETATM   14  C6  UNL     1       1.881  -0.112  -0.238  1.00  0.00     0.161 C 
HETATM   15  C7  UNL     1       2.744  -0.546  -1.408  1.00  0.00     0.072 C 
HETATM   16  C8  UNL     1       3.704   0.650  -1.473  1.00  0.00     0.185 C 
HETATM   17  C9  UNL     1       4.150   0.711  -0.027  1.00  0.00     0.215 C 
HETATM   18  C10 UNL     1       2.924   0.320   0.765  1.00  0.00     0.212 C 
BRANCH  16  19
HETATM   19  O5  UNL     1       4.733   0.411  -2.350  1.00  0.00    -0.390 OA
ATOM     20  H5  UNL     1       5.327   1.151  -2.390  1.00  0.00     0.210 HD
ENDBRANCH  16  19
BRANCH  17  21
HETATM   21  O6  UNL     1       5.146  -0.269   0.124  1.00  0.00    -0.361 OA
ATOM     22  H6  UNL     1       5.426  -0.231   1.031  1.00  0.00     0.213 HD
ENDBRANCH  17  21
BRANCH  17  23
HETATM   23  O7  UNL     1       4.617   1.975   0.315  1.00  0.00    -0.361 OA
ATOM     24  H7  UNL     1       4.897   2.013   1.222  1.00  0.00     0.213 HD
ENDBRANCH  17  23
BRANCH  18  25
HETATM   25  O8  UNL     1       3.185  -0.630   1.722  1.00  0.00    -0.387 OA
ATOM     26  H8  UNL     1       3.841  -0.358   2.353  1.00  0.00     0.210 HD
ENDBRANCH  18  25
ENDBRANCH  13  14
ENDBRANCH   9  13
BRANCH  12  27
HETATM   27  N2  UNL     1      -4.358  -1.602   1.561  1.00  0.00    -0.335 N 
HETATM   28  N3  UNL     1      -4.639  -1.347   2.724  1.00  0.00    -0.349 N 
ATOM     29  H32 UNL     1      -3.869  -1.139   3.360  1.00  0.00     0.176 HD
ATOM     30  H31 UNL     1      -5.597  -1.335   3.073  1.00  0.00     0.176 HD
ATOM     31  H2  UNL     1      -5.116  -1.813   0.912  1.00  0.00     0.180 HD
ENDBRANCH  12  27
BRANCH   1  32
HETATM   32  O1  UNL     1      -3.218   0.307  -1.950  1.00  0.00    -0.355 OA
HETATM   33  C1  UNL     1      -3.216   1.661  -2.173  1.00  0.00     0.205 C 
ENDBRANCH   1  32
TORSDOF 8
