REMARK  10 active torsions:
REMARK  status: ('A' for Active; 'I' for Inactive)
REMARK    1  A    between atoms: C3_4  and  C4_5 
REMARK    2  A    between atoms: C4_5  and  N2_6 
REMARK    3  A    between atoms: C4_5  and  C5_10 
REMARK    4  A    between atoms: C5_10  and  N3_11 
REMARK    5  A    between atoms: C6_12  and  N4_13 
REMARK    6  A    between atoms: C11_26  and  N9_27 
REMARK    7  A    between atoms: C12_30  and  C13_31 
REMARK    8  A    between atoms: C13_31  and  N10_32 
REMARK    9  A    between atoms: C13_31  and  C14_36 
REMARK   10  A    between atoms: C14_36  and  O1_37 
ROOT
HETATM    1  N4  UNL     1      -0.055   2.798   1.087  1.00  0.00    -0.126 N 
ATOM      2  H4  UNL     1       0.905   3.000   0.809  1.00  0.00     0.197 HD
HETATM    3  C7  UNL     1      -0.623   3.448   2.182  1.00  0.00     0.196 C 
HETATM    4  N5  UNL     1      -1.093   4.009   3.095  1.00  0.00    -0.171 NA
ENDROOT
BRANCH   1   5
HETATM    5  C6  UNL     1      -0.824   1.855   0.366  1.00  0.00     0.690 C 
HETATM    6  N3  UNL     1      -0.286   0.557   0.016  1.00  0.00    -0.202 N 
HETATM    7  C12 UNL     1      -1.227  -0.541  -0.082  1.00  0.00     0.187 C 
HETATM    8  C9  UNL     1      -2.365  -0.051  -0.985  1.00  0.00     0.067 A 
HETATM    9  C8  UNL     1      -2.821   1.205  -0.691  1.00  0.00     0.117 A 
HETATM   10  N7  UNL     1      -2.982  -0.815  -1.863  1.00  0.00    -0.352 N 
HETATM   11  N6  UNL     1      -2.048   2.188   0.019  1.00  0.00    -0.185 N 
HETATM   12  C11 UNL     1      -3.983   1.615  -1.367  1.00  0.00     0.129 A 
ATOM     13  H6  UNL     1      -2.433   3.105   0.244  1.00  0.00     0.184 HD
HETATM   14  N8  UNL     1      -4.595   0.813  -2.256  1.00  0.00    -0.337 N 
HETATM   15  C10 UNL     1      -4.101  -0.403  -2.513  1.00  0.00     0.182 A 
ATOM     16  H8  UNL     1      -5.437   1.132  -2.735  1.00  0.00     0.168 HD
ATOM     17  H7  UNL     1      -2.608  -1.743  -2.060  1.00  0.00     0.166 HD
BRANCH   6  18
HETATM   18  C5  UNL     1       1.097   0.473  -0.289  1.00  0.00     0.181 C 
BRANCH  18  19
HETATM   19  C4  UNL     1       2.036  -0.253   0.584  1.00  0.00     0.253 C 
BRANCH  19  20
HETATM   20  C3  UNL     1       3.428  -0.191  -0.053  1.00  0.00     0.072 A 
HETATM   21  C2  UNL     1       4.103  -1.207  -0.680  1.00  0.00     0.135 A 
HETATM   22  N1  UNL     1       5.298  -0.696  -1.087  1.00  0.00    -0.289 N 
HETATM   23  C1  UNL     1       6.371  -1.359  -1.793  1.00  0.00     0.174 C 
HETATM   24  N12 UNL     1       5.343   0.578  -0.722  1.00  0.00    -0.021 NA
HETATM   25  N11 UNL     1       4.219   0.887  -0.098  1.00  0.00    -0.285 N 
ATOM     26  H11 UNL     1       3.991   1.803   0.288  1.00  0.00     0.184 HD
ENDBRANCH  19  20
BRANCH  19  27
HETATM   27  N2  UNL     1       2.277   0.460   1.858  1.00  0.00    -0.068 N 
ATOM     28  H23 UNL     1       3.037   0.092   2.429  1.00  0.00     0.275 HD
ATOM     29  H22 UNL     1       2.677   1.394   1.769  1.00  0.00     0.275 HD
ATOM     30  H21 UNL     1       1.350   0.419   2.282  1.00  0.00     0.275 HD
ENDBRANCH  19  27
ENDBRANCH  18  19
ENDBRANCH   6  18
BRANCH   7  31
HETATM   31  C13 UNL     1      -1.856  -0.855   1.257  1.00  0.00     0.236 C 
BRANCH  31  32
HETATM   32  N10 UNL     1      -0.762  -1.207   2.211  1.00  0.00    -0.071 N 
ATOM     33 3H10 UNL     1      -0.167  -1.962   1.868  1.00  0.00     0.274 HD
ATOM     34 2H10 UNL     1      -0.045  -0.485   2.272  1.00  0.00     0.274 HD
ATOM     35 1H10 UNL     1      -1.186  -1.419   3.114  1.00  0.00     0.274 HD
ENDBRANCH  31  32
BRANCH  31  36
HETATM   36  C14 UNL     1      -2.705  -2.100   1.297  1.00  0.00     0.199 C 
BRANCH  36  37
HETATM   37  O1  UNL     1      -3.858  -2.088   0.563  1.00  0.00    -0.399 OA
ATOM     38  H1  UNL     1      -4.393  -2.873   0.588  1.00  0.00     0.209 HD
ENDBRANCH  36  37
ENDBRANCH  31  36
ENDBRANCH   7  31
BRANCH  12  39
HETATM   39  N9  UNL     1      -4.438   2.776  -1.110  1.00  0.00    -0.384 N 
ATOM     40  H92 UNL     1      -3.974   3.384  -0.436  1.00  0.00     0.157 HD
ATOM     41  H91 UNL     1      -5.281   3.074  -1.601  1.00  0.00     0.157 HD
ENDBRANCH  12  39
ENDBRANCH   1   5
TORSDOF 10
