REMARK  14 active torsions:
REMARK  status: ('A' for Active; 'I' for Inactive)
REMARK    1  A    between atoms: C2_2  and  N1_3 
REMARK    2  A    between atoms: C2_2  and  C3_7 
REMARK    3  A    between atoms: C3_7  and  C4_8 
REMARK    4  A    between atoms: C4_8  and  C5_9 
REMARK    5  A    between atoms: C5_9  and  C6_10 
REMARK    6  A    between atoms: C5_9  and  C13_30 
REMARK    7  A    between atoms: C6_10  and  O1_11 
REMARK    8  A    between atoms: O1_11  and  C7_12 
REMARK    9  A    between atoms: C8_13  and  N2_14 
REMARK   10  A    between atoms: C10_19  and  N3_20 
REMARK   11  A    between atoms: C11_24  and  O2_25 
REMARK   12  A    between atoms: C12_27  and  O3_28 
REMARK   13  A    between atoms: C13_30  and  N4_31 
REMARK   14  A    between atoms: C13_30  and  O4_35 
ROOT
HETATM    1  C7  UNL     1       1.886  -0.008   0.026  1.00  0.00     0.183 C 
HETATM    2  C8  UNL     1       2.426  -0.620  -1.224  1.00  0.00     0.217 C 
HETATM    3  C9  UNL     1       3.842  -0.126  -1.427  1.00  0.00     0.071 C 
HETATM    4  C10 UNL     1       4.668  -0.625  -0.253  1.00  0.00     0.216 C 
HETATM    5  C11 UNL     1       4.120   0.020   1.000  1.00  0.00     0.179 C 
HETATM    6  C12 UNL     1       2.701  -0.522   1.191  1.00  0.00     0.179 C 
ENDROOT
BRANCH   1   7
HETATM    7  O1  UNL     1       0.538  -0.131   0.204  1.00  0.00    -0.381 OA
BRANCH   7   8
HETATM    8  C6  UNL     1      -0.156   1.042   0.262  1.00  0.00     0.177 C 
BRANCH   8   9
HETATM    9  C5  UNL     1      -1.673   0.611   0.469  1.00  0.00     0.066 C 
BRANCH   9  10
HETATM   10  C4  UNL     1      -2.061  -0.212  -0.676  1.00  0.00     0.013 C 
BRANCH  10  11
HETATM   11  C3  UNL     1      -3.433  -0.714  -0.865  1.00  0.00     0.033 C 
BRANCH  11  12
HETATM   12  C2  UNL     1      -4.445   0.345  -1.149  1.00  0.00     0.179 C 
HETATM   13  C1  UNL     1      -5.837  -0.285  -1.331  1.00  0.00     0.039 C 
BRANCH  12  14
HETATM   14  N1  UNL     1      -4.540   1.345  -0.168  1.00  0.00    -0.075 N 
ATOM     15  H13 UNL     1      -5.260   2.036  -0.380  1.00  0.00     0.274 HD
ATOM     16  H12 UNL     1      -4.933   1.000   0.708  1.00  0.00     0.274 HD
ATOM     17  H11 UNL     1      -3.617   1.763  -0.047  1.00  0.00     0.274 HD
ENDBRANCH  12  14
ENDBRANCH  11  12
ENDBRANCH  10  11
ENDBRANCH   9  10
BRANCH   9  18
HETATM   18  C13 UNL     1      -1.651  -0.122   1.807  1.00  0.00     0.322 C 
BRANCH  18  19
HETATM   19  N4  UNL     1      -2.905  -0.652   2.158  1.00  0.00    -0.053 N 
ATOM     20  H43 UNL     1      -3.623   0.072   2.150  1.00  0.00     0.277 HD
ATOM     21  H42 UNL     1      -3.268  -1.253   1.418  1.00  0.00     0.277 HD
ATOM     22  H41 UNL     1      -2.890  -1.142   3.052  1.00  0.00     0.277 HD
ENDBRANCH  18  19
BRANCH  18  23
HETATM   23  O4  UNL     1      -1.234   0.813   2.775  1.00  0.00    -0.369 OA
ATOM     24  H4  UNL     1      -1.220   0.357   3.608  1.00  0.00     0.212 HD
ENDBRANCH  18  23
ENDBRANCH   9  18
ENDBRANCH   8   9
ENDBRANCH   7   8
ENDBRANCH   1   7
BRANCH   2  25
HETATM   25  N2  UNL     1       1.612  -0.313  -2.384  1.00  0.00    -0.072 N 
ATOM     26  H23 UNL     1       0.640  -0.582  -2.233  1.00  0.00     0.274 HD
ATOM     27  H22 UNL     1       1.488   0.694  -2.491  1.00  0.00     0.274 HD
ATOM     28  H21 UNL     1       1.981  -0.731  -3.238  1.00  0.00     0.274 HD
ENDBRANCH   2  25
BRANCH   6  29
HETATM   29  O3  UNL     1       2.248  -0.019   2.403  1.00  0.00    -0.390 OA
ATOM     30  H3  UNL     1       2.760  -0.342   3.135  1.00  0.00     0.210 HD
ENDBRANCH   6  29
BRANCH   5  31
HETATM   31  O2  UNL     1       4.001   1.394   0.854  1.00  0.00    -0.391 OA
ATOM     32  H2  UNL     1       3.657   1.799   1.641  1.00  0.00     0.210 HD
ENDBRANCH   5  31
BRANCH   4  33
HETATM   33  N3  UNL     1       6.057  -0.356  -0.468  1.00  0.00    -0.072 N 
ATOM     34  H33 UNL     1       6.385  -0.741  -1.354  1.00  0.00     0.274 HD
ATOM     35  H32 UNL     1       6.227   0.631  -0.659  1.00  0.00     0.274 HD
ATOM     36  H31 UNL     1       6.611  -0.691   0.320  1.00  0.00     0.274 HD
ENDBRANCH   4  33
TORSDOF 14
