REMARK  14 active torsions:
REMARK  status: ('A' for Active; 'I' for Inactive)
REMARK    1  A    between atoms: O1_2  and  C2_3 
REMARK    2  A    between atoms: C4_5  and  N1_6 
REMARK    3  A    between atoms: N1_6  and  C5_8 
REMARK    4  A    between atoms: C5_8  and  O2_9 
REMARK    5  A    between atoms: C5_8  and  C6_11 
REMARK    6  A    between atoms: C6_11  and  C7_12 
REMARK    7  A    between atoms: C7_12  and  N2_13 
REMARK    8  A    between atoms: C7_12  and  C8_17 
REMARK    9  A    between atoms: C8_17  and  O3_18 
REMARK   10  A    between atoms: C8_17  and  C9_20 
REMARK   11  A    between atoms: C9_20  and  O4_21 
REMARK   12  A    between atoms: C9_20  and  C10_23 
REMARK   13  A    between atoms: C10_23  and  O5_24 
REMARK   14  A    between atoms: C11_28  and  N4_29 
ROOT
HETATM    1  C5  UNL     1      -0.035  -0.038   1.559  1.00  0.00     0.221 C 
ENDROOT
BRANCH   1   2
HETATM    2  N1  UNL     1      -1.384   0.396   1.390  1.00  0.00    -0.349 N 
ATOM      3  H1  UNL     1      -1.658   1.187   1.973  1.00  0.00     0.163 HD
BRANCH   2   4
HETATM    4  C4  UNL     1      -2.292  -0.047   0.631  1.00  0.00     0.122 A 
HETATM    5  C3  UNL     1      -3.520   0.610   0.707  1.00  0.00     0.105 A 
HETATM    6  C2  UNL     1      -4.554   0.199  -0.075  1.00  0.00     0.160 A 
HETATM    7  N5  UNL     1      -4.393  -0.831  -0.913  1.00  0.00    -0.171 N 
HETATM    8  C11 UNL     1      -3.209  -1.464  -0.985  1.00  0.00     0.679 A 
ATOM      9  H5  UNL     1      -5.170  -1.137  -1.499  1.00  0.00     0.186 HD
HETATM   10  N3  UNL     1      -2.152  -1.078  -0.216  1.00  0.00    -0.177 N 
ATOM     11  H3  UNL     1      -1.261  -1.569  -0.284  1.00  0.00     0.185 HD
BRANCH   6  12
HETATM   12  O1  UNL     1      -5.802   0.819  -0.040  1.00  0.00    -0.340 OA
HETATM   13  C1  UNL     1      -6.098   1.914   0.799  1.00  0.00     0.211 C 
ENDBRANCH   6  12
BRANCH   8  14
HETATM   14  N4  UNL     1      -3.011  -2.459  -1.777  1.00  0.00    -0.234 N 
ATOM     15  H42 UNL     1      -2.113  -2.939  -1.832  1.00  0.00     0.174 HD
ATOM     16  H41 UNL     1      -3.802  -2.748  -2.353  1.00  0.00     0.174 HD
ENDBRANCH   8  14
ENDBRANCH   2   4
ENDBRANCH   1   2
BRANCH   1  17
HETATM   17  O2  UNL     1      -0.000  -1.405   1.722  1.00  0.00    -0.377 OA
ATOM     18  H2  UNL     1       0.898  -1.694   1.834  1.00  0.00     0.212 HD
ENDBRANCH   1  17
BRANCH   1  19
HETATM   19  C6  UNL     1       0.786   0.465   0.403  1.00  0.00     0.089 C 
BRANCH  19  20
HETATM   20  C7  UNL     1       2.233   0.070   0.465  1.00  0.00     0.218 C 
BRANCH  20  21
HETATM   21  N2  UNL     1       2.896   0.565   1.648  1.00  0.00    -0.072 N 
ATOM     22  H23 UNL     1       2.789   1.576   1.731  1.00  0.00     0.274 HD
ATOM     23  H22 UNL     1       2.402   0.276   2.492  1.00  0.00     0.274 HD
ATOM     24  H21 UNL     1       3.879   0.297   1.690  1.00  0.00     0.274 HD
ENDBRANCH  20  21
BRANCH  20  25
HETATM   25  C8  UNL     1       2.896   0.525  -0.802  1.00  0.00     0.179 C 
BRANCH  25  26
HETATM   26  O3  UNL     1       2.867   1.918  -0.821  1.00  0.00    -0.391 OA
ATOM     27  H3  UNL     1       3.287   2.206  -1.623  1.00  0.00     0.210 HD
ENDBRANCH  25  26
BRANCH  25  28
HETATM   28  C9  UNL     1       4.314   0.040  -0.943  1.00  0.00     0.172 C 
BRANCH  28  29
HETATM   29  O4  UNL     1       4.885   0.471  -2.139  1.00  0.00    -0.391 OA
ATOM     30  H4  UNL     1       5.780   0.165  -2.228  1.00  0.00     0.210 HD
ENDBRANCH  28  29
BRANCH  28  31
HETATM   31  C10 UNL     1       4.458  -1.440  -0.865  1.00  0.00     0.198 C 
BRANCH  31  32
HETATM   32  O5  UNL     1       5.817  -1.746  -0.902  1.00  0.00    -0.398 OA
ATOM     33  H5  UNL     1       5.909  -2.690  -0.852  1.00  0.00     0.209 HD
ENDBRANCH  31  32
ENDBRANCH  28  31
ENDBRANCH  25  28
ENDBRANCH  20  25
ENDBRANCH  19  20
ENDBRANCH   1  19
TORSDOF 14
