REMARK  11 active torsions:
REMARK  status: ('A' for Active; 'I' for Inactive)
REMARK    1  A    between atoms: N1_1  and  C1_4 
REMARK    2  A    between atoms: C2_7  and  N3_8 
REMARK    3  A    between atoms: N4_11  and  C3_12 
REMARK    4  A    between atoms: C3_12  and  C4_13 
REMARK    5  A    between atoms: C4_13  and  N5_14 
REMARK    6  A    between atoms: C4_13  and  C11_29 
REMARK    7  A    between atoms: N5_14  and  C5_16 
REMARK    8  A    between atoms: C5_16  and  O1_17 
REMARK    9  A    between atoms: C5_16  and  C6_19 
REMARK   10  A    between atoms: C6_19  and  N6_20 
REMARK   11  A    between atoms: C6_19  and  C7_24 
ROOT
HETATM    1  C4  UNL     1       1.200  -0.820   0.354  1.00  0.00     0.189 C 
ENDROOT
BRANCH   1   2
HETATM    2  C3  UNL     1       1.747   0.168  -0.643  1.00  0.00     0.202 C 
BRANCH   2   3
HETATM    3  N4  UNL     1       3.155   0.425  -0.544  1.00  0.00    -0.107 N 
HETATM    4  C2  UNL     1       3.733   1.344   0.242  1.00  0.00     0.707 A 
HETATM    5  N2  UNL     1       5.071   1.301   0.010  1.00  0.00    -0.020 N 
HETATM    6  C1  UNL     1       5.301   0.356  -0.918  1.00  0.00     0.705 A 
ATOM      7  H2  UNL     1       5.777   1.883   0.461  1.00  0.00     0.203 HD
HETATM    8  N8  UNL     1       4.112  -0.172  -1.246  1.00  0.00    -0.115 N 
ATOM      9  H8  UNL     1       3.966  -0.916  -1.928  1.00  0.00     0.206 HD
BRANCH   4  10
HETATM   10  N3  UNL     1       3.191   2.165   1.093  1.00  0.00    -0.233 N 
ATOM     11  H32 UNL     1       3.631   2.864   1.691  1.00  0.00     0.174 HD
ATOM     12  H31 UNL     1       2.186   2.197   1.267  1.00  0.00     0.174 HD
ENDBRANCH   4  10
BRANCH   6  13
HETATM   13  N1  UNL     1       6.449  -0.013  -1.433  1.00  0.00    -0.233 N 
ATOM     14  H12 UNL     1       7.353   0.388  -1.184  1.00  0.00     0.174 HD
ATOM     15  H11 UNL     1       6.624  -0.730  -2.137  1.00  0.00     0.174 HD
ENDBRANCH   6  13
ENDBRANCH   2   3
ENDBRANCH   1   2
BRANCH   1  16
HETATM   16  N5  UNL     1      -0.186  -0.949   0.089  1.00  0.00    -0.382 N 
ATOM     17  H5  UNL     1      -0.563  -1.837  -0.243  1.00  0.00     0.156 HD
BRANCH  16  18
HETATM   18  C5  UNL     1      -1.046   0.159   0.286  1.00  0.00     0.245 C 
BRANCH  18  19
HETATM   19  O1  UNL     1      -1.156   0.301   1.702  1.00  0.00    -0.375 OA
ATOM     20  H1  UNL     1      -1.733   1.044   1.834  1.00  0.00     0.212 HD
ENDBRANCH  18  19
BRANCH  18  21
HETATM   21  C6  UNL     1      -2.428  -0.272  -0.178  1.00  0.00     0.237 C 
BRANCH  21  22
HETATM   22  N6  UNL     1      -2.344  -0.401  -1.626  1.00  0.00    -0.070 N 
ATOM     23  H63 UNL     1      -2.003   0.441  -2.090  1.00  0.00     0.274 HD
ATOM     24  H62 UNL     1      -1.598  -1.024  -1.936  1.00  0.00     0.274 HD
ATOM     25  H61 UNL     1      -3.271  -0.690  -1.937  1.00  0.00     0.274 HD
ENDBRANCH  21  22
BRANCH  21  26
HETATM   26  C7  UNL     1      -3.500   0.688   0.184  1.00  0.00     0.046 C 
HETATM   27  C8  UNL     1      -4.818   0.150  -0.326  1.00  0.00     0.035 C 
HETATM   28  C9  UNL     1      -5.778   0.492   0.750  1.00  0.00     0.168 C 
HETATM   29  O2  UNL     1      -5.111   1.116   1.790  1.00  0.00    -0.391 OA
HETATM   30  C10 UNL     1      -3.760   0.814   1.653  1.00  0.00     0.174 C 
ENDBRANCH  21  26
ENDBRANCH  18  21
ENDBRANCH  16  18
ENDBRANCH   1  16
BRANCH   1  31
HETATM   31  C11 UNL     1       1.828  -2.148   0.213  1.00  0.00     0.255 C 
HETATM   32  N7  UNL     1       3.185  -2.404   0.588  1.00  0.00    -0.060 NA
HETATM   33  O3  UNL     1       1.132  -3.099  -0.255  1.00  0.00    -0.275 OA
ENDBRANCH   1  31
TORSDOF 11
