REMARK  11 active torsions:
REMARK  status: ('A' for Active; 'I' for Inactive)
REMARK    1  A    between atoms: C4_12  and  C5_13 
REMARK    2  A    between atoms: C5_13  and  O1_14 
REMARK    3  A    between atoms: C5_13  and  O2_16 
REMARK    4  A    between atoms: N4_18  and  O3_19 
REMARK    5  A    between atoms: O3_19  and  C6_20 
REMARK    6  A    between atoms: C6_20  and  C7_21 
REMARK    7  A    between atoms: C7_21  and  O4_22 
REMARK    8  A    between atoms: C7_21  and  C8_24 
REMARK    9  A    between atoms: C8_24  and  O5_25 
REMARK   10  A    between atoms: C8_24  and  C9_27 
REMARK   11  A    between atoms: C9_27  and  C10_28 
ROOT
HETATM    1  N1  UNL     1       0.253   0.115  -2.290  1.00  0.00    -0.233 N 
ATOM      2  H11 UNL     1      -0.262   0.878  -1.850  1.00  0.00     0.174 HD
ATOM      3  H12 UNL     1       0.071  -0.341  -3.184  1.00  0.00     0.174 HD
HETATM    4  C1  UNL     1       1.282  -0.355  -1.643  1.00  0.00     0.696 C 
HETATM    5  N2  UNL     1       2.000  -1.419  -2.256  1.00  0.00    -0.223 N 
ATOM      6  H2  UNL     1       1.614  -1.742  -3.143  1.00  0.00     0.177 HD
HETATM    7  C2  UNL     1       3.193  -2.117  -1.821  1.00  0.00     0.165 C 
HETATM    8  C3  UNL     1       3.704  -1.609  -0.499  1.00  0.00     0.255 C 
HETATM    9  N3  UNL     1       3.837  -0.187  -0.434  1.00  0.00    -0.045 N 
ATOM     10  H31 UNL     1       3.906   0.220  -1.367  1.00  0.00     0.280 HD
ATOM     11  H32 UNL     1       4.752   0.081  -0.071  1.00  0.00     0.280 HD
HETATM   12  C4  UNL     1       2.763   0.434   0.333  1.00  0.00     0.385 C 
HETATM   13  N4  UNL     1       1.535   0.280  -0.398  1.00  0.00    -0.051 N 
ENDROOT
BRANCH  13  14
HETATM   14  O3  UNL     1       0.436   0.819   0.175  1.00  0.00    -0.260 OA
BRANCH  14  15
HETATM   15  C6  UNL     1       0.019  -0.123   1.141  1.00  0.00     0.236 C 
BRANCH  15  16
HETATM   16  C7  UNL     1      -1.204   0.403   1.828  1.00  0.00     0.173 C 
BRANCH  16  17
HETATM   17  O4  UNL     1      -1.644  -0.495   2.785  1.00  0.00    -0.391 OA
ATOM     18  H4  UNL     1      -2.420  -0.161   3.221  1.00  0.00     0.210 HD
ENDBRANCH  16  17
BRANCH  16  19
HETATM   19  C8  UNL     1      -2.349   0.673   0.874  1.00  0.00     0.149 C 
BRANCH  19  20
HETATM   20  O5  UNL     1      -3.379   1.206   1.641  1.00  0.00    -0.393 OA
ATOM     21  H5  UNL     1      -4.097   1.375   1.043  1.00  0.00     0.210 HD
ENDBRANCH  19  20
BRANCH  19  22
HETATM   22  C9  UNL     1      -2.714  -0.617   0.210  1.00  0.00     0.039 C 
BRANCH  22  23
HETATM   23  C10 UNL     1      -3.833  -0.532  -0.769  1.00  0.00    -0.012 A 
HETATM   24  C11 UNL     1      -5.200  -0.079  -0.383  1.00  0.00     0.005 A 
HETATM   25  C12 UNL     1      -4.351   0.748  -1.293  1.00  0.00     0.005 A 
ENDBRANCH  22  23
ENDBRANCH  19  22
ENDBRANCH  16  19
ENDBRANCH  15  16
ENDBRANCH  14  15
ENDBRANCH  13  14
BRANCH  12  26
HETATM   26  C5  UNL     1       3.008   1.889   0.572  1.00  0.00     0.307 C 
BRANCH  26  27
HETATM   27  O1  UNL     1       4.171   2.143   1.275  1.00  0.00    -0.368 OA
ATOM     28  H1  UNL     1       4.327   3.068   1.427  1.00  0.00     0.212 HD
ENDBRANCH  26  27
BRANCH  26  29
HETATM   29  O2  UNL     1       1.930   2.393   1.294  1.00  0.00    -0.368 OA
ATOM     30  H2  UNL     1       2.086   3.318   1.446  1.00  0.00     0.212 HD
ENDBRANCH  26  29
ENDBRANCH  12  26
TORSDOF 11
