REMARK  14 active torsions:
REMARK  status: ('A' for Active; 'I' for Inactive)
REMARK    1  A    between atoms: C5_5  and  N1_6 
REMARK    2  A    between atoms: C6_9  and  C7_10 
REMARK    3  A    between atoms: C7_10  and  O1_11 
REMARK    4  A    between atoms: C7_10  and  N2_13 
REMARK    5  A    between atoms: N2_13  and  C8_15 
REMARK    6  A    between atoms: C8_15  and  C9_16 
REMARK    7  A    between atoms: C9_16  and  O2_17 
REMARK    8  A    between atoms: C9_16  and  C10_19 
REMARK    9  A    between atoms: C10_19  and  O3_20 
REMARK   10  A    between atoms: C10_19  and  C11_22 
REMARK   11  A    between atoms: C11_22  and  N3_23 
REMARK   12  A    between atoms: C11_22  and  C12_27 
REMARK   13  A    between atoms: C12_27  and  N4_28 
REMARK   14  A    between atoms: C13_32  and  N5_33 
ROOT
HETATM    1  N2  UNL     1       0.373   0.775   0.680  1.00  0.00    -0.394 N 
ATOM      2  H2  UNL     1       0.833   1.509   1.219  1.00  0.00     0.155 HD
ENDROOT
BRANCH   1   3
HETATM    3  C7  UNL     1      -0.779   1.155   0.013  1.00  0.00     0.222 C 
BRANCH   3   4
HETATM    4  C6  UNL     1      -2.055   0.516   0.338  1.00  0.00     0.092 C 
HETATM    5  C5  UNL     1      -2.413  -0.829  -0.068  1.00  0.00     0.037 C 
HETATM    6  C2  UNL     1      -3.941  -0.841   0.277  1.00  0.00     0.016 C 
HETATM    7  C4  UNL     1      -2.940  -0.613  -1.517  1.00  0.00     0.038 C 
HETATM    8  C1  UNL     1      -4.582  -2.174  -0.016  1.00  0.00     0.013 C 
HETATM    9  C3  UNL     1      -4.005   0.176  -0.836  1.00  0.00     0.025 C 
HETATM   10  C13 UNL     1      -3.251   1.319  -0.257  1.00  0.00     0.198 C 
BRANCH   5  11
HETATM   11  N1  UNL     1      -1.771  -2.021   0.147  1.00  0.00    -0.421 N 
ATOM     12  H12 UNL     1      -2.263  -2.840   0.503  1.00  0.00     0.150 HD
ATOM     13  H11 UNL     1      -0.776  -2.013  -0.078  1.00  0.00     0.150 HD
ENDBRANCH   5  11
BRANCH  10  14
HETATM   14  N5  UNL     1      -2.799   2.239  -1.261  1.00  0.00    -0.074 N 
ATOM     15  H53 UNL     1      -2.252   1.762  -1.977  1.00  0.00     0.274 HD
ATOM     16  H52 UNL     1      -3.575   2.564  -1.838  1.00  0.00     0.274 HD
ATOM     17  H51 UNL     1      -2.282   3.023  -0.864  1.00  0.00     0.274 HD
ENDBRANCH  10  14
ENDBRANCH   3   4
BRANCH   3  18
HETATM   18  O1  UNL     1      -0.924   2.555   0.525  1.00  0.00    -0.377 OA
ATOM     19  H1  UNL     1      -0.096   2.970   0.314  1.00  0.00     0.212 HD
ENDBRANCH   3  18
ENDBRANCH   1   3
BRANCH   1  20
HETATM   20  C8  UNL     1       0.984  -0.465   0.714  1.00  0.00     0.150 C 
BRANCH  20  21
HETATM   21  C9  UNL     1       2.401  -0.240   1.351  1.00  0.00     0.166 C 
BRANCH  21  22
HETATM   22  O2  UNL     1       2.220   0.279   2.627  1.00  0.00    -0.391 OA
ATOM     23  H2  UNL     1       3.078   0.415   3.012  1.00  0.00     0.210 HD
ENDBRANCH  21  22
BRANCH  21  24
HETATM   24  C10 UNL     1       3.141   0.758   0.492  1.00  0.00     0.180 C 
BRANCH  24  25
HETATM   25  O3  UNL     1       4.392   1.034   1.054  1.00  0.00    -0.391 OA
ATOM     26  H3  UNL     1       4.857   1.662   0.514  1.00  0.00     0.210 HD
ENDBRANCH  24  25
BRANCH  24  27
HETATM   27  C11 UNL     1       3.274   0.277  -0.920  1.00  0.00     0.239 C 
BRANCH  27  28
HETATM   28  N3  UNL     1       3.931   1.276  -1.759  1.00  0.00    -0.071 N 
ATOM     29  H33 UNL     1       3.454   2.176  -1.713  1.00  0.00     0.274 HD
ATOM     30  H32 UNL     1       4.832   1.557  -1.372  1.00  0.00     0.274 HD
ATOM     31  H31 UNL     1       4.022   0.948  -2.721  1.00  0.00     0.274 HD
ENDBRANCH  27  28
BRANCH  27  32
HETATM   32  C12 UNL     1       3.962  -1.060  -1.020  1.00  0.00     0.265 C 
BRANCH  32  33
HETATM   33  N4  UNL     1       5.306  -0.991  -0.464  1.00  0.00    -0.077 N 
ATOM     34  H43 UNL     1       5.856  -0.250  -0.897  1.00  0.00     0.274 HD
ATOM     35  H42 UNL     1       5.301  -0.639   0.493  1.00  0.00     0.274 HD
ATOM     36  H41 UNL     1       5.772  -1.896  -0.532  1.00  0.00     0.274 HD
ENDBRANCH  32  33
ENDBRANCH  27  32
ENDBRANCH  24  27
ENDBRANCH  21  24
ENDBRANCH  20  21
ENDBRANCH   1  20
TORSDOF 14
