REMARK  8 active torsions:
REMARK  status: ('A' for Active; 'I' for Inactive)
REMARK    1  A    between atoms: N1_1  and  C1_5 
REMARK    2  A    between atoms: C1_5  and  C2_6 
REMARK    3  A    between atoms: C1_5  and  C7_20 
REMARK    4  A    between atoms: C2_6  and  N2_7 
REMARK    5  A    between atoms: N2_7  and  N3_8 
REMARK    6  A    between atoms: N3_8  and  C3_10 
REMARK    7  A    between atoms: C7_20  and  O3_21 
REMARK    8  A    between atoms: C7_20  and  N6_23 
ROOT
HETATM    1  C1  UNL     1       0.520  -1.103  -1.737  1.00  0.00     0.247 C 
ENDROOT
BRANCH   1   2
HETATM    2  N1  UNL     1       1.119  -2.015  -0.819  1.00  0.00    -0.070 N 
ATOM      3  H13 UNL     1       1.144  -1.648   0.132  1.00  0.00     0.275 HD
ATOM      4  H12 UNL     1       0.531  -2.830  -0.642  1.00  0.00     0.275 HD
ATOM      5  H11 UNL     1       2.045  -2.271  -1.160  1.00  0.00     0.275 HD
ENDBRANCH   1   2
BRANCH   1   6
HETATM    6  C2  UNL     1      -0.864  -0.720  -1.227  1.00  0.00     0.172 C 
BRANCH   6   7
HETATM    7  N2  UNL     1      -1.656  -1.930  -1.148  1.00  0.00    -0.139 NA
BRANCH   7   8
HETATM    8  N3  UNL     1      -2.962  -1.648  -0.692  1.00  0.00    -0.298 N 
ATOM      9  H3  UNL     1      -3.742  -2.166  -1.097  1.00  0.00     0.182 HD
BRANCH   8  10
HETATM   10  C3  UNL     1      -3.235  -0.686   0.294  1.00  0.00     0.128 A 
HETATM   11  C4  UNL     1      -3.477   0.618  -0.060  1.00  0.00     0.129 A 
HETATM   12  N4  UNL     1      -3.747   1.535   0.901  1.00  0.00    -0.316 N 
HETATM   13  C5  UNL     1      -3.787   1.209   2.200  1.00  0.00     0.327 A 
ATOM     14  H4  UNL     1      -3.925   2.501   0.627  1.00  0.00     0.170 HD
HETATM   15  O1  UNL     1      -4.037   2.053   3.095  1.00  0.00    -0.247 OA
HETATM   16  N5  UNL     1      -3.551  -0.068   2.569  1.00  0.00    -0.274 N 
HETATM   17  C6  UNL     1      -3.279  -1.004   1.632  1.00  0.00     0.278 A 
ATOM     18  H5  UNL     1      -3.578  -0.327   3.555  1.00  0.00     0.173 HD
HETATM   19  O2  UNL     1      -3.058  -2.195   1.959  1.00  0.00    -0.265 OA
ENDBRANCH   8  10
ENDBRANCH   7   8
ENDBRANCH   6   7
ENDBRANCH   1   6
BRANCH   1  20
HETATM   20  C7  UNL     1       1.338   0.084  -2.106  1.00  0.00     0.249 C 
BRANCH  20  21
HETATM   21  O3  UNL     1       0.518   0.765  -3.098  1.00  0.00    -0.375 OA
ATOM     22  H3  UNL     1       1.040   1.523  -3.334  1.00  0.00     0.212 HD
ENDBRANCH  20  21
BRANCH  20  23
HETATM   23  N6  UNL     1       1.626   1.045  -1.162  1.00  0.00    -0.367 N 
HETATM   24  C8  UNL     1       2.347   0.999  -0.015  1.00  0.00     0.011 C 
HETATM   25  C9  UNL     1       3.811   0.598  -0.047  1.00  0.00     0.081 C 
HETATM   26  C11 UNL     1       1.860   0.520   1.303  1.00  0.00     0.284 C 
HETATM   27  C10 UNL     1       4.114   0.368   1.401  1.00  0.00     0.238 C 
HETATM   28  N7  UNL     1       3.029   0.990   2.129  1.00  0.00    -0.070 N 
ATOM     29  H72 UNL     1       2.983   0.779   3.126  1.00  0.00     0.277 HD
ATOM     30  H71 UNL     1       3.103   1.998   2.263  1.00  0.00     0.277 HD
ATOM     31  H6  UNL     1       1.222   1.960  -1.363  1.00  0.00     0.161 HD
ENDBRANCH  20  23
ENDBRANCH   1  20
TORSDOF 8
