REMARK  10 active torsions:
REMARK  status: ('A' for Active; 'I' for Inactive)
REMARK    1  A    between atoms: C2_2  and  C3_3 
REMARK    2  A    between atoms: C3_3  and  C4_4 
REMARK    3  A    between atoms: C3_3  and  N2_7 
REMARK    4  A    between atoms: N2_7  and  C6_10 
REMARK    5  A    between atoms: C6_10  and  C7_11 
REMARK    6  A    between atoms: C7_11  and  N3_12 
REMARK    7  A    between atoms: N3_12  and  C8_14 
REMARK    8  A    between atoms: C9_17  and  N5_18 
REMARK    9  A    between atoms: C13_26  and  N7_27 
REMARK   10  A    between atoms: C14_32  and  N9_33 
ROOT
HETATM    1  C4  UNL     1      -5.308  -0.350   1.534  1.00  0.00     0.156 C 
HETATM    2  C5  UNL     1      -5.678  -1.764   1.631  1.00  0.00     0.061 C 
HETATM    3  N1  UNL     1      -5.965  -2.892   1.697  1.00  0.00    -0.197 NA
ENDROOT
BRANCH   1   4
HETATM    4  C3  UNL     1      -4.759  -0.098   0.141  1.00  0.00     0.198 C 
BRANCH   4   5
HETATM    5  C2  UNL     1      -5.874  -0.456  -0.819  1.00  0.00     0.029 C 
HETATM    6  C1  UNL     1      -5.343  -0.210  -2.211  1.00  0.00     0.007 C 
ENDBRANCH   4   5
BRANCH   4   7
HETATM    7  N2  UNL     1      -3.642  -0.986  -0.143  1.00  0.00    -0.069 N 
ATOM      8  H22 UNL     1      -3.853  -1.950   0.115  1.00  0.00     0.277 HD
ATOM      9  H21 UNL     1      -3.512  -1.118  -1.146  1.00  0.00     0.277 HD
BRANCH   7  10
HETATM   10  C6  UNL     1      -2.427  -0.515   0.496  1.00  0.00     0.253 C 
BRANCH  10  11
HETATM   11  C7  UNL     1      -1.914   0.754  -0.124  1.00  0.00     0.165 C 
BRANCH  11  12
HETATM   12  N3  UNL     1      -0.741   1.151   0.596  1.00  0.00    -0.224 N 
ATOM     13  H3  UNL     1      -0.887   1.753   1.406  1.00  0.00     0.177 HD
BRANCH  12  14
HETATM   14  C8  UNL     1       0.457   0.836   0.337  1.00  0.00     0.681 A 
HETATM   15  N4  UNL     1       0.886   0.060  -0.671  1.00  0.00    -0.175 N 
HETATM   16  C9  UNL     1       2.190  -0.214  -0.874  1.00  0.00     0.147 A 
ATOM     17  H4  UNL     1       0.197  -0.338  -1.309  1.00  0.00     0.186 HD
HETATM   18  C10 UNL     1       3.162   0.303  -0.034  1.00  0.00     0.147 A 
HETATM   19  C11 UNL     1       2.727   1.093   0.995  1.00  0.00     0.155 A 
HETATM   20  N11 UNL     1       4.498   0.229   0.046  1.00  0.00    -0.214 N 
HETATM   21  N6  UNL     1       3.844   1.473   1.671  1.00  0.00    -0.322 N 
HETATM   22  N12 UNL     1       1.420   1.341   1.161  1.00  0.00    -0.174 N 
HETATM   23  C12 UNL     1       4.937   0.953   1.104  1.00  0.00     0.174 A 
ATOM     24  H6  UNL     1       3.847   2.072   2.497  1.00  0.00     0.169 HD
HETATM   25  C13 UNL     1       6.282   1.043   1.409  1.00  0.00     0.161 A 
HETATM   26  N8  UNL     1       7.162   0.393   0.630  1.00  0.00    -0.172 N 
HETATM   27  C14 UNL     1       6.719  -0.334  -0.431  1.00  0.00     0.692 A 
ATOM     28  H8  UNL     1       8.160   0.444   0.833  1.00  0.00     0.186 HD
HETATM   29  N10 UNL     1       5.391  -0.399  -0.700  1.00  0.00    -0.123 N 
ATOM     30  H10 UNL     1       5.073  -0.947  -1.499  1.00  0.00     0.206 HD
ATOM     31  H12 UNL     1       1.132   1.934   1.939  1.00  0.00     0.186 HD
BRANCH  16  32
HETATM   32  N5  UNL     1       2.546  -0.959  -1.845  1.00  0.00    -0.383 N 
ATOM     33  H52 UNL     1       1.830  -1.340  -2.464  1.00  0.00     0.157 HD
ATOM     34  H51 UNL     1       3.533  -1.166  -1.999  1.00  0.00     0.157 HD
ENDBRANCH  16  32
BRANCH  25  35
HETATM   35  N7  UNL     1       6.734   1.721   2.403  1.00  0.00    -0.382 N 
ATOM     36  H72 UNL     1       6.066   2.215   2.995  1.00  0.00     0.157 HD
ATOM     37  H71 UNL     1       7.727   1.787   2.628  1.00  0.00     0.157 HD
ENDBRANCH  25  35
BRANCH  27  38
HETATM   38  N9  UNL     1       7.551  -0.947  -1.172  1.00  0.00    -0.233 N 
ATOM     39  H92 UNL     1       8.550  -0.898  -0.970  1.00  0.00     0.174 HD
ATOM     40  H91 UNL     1       7.219  -1.492  -1.968  1.00  0.00     0.174 HD
ENDBRANCH  27  38
ENDBRANCH  12  14
ENDBRANCH  11  12
ENDBRANCH  10  11
ENDBRANCH   7  10
ENDBRANCH   4   7
ENDBRANCH   1   4
TORSDOF 10
