REMARK  10 active torsions:
REMARK  status: ('A' for Active; 'I' for Inactive)
REMARK    1  A    between atoms: C2_2  and  C3_3 
REMARK    2  A    between atoms: C3_3  and  C4_4 
REMARK    3  A    between atoms: C4_4  and  N1_5 
REMARK    4  A    between atoms: C6_10  and  N2_11 
REMARK    5  A    between atoms: C7_12  and  S1_13 
REMARK    6  A    between atoms: S1_13  and  C8_14 
REMARK    7  A    between atoms: C8_14  and  C9_15 
REMARK    8  A    between atoms: C9_15  and  N3_16 
REMARK    9  A    between atoms: C11_23  and  N5_24 
REMARK   10  A    between atoms: C12_29  and  N7_30 
ROOT
HETATM    1  N2  UNL     1       0.741   0.630  -0.097  1.00  0.00    -0.305 N 
HETATM    2  C7  UNL     1       2.040   0.442   0.239  1.00  0.00     0.149 A 
HETATM    3  N4  UNL     1       2.670   1.628   0.274  1.00  0.00    -0.331 N 
ATOM      4  H4  UNL     1       3.654   1.777   0.500  1.00  0.00     0.168 HD
HETATM    5  C10 UNL     1       1.773   2.592  -0.042  1.00  0.00     0.124 A 
HETATM    6  C11 UNL     1       1.851   3.963  -0.160  1.00  0.00     0.145 A 
HETATM    7  N6  UNL     1       0.751   4.657  -0.498  1.00  0.00    -0.175 N 
ATOM      8  H6  UNL     1       0.814   5.671  -0.583  1.00  0.00     0.186 HD
HETATM    9  C12 UNL     1      -0.434   4.054  -0.728  1.00  0.00     0.679 A 
HETATM   10  N8  UNL     1      -0.518   2.720  -0.615  1.00  0.00    -0.174 N 
ATOM     11  H8  UNL     1      -1.414   2.264  -0.789  1.00  0.00     0.186 HD
HETATM   12  C13 UNL     1       0.545   1.966  -0.279  1.00  0.00     0.156 A 
ENDROOT
BRANCH   1  13
HETATM   13  C6  UNL     1      -0.271  -0.372  -0.244  1.00  0.00     0.123 C 
HETATM   14  C5  UNL     1      -1.444  -0.294   0.649  1.00  0.00     0.097 C 
HETATM   15  C4  UNL     1      -2.559  -0.927  -0.166  1.00  0.00     0.289 C 
HETATM   16  N9  UNL     1      -1.932  -1.486  -1.340  1.00  0.00    -0.038 N 
HETATM   17  C14 UNL     1      -0.810  -0.572  -1.615  1.00  0.00     0.261 C 
ATOM     18  H92 UNL     1      -1.662  -2.465  -1.245  1.00  0.00     0.280 HD
ATOM     19  H91 UNL     1      -2.565  -1.622  -2.128  1.00  0.00     0.280 HD
BRANCH  15  20
HETATM   20  C3  UNL     1      -3.202  -1.988   0.697  1.00  0.00     0.095 C 
BRANCH  20  21
HETATM   21  C2  UNL     1      -4.264  -2.737   0.007  1.00  0.00    -0.033 C 
HETATM   22  C1  UNL     1      -5.494  -2.727   0.477  1.00  0.00     0.007 C 
ENDBRANCH  20  21
ENDBRANCH  15  20
BRANCH  15  23
HETATM   23  N1  UNL     1      -3.550   0.029  -0.591  1.00  0.00    -0.044 N 
ATOM     24  H13 UNL     1      -4.338  -0.419  -1.059  1.00  0.00     0.277 HD
ATOM     25  H12 UNL     1      -4.055   0.432   0.198  1.00  0.00     0.277 HD
ATOM     26  H11 UNL     1      -3.116   0.745  -1.173  1.00  0.00     0.277 HD
ENDBRANCH  15  23
ENDBRANCH   1  13
BRANCH   2  27
HETATM   27  S1  UNL     1       2.732  -1.180   0.571  1.00  0.00    -0.092 SA
BRANCH  27  28
HETATM   28  C8  UNL     1       4.478  -1.084   0.988  1.00  0.00     0.109 C 
BRANCH  28  29
HETATM   29  C9  UNL     1       4.948  -2.521   1.246  1.00  0.00     0.240 C 
BRANCH  29  30
HETATM   30  N3  UNL     1       4.758  -3.340   0.070  1.00  0.00    -0.079 N 
ATOM     31  H33 UNL     1       3.793  -3.311  -0.259  1.00  0.00     0.274 HD
ATOM     32  H32 UNL     1       5.211  -2.936  -0.749  1.00  0.00     0.274 HD
ATOM     33  H31 UNL     1       5.071  -4.296   0.242  1.00  0.00     0.274 HD
ENDBRANCH  29  30
ENDBRANCH  28  29
ENDBRANCH  27  28
ENDBRANCH   2  27
BRANCH   6  34
HETATM   34  N5  UNL     1       2.977   4.541   0.058  1.00  0.00    -0.383 N 
ATOM     35  H52 UNL     1       3.812   4.014   0.315  1.00  0.00     0.157 HD
ATOM     36  H51 UNL     1       3.035   5.556  -0.029  1.00  0.00     0.157 HD
ENDBRANCH   6  34
BRANCH   9  37
HETATM   37  N7  UNL     1      -1.505   4.695  -1.054  1.00  0.00    -0.234 N 
ATOM     38  H72 UNL     1      -1.441   5.709  -1.140  1.00  0.00     0.174 HD
ATOM     39  H71 UNL     1      -2.401   4.239  -1.228  1.00  0.00     0.174 HD
ENDBRANCH   9  37
TORSDOF 10
