REMARK  10 active torsions:
REMARK  status: ('A' for Active; 'I' for Inactive)
REMARK    1  A    between atoms: C4_8  and  N3_9 
REMARK    2  A    between atoms: C5_14  and  N5_15 
REMARK    3  A    between atoms: C9_25  and  N8_26 
REMARK    4  A    between atoms: C11_30  and  N9_31 
REMARK    5  A    between atoms: N9_31  and  C12_34 
REMARK    6  A    between atoms: C12_34  and  C13_35 
REMARK    7  A    between atoms: C13_35  and  O1_36 
REMARK    8  A    between atoms: O1_36  and  C14_37 
REMARK    9  A    between atoms: C14_37  and  C15_38 
REMARK   10  A    between atoms: C15_38  and  N10_39 
ROOT
HETATM    1  C1  UNL     1       0.335  -2.763  -1.816  1.00  0.00     0.066 C 
HETATM    2  C2  UNL     1       1.009  -1.512  -1.300  1.00  0.00     0.019 A 
HETATM    3  N1  UNL     1       2.104  -1.812  -0.725  1.00  0.00    -0.346 N 
ATOM      4  H1  UNL     1       2.303  -2.812  -0.727  1.00  0.00     0.167 HD
HETATM    5  C3  UNL     1       3.105  -1.038  -0.081  1.00  0.00     0.137 A 
HETATM    6  N2  UNL     1       4.152  -1.759   0.365  1.00  0.00    -0.176 N 
ATOM      7  H2  UNL     1       4.151  -2.767   0.212  1.00  0.00     0.186 HD
HETATM    8  C4  UNL     1       5.196  -1.206   1.002  1.00  0.00     0.679 A 
HETATM    9  N4  UNL     1       5.235   0.140   1.226  1.00  0.00    -0.176 N 
ATOM     10  H4  UNL     1       6.023   0.572   1.709  1.00  0.00     0.186 HD
HETATM   11  C5  UNL     1       4.192   0.883   0.786  1.00  0.00     0.131 A 
HETATM   12  C6  UNL     1       3.125   0.322   0.136  1.00  0.00     0.080 A 
HETATM   13  C7  UNL     1       2.074   1.243  -0.285  1.00  0.00     0.063 A 
HETATM   14  N6  UNL     1       2.393   2.485   0.121  1.00  0.00    -0.351 N 
ATOM     15  H6  UNL     1       3.254   2.664   0.639  1.00  0.00     0.166 HD
HETATM   16  C8  UNL     1       1.546   3.481  -0.175  1.00  0.00     0.182 A 
HETATM   17  N7  UNL     1       0.413   3.256  -0.856  1.00  0.00    -0.338 N 
ATOM     18  H7  UNL     1      -0.201   4.045  -1.059  1.00  0.00     0.168 HD
HETATM   19  C9  UNL     1       0.055   2.038  -1.280  1.00  0.00     0.110 A 
HETATM   20  C10 UNL     1       0.910   0.971  -0.991  1.00  0.00     0.049 A 
HETATM   21  C11 UNL     1       0.341  -0.255  -1.532  1.00  0.00     0.269 A 
ENDROOT
BRANCH  21  22
HETATM   22  N9  UNL     1      -1.076  -0.291  -1.196  1.00  0.00    -0.060 N 
ATOM     23  H92 UNL     1      -1.540   0.566  -1.496  1.00  0.00     0.278 HD
ATOM     24  H91 UNL     1      -1.569  -0.965  -1.782  1.00  0.00     0.278 HD
BRANCH  22  25
HETATM   25  C12 UNL     1      -1.329  -0.544   0.186  1.00  0.00     0.259 C 
BRANCH  25  26
HETATM   26  C13 UNL     1      -2.882  -0.569   0.326  1.00  0.00     0.195 C 
BRANCH  26  27
HETATM   27  O1  UNL     1      -3.246  -0.799   1.597  1.00  0.00    -0.388 OA
BRANCH  27  28
HETATM   28  C14 UNL     1      -4.565  -0.961   1.832  1.00  0.00     0.195 C 
BRANCH  28  29
HETATM   29  C15 UNL     1      -5.490   0.159   1.477  1.00  0.00     0.255 C 
BRANCH  29  30
HETATM   30  N10 UNL     1      -5.542   0.540   0.109  1.00  0.00    -0.077 N 
ATOM     31 3H10 UNL     1      -4.601   0.757  -0.220  1.00  0.00     0.274 HD
ATOM     32 2H10 UNL     1      -5.758  -0.276  -0.464  1.00  0.00     0.274 HD
ATOM     33 1H10 UNL     1      -6.173   1.304  -0.133  1.00  0.00     0.274 HD
ENDBRANCH  29  30
ENDBRANCH  28  29
ENDBRANCH  27  28
ENDBRANCH  26  27
ENDBRANCH  25  26
ENDBRANCH  22  25
ENDBRANCH  21  22
BRANCH  19  34
HETATM   34  N8  UNL     1      -1.042   1.864  -1.933  1.00  0.00    -0.385 N 
ATOM     35  H82 UNL     1      -1.666   2.643  -2.144  1.00  0.00     0.157 HD
ATOM     36  H81 UNL     1      -1.315   0.936  -2.256  1.00  0.00     0.157 HD
ENDBRANCH  19  34
BRANCH  11  37
HETATM   37  N5  UNL     1       4.214   2.143   0.990  1.00  0.00    -0.384 N 
ATOM     38  H52 UNL     1       5.009   2.561   1.474  1.00  0.00     0.157 HD
ATOM     39  H51 UNL     1       3.428   2.703   0.659  1.00  0.00     0.157 HD
ENDBRANCH  11  37
BRANCH   8  40
HETATM   40  N3  UNL     1       6.188  -1.934   1.417  1.00  0.00    -0.234 N 
ATOM     41  H32 UNL     1       6.159  -2.940   1.250  1.00  0.00     0.174 HD
ATOM     42  H31 UNL     1       6.981  -1.514   1.901  1.00  0.00     0.174 HD
ENDBRANCH   8  40
TORSDOF 10
