REMARK  10 active torsions:
REMARK  status: ('A' for Active; 'I' for Inactive)
REMARK    1  A    between atoms: C2_2  and  C4_4 
REMARK    2  A    between atoms: C4_4  and  N1_5 
REMARK    3  A    between atoms: N1_5  and  C5_7 
REMARK    4  A    between atoms: C5_7  and  C6_8 
REMARK    5  A    between atoms: C6_8  and  C8_10 
REMARK    6  A    between atoms: C8_10  and  N2_11 
REMARK    7  A    between atoms: N2_11  and  C9_13 
REMARK    8  A    between atoms: C9_13  and  O1_14 
REMARK    9  A    between atoms: C9_13  and  C10_16 
REMARK   10  A    between atoms: N4_19  and  C11_20 
ROOT
HETATM    1  C9  UNL     1      -0.773   1.231   0.259  1.00  0.00     0.273 C 
ENDROOT
BRANCH   1   2
HETATM    2  N2  UNL     1      -0.265  -0.003   0.759  1.00  0.00    -0.391 N 
ATOM      3  H2  UNL     1      -0.371  -0.266   1.739  1.00  0.00     0.156 HD
BRANCH   2   4
HETATM    4  C8  UNL     1       0.398  -0.853  -0.174  1.00  0.00     0.126 C 
BRANCH   4   5
HETATM    5  C6  UNL     1       1.749  -0.292  -0.651  1.00  0.00     0.037 C 
HETATM    6  C7  UNL     1       2.273  -1.294  -1.636  1.00  0.00     0.017 C 
BRANCH   5   7
HETATM    7  C5  UNL     1       2.614  -0.126   0.552  1.00  0.00     0.061 C 
BRANCH   7   8
HETATM    8  N1  UNL     1       3.935   0.301   0.417  1.00  0.00    -0.401 N 
ATOM      9  H1  UNL     1       4.205   1.226   0.751  1.00  0.00     0.158 HD
BRANCH   8  10
HETATM   10  C4  UNL     1       4.905  -0.542  -0.181  1.00  0.00     0.122 C 
BRANCH  10  11
HETATM   11  C2  UNL     1       6.251   0.200  -0.023  1.00  0.00    -0.005 C 
HETATM   12  C1  UNL     1       7.379  -0.613  -0.629  1.00  0.00     0.011 C 
HETATM   13  C3  UNL     1       6.528   0.382   1.442  1.00  0.00     0.011 C 
ENDBRANCH  10  11
ENDBRANCH   8  10
ENDBRANCH   7   8
ENDBRANCH   5   7
ENDBRANCH   4   5
ENDBRANCH   2   4
ENDBRANCH   1   2
BRANCH   1  14
HETATM   14  O1  UNL     1      -1.317   1.921   1.370  1.00  0.00    -0.371 OA
ATOM     15  H1  UNL     1      -1.656   2.744   1.037  1.00  0.00     0.212 HD
ENDBRANCH   1  14
BRANCH   1  16
HETATM   16  C10 UNL     1      -1.946   1.021  -0.671  1.00  0.00     0.119 A 
HETATM   17  N3  UNL     1      -3.222   0.881  -0.341  1.00  0.00    -0.288 N 
HETATM   18  N4  UNL     1      -4.100   0.701  -1.242  1.00  0.00    -0.246 N 
ATOM     19  H3  UNL     1      -3.500   0.918   0.640  1.00  0.00     0.187 HD
HETATM   20  C16 UNL     1      -3.711   0.657  -2.522  1.00  0.00     0.306 A 
HETATM   21  O2  UNL     1      -4.421   0.488  -3.573  1.00  0.00    -0.258 OA
HETATM   22  S1  UNL     1      -2.016   0.885  -2.376  1.00  0.00    -0.008 SA
BRANCH  18  23
HETATM   23  C11 UNL     1      -5.543   0.543  -0.938  1.00  0.00     0.112 C 
HETATM   24  C12 UNL     1      -5.917   1.155   0.372  1.00  0.00     0.027 C 
HETATM   25  C13 UNL     1      -7.183   0.357   0.724  1.00  0.00     0.002 C 
HETATM   26  C14 UNL     1      -6.760  -1.058   0.343  1.00  0.00     0.002 C 
HETATM   27  C15 UNL     1      -5.834  -0.936  -0.822  1.00  0.00     0.027 C 
ENDBRANCH  18  23
ENDBRANCH   1  16
TORSDOF 10
