REMARK  12 active torsions:
REMARK  status: ('A' for Active; 'I' for Inactive)
REMARK    1  A    between atoms: O1_2  and  C2_3 
REMARK    2  A    between atoms: C2_3  and  C3_4 
REMARK    3  A    between atoms: C3_4  and  N1_5 
REMARK    4  A    between atoms: N1_5  and  C4_7 
REMARK    5  A    between atoms: C5_10  and  N3_11 
REMARK    6  A    between atoms: C7_17  and  C8_18 
REMARK    7  A    between atoms: C8_18  and  C9_19 
REMARK    8  A    between atoms: C9_19  and  N5_20 
REMARK    9  A    between atoms: N5_20  and  C10_22 
REMARK   10  A    between atoms: C15_31  and  C16_32 
REMARK   11  A    between atoms: C16_32  and  N8_33 
REMARK   12  A    between atoms: C16_32  and  N9_37 
ROOT
HETATM    1  C4  UNL     1      -2.761   0.707  -0.015  1.00  0.00     0.135 A 
HETATM    2  N2  UNL     1      -2.603   2.043  -0.009  1.00  0.00    -0.176 N 
ATOM      3  H2  UNL     1      -3.435   2.629   0.064  1.00  0.00     0.186 HD
HETATM    4  C5  UNL     1      -1.387   2.653  -0.096  1.00  0.00     0.677 A 
HETATM    5  N4  UNL     1      -0.258   1.946  -0.196  1.00  0.00    -0.191 N 
ATOM      6  H4  UNL     1       0.650   2.405  -0.262  1.00  0.00     0.184 HD
HETATM    7  C6  UNL     1      -0.367   0.586  -0.206  1.00  0.00     0.071 A 
HETATM    8  C7  UNL     1       0.776  -0.198  -0.311  1.00  0.00    -0.028 A 
HETATM    9  C14 UNL     1       0.678  -1.574  -0.329  1.00  0.00     0.022 A 
HETATM   10  C15 UNL     1      -0.536  -2.221  -0.243  1.00  0.00     0.025 A 
HETATM   11  C17 UNL     1      -1.670  -1.448  -0.138  1.00  0.00     0.072 A 
HETATM   12  N10 UNL     1      -2.917  -2.073  -0.048  1.00  0.00    -0.101 NA
HETATM   13  C18 UNL     1      -1.570  -0.054  -0.120  1.00  0.00     0.061 A 
ENDROOT
BRANCH   8  14
HETATM   14  C8  UNL     1       2.089   0.494  -0.370  1.00  0.00     0.061 C 
BRANCH  14  15
HETATM   15  C9  UNL     1       2.526   0.936   1.024  1.00  0.00     0.142 C 
BRANCH  15  16
HETATM   16  N5  UNL     1       3.800   1.614   0.961  1.00  0.00    -0.226 N 
ATOM     17  H5  UNL     1       3.845   2.614   1.156  1.00  0.00     0.177 HD
BRANCH  16  18
HETATM   18  C10 UNL     1       5.006   0.904   0.628  1.00  0.00     0.669 C 
HETATM   19  N6  UNL     1       5.122  -0.356   0.854  1.00  0.00    -0.227 N 
HETATM   20  C11 UNL     1       6.324  -1.067   0.523  1.00  0.00     0.139 C 
ATOM     21  H6  UNL     1       4.344  -0.861   1.277  1.00  0.00     0.177 HD
HETATM   22  C12 UNL     1       7.106  -0.530  -0.624  1.00  0.00     0.040 C 
HETATM   23  C13 UNL     1       6.926   0.925  -0.910  1.00  0.00     0.139 C 
HETATM   24  N7  UNL     1       6.081   1.593   0.040  1.00  0.00    -0.227 N 
ATOM     25  H7  UNL     1       6.261   2.566   0.288  1.00  0.00     0.177 HD
ENDBRANCH  16  18
ENDBRANCH  15  16
ENDBRANCH  14  15
ENDBRANCH   8  14
BRANCH  10  26
HETATM   26  C16 UNL     1      -0.676  -3.692  -0.260  1.00  0.00     0.413 C 
BRANCH  26  27
HETATM   27  N8  UNL     1      -1.730  -4.137  -1.125  1.00  0.00    -0.046 N 
ATOM     28  H83 UNL     1      -2.614  -3.688  -0.886  1.00  0.00     0.277 HD
ATOM     29  H82 UNL     1      -1.609  -3.770  -2.069  1.00  0.00     0.277 HD
ATOM     30  H81 UNL     1      -1.827  -5.152  -1.137  1.00  0.00     0.277 HD
ENDBRANCH  26  27
BRANCH  26  31
HETATM   31  N9  UNL     1      -0.759  -4.255   1.069  1.00  0.00    -0.046 N 
ATOM     32  H93 UNL     1       0.036  -3.968   1.640  1.00  0.00     0.277 HD
ATOM     33  H92 UNL     1      -1.510  -3.821   1.605  1.00  0.00     0.277 HD
ATOM     34  H91 UNL     1      -0.856  -5.270   1.057  1.00  0.00     0.277 HD
ENDBRANCH  26  31
ENDBRANCH  10  26
BRANCH   4  35
HETATM   35  N3  UNL     1      -1.360   3.947  -0.080  1.00  0.00    -0.234 N 
ATOM     36  H32 UNL     1      -2.222   4.487  -0.004  1.00  0.00     0.174 HD
ATOM     37  H31 UNL     1      -0.450   4.403  -0.145  1.00  0.00     0.174 HD
ENDBRANCH   4  35
BRANCH   1  38
HETATM   38  N1  UNL     1      -3.814   0.063   0.065  1.00  0.00    -0.353 N 
ATOM     39  H1  UNL     1      -3.592  -0.932   0.030  1.00  0.00     0.166 HD
BRANCH  38  40
HETATM   40  C3  UNL     1      -5.173   0.205   0.184  1.00  0.00     0.088 C 
BRANCH  40  41
HETATM   41  C2  UNL     1      -5.794   1.557   0.293  1.00  0.00     0.211 C 
BRANCH  41  42
HETATM   42  O1  UNL     1      -7.192   1.339   0.401  1.00  0.00    -0.391 OA
HETATM   43  C1  UNL     1      -7.835   2.571   0.509  1.00  0.00     0.201 C 
ENDBRANCH  41  42
ENDBRANCH  40  41
ENDBRANCH  38  40
ENDBRANCH   1  38
TORSDOF 12
