REMARK  2 active torsions:
REMARK  status: ('A' for Active; 'I' for Inactive)
REMARK    1  A    between atoms: C10_11  and  N1_12 
REMARK       I    between atoms: N2_14  and  C11_16 
REMARK       I    between atoms: C11_16  and  N4_20 
REMARK    2  A    between atoms: N4_20  and  C12_22 
ROOT
HETATM    1  C1  UNL     1      -3.721  -0.176  -1.101  1.00  0.00     0.046 C 
HETATM    2  C2  UNL     1      -3.458   0.491   0.233  1.00  0.00     0.064 C 
HETATM    3  C3  UNL     1      -4.714   0.318   1.071  1.00  0.00     0.046 C 
HETATM    4  C4  UNL     1      -3.122   1.915  -0.015  1.00  0.00     0.086 C 
HETATM    5  C5  UNL     1      -1.755   2.330   0.462  1.00  0.00     0.132 C 
HETATM    6  C6  UNL     1      -1.769   2.733   1.922  1.00  0.00     0.057 C 
HETATM    7  F1  UNL     1      -1.399   3.465  -0.254  1.00  0.00    -0.238 F 
HETATM    8  C7  UNL     1      -0.719   1.319   0.248  1.00  0.00     0.014 A 
HETATM    9  C8  UNL     1       0.567   1.624  -0.131  1.00  0.00     0.015 A 
HETATM   10  C9  UNL     1       1.478   0.603  -0.309  1.00  0.00     0.031 A 
HETATM   11  C10 UNL     1       1.159  -0.727  -0.124  1.00  0.00     0.051 A 
HETATM   12  C13 UNL     1      -0.141  -1.017   0.258  1.00  0.00     0.068 A 
HETATM   13  C14 UNL     1      -1.072  -0.018   0.444  1.00  0.00     0.081 A 
HETATM   14  O1  UNL     1      -2.377  -0.249   0.822  1.00  0.00    -0.340 OA
ENDROOT
BRANCH  11  15
HETATM   15  N1  UNL     1       2.109  -1.778  -0.311  1.00  0.00    -0.287 N 
HETATM   16  N2  UNL     1       3.272  -1.449  -0.693  1.00  0.00    -0.132 N 
HETATM   17  C11 UNL     1       4.218  -2.504  -0.878  1.00  0.00     0.690 C 
ATOM     18  H2  UNL     1       3.522  -0.474  -0.861  1.00  0.00     0.205 HD
HETATM   19  N3  UNL     1       3.868  -3.483  -1.630  1.00  0.00    -0.233 N 
HETATM   20  N4  UNL     1       5.474  -2.458  -0.257  1.00  0.00    -0.167 N 
ATOM     21  H32 UNL     1       2.954  -3.516  -2.082  1.00  0.00     0.174 HD
ATOM     22  H31 UNL     1       4.543  -4.236  -1.762  1.00  0.00     0.174 HD
ATOM     23  H4  UNL     1       5.566  -2.605   0.748  1.00  0.00     0.183 HD
ATOM     24  H1  UNL     1       1.861  -2.753  -0.144  1.00  0.00     0.187 HD
BRANCH  20  25
HETATM   25  C12 UNL     1       6.638  -2.196  -1.078  1.00  0.00     0.472 C 
HETATM   26  F2  UNL     1       7.739  -2.197  -0.273  1.00  0.00    -0.191 F 
HETATM   27  F3  UNL     1       6.764  -3.161  -2.050  1.00  0.00    -0.191 F 
ENDBRANCH  20  25
ENDBRANCH  11  15
TORSDOF 2
