REMARK  2 active torsions:
REMARK  status: ('A' for Active; 'I' for Inactive)
REMARK    1  A    between atoms: C3_5  and  C4_6 
REMARK    2  A    between atoms: C7_15  and  C8_16 
ROOT
HETATM    1  O1  UNL     1       0.954   1.833   0.143  1.00  0.00    -0.286 OA
HETATM    2  C1  UNL     1       1.611   0.744   0.172  1.00  0.00     0.208 A 
HETATM    3  C2  UNL     1       2.960   0.874   0.416  1.00  0.00     0.107 A 
HETATM    4 CL1  UNL     1       3.635   2.497   0.658  1.00  0.00    -0.079 Cl
HETATM    5  C3  UNL     1       3.867  -0.143   0.497  1.00  0.00     0.116 A 
HETATM    6  S1  UNL     1       3.183  -1.715   0.259  1.00  0.00    -0.065 SA
HETATM    7  C5  UNL     1       1.511  -1.687  -0.030  1.00  0.00     0.089 A 
HETATM    8  N1  UNL     1       0.558  -2.591  -0.291  1.00  0.00    -0.359 N 
ATOM      9  H1  UNL     1       0.709  -3.598  -0.345  1.00  0.00     0.166 HD
HETATM   10  C6  UNL     1      -0.628  -1.979  -0.472  1.00  0.00     0.097 A 
HETATM   11  C7  UNL     1      -0.412  -0.623  -0.315  1.00  0.00    -0.021 A 
HETATM   12  C13 UNL     1       0.928  -0.414  -0.035  1.00  0.00     0.058 A 
ENDROOT
BRANCH  11  13
HETATM   13  C8  UNL     1      -1.489   0.378  -0.415  1.00  0.00     0.021 C 
HETATM   14  C9  UNL     1      -2.698  -0.173  -1.200  1.00  0.00     0.009 C 
HETATM   15  C10 UNL     1      -3.648   1.012  -0.972  1.00  0.00     0.001 C 
HETATM   16  C11 UNL     1      -3.527   1.165   0.532  1.00  0.00     0.001 C 
HETATM   17  C12 UNL     1      -2.202   0.562   0.931  1.00  0.00     0.009 C 
ENDBRANCH  11  13
BRANCH   5  18
HETATM   18  C4  UNL     1       5.321   0.043   0.720  1.00  0.00     0.425 C 
HETATM   19  F1  UNL     1       5.640   0.690   1.871  1.00  0.00    -0.165 F 
HETATM   20  F2  UNL     1       5.901  -1.231   0.724  1.00  0.00    -0.165 F 
HETATM   21  F3  UNL     1       5.889   0.684  -0.380  1.00  0.00    -0.165 F 
ENDBRANCH   5  18
TORSDOF 2
