REMARK  3 active torsions:
REMARK  status: ('A' for Active; 'I' for Inactive)
REMARK    1  A    between atoms: C4_6  and  C5_7 
REMARK    2  A    between atoms: C11_13  and  O1_14 
REMARK    3  A    between atoms: C11_13  and  C12_16 
ROOT
HETATM    1  C5  UNL     1       0.355  -0.571  -1.041  1.00  0.00     0.020 C 
HETATM    2  C6  UNL     1      -0.864  -0.302  -0.813  1.00  0.00    -0.036 C 
HETATM    3  C7  UNL     1      -1.786  -1.524  -1.065  1.00  0.00     0.037 C 
HETATM    4  C8  UNL     1      -2.321  -1.898   0.292  1.00  0.00     0.004 C 
HETATM    5  C9  UNL     1      -3.205  -0.777   0.819  1.00  0.00     0.004 C 
HETATM    6  C10 UNL     1      -3.080   0.428  -0.042  1.00  0.00     0.052 C 
HETATM    7  C11 UNL     1      -1.633   0.831  -0.346  1.00  0.00     0.179 C 
ENDROOT
BRANCH   1   8
HETATM    8  C4  UNL     1       1.625   0.191  -0.976  1.00  0.00    -0.000 A 
HETATM    9  C3  UNL     1       1.969   1.121  -1.926  1.00  0.00     0.085 A 
HETATM   10  S1  UNL     1       3.494   1.694  -1.399  1.00  0.00    -0.082 SA
HETATM   11 CL1  UNL     1       1.084   1.602  -3.393  1.00  0.00    -0.075 Cl
HETATM   12  C2  UNL     1       3.661   0.748   0.001  1.00  0.00    -0.013 A 
HETATM   13  C1  UNL     1       4.805   0.726   0.993  1.00  0.00     0.057 C 
HETATM   14  C13 UNL     1       2.519   0.006   0.024  1.00  0.00    -0.037 A 
HETATM   15  C14 UNL     1       2.289  -0.989   1.156  1.00  0.00     0.050 C 
ENDBRANCH   1   8
BRANCH   7  16
HETATM   16  O1  UNL     1      -1.798   1.765  -1.407  1.00  0.00    -0.376 OA
ATOM     17  H1  UNL     1      -2.303   2.509  -1.100  1.00  0.00     0.211 HD
ENDBRANCH   7  16
BRANCH   7  18
HETATM   18  C12 UNL     1      -1.177   1.606   0.836  1.00  0.00     0.422 C 
HETATM   19  F1  UNL     1      -2.184   2.602   1.014  1.00  0.00    -0.167 F 
HETATM   20  F2  UNL     1      -0.047   2.343   0.724  1.00  0.00    -0.167 F 
HETATM   21  F3  UNL     1      -1.144   0.909   2.022  1.00  0.00    -0.167 F 
ENDBRANCH   7  18
TORSDOF 3
