REMARK  13 active torsions:
REMARK  status: ('A' for Active; 'I' for Inactive)
REMARK    1  A    between atoms: C2_2  and  O1_3 
REMARK    2  A    between atoms: O1_3  and  C3_4 
REMARK    3  A    between atoms: C3_4  and  C4_6 
REMARK    4  A    between atoms: C4_6  and  C5_8 
REMARK    5  A    between atoms: C5_8  and  O4_9 
REMARK    6  A    between atoms: O4_9  and  N1_10 
REMARK    7  A    between atoms: N1_10  and  C6_12 
REMARK    8  A    between atoms: C6_12  and  N2_14 
REMARK    9  A    between atoms: N2_14  and  N3_16 
REMARK   10  A    between atoms: N3_16  and  C7_18 
REMARK   11  A    between atoms: C7_18  and  O5_19 
REMARK   12  A    between atoms: N4_21  and  C8_23 
REMARK   13  A    between atoms: C8_23  and  O6_25 
ROOT
HETATM    1  C6  UNL     1       1.292  -0.857   2.165  1.00  0.00     0.210 C 
HETATM    2  S1  UNL     1       0.580  -1.414   3.515  1.00  0.00    -0.037 SA
ENDROOT
BRANCH   1   3
HETATM    3  N1  UNL     1       0.586  -0.349   1.060  1.00  0.00    -0.239 N 
ATOM      4  H1  UNL     1       1.177  -0.033   0.291  1.00  0.00     0.197 HD
BRANCH   3   5
HETATM    5  O4  UNL     1      -0.699  -0.211   0.847  1.00  0.00    -0.270 OA
BRANCH   5   6
HETATM    6  C5  UNL     1      -1.562  -0.623   1.789  1.00  0.00     0.290 C 
BRANCH   6   7
HETATM    7  C4  UNL     1      -3.003  -0.379   1.349  1.00  0.00     0.249 C 
HETATM    8  O3  UNL     1      -3.874  -0.721   2.173  1.00  0.00    -0.284 OA
BRANCH   7   9
HETATM    9  C3  UNL     1      -3.277   0.210   0.056  1.00  0.00     0.331 C 
HETATM   10  O2  UNL     1      -2.323   0.537  -0.739  1.00  0.00    -0.256 OA
BRANCH   9  11
HETATM   11  O1  UNL     1      -4.548   0.469  -0.432  1.00  0.00    -0.316 OA
BRANCH  11  12
HETATM   12  C2  UNL     1      -4.709   1.057  -1.733  1.00  0.00     0.175 C 
HETATM   13  C1  UNL     1      -6.198   1.202  -1.945  1.00  0.00     0.034 C 
ENDBRANCH  11  12
ENDBRANCH   9  11
ENDBRANCH   7   9
ENDBRANCH   6   7
ENDBRANCH   5   6
ENDBRANCH   3   5
ENDBRANCH   1   3
BRANCH   1  14
HETATM   14  N2  UNL     1       2.708  -0.891   2.123  1.00  0.00    -0.272 N 
ATOM     15  H2  UNL     1       3.253  -1.253   2.905  1.00  0.00     0.189 HD
BRANCH  14  16
HETATM   16  N3  UNL     1       3.343  -0.397   0.937  1.00  0.00    -0.263 N 
ATOM     17  H3  UNL     1       3.359  -0.958   0.085  1.00  0.00     0.190 HD
BRANCH  16  18
HETATM   18  C7  UNL     1       3.940   0.865   0.967  1.00  0.00     0.237 C 
HETATM   19  N4  UNL     1       4.590   1.506  -0.044  1.00  0.00    -0.306 N 
ATOM     20  H4  UNL     1       4.946   2.429   0.203  1.00  0.00     0.171 HD
BRANCH  18  21
HETATM   21  O5  UNL     1       3.840   1.463   2.119  1.00  0.00    -0.331 OA
ATOM     22  H5  UNL     1       4.246   2.322   2.139  1.00  0.00     0.221 HD
ENDBRANCH  18  21
BRANCH  19  23
HETATM   23  C8  UNL     1       4.852   1.123  -1.350  1.00  0.00     0.114 C 
HETATM   24  C9  UNL     1       4.478  -0.137  -2.022  1.00  0.00     0.097 C 
BRANCH  23  25
HETATM   25  O6  UNL     1       5.519   1.959  -2.131  1.00  0.00    -0.350 OA
ATOM     26  H6  UNL     1       5.699   1.696  -3.026  1.00  0.00     0.219 HD
ENDBRANCH  23  25
ENDBRANCH  19  23
ENDBRANCH  16  18
ENDBRANCH  14  16
ENDBRANCH   1  14
TORSDOF 13
