REMARK  7 active torsions:
REMARK  status: ('A' for Active; 'I' for Inactive)
REMARK    1  A    between atoms: C2_2  and  C4_4 
REMARK    2  A    between atoms: C4_4  and  N1_5 
REMARK    3  A    between atoms: N1_5  and  N2_7 
REMARK       I    between atoms: N2_7  and  C5_9 
REMARK    4  A    between atoms: C5_9  and  C6_11 
REMARK    5  A    between atoms: C6_11  and  N3_12 
REMARK    6  A    between atoms: C6_11  and  C7_16 
REMARK       I    between atoms: C7_16  and  N4_18 
REMARK    7  A    between atoms: N4_18  and  C8_20 
ROOT
HETATM    1  C8  UNL     1       3.011  -0.366   0.021  1.00  0.00     0.133 A 
HETATM    2  N5  UNL     1       3.557  -1.013   1.065  1.00  0.00    -0.337 N 
ATOM      3  H5  UNL     1       3.235  -1.951   1.302  1.00  0.00     0.168 HD
HETATM    4  C9  UNL     1       4.509  -0.444   1.789  1.00  0.00     0.183 A 
HETATM    5  N6  UNL     1       4.934   0.798   1.474  1.00  0.00    -0.340 N 
ATOM      6  H6  UNL     1       5.668   1.227   2.038  1.00  0.00     0.167 HD
HETATM    7  C10 UNL     1       4.421   1.487   0.441  1.00  0.00     0.141 A 
HETATM    8  N7  UNL     1       4.885   2.778   0.138  1.00  0.00    -0.081 NA
HETATM    9  C11 UNL     1       3.428   0.900  -0.318  1.00  0.00     0.129 A 
HETATM   10  C12 UNL     1       2.842   1.609  -1.447  1.00  0.00     0.107 C 
HETATM   11  N8  UNL     1       2.371   2.154  -2.353  1.00  0.00    -0.191 NA
ENDROOT
BRANCH   1  12
HETATM   12  N4  UNL     1       2.083  -0.913  -0.689  1.00  0.00    -0.309 N 
HETATM   13  C7  UNL     1       1.566  -2.205  -0.447  1.00  0.00     0.263 C 
HETATM   14  O2  UNL     1       2.131  -3.179  -0.992  1.00  0.00    -0.270 OA
ATOM     15  H4  UNL     1       1.700  -0.381  -1.471  1.00  0.00     0.170 HD
BRANCH  13  16
HETATM   16  C6  UNL     1       0.406  -2.371   0.418  1.00  0.00     0.367 C 
BRANCH  16  17
HETATM   17  C5  UNL     1      -0.797  -1.635   0.020  1.00  0.00     0.276 C 
HETATM   18  N2  UNL     1      -0.888  -0.256  -0.168  1.00  0.00    -0.269 N 
ATOM     19  H2  UNL     1      -0.062   0.325  -0.024  1.00  0.00     0.190 HD
HETATM   20  O1  UNL     1      -1.857  -2.319  -0.171  1.00  0.00    -0.269 OA
BRANCH  18  21
HETATM   21  N1  UNL     1      -2.081   0.339  -0.547  1.00  0.00    -0.313 N 
ATOM     22  H1  UNL     1      -2.093   0.898  -1.400  1.00  0.00     0.185 HD
BRANCH  21  23
HETATM   23  C4  UNL     1      -3.180   0.223   0.125  1.00  0.00     0.084 C 
BRANCH  23  24
HETATM   24  C2  UNL     1      -4.411   0.877  -0.328  1.00  0.00     0.017 C 
HETATM   25  C1  UNL     1      -4.071   2.300  -0.782  1.00  0.00     0.015 C 
HETATM   26  C3  UNL     1      -5.451   0.927   0.772  1.00  0.00     0.015 C 
ENDBRANCH  23  24
ENDBRANCH  21  23
ENDBRANCH  18  21
ENDBRANCH  16  17
BRANCH  16  27
HETATM   27  N3  UNL     1       0.040  -3.785   0.561  1.00  0.00    -0.058 N 
ATOM     28  H33 UNL     1      -0.742  -3.929   1.200  1.00  0.00     0.275 HD
ATOM     29  H32 UNL     1      -0.399  -4.167  -0.277  1.00  0.00     0.275 HD
ATOM     30  H31 UNL     1       0.877  -4.297   0.838  1.00  0.00     0.275 HD
ENDBRANCH  16  27
ENDBRANCH  13  16
ENDBRANCH   1  12
TORSDOF 7
