REMARK  7 active torsions:
REMARK  status: ('A' for Active; 'I' for Inactive)
REMARK    1  A    between atoms: C4_6  and  C5_7 
REMARK    2  A    between atoms: C5_7  and  N2_8 
REMARK    3  A    between atoms: N2_8  and  C6_10 
REMARK    4  A    between atoms: C6_10  and  N3_12 
REMARK    5  A    between atoms: N3_12  and  C7_14 
REMARK    6  A    between atoms: N4_15  and  N5_17 
REMARK    7  A    between atoms: N5_17  and  C8_19 
ROOT
HETATM    1  N3  UNL     1       1.700  -1.374  -1.621  1.00  0.00    -0.328 N 
ATOM      2  H3  UNL     1       1.848  -0.400  -1.887  1.00  0.00     0.169 HD
ENDROOT
BRANCH   1   3
HETATM    3  C6  UNL     1       0.548  -1.690  -0.866  1.00  0.00     0.172 C 
HETATM    4  S1  UNL     1       0.238  -3.218  -0.402  1.00  0.00    -0.041 SA
BRANCH   3   5
HETATM    5  N2  UNL     1      -0.348  -0.662  -0.510  1.00  0.00    -0.364 N 
ATOM      6  H2  UNL     1      -0.158   0.297  -0.800  1.00  0.00     0.162 HD
BRANCH   5   7
HETATM    7  C5  UNL     1      -1.528  -0.954   0.258  1.00  0.00     0.155 C 
BRANCH   7   8
HETATM    8  C4  UNL     1      -2.354   0.263   0.538  1.00  0.00     0.167 C 
HETATM    9  O1  UNL     1      -2.797   0.891  -0.623  1.00  0.00    -0.381 OA
HETATM   10  C3  UNL     1      -3.277   2.142  -0.249  1.00  0.00     0.198 C 
HETATM   11  C2  UNL     1      -4.412   2.041   0.743  1.00  0.00     0.298 C 
HETATM   12  N1  UNL     1      -4.718   0.673   1.090  1.00  0.00     0.088 N 
HETATM   13  C1  UNL     1      -5.653   0.068   0.165  1.00  0.00     0.310 C 
HETATM   14  C11 UNL     1      -3.567  -0.136   1.337  1.00  0.00     0.305 C 
ENDBRANCH   7   8
ENDBRANCH   5   7
ENDBRANCH   3   5
ENDBRANCH   1   3
BRANCH   1  15
HETATM   15  C7  UNL     1       2.658  -2.327  -2.029  1.00  0.00     0.199 C 
HETATM   16  N4  UNL     1       3.648  -2.600  -1.263  1.00  0.00    -0.293 N 
ATOM     17  H4  UNL     1       4.344  -3.288  -1.551  1.00  0.00     0.187 HD
BRANCH  16  18
HETATM   18  N5  UNL     1       3.770  -1.956  -0.040  1.00  0.00    -0.271 N 
ATOM     19  H5  UNL     1       3.346  -2.362   0.794  1.00  0.00     0.190 HD
BRANCH  18  20
HETATM   20  C8  UNL     1       4.495  -0.715   0.053  1.00  0.00     0.190 C 
HETATM   21  N6  UNL     1       4.916  -0.174   1.150  1.00  0.00    -0.360 N 
HETATM   22  C9  UNL     1       5.605   1.067   0.884  1.00  0.00     0.142 C 
ATOM     23  H6  UNL     1       4.779  -0.571   2.080  1.00  0.00     0.162 HD
HETATM   24  C10 UNL     1       5.716   1.172  -0.619  1.00  0.00     0.142 C 
HETATM   25  N7  UNL     1       4.851   0.094  -1.061  1.00  0.00    -0.360 N 
ATOM     26  H7  UNL     1       4.546  -0.060  -2.022  1.00  0.00     0.162 HD
ENDBRANCH  18  20
ENDBRANCH  16  18
ENDBRANCH   1  15
TORSDOF 7
