REMARK  5 active torsions:
REMARK  status: ('A' for Active; 'I' for Inactive)
REMARK       I    between atoms: N3_6  and  C3_8 
REMARK    1  A    between atoms: C5_12  and  C6_13 
REMARK    2  A    between atoms: C6_13  and  C7_14 
REMARK    3  A    between atoms: C6_13  and  C10_20 
REMARK    4  A    between atoms: C10_20  and  N6_21 
REMARK    5  A    between atoms: C10_20  and  C11_25 
ROOT
HETATM    1  C6  UNL     1      -1.418  -0.175  -0.368  1.00  0.00     0.134 C 
ENDROOT
BRANCH   1   2
HETATM    2  C5  UNL     1       0.046  -0.016  -0.383  1.00  0.00     0.044 A 
HETATM    3  N1  UNL     1       0.834  -0.753  -1.182  1.00  0.00    -0.298 N 
HETATM    4  C1  UNL     1       0.432  -1.791  -2.134  1.00  0.00     0.177 C 
HETATM    5  N2  UNL     1       2.110  -0.408  -0.997  1.00  0.00    -0.283 N 
HETATM    6  C2  UNL     1       2.149   0.561  -0.069  1.00  0.00     0.125 A 
ATOM      7  H2  UNL     1       2.915  -0.810  -1.477  1.00  0.00     0.188 HD
HETATM    8  N3  UNL     1       3.177   1.181   0.408  1.00  0.00    -0.296 N 
HETATM    9  C4  UNL     1       0.865   0.815   0.322  1.00  0.00     0.077 A 
HETATM   10  C3  UNL     1       4.496   0.926   0.012  1.00  0.00     0.334 C 
ATOM     11  H3  UNL     1       3.019   1.899   1.115  1.00  0.00     0.171 HD
HETATM   12  N4  UNL     1       5.276  -0.079   0.611  1.00  0.00    -0.040 NA
HETATM   13  O1  UNL     1       5.028   1.613  -0.918  1.00  0.00    -0.251 OA
ENDBRANCH   1   2
BRANCH   1  14
HETATM   14  C7  UNL     1      -1.738  -1.187   0.707  1.00  0.00     0.063 A 
HETATM   15  N5  UNL     1      -1.848  -2.504   0.616  1.00  0.00    -0.362 N 
HETATM   16  C8  UNL     1      -2.132  -3.196   1.671  1.00  0.00     0.096 A 
ATOM     17  H5  UNL     1      -1.710  -2.970  -0.281  1.00  0.00     0.165 HD
HETATM   18  C9  UNL     1      -2.310  -2.525   2.853  1.00  0.00     0.068 A 
HETATM   19  S1  UNL     1      -2.050  -0.902   2.361  1.00  0.00    -0.086 SA
ENDBRANCH   1  14
BRANCH   1  20
HETATM   20  C10 UNL     1      -2.211   1.039  -0.058  1.00  0.00     0.288 C 
BRANCH  20  21
HETATM   21  N6  UNL     1      -1.978   1.645   1.215  1.00  0.00    -0.066 N 
ATOM     22  H63 UNL     1      -2.107   0.953   1.953  1.00  0.00     0.275 HD
ATOM     23  H62 UNL     1      -0.984   1.848   1.322  1.00  0.00     0.275 HD
ATOM     24  H61 UNL     1      -2.523   2.480   1.428  1.00  0.00     0.275 HD
ENDBRANCH  20  21
BRANCH  20  25
HETATM   25  C11 UNL     1      -2.171   2.047  -1.171  1.00  0.00     0.262 C 
HETATM   26  N7  UNL     1      -1.923   3.415  -0.867  1.00  0.00    -0.060 NA
HETATM   27  O2  UNL     1      -2.348   1.733  -2.361  1.00  0.00    -0.275 OA
ENDBRANCH  20  25
ENDBRANCH   1  20
TORSDOF 5
