REMARK  2 active torsions:
REMARK  status: ('A' for Active; 'I' for Inactive)
REMARK    1  A    between atoms: C3_7  and  N3_8 
REMARK       I    between atoms: N4_11  and  C4_12 
REMARK    2  A    between atoms: C5_15  and  N6_16 
ROOT
HETATM    1  C1  UNL     1       2.823  -0.299  -0.633  1.00  0.00     0.180 C 
HETATM    2  N1  UNL     1       1.507   0.156  -0.194  1.00  0.00    -0.136 N 
HETATM    3  C2  UNL     1       1.328   1.352   0.395  1.00  0.00     0.354 A 
HETATM    4  O1  UNL     1       2.324   2.104   0.573  1.00  0.00    -0.245 OA
HETATM    5  N2  UNL     1       0.088   1.724   0.783  1.00  0.00    -0.140 N 
ATOM      6  H2  UNL     1      -0.063   2.628   1.231  1.00  0.00     0.189 HD
HETATM    7  C3  UNL     1      -0.950   0.884   0.570  1.00  0.00     0.705 A 
HETATM    8  N4  UNL     1      -0.759  -0.308  -0.019  1.00  0.00     0.073 N 
HETATM    9  C4  UNL     1      -1.858  -1.171  -0.232  1.00  0.00     0.370 C 
HETATM   10  N5  UNL     1      -3.169  -0.824   0.156  1.00  0.00    -0.038 NA
HETATM   11  O2  UNL     1      -1.662  -2.281  -0.783  1.00  0.00    -0.249 OA
HETATM   12  C5  UNL     1       0.469  -0.683  -0.406  1.00  0.00     0.707 A 
ENDROOT
BRANCH   7  13
HETATM   13  N3  UNL     1      -2.124   1.232   0.935  1.00  0.00    -0.233 N 
ATOM     14  H32 UNL     1      -2.269   2.137   1.382  1.00  0.00     0.174 HD
ATOM     15  H31 UNL     1      -2.907   0.598   0.774  1.00  0.00     0.174 HD
ENDBRANCH   7  13
BRANCH  12  16
HETATM   16  N6  UNL     1       0.663  -1.845  -0.982  1.00  0.00    -0.233 N 
ATOM     17  H62 UNL     1       1.597  -2.130  -1.276  1.00  0.00     0.174 HD
ATOM     18  H61 UNL     1      -0.120  -2.478  -1.142  1.00  0.00     0.174 HD
ENDBRANCH  12  16
TORSDOF 2
