REMARK  4 active torsions:
REMARK  status: ('A' for Active; 'I' for Inactive)
REMARK    1  A    between atoms: N1_1  and  N2_4 
REMARK    2  A    between atoms: N2_4  and  C1_6 
REMARK    3  A    between atoms: C3_12  and  C4_13 
REMARK       I    between atoms: C4_13  and  N5_15 
REMARK    4  A    between atoms: N5_15  and  N6_17 
ROOT
HETATM    1  C1  UNL     1       1.854  -0.568   0.152  1.00  0.00     0.147 A 
HETATM    2  N3  UNL     1       1.878  -1.642   0.989  1.00  0.00    -0.336 N 
ATOM      3  H3  UNL     1       2.748  -2.119   1.225  1.00  0.00     0.168 HD
HETATM    4  C2  UNL     1       0.695  -2.041   1.489  1.00  0.00     0.182 A 
HETATM    5  N4  UNL     1      -0.451  -1.428   1.191  1.00  0.00    -0.346 N 
ATOM      6  H4  UNL     1      -1.314  -1.781   1.604  1.00  0.00     0.167 HD
HETATM    7  C3  UNL     1      -0.520  -0.356   0.363  1.00  0.00     0.131 A 
HETATM    8  C5  UNL     1       0.678   0.074  -0.164  1.00  0.00     0.124 A 
HETATM    9  N7  UNL     1       0.725   1.200  -1.053  1.00  0.00    -0.096 NA
ENDROOT
BRANCH   7  10
HETATM   10  C4  UNL     1      -1.754   0.309   0.037  1.00  0.00     0.288 C 
HETATM   11  O1  UNL     1      -1.721   1.298  -0.743  1.00  0.00    -0.264 OA
HETATM   12  N5  UNL     1      -3.019  -0.071   0.535  1.00  0.00    -0.271 N 
ATOM     13  H5  UNL     1      -3.069  -0.869   1.168  1.00  0.00     0.189 HD
BRANCH  12  14
HETATM   14  N6  UNL     1      -4.205   0.587   0.208  1.00  0.00    -0.342 N 
ATOM     15  H62 UNL     1      -4.137   1.383  -0.426  1.00  0.00     0.176 HD
ATOM     16  H61 UNL     1      -5.119   0.312   0.568  1.00  0.00     0.176 HD
ENDBRANCH  12  14
ENDBRANCH   7  10
BRANCH   1  17
HETATM   17  N2  UNL     1       2.985  -0.195  -0.319  1.00  0.00    -0.290 N 
ATOM     18  H2  UNL     1       3.812  -0.722  -0.038  1.00  0.00     0.188 HD
BRANCH  17  19
HETATM   19  N1  UNL     1       3.165   0.877  -1.186  1.00  0.00    -0.344 N 
ATOM     20  H12 UNL     1       2.327   1.392  -1.456  1.00  0.00     0.176 HD
ATOM     21  H11 UNL     1       4.066   1.174  -1.561  1.00  0.00     0.176 HD
ENDBRANCH  17  19
ENDBRANCH   1  17
TORSDOF 4
