REMARK  3 active torsions:
REMARK  status: ('A' for Active; 'I' for Inactive)
REMARK    1  A    between atoms: N1_1  and  N2_4 
REMARK    2  A    between atoms: N2_4  and  C1_6 
REMARK    3  A    between atoms: C4_15  and  C5_16 
ROOT
HETATM    1  C1  UNL     1      -0.743   0.302  -0.134  1.00  0.00     0.142 A 
HETATM    2  N3  UNL     1      -0.654   1.634  -0.308  1.00  0.00    -0.292 N 
ATOM      3  H3  UNL     1      -1.512   2.156  -0.484  1.00  0.00     0.172 HD
HETATM    4  C2  UNL     1       0.505   2.312  -0.262  1.00  0.00     0.327 A 
HETATM    5  O1  UNL     1       0.562   3.571  -0.430  1.00  0.00    -0.247 OA
HETATM    6  N4  UNL     1       1.643   1.637  -0.032  1.00  0.00    -0.296 N 
ATOM      7  H4  UNL     1       2.535   2.131   0.007  1.00  0.00     0.171 HD
HETATM    8  C3  UNL     1       1.597   0.296   0.148  1.00  0.00     0.139 A 
HETATM    9  N5  UNL     1       2.788  -0.441   0.394  1.00  0.00    -0.081 NA
HETATM   10  C4  UNL     1       0.414  -0.406   0.103  1.00  0.00     0.115 A 
ENDROOT
BRANCH   1  11
HETATM   11  N2  UNL     1      -1.841  -0.350  -0.176  1.00  0.00    -0.291 N 
ATOM     12  H2  UNL     1      -1.806  -1.359  -0.032  1.00  0.00     0.188 HD
BRANCH  11  13
HETATM   13  N1  UNL     1      -3.087   0.237  -0.408  1.00  0.00    -0.344 N 
ATOM     14  H12 UNL     1      -3.104   1.247  -0.550  1.00  0.00     0.176 HD
ATOM     15  H11 UNL     1      -3.964  -0.284  -0.442  1.00  0.00     0.176 HD
ENDBRANCH  11  13
ENDBRANCH   1  11
BRANCH  10  16
HETATM   16  C5  UNL     1       0.384  -1.863   0.301  1.00  0.00     0.272 C 
HETATM   17  N6  UNL     1      -0.843  -2.570   0.251  1.00  0.00    -0.057 NA
HETATM   18  O2  UNL     1       1.423  -2.525   0.518  1.00  0.00    -0.271 OA
ENDBRANCH  10  16
TORSDOF 3
