REMARK  2 active torsions:
REMARK  status: ('A' for Active; 'I' for Inactive)
REMARK    1  A    between atoms: N1_1  and  N2_4 
REMARK    2  A    between atoms: N5_15  and  N6_16 
ROOT
HETATM    1  N2  UNL     1      -1.808  -0.421   0.106  1.00  0.00    -0.135 N 
ATOM      2  H2  UNL     1      -2.478   0.347   0.073  1.00  0.00     0.205 HD
HETATM    3  C1  UNL     1      -0.536  -0.196   0.040  1.00  0.00     0.735 A 
HETATM    4  N3  UNL     1       0.381  -1.210   0.082  1.00  0.00    -0.128 N 
ATOM      5  H3  UNL     1       0.054  -2.172   0.168  1.00  0.00     0.205 HD
HETATM    6  N4  UNL     1       1.673  -0.977   0.015  1.00  0.00    -0.271 N 
ATOM      7  H4  UNL     1       2.332  -1.755   0.049  1.00  0.00     0.188 HD
HETATM    8  C2  UNL     1       2.126   0.277  -0.098  1.00  0.00     0.186 A 
HETATM    9  S1  UNL     1       3.725   0.560  -0.181  1.00  0.00    -0.053 SA
HETATM   10  C3  UNL     1       1.241   1.359  -0.147  1.00  0.00     0.321 A 
HETATM   11  O1  UNL     1       1.706   2.522  -0.254  1.00  0.00    -0.262 OA
HETATM   12  N5  UNL     1      -0.070   1.071  -0.075  1.00  0.00    -0.049 N 
ENDROOT
BRANCH   1  13
HETATM   13  N1  UNL     1      -2.239  -1.743   0.224  1.00  0.00    -0.331 N 
ATOM     14  H12 UNL     1      -1.556  -2.500   0.256  1.00  0.00     0.177 HD
ATOM     15  H11 UNL     1      -3.242  -1.920   0.276  1.00  0.00     0.177 HD
ENDBRANCH   1  13
BRANCH  12  16
HETATM   16  N6  UNL     1      -0.994   2.122  -0.119  1.00  0.00    -0.321 N 
ATOM     17  H62 UNL     1      -1.989   1.903  -0.064  1.00  0.00     0.178 HD
ATOM     18  H61 UNL     1      -0.643   3.076  -0.206  1.00  0.00     0.178 HD
ENDBRANCH  12  16
TORSDOF 2
