REMARK  3 active torsions:
REMARK  status: ('A' for Active; 'I' for Inactive)
REMARK    1  A    between atoms: N1_2  and  C3_4 
REMARK    2  A    between atoms: C5_11  and  N4_12 
REMARK    3  A    between atoms: C6_15  and  N5_16 
ROOT
HETATM    1  C3  UNL     1      -0.413   0.340  -0.144  1.00  0.00     0.685 C 
HETATM    2  N2  UNL     1       0.034   1.584   0.222  1.00  0.00    -0.141 N 
ATOM      3  H2  UNL     1      -0.693   2.243   0.500  1.00  0.00     0.189 HD
HETATM    4  C4  UNL     1       1.309   2.070   0.269  1.00  0.00     0.340 C 
HETATM    5  O1  UNL     1       1.521   3.259  -0.070  1.00  0.00    -0.246 OA
HETATM    6  N3  UNL     1       2.367   1.337   0.662  1.00  0.00    -0.291 N 
ATOM      7  H3  UNL     1       3.180   1.860   0.988  1.00  0.00     0.172 HD
HETATM    8  C5  UNL     1       2.480  -0.016   0.676  1.00  0.00     0.147 C 
HETATM    9  C6  UNL     1       1.681  -0.900  -0.059  1.00  0.00     0.159 C 
HETATM   10  N6  UNL     1       0.393  -0.729  -0.422  1.00  0.00    -0.173 N 
ATOM     11  H6  UNL     1      -0.027  -1.483  -0.966  1.00  0.00     0.186 HD
ENDROOT
BRANCH   1  12
HETATM   12  N1  UNL     1      -1.785   0.101  -0.232  1.00  0.00    -0.226 N 
HETATM   13  C1  UNL     1      -2.364  -0.650  -1.321  1.00  0.00     0.168 C 
HETATM   14  C2  UNL     1      -2.693   0.602   0.819  1.00  0.00     0.168 C 
ENDBRANCH   1  12
BRANCH   9  15
HETATM   15  N5  UNL     1       2.240  -1.991  -0.430  1.00  0.00    -0.382 N 
ATOM     16  H52 UNL     1       3.214  -2.120  -0.156  1.00  0.00     0.157 HD
ATOM     17  H51 UNL     1       1.658  -2.635  -0.965  1.00  0.00     0.157 HD
ENDBRANCH   9  15
BRANCH   8  18
HETATM   18  N4  UNL     1       3.371  -0.576   1.396  1.00  0.00    -0.382 N 
ATOM     19  H42 UNL     1       3.953   0.068   1.931  1.00  0.00     0.157 HD
ATOM     20  H41 UNL     1       3.456  -1.592   1.407  1.00  0.00     0.157 HD
ENDBRANCH   8  18
TORSDOF 3
