REMARK  7 active torsions:
REMARK  status: ('A' for Active; 'I' for Inactive)
REMARK    1  A    between atoms: N1_1  and  C1_4 
REMARK    2  A    between atoms: N3_8  and  C3_10 
REMARK    3  A    between atoms: C3_10  and  C4_11 
REMARK    4  A    between atoms: C4_11  and  O1_12 
REMARK    5  A    between atoms: N5_18  and  C7_19 
REMARK    6  A    between atoms: C7_19  and  C8_20 
REMARK    7  A    between atoms: C8_20  and  N6_21 
REMARK       I    between atoms: N6_21  and  C9_24 
REMARK       I    between atoms: C9_24  and  N7_25 
REMARK       I    between atoms: C9_24  and  N8_29 
ROOT
HETATM    1  C1  UNL     1      -1.682  -2.731   0.337  1.00  0.00     0.679 A 
HETATM    2  N2  UNL     1      -2.818  -2.054   0.116  1.00  0.00    -0.175 N 
ATOM      3  H2  UNL     1      -3.690  -2.576   0.036  1.00  0.00     0.186 HD
HETATM    4  C2  UNL     1      -2.856  -0.691  -0.007  1.00  0.00     0.147 A 
HETATM    5  N3  UNL     1      -3.953  -0.081  -0.223  1.00  0.00    -0.372 N 
ATOM      6  H3  UNL     1      -4.809  -0.630  -0.303  1.00  0.00     0.161 HD
HETATM    7  C5  UNL     1      -1.647  -0.017   0.108  1.00  0.00     0.123 A 
HETATM    8  N4  UNL     1      -1.287   1.278   0.049  1.00  0.00    -0.346 N 
ATOM      9  H4  UNL     1      -1.928   2.055  -0.109  1.00  0.00     0.167 HD
HETATM   10  C6  UNL     1       0.038   1.400   0.228  1.00  0.00     0.185 A 
HETATM   11  N5  UNL     1       0.520   0.173   0.402  1.00  0.00    -0.325 N 
HETATM   12  C10 UNL     1      -0.480  -0.708   0.335  1.00  0.00     0.155 A 
HETATM   13  N9  UNL     1      -0.523  -2.075   0.447  1.00  0.00    -0.174 N 
ATOM     14  H9  UNL     1       0.338  -2.595   0.616  1.00  0.00     0.186 HD
ENDROOT
BRANCH  11  15
HETATM   15  C7  UNL     1       1.922  -0.187   0.620  1.00  0.00     0.159 C 
BRANCH  15  16
HETATM   16  C8  UNL     1       2.511  -0.394  -0.730  1.00  0.00     0.257 C 
BRANCH  16  17
HETATM   17  N6  UNL     1       3.867  -0.789  -0.740  1.00  0.00    -0.021 N 
HETATM   18  C9  UNL     1       4.775   0.222  -0.300  1.00  0.00     0.575 C 
HETATM   19  N7  UNL     1       4.529   1.448  -1.027  1.00  0.00    -0.026 N 
HETATM   20  N8  UNL     1       4.803   0.427   1.093  1.00  0.00    -0.026 N 
ATOM     21  H73 UNL     1       4.568   1.310  -2.037  1.00  0.00     0.278 HD
ATOM     22  H72 UNL     1       3.557   1.748  -0.957  1.00  0.00     0.278 HD
ATOM     23  H71 UNL     1       5.177   2.170  -0.713  1.00  0.00     0.278 HD
ATOM     24  H83 UNL     1       3.864   0.621   1.440  1.00  0.00     0.278 HD
ATOM     25  H82 UNL     1       4.992  -0.452   1.575  1.00  0.00     0.278 HD
ATOM     26  H81 UNL     1       5.451   1.149   1.407  1.00  0.00     0.278 HD
ATOM     27  H62 UNL     1       3.994  -1.643  -0.197  1.00  0.00     0.281 HD
ATOM     28  H61 UNL     1       4.133  -1.129  -1.664  1.00  0.00     0.281 HD
ENDBRANCH  16  17
ENDBRANCH  15  16
ENDBRANCH  11  15
BRANCH   1  29
HETATM   29  N1  UNL     1      -1.691  -4.030   0.450  1.00  0.00    -0.234 N 
ATOM     30  H12 UNL     1      -2.576  -4.531   0.366  1.00  0.00     0.174 HD
ATOM     31  H11 UNL     1      -0.827  -4.545   0.618  1.00  0.00     0.174 HD
ENDBRANCH   1  29
BRANCH   5  32
HETATM   32  C3  UNL     1      -4.035   1.334  -0.358  1.00  0.00     0.147 C 
BRANCH  32  33
HETATM   33  C4  UNL     1      -5.488   1.735  -0.698  1.00  0.00     0.183 C 
BRANCH  33  34
HETATM   34  O1  UNL     1      -6.351   1.333   0.294  1.00  0.00    -0.399 OA
ATOM     35  H1  UNL     1      -7.244   1.580   0.085  1.00  0.00     0.209 HD
ENDBRANCH  33  34
ENDBRANCH  32  33
ENDBRANCH   5  32
TORSDOF 7
