REMARK  9 active torsions:
REMARK  status: ('A' for Active; 'I' for Inactive)
REMARK    1  A    between atoms: N1_1  and  C1_5 
REMARK    2  A    between atoms: C2_9  and  C3_10 
REMARK    3  A    between atoms: C3_10  and  C4_11 
REMARK    4  A    between atoms: C4_11  and  C5_12 
REMARK    5  A    between atoms: C5_12  and  N3_13 
REMARK    6  A    between atoms: N3_13  and  C6_16 
REMARK    7  A    between atoms: C6_16  and  C7_17 
REMARK    8  A    between atoms: C9_21  and  C10_22 
REMARK    9  A    between atoms: C10_22  and  O1_23 
ROOT
HETATM    1  C5  UNL     1       0.842  -0.362   0.988  1.00  0.00     0.232 C 
ENDROOT
BRANCH   1   2
HETATM    2  C4  UNL     1       1.493   0.898   0.434  1.00  0.00     0.032 C 
BRANCH   2   3
HETATM    3  C3  UNL     1       2.910   0.943   0.967  1.00  0.00     0.063 C 
BRANCH   3   4
HETATM    4  C2  UNL     1       3.762  -0.208   0.571  1.00  0.00     0.329 C 
HETATM    5  N2  UNL     1       3.953  -0.382  -0.864  1.00  0.00     0.003 N 
HETATM    6  C1  UNL     1       4.985   0.650  -0.665  1.00  0.00     0.526 C 
ATOM      7  H22 UNL     1       3.197  -0.292  -1.543  1.00  0.00     0.285 HD
ATOM      8  H21 UNL     1       4.143  -1.286  -1.297  1.00  0.00     0.285 HD
HETATM    9  O3  UNL     1       5.117   0.200   0.623  1.00  0.00    -0.305 OA
BRANCH   6  10
HETATM   10  N1  UNL     1       6.191   0.431  -1.439  1.00  0.00    -0.027 N 
ATOM     11  H13 UNL     1       6.572  -0.497  -1.255  1.00  0.00     0.279 HD
ATOM     12  H12 UNL     1       5.969   0.332  -2.430  1.00  0.00     0.279 HD
ATOM     13  H11 UNL     1       6.906   1.146  -1.301  1.00  0.00     0.279 HD
ENDBRANCH   6  10
ENDBRANCH   3   4
ENDBRANCH   2   3
ENDBRANCH   1   2
BRANCH   1  14
HETATM   14  N3  UNL     1      -0.517  -0.500   0.573  1.00  0.00    -0.073 N 
ATOM     15  H32 UNL     1      -1.011  -1.193   1.135  1.00  0.00     0.277 HD
ATOM     16  H31 UNL     1      -1.068   0.323   0.818  1.00  0.00     0.277 HD
BRANCH  14  17
HETATM   17  C6  UNL     1      -0.608  -0.794  -0.818  1.00  0.00     0.265 C 
BRANCH  17  18
HETATM   18  C7  UNL     1      -2.114  -0.824  -1.146  1.00  0.00     0.165 C 
HETATM   19  C8  UNL     1      -2.698  -1.900  -0.258  1.00  0.00     0.164 C 
HETATM   20  N4  UNL     1      -4.140  -1.907  -0.318  1.00  0.00    -0.143 NA
HETATM   21  N5  UNL     1      -4.629  -0.653  -0.642  1.00  0.00    -0.114 NA
HETATM   22  C9  UNL     1      -3.761   0.360  -0.096  1.00  0.00     0.254 C 
HETATM   23  O2  UNL     1      -2.620   0.423  -0.873  1.00  0.00    -0.358 OA
BRANCH  22  24
HETATM   24  C10 UNL     1      -4.535   1.672  -0.154  1.00  0.00     0.214 C 
BRANCH  24  25
HETATM   25  O1  UNL     1      -5.696   1.546   0.601  1.00  0.00    -0.397 OA
ATOM     26  H1  UNL     1      -6.178   2.364   0.565  1.00  0.00     0.209 HD
ENDBRANCH  24  25
ENDBRANCH  22  24
ENDBRANCH  17  18
ENDBRANCH  14  17
ENDBRANCH   1  14
TORSDOF 9
