REMARK  7 active torsions:
REMARK  status: ('A' for Active; 'I' for Inactive)
REMARK    1  A    between atoms: N1_1  and  C1_5 
REMARK    2  A    between atoms: C1_5  and  C2_6 
REMARK    3  A    between atoms: C2_6  and  N2_7 
REMARK    4  A    between atoms: N2_7  and  C3_9 
REMARK    5  A    between atoms: N5_16  and  C7_18 
REMARK    6  A    between atoms: C7_18  and  C8_19 
REMARK    7  A    between atoms: C8_19  and  N6_20 
REMARK       I    between atoms: N6_20  and  C9_23 
REMARK       I    between atoms: C9_23  and  N7_24 
REMARK       I    between atoms: C9_23  and  N8_28 
ROOT
HETATM    1  C3  UNL     1       2.454   0.470  -0.254  1.00  0.00     0.120 A 
HETATM    2  C4  UNL     1       2.565  -0.350   0.857  1.00  0.00     0.094 A 
HETATM    3  C5  UNL     1       1.444  -0.910   1.428  1.00  0.00     0.135 A 
HETATM    4  N3  UNL     1       1.565  -1.765   2.584  1.00  0.00    -0.082 NA
HETATM    5  N4  UNL     1       0.250  -0.634   0.871  1.00  0.00    -0.179 N 
ATOM      6  H4  UNL     1      -0.590  -1.042   1.282  1.00  0.00     0.185 HD
HETATM    7  C6  UNL     1       0.123   0.160  -0.207  1.00  0.00     0.680 A 
HETATM    8  N5  UNL     1      -1.021   0.417  -0.735  1.00  0.00    -0.224 N 
ATOM      9  H5  UNL     1      -1.047   1.027  -1.552  1.00  0.00     0.177 HD
HETATM   10  N9  UNL     1       1.240   0.715  -0.771  1.00  0.00    -0.177 N 
ATOM     11  H9  UNL     1       1.149   1.318  -1.589  1.00  0.00     0.185 HD
ENDROOT
BRANCH   8  12
HETATM   12  C7  UNL     1      -2.258  -0.103  -0.242  1.00  0.00     0.165 C 
BRANCH  12  13
HETATM   13  C8  UNL     1      -3.303   0.092  -1.330  1.00  0.00     0.257 C 
BRANCH  13  14
HETATM   14  N6  UNL     1      -4.602  -0.384  -0.983  1.00  0.00    -0.021 N 
HETATM   15  C9  UNL     1      -5.209   0.408   0.064  1.00  0.00     0.575 C 
HETATM   16  N7  UNL     1      -6.537  -0.109   0.366  1.00  0.00    -0.026 N 
HETATM   17  N8  UNL     1      -5.361   1.759  -0.411  1.00  0.00    -0.026 N 
ATOM     18  H73 UNL     1      -7.126  -0.162  -0.465  1.00  0.00     0.278 HD
ATOM     19  H72 UNL     1      -6.518  -1.102   0.598  1.00  0.00     0.278 HD
ATOM     20  H71 UNL     1      -6.965   0.450   1.104  1.00  0.00     0.278 HD
ATOM     21  H83 UNL     1      -4.483   2.158  -0.743  1.00  0.00     0.278 HD
ATOM     22  H82 UNL     1      -5.879   1.809  -1.289  1.00  0.00     0.278 HD
ATOM     23  H81 UNL     1      -5.789   2.318   0.327  1.00  0.00     0.278 HD
ATOM     24  H62 UNL     1      -5.207  -0.439  -1.803  1.00  0.00     0.281 HD
ATOM     25  H61 UNL     1      -4.579  -1.373  -0.733  1.00  0.00     0.281 HD
ENDBRANCH  13  14
ENDBRANCH  12  13
ENDBRANCH   8  12
BRANCH   1  26
HETATM   26  N2  UNL     1       3.535   0.976  -0.761  1.00  0.00    -0.374 N 
ATOM     27  H2  UNL     1       3.427   1.577  -1.578  1.00  0.00     0.161 HD
BRANCH  26  28
HETATM   28  C2  UNL     1       4.859   0.768  -0.280  1.00  0.00     0.148 C 
BRANCH  28  29
HETATM   29  C1  UNL     1       5.487  -0.527  -0.744  1.00  0.00     0.249 C 
BRANCH  29  30
HETATM   30  N1  UNL     1       6.830  -0.571  -0.161  1.00  0.00    -0.078 N 
ATOM     31  H13 UNL     1       7.392   0.251  -0.380  1.00  0.00     0.274 HD
ATOM     32  H12 UNL     1       6.834  -0.461   0.853  1.00  0.00     0.274 HD
ATOM     33  H11 UNL     1       7.254  -1.445  -0.474  1.00  0.00     0.274 HD
ENDBRANCH  29  30
ENDBRANCH  28  29
ENDBRANCH  26  28
ENDBRANCH   1  26
TORSDOF 7
