REMARK  12 active torsions:
REMARK  status: ('A' for Active; 'I' for Inactive)
REMARK    1  A    between atoms: N1_1  and  C1_4 
REMARK    2  A    between atoms: C2_7  and  N3_8 
REMARK    3  A    between atoms: N3_8  and  N4_10 
REMARK    4  A    between atoms: C3_15  and  N6_16 
REMARK    5  A    between atoms: N6_16  and  C4_18 
REMARK    6  A    between atoms: C4_18  and  C5_19 
REMARK    7  A    between atoms: C5_19  and  C6_20 
REMARK    8  A    between atoms: C6_20  and  N7_21 
REMARK    9  A    between atoms: N7_21  and  C7_23 
REMARK   10  A    between atoms: C7_23  and  C8_24 
REMARK   11  A    between atoms: C8_24  and  C9_25 
REMARK   12  A    between atoms: C9_25  and  N8_26 
ROOT
HETATM    1  C1  UNL     1      -4.527   1.839   0.001  1.00  0.00     0.705 A 
HETATM    2  N2  UNL     1      -5.573   0.974  -0.140  1.00  0.00    -0.020 N 
ATOM      3  H2  UNL     1      -6.532   1.318  -0.187  1.00  0.00     0.203 HD
HETATM    4  C2  UNL     1      -5.307  -0.352  -0.216  1.00  0.00     0.725 A 
HETATM    5  N5  UNL     1      -4.032  -0.757  -0.151  1.00  0.00    -0.020 N 
ATOM      6  H5  UNL     1      -3.845  -1.758  -0.211  1.00  0.00     0.203 HD
HETATM    7  C3  UNL     1      -2.980   0.073  -0.011  1.00  0.00     0.707 A 
HETATM    8  N9  UNL     1      -3.265   1.384   0.063  1.00  0.00    -0.022 N 
ATOM      9  H9  UNL     1      -2.502   2.052   0.169  1.00  0.00     0.203 HD
ENDROOT
BRANCH   7  10
HETATM   10  N6  UNL     1      -1.772  -0.362   0.046  1.00  0.00    -0.225 N 
ATOM     11  H6  UNL     1      -1.580  -1.362  -0.014  1.00  0.00     0.177 HD
BRANCH  10  12
HETATM   12  C4  UNL     1      -0.697   0.578   0.195  1.00  0.00     0.139 C 
BRANCH  12  13
HETATM   13  C5  UNL     1       0.605  -0.219   0.270  1.00  0.00     0.039 C 
BRANCH  13  14
HETATM   14  C6  UNL     1       1.721   0.785   0.433  1.00  0.00     0.115 C 
BRANCH  14  15
HETATM   15  N7  UNL     1       2.995   0.125   0.517  1.00  0.00    -0.421 N 
ATOM     16  H7  UNL     1       3.549   0.106   1.374  1.00  0.00     0.153 HD
BRANCH  15  17
HETATM   17  C7  UNL     1       3.429  -0.507  -0.699  1.00  0.00     0.115 C 
BRANCH  17  18
HETATM   18  C8  UNL     1       4.773  -1.147  -0.411  1.00  0.00     0.046 C 
BRANCH  18  19
HETATM   19  C9  UNL     1       5.707  -0.020   0.015  1.00  0.00     0.231 C 
BRANCH  19  20
HETATM   20  N8  UNL     1       7.021  -0.516   0.316  1.00  0.00    -0.079 N 
ATOM     21  H83 UNL     1       6.990  -1.260   1.013  1.00  0.00     0.274 HD
ATOM     22  H82 UNL     1       7.408  -1.048  -0.464  1.00  0.00     0.274 HD
ATOM     23  H81 UNL     1       7.646   0.238   0.601  1.00  0.00     0.274 HD
ENDBRANCH  19  20
ENDBRANCH  18  19
ENDBRANCH  17  18
ENDBRANCH  15  17
ENDBRANCH  14  15
ENDBRANCH  13  14
ENDBRANCH  12  13
ENDBRANCH  10  12
ENDBRANCH   7  10
BRANCH   4  24
HETATM   24  N3  UNL     1      -6.316  -1.148  -0.347  1.00  0.00    -0.138 N 
ATOM     25  H3  UNL     1      -7.265  -0.776  -0.389  1.00  0.00     0.205 HD
BRANCH  24  26
HETATM   26  N4  UNL     1      -6.094  -2.508  -0.429  1.00  0.00    -0.331 N 
ATOM     27  H42 UNL     1      -5.139  -2.864  -0.385  1.00  0.00     0.177 HD
ATOM     28  H41 UNL     1      -6.891  -3.136  -0.532  1.00  0.00     0.177 HD
ENDBRANCH  24  26
ENDBRANCH   4  24
BRANCH   1  29
HETATM   29  N1  UNL     1      -4.819   3.084   0.067  1.00  0.00    -0.234 N 
ATOM     30  H12 UNL     1      -5.778   3.430   0.020  1.00  0.00     0.174 HD
ATOM     31  H11 UNL     1      -4.037   3.731   0.172  1.00  0.00     0.174 HD
ENDBRANCH   1  29
TORSDOF 12
