REMARK  10 active torsions:
REMARK  status: ('A' for Active; 'I' for Inactive)
REMARK    1  A    between atoms: N1_1  and  C1_4 
REMARK    2  A    between atoms: C2_7  and  N3_8 
REMARK    3  A    between atoms: N3_8  and  C3_9 
REMARK    4  A    between atoms: C3_9  and  C4_10 
REMARK    5  A    between atoms: C4_10  and  C5_11 
REMARK    6  A    between atoms: C5_11  and  N4_12 
REMARK    7  A    between atoms: N4_12  and  C6_14 
REMARK    8  A    between atoms: C6_14  and  C7_15 
REMARK    9  A    between atoms: C7_15  and  N5_16 
REMARK   10  A    between atoms: C7_15  and  N6_20 
ROOT
HETATM    1  C1  UNL     1      -5.157  -0.823  -0.514  1.00  0.00     0.680 A 
HETATM    2  N2  UNL     1      -3.828  -0.981  -0.448  1.00  0.00    -0.162 N 
ATOM      3  H2  UNL     1      -3.416  -1.796  -0.901  1.00  0.00     0.187 HD
HETATM    4  C2  UNL     1      -2.995  -0.107   0.195  1.00  0.00     0.224 A 
HETATM    5  C8  UNL     1      -3.587   1.007   0.812  1.00  0.00     0.154 A 
HETATM    6  N7  UNL     1      -3.094   2.038   1.510  1.00  0.00    -0.278 N 
ATOM      7  H7  UNL     1      -2.112   2.202   1.732  1.00  0.00     0.189 HD
HETATM    8  N8  UNL     1      -4.105   2.799   1.856  1.00  0.00    -0.240 N 
ATOM      9  H8  UNL     1      -4.027   3.660   2.397  1.00  0.00     0.208 HD
HETATM   10  N9  UNL     1      -5.237   2.292   1.404  1.00  0.00    -0.268 N 
ATOM     11  H9  UNL     1      -6.166   2.691   1.537  1.00  0.00     0.190 HD
HETATM   12  C9  UNL     1      -4.951   1.148   0.732  1.00  0.00     0.170 A 
HETATM   13  N10 UNL     1      -5.722   0.248   0.080  1.00  0.00    -0.173 N 
ATOM     14  H10 UNL     1      -6.733   0.380   0.037  1.00  0.00     0.186 HD
ENDROOT
BRANCH   4  15
HETATM   15  N3  UNL     1      -1.822  -0.274   0.236  1.00  0.00    -0.401 NA
BRANCH  15  16
HETATM   16  C3  UNL     1      -0.501  -0.432   0.300  1.00  0.00     0.159 C 
BRANCH  16  17
HETATM   17  C4  UNL     1       0.368   0.817   0.364  1.00  0.00     0.078 C 
BRANCH  17  18
HETATM   18  C5  UNL     1       1.828   0.293   0.429  1.00  0.00     0.120 C 
BRANCH  18  19
HETATM   19  N4  UNL     1       2.137  -0.478  -0.712  1.00  0.00    -0.417 N 
ATOM     20  H4  UNL     1       1.483  -0.580  -1.488  1.00  0.00     0.153 HD
BRANCH  19  21
HETATM   21  C6  UNL     1       3.407  -1.101  -0.716  1.00  0.00     0.175 C 
BRANCH  21  22
HETATM   22  C7  UNL     1       4.623  -0.251  -0.840  1.00  0.00     0.394 C 
BRANCH  22  23
HETATM   23  N5  UNL     1       4.863   0.714   0.171  1.00  0.00    -0.049 N 
ATOM     24  H53 UNL     1       4.043   1.314   0.263  1.00  0.00     0.276 HD
ATOM     25  H52 UNL     1       4.868   0.252   1.081  1.00  0.00     0.276 HD
ATOM     26  H51 UNL     1       5.696   1.296   0.086  1.00  0.00     0.276 HD
ENDBRANCH  22  23
BRANCH  22  27
HETATM   27  N6  UNL     1       5.769  -1.171  -0.854  1.00  0.00    -0.049 N 
ATOM     28  H63 UNL     1       5.794  -1.799  -0.051  1.00  0.00     0.276 HD
ATOM     29  H62 UNL     1       5.702  -1.890  -1.574  1.00  0.00     0.276 HD
ATOM     30  H61 UNL     1       6.602  -0.589  -0.939  1.00  0.00     0.276 HD
ENDBRANCH  22  27
ENDBRANCH  21  22
ENDBRANCH  19  21
ENDBRANCH  18  19
ENDBRANCH  17  18
ENDBRANCH  16  17
ENDBRANCH  15  16
ENDBRANCH   4  15
BRANCH   1  31
HETATM   31  N1  UNL     1      -5.939  -1.651  -1.121  1.00  0.00    -0.234 N 
ATOM     32  H12 UNL     1      -5.512  -2.461  -1.570  1.00  0.00     0.174 HD
ATOM     33  H11 UNL     1      -6.951  -1.531  -1.171  1.00  0.00     0.174 HD
ENDBRANCH   1  31
TORSDOF 10
