REMARK  10 active torsions:
REMARK  status: ('A' for Active; 'I' for Inactive)
REMARK    1  A    between atoms: C2_2  and  O1_3 
REMARK    2  A    between atoms: O1_3  and  C3_4 
REMARK    3  A    between atoms: C3_4  and  N1_5 
REMARK    4  A    between atoms: C5_7  and  C6_8 
REMARK    5  A    between atoms: C6_8  and  N2_9 
REMARK    6  A    between atoms: N2_9  and  C7_11 
REMARK    7  A    between atoms: C12_22  and  N6_23 
REMARK       I    between atoms: N8_29  and  C14_31 
REMARK    8  A    between atoms: N12_38  and  C16_39 
REMARK    9  A    between atoms: C16_39  and  C17_40 
REMARK   10  A    between atoms: C17_40  and  O3_41 
ROOT
HETATM    1  C7  UNL     1      -0.205  -0.851  -0.352  1.00  0.00     0.683 A 
HETATM    2  N3  UNL     1      -0.501  -2.111  -0.108  1.00  0.00    -0.182 N 
ATOM      3  H3  UNL     1       0.152  -2.894  -0.090  1.00  0.00     0.184 HD
HETATM    4  C8  UNL     1      -1.808  -2.169   0.110  1.00  0.00     0.164 A 
HETATM    5  C9  UNL     1      -2.640  -3.229   0.381  1.00  0.00     0.292 A 
HETATM    6  O2  UNL     1      -2.118  -4.369   0.481  1.00  0.00    -0.265 OA
HETATM    7  N4  UNL     1      -3.931  -3.010   0.524  1.00  0.00    -0.148 N 
HETATM    8  C10 UNL     1      -4.828  -4.101   0.809  1.00  0.00     0.179 C 
HETATM    9  C11 UNL     1      -4.411  -1.762   0.403  1.00  0.00     0.724 A 
HETATM   10  N5  UNL     1      -5.755  -1.617   0.541  1.00  0.00    -0.021 N 
ATOM     11  H5  UNL     1      -6.338  -2.430   0.740  1.00  0.00     0.203 HD
HETATM   12  C12 UNL     1      -6.307  -0.418   0.416  1.00  0.00     0.705 A 
HETATM   13  N7  UNL     1      -5.554   0.645   0.158  1.00  0.00    -0.021 N 
ATOM     14  H7  UNL     1      -5.995   1.560   0.066  1.00  0.00     0.203 HD
HETATM   15  C13 UNL     1      -4.193   0.536   0.013  1.00  0.00     0.722 A 
HETATM   16  N8  UNL     1      -3.674   1.625  -0.203  1.00  0.00    -0.162 N 
ATOM     17  H8  UNL     1      -2.661   1.627  -0.324  1.00  0.00     0.187 HD
HETATM   18  C14 UNL     1      -4.323   2.886  -0.304  1.00  0.00     0.200 C 
HETATM   19  N9  UNL     1      -4.447   3.556   0.776  1.00  0.00    -0.373 N 
ATOM     20  H91 UNL     1      -4.913   4.461   0.704  1.00  0.00     0.158 HD
ATOM     21  H92 UNL     1      -4.073   3.139   1.628  1.00  0.00     0.158 HD
HETATM   22  N10 UNL     1      -4.838   3.461  -1.478  1.00  0.00    -0.063 NA
HETATM   23  N11 UNL     1      -3.660  -0.664   0.138  1.00  0.00     0.043 N 
HETATM   24  C15 UNL     1      -2.318  -0.864  -0.013  1.00  0.00     0.198 A 
HETATM   25  N12 UNL     1      -1.338  -0.035  -0.297  1.00  0.00    -0.162 N 
ENDROOT
BRANCH   1  26
HETATM   26  N2  UNL     1       1.007  -0.469  -0.626  1.00  0.00    -0.221 N 
ATOM     27  H2  UNL     1       1.178   0.520  -0.807  1.00  0.00     0.178 HD
BRANCH  26  28
HETATM   28  C6  UNL     1       2.101  -1.367  -0.684  1.00  0.00     0.179 C 
BRANCH  28  29
HETATM   29  C5  UNL     1       3.375  -0.593  -0.658  1.00  0.00    -0.006 A 
HETATM   30  C4  UNL     1       4.079  -0.231   0.471  1.00  0.00     0.122 A 
HETATM   31  N1  UNL     1       5.179   0.459   0.119  1.00  0.00    -0.280 N 
HETATM   32  N13 UNL     1       5.170   0.530  -1.208  1.00  0.00    -0.308 N 
HETATM   33  C18 UNL     1       4.096  -0.094  -1.714  1.00  0.00     0.117 A 
ATOM     34  H13 UNL     1       5.884   0.997  -1.767  1.00  0.00     0.186 HD
BRANCH  31  35
HETATM   35  C3  UNL     1       6.180   1.016   1.026  1.00  0.00     0.315 C 
BRANCH  35  36
HETATM   36  O1  UNL     1       7.204   0.133   1.293  1.00  0.00    -0.371 OA
BRANCH  36  37
HETATM   37  C2  UNL     1       7.907  -0.268   0.187  1.00  0.00     0.165 C 
HETATM   38  C1  UNL     1       8.575   0.858  -0.555  1.00  0.00     0.033 C 
ENDBRANCH  36  37
ENDBRANCH  35  36
ENDBRANCH  31  35
ENDBRANCH  28  29
ENDBRANCH  26  28
ENDBRANCH   1  26
BRANCH  25  39
HETATM   39  C16 UNL     1      -1.125   1.316  -0.566  1.00  0.00     0.175 C 
BRANCH  39  40
HETATM   40  C17 UNL     1      -0.605   2.133   0.631  1.00  0.00     0.185 C 
BRANCH  40  41
HETATM   41  O3  UNL     1       0.593   1.742   1.133  1.00  0.00    -0.399 OA
ATOM     42  H3  UNL     1       0.914   2.246   1.872  1.00  0.00     0.209 HD
ENDBRANCH  40  41
ENDBRANCH  39  40
ENDBRANCH  25  39
BRANCH  12  43
HETATM   43  N6  UNL     1      -7.580  -0.287   0.542  1.00  0.00    -0.234 N 
ATOM     44  H62 UNL     1      -8.158  -1.103   0.740  1.00  0.00     0.174 HD
ATOM     45  H61 UNL     1      -8.005   0.635   0.446  1.00  0.00     0.174 HD
ENDBRANCH  12  43
TORSDOF 10
