REMARK  10 active torsions:
REMARK  status: ('A' for Active; 'I' for Inactive)
REMARK    1  A    between atoms: C3_5  and  C4_6 
REMARK    2  A    between atoms: C4_6  and  S1_7 
REMARK    3  A    between atoms: S1_7  and  N2_8 
REMARK    4  A    between atoms: N2_8  and  C5_9 
REMARK    5  A    between atoms: C5_9  and  C6_10 
REMARK    6  A    between atoms: C8_22  and  N8_23 
REMARK    7  A    between atoms: N8_23  and  C9_25 
REMARK    8  A    between atoms: C10_28  and  N10_29 
REMARK    9  A    between atoms: C14_37  and  N12_38 
REMARK   10  A    between atoms: C15_42  and  N13_43 
ROOT
HETATM    1  C9  UNL     1      -1.981   0.085  -0.563  1.00  0.00     0.146 A 
HETATM    2  N9  UNL     1      -1.641   1.347  -0.887  1.00  0.00    -0.176 N 
ATOM      3  H9  UNL     1      -0.645   1.558  -0.943  1.00  0.00     0.186 HD
HETATM    4  C10 UNL     1      -2.486   2.348  -1.142  1.00  0.00     0.679 A 
HETATM    5  N11 UNL     1      -3.793   2.092  -1.076  1.00  0.00    -0.176 N 
ATOM      6  H11 UNL     1      -4.458   2.841  -1.268  1.00  0.00     0.186 HD
HETATM    7  C11 UNL     1      -4.254   0.865  -0.761  1.00  0.00     0.130 A 
HETATM    8  C12 UNL     1      -3.349  -0.160  -0.502  1.00  0.00     0.034 A 
HETATM    9  C13 UNL     1      -3.963  -1.473  -0.254  1.00  0.00     0.083 C 
HETATM   10  C14 UNL     1      -5.134  -1.443   0.676  1.00  0.00     0.237 C 
HETATM   11  C15 UNL     1      -6.093  -0.337   0.433  1.00  0.00     0.315 C 
HETATM   12  N14 UNL     1      -5.641   0.583  -0.628  1.00  0.00    -0.341 N 
HETATM   13  C16 UNL     1      -6.547   1.239  -1.524  1.00  0.00     0.153 C 
ENDROOT
BRANCH   1  14
HETATM   14  N8  UNL     1      -1.061  -0.928  -0.243  1.00  0.00    -0.175 N 
ATOM     15  H8  UNL     1      -1.459  -1.833   0.010  1.00  0.00     0.186 HD
BRANCH  14  16
HETATM   16  C8  UNL     1       0.340  -0.843  -0.230  1.00  0.00     0.688 C 
HETATM   17  N1  UNL     1       1.047   0.114   0.519  1.00  0.00    -0.155 N 
HETATM   18  C1  UNL     1       0.403   1.094   1.412  1.00  0.00     0.178 C 
HETATM   19  C2  UNL     1       2.445   0.102   0.468  1.00  0.00     0.247 C 
HETATM   20  O1  UNL     1       3.100   0.803   1.274  1.00  0.00    -0.272 OA
HETATM   21  C3  UNL     1       3.286  -0.702  -0.504  1.00  0.00     0.128 C 
HETATM   22  C7  UNL     1       2.436  -1.804  -1.027  1.00  0.00     0.094 C 
HETATM   23  N7  UNL     1       1.049  -1.697  -0.924  1.00  0.00    -0.204 N 
ATOM     24  H7  UNL     1       0.514  -2.377  -1.463  1.00  0.00     0.183 HD
BRANCH  21  25
HETATM   25  C4  UNL     1       4.497  -1.119   0.238  1.00  0.00     0.112 C 
BRANCH  25  26
HETATM   26  S1  UNL     1       5.699  -2.066  -0.695  1.00  0.00    -0.064 SA
BRANCH  26  27
HETATM   27  N2  UNL     1       7.302  -1.685   0.095  1.00  0.00    -0.172 NA
BRANCH  27  28
HETATM   28  C5  UNL     1       7.945  -0.805  -0.850  1.00  0.00     0.202 C 
BRANCH  28  29
HETATM   29  C6  UNL     1       8.027   0.582  -0.308  1.00  0.00     0.128 A 
HETATM   30  N3  UNL     1       7.231   1.554  -0.804  1.00  0.00    -0.271 N 
HETATM   31  N4  UNL     1       7.479   2.635  -0.130  1.00  0.00    -0.227 N 
ATOM     32  H3  UNL     1       6.560   1.457  -1.566  1.00  0.00     0.190 HD
HETATM   33  N5  UNL     1       8.387   2.398   0.761  1.00  0.00    -0.227 N 
ATOM     34  H4  UNL     1       7.026   3.536  -0.280  1.00  0.00     0.210 HD
HETATM   35  N6  UNL     1       8.759   1.111   0.681  1.00  0.00    -0.271 N 
ATOM     36  H5  UNL     1       8.761   3.081   1.420  1.00  0.00     0.210 HD
ATOM     37  H6  UNL     1       9.455   0.634   1.255  1.00  0.00     0.190 HD
ENDBRANCH  28  29
ENDBRANCH  27  28
ENDBRANCH  26  27
ENDBRANCH  25  26
ENDBRANCH  21  25
ENDBRANCH  14  16
ENDBRANCH   1  14
BRANCH   4  38
HETATM   38  N10 UNL     1      -2.045   3.529  -1.428  1.00  0.00    -0.234 N 
ATOM     39 2H10 UNL     1      -1.045   3.725  -1.478  1.00  0.00     0.174 HD
ATOM     40 1H10 UNL     1      -2.691   4.294  -1.623  1.00  0.00     0.174 HD
ENDBRANCH   4  38
BRANCH  10  41
HETATM   41  N12 UNL     1      -5.824  -2.714   0.580  1.00  0.00    -0.071 N 
ATOM     42 3H12 UNL     1      -6.089  -2.946  -0.377  1.00  0.00     0.274 HD
ATOM     43 2H12 UNL     1      -5.208  -3.509   0.750  1.00  0.00     0.274 HD
ATOM     44 1H12 UNL     1      -6.623  -2.694   1.214  1.00  0.00     0.274 HD
ENDBRANCH  10  41
BRANCH  11  45
HETATM   45  N13 UNL     1      -6.183   0.430   1.690  1.00  0.00    -0.056 N 
ATOM     46 3H13 UNL     1      -6.428  -0.145   2.496  1.00  0.00     0.276 HD
ATOM     47 2H13 UNL     1      -5.277   0.751   2.032  1.00  0.00     0.276 HD
ATOM     48 1H13 UNL     1      -6.842   1.190   1.523  1.00  0.00     0.276 HD
ENDBRANCH  11  45
TORSDOF 10
