REMARK  10 active torsions:
REMARK  status: ('A' for Active; 'I' for Inactive)
REMARK    1  A    between atoms: O1_2  and  C2_3 
REMARK    2  A    between atoms: C2_3  and  C3_5 
REMARK    3  A    between atoms: C3_5  and  N1_6 
REMARK    4  A    between atoms: C3_5  and  C4_10 
REMARK       I    between atoms: C4_10  and  N2_12 
REMARK    5  A    between atoms: N2_12  and  N3_14 
REMARK    6  A    between atoms: C5_16  and  C7_18 
REMARK       I    between atoms: C7_18  and  N4_20 
REMARK    7  A    between atoms: N4_20  and  C8_21 
REMARK    8  A    between atoms: C8_21  and  C10_23 
REMARK    9  A    between atoms: C12_28  and  N7_29 
REMARK   10  A    between atoms: C15_34  and  N9_35 
ROOT
HETATM    1  C10 UNL     1      -2.059  -1.762   0.700  1.00  0.00     0.271 C 
HETATM    2  N5  UNL     1      -2.928  -2.706   1.241  1.00  0.00    -0.110 NA
HETATM    3  N6  UNL     1      -3.939  -3.078   0.413  1.00  0.00    -0.333 N 
ATOM      4  H6  UNL     1      -4.248  -4.047   0.336  1.00  0.00     0.175 HD
HETATM    5  C11 UNL     1      -4.538  -2.033  -0.338  1.00  0.00     0.191 C 
HETATM    6  C12 UNL     1      -3.786  -0.760  -0.454  1.00  0.00     0.267 C 
HETATM    7  O5  UNL     1      -2.705  -0.593   0.363  1.00  0.00    -0.337 OA
ENDROOT
BRANCH   1   8
HETATM    8  C8  UNL     1      -1.228  -2.261  -0.519  1.00  0.00     0.209 C 
HETATM    9  C9  UNL     1      -0.867  -3.699  -0.331  1.00  0.00     0.052 C 
BRANCH   8  10
HETATM   10  N4  UNL     1      -0.284  -1.348  -0.810  1.00  0.00    -0.401 NA
HETATM   11  C7  UNL     1       0.689  -0.408  -1.109  1.00  0.00     0.335 C 
HETATM   12  O4  UNL     1       0.504   0.746  -1.598  1.00  0.00    -0.250 OA
BRANCH  11  13
HETATM   13  C5  UNL     1       2.121  -0.721  -0.866  1.00  0.00     0.103 C 
HETATM   14  N3  UNL     1       2.980   0.177  -1.197  1.00  0.00    -0.296 N 
ATOM     15  H3  UNL     1       2.646   1.069  -1.563  1.00  0.00     0.187 HD
HETATM   16  C6  UNL     1       2.489  -2.036  -0.320  1.00  0.00     0.077 C 
BRANCH  14  17
HETATM   17  N2  UNL     1       4.331  -0.027  -1.073  1.00  0.00    -0.268 N 
HETATM   18  C4  UNL     1       5.245   1.076  -0.949  1.00  0.00     0.276 C 
HETATM   19  O3  UNL     1       4.789   2.248  -0.941  1.00  0.00    -0.269 OA
ATOM     20  H2  UNL     1       4.694  -0.980  -1.069  1.00  0.00     0.190 HD
BRANCH  18  21
HETATM   21  C3  UNL     1       6.698   0.794  -0.841  1.00  0.00     0.374 C 
BRANCH  21  22
HETATM   22  C2  UNL     1       7.316   1.452   0.329  1.00  0.00     0.298 C 
HETATM   23  O2  UNL     1       7.912   0.757   1.226  1.00  0.00    -0.262 OA
BRANCH  22  24
HETATM   24  O1  UNL     1       7.305   2.822   0.543  1.00  0.00    -0.324 OA
HETATM   25  C1  UNL     1       7.948   3.360   1.720  1.00  0.00     0.213 C 
ENDBRANCH  22  24
ENDBRANCH  21  22
BRANCH  21  26
HETATM   26  N1  UNL     1       6.915  -0.635  -0.734  1.00  0.00    -0.057 N 
ATOM     27  H13 UNL     1       7.901  -0.874  -0.626  1.00  0.00     0.275 HD
ATOM     28  H12 UNL     1       6.581  -1.016   0.151  1.00  0.00     0.275 HD
ATOM     29  H11 UNL     1       6.488  -1.089  -1.542  1.00  0.00     0.275 HD
ENDBRANCH  21  26
ENDBRANCH  18  21
ENDBRANCH  14  17
ENDBRANCH  11  13
ENDBRANCH   8  10
ENDBRANCH   1   8
BRANCH   6  30
HETATM   30  N7  UNL     1      -4.749   0.318  -0.162  1.00  0.00    -0.244 N 
HETATM   31  N8  UNL     1      -6.009   0.331  -0.601  1.00  0.00    -0.305 N 
HETATM   32  C13 UNL     1      -6.655   1.424  -0.209  1.00  0.00     0.126 A 
ATOM     33  H8  UNL     1      -6.425  -0.408  -1.168  1.00  0.00     0.186 HD
HETATM   34  C14 UNL     1      -5.778   2.173   0.526  1.00  0.00     0.070 A 
HETATM   35  C15 UNL     1      -5.786   3.359   1.196  1.00  0.00     0.115 A 
HETATM   36  C17 UNL     1      -4.582   1.445   0.537  1.00  0.00     0.141 A 
HETATM   37  N10 UNL     1      -4.676   3.788   1.834  1.00  0.00    -0.338 N 
HETATM   38  C16 UNL     1      -3.534   3.101   1.850  1.00  0.00     0.183 A 
ATOM     39  H10 UNL     1      -4.713   4.680   2.327  1.00  0.00     0.168 HD
HETATM   40  N11 UNL     1      -3.516   1.924   1.187  1.00  0.00    -0.336 N 
ATOM     41  H11 UNL     1      -2.654   1.378   1.182  1.00  0.00     0.168 HD
BRANCH  35  42
HETATM   42  N9  UNL     1      -6.869   4.066   1.217  1.00  0.00    -0.385 N 
ATOM     43  H92 UNL     1      -7.708   3.742   0.735  1.00  0.00     0.157 HD
ATOM     44  H91 UNL     1      -6.875   4.954   1.719  1.00  0.00     0.157 HD
ENDBRANCH  35  42
ENDBRANCH   6  30
TORSDOF 10
