REMARK  12 active torsions:
REMARK  status: ('A' for Active; 'I' for Inactive)
REMARK    1  A    between atoms: N1_2  and  C3_4 
REMARK    2  A    between atoms: C4_7  and  C5_8 
REMARK    3  A    between atoms: N3_14  and  C7_15 
REMARK    4  A    between atoms: C8_18  and  N5_19 
REMARK    5  A    between atoms: C10_29  and  C11_30 
REMARK    6  A    between atoms: C11_30  and  O5_31 
REMARK    7  A    between atoms: C11_30  and  C12_33 
REMARK    8  A    between atoms: C12_33  and  N8_34 
REMARK    9  A    between atoms: C12_33  and  C13_38 
REMARK   10  A    between atoms: C13_38  and  O6_39 
REMARK   11  A    between atoms: C13_38  and  C14_41 
REMARK   12  A    between atoms: C14_41  and  O7_42 
ROOT
HETATM    1  C3  UNL     1       0.422   0.602  -0.416  1.00  0.00     0.119 A 
HETATM    2  N2  UNL     1      -0.796   0.633   0.034  1.00  0.00    -0.338 N 
ATOM      3  H2  UNL     1      -1.534   1.036  -0.543  1.00  0.00     0.168 HD
HETATM    4  C4  UNL     1      -1.089   0.161   1.202  1.00  0.00     0.080 A 
HETATM    5  S2  UNL     1       0.469  -0.388   1.730  1.00  0.00    -0.072 SA
HETATM    6  C10 UNL     1       1.411   0.061   0.363  1.00  0.00     0.059 A 
ENDROOT
BRANCH   4   7
HETATM    7  C5  UNL     1      -2.275   0.125   2.021  1.00  0.00     0.204 C 
HETATM    8  C6  UNL     1      -2.167  -0.962   3.112  1.00  0.00     0.226 C 
HETATM    9  O1  UNL     1      -3.118  -0.561   4.050  1.00  0.00    -0.256 OA
HETATM   10  S1  UNL     1      -4.446  -0.101   3.080  1.00  0.00     0.378 S 
HETATM   11  O2  UNL     1      -5.544  -1.076   3.088  1.00  0.00    -0.175 OA
HETATM   12  O3  UNL     1      -4.872   1.321   3.387  1.00  0.00    -0.175 OA
HETATM   13  N3  UNL     1      -3.564  -0.104   1.526  1.00  0.00    -0.071 N 
BRANCH  13  14
HETATM   14  C7  UNL     1      -4.264  -0.293   0.347  1.00  0.00     0.715 A 
HETATM   15  N4  UNL     1      -4.751   0.789  -0.316  1.00  0.00    -0.021 N 
HETATM   16  C8  UNL     1      -5.447   0.632  -1.454  1.00  0.00     0.694 A 
ATOM     17  H4  UNL     1      -4.587   1.726   0.053  1.00  0.00     0.203 HD
HETATM   18  N6  UNL     1      -5.684  -0.605  -1.974  1.00  0.00    -0.141 N 
HETATM   19  C9  UNL     1      -5.203  -1.656  -1.322  1.00  0.00     0.352 A 
ATOM     20  H6  UNL     1      -6.215  -0.720  -2.838  1.00  0.00     0.189 HD
HETATM   21  O4  UNL     1      -5.403  -2.808  -1.769  1.00  0.00    -0.246 OA
HETATM   22  N7  UNL     1      -4.511  -1.494  -0.190  1.00  0.00    -0.139 N 
ATOM     23  H7  UNL     1      -4.155  -2.323   0.286  1.00  0.00     0.189 HD
BRANCH  16  24
HETATM   24  N5  UNL     1      -5.954   1.627  -2.128  1.00  0.00    -0.234 N 
ATOM     25  H52 UNL     1      -5.777   2.553  -1.739  1.00  0.00     0.174 HD
ATOM     26  H51 UNL     1      -6.483   1.508  -2.992  1.00  0.00     0.174 HD
ENDBRANCH  16  24
ENDBRANCH  13  14
ENDBRANCH   4   7
BRANCH   1  27
HETATM   27  N1  UNL     1       0.724   1.015  -1.789  1.00  0.00    -0.375 N 
HETATM   28  C1  UNL     1       1.330   2.267  -2.114  1.00  0.00     0.150 C 
HETATM   29  C2  UNL     1       0.413   0.043  -2.842  1.00  0.00     0.150 C 
ENDBRANCH   1  27
BRANCH   6  30
HETATM   30  C11 UNL     1       2.910   0.109   0.237  1.00  0.00     0.195 C 
BRANCH  30  31
HETATM   31  O5  UNL     1       3.259  -0.006   1.677  1.00  0.00    -0.388 OA
ATOM     32  H5  UNL     1       4.205   0.024   1.597  1.00  0.00     0.210 HD
ENDBRANCH  30  31
BRANCH  30  33
HETATM   33  C12 UNL     1       3.536  -1.099  -0.317  1.00  0.00     0.247 C 
BRANCH  33  34
HETATM   34  N8  UNL     1       3.052  -2.382  -0.018  1.00  0.00    -0.070 N 
ATOM     35  H83 UNL     1       3.029  -2.479   0.997  1.00  0.00     0.274 HD
ATOM     36  H82 UNL     1       2.060  -2.406  -0.256  1.00  0.00     0.274 HD
ATOM     37  H81 UNL     1       3.487  -3.221  -0.403  1.00  0.00     0.274 HD
ENDBRANCH  33  34
BRANCH  33  38
HETATM   38  C13 UNL     1       5.037  -1.107  -0.024  1.00  0.00     0.174 C 
BRANCH  38  39
HETATM   39  O6  UNL     1       5.229  -1.571   1.303  1.00  0.00    -0.391 OA
ATOM     40  H6  UNL     1       6.161  -1.576   1.485  1.00  0.00     0.210 HD
ENDBRANCH  38  39
BRANCH  38  41
HETATM   41  C14 UNL     1       5.680   0.264  -0.099  1.00  0.00     0.198 C 
BRANCH  41  42
HETATM   42  O7  UNL     1       7.059   0.141   0.143  1.00  0.00    -0.398 OA
ATOM     43  H7  UNL     1       7.462   1.000   0.096  1.00  0.00     0.209 HD
ENDBRANCH  41  42
ENDBRANCH  38  41
ENDBRANCH  33  38
ENDBRANCH  30  33
ENDBRANCH   6  30
TORSDOF 12
