REMARK  15 active torsions:
REMARK  status: ('A' for Active; 'I' for Inactive)
REMARK    1  A    between atoms: N1_1  and  N2_4 
REMARK    2  A    between atoms: N2_4  and  C1_5 
REMARK    3  A    between atoms: C1_5  and  O1_6 
REMARK    4  A    between atoms: C1_5  and  C2_8 
REMARK    5  A    between atoms: C2_8  and  O2_9 
REMARK    6  A    between atoms: C3_11  and  N3_12 
REMARK       I    between atoms: N3_12  and  C4_14 
REMARK       I    between atoms: C4_14  and  N4_16 
REMARK    7  A    between atoms: C6_18  and  C7_19 
REMARK    8  A    between atoms: C7_19  and  N5_20 
REMARK    9  A    between atoms: C12_33  and  O6_34 
REMARK   10  A    between atoms: C13_36  and  O7_37 
REMARK   11  A    between atoms: C14_39  and  O8_40 
REMARK   12  A    between atoms: C15_42  and  C16_43 
REMARK   13  A    between atoms: C16_43  and  O9_44 
REMARK   14  A    between atoms: C16_43  and  C17_46 
REMARK   15  A    between atoms: C17_46  and  O10_47 
ROOT
HETATM    1  C2  UNL     1      -2.464   0.212  -0.095  1.00  0.00     0.149 C 
HETATM    2  C3  UNL     1      -1.312  -0.474  -0.718  1.00  0.00     0.061 C 
HETATM    3  C12 UNL     1      -1.478  -1.774  -1.387  1.00  0.00     0.198 C 
HETATM    4  C13 UNL     1      -2.707  -1.788  -2.230  1.00  0.00     0.181 C 
HETATM    5  C14 UNL     1      -3.394  -0.466  -2.343  1.00  0.00     0.159 C 
HETATM    6  C15 UNL     1      -3.619   0.240  -1.041  1.00  0.00     0.092 C 
ENDROOT
BRANCH   2   7
HETATM    7  N3  UNL     1      -0.108  -0.426   0.129  1.00  0.00    -0.309 N 
HETATM    8  C4  UNL     1       1.037   0.345  -0.199  1.00  0.00     0.346 C 
HETATM    9  O3  UNL     1       0.978   1.006  -1.280  1.00  0.00    -0.245 OA
HETATM   10  N4  UNL     1       2.186   0.381   0.626  1.00  0.00    -0.200 N 
HETATM   11  C5  UNL     1       3.317   1.074   0.407  1.00  0.00     0.151 A 
HETATM   12  N8  UNL     1       2.311  -0.281   1.758  1.00  0.00    -0.232 N 
HETATM   13  C6  UNL     1       4.173   0.821   1.460  1.00  0.00     0.063 A 
HETATM   14  N7  UNL     1       3.509  -0.018   2.265  1.00  0.00    -0.287 N 
ATOM     15  H7  UNL     1       3.871  -0.399   3.139  1.00  0.00     0.188 HD
ATOM     16  H8  UNL     1       1.607  -0.891   2.174  1.00  0.00     0.209 HD
ATOM     17  H3  UNL     1      -0.097  -0.972   0.991  1.00  0.00     0.170 HD
BRANCH  13  18
HETATM   18  C7  UNL     1       5.518   1.372   1.627  1.00  0.00     0.193 C 
BRANCH  18  19
HETATM   19  N5  UNL     1       6.540   0.538   1.025  1.00  0.00    -0.304 N 
HETATM   20  C8  UNL     1       6.868   0.776  -0.270  1.00  0.00     0.101 A 
HETATM   21  C9  UNL     1       7.829   0.023  -0.906  1.00  0.00     0.092 A 
HETATM   22  C10 UNL     1       8.451  -0.976  -0.200  1.00  0.00     0.250 A 
HETATM   23  O4  UNL     1       9.351  -1.717  -0.719  1.00  0.00    -0.268 OA
HETATM   24  N6  UNL     1       8.128  -1.219   1.094  1.00  0.00    -0.275 N 
HETATM   25  C11 UNL     1       7.173  -0.448   1.677  1.00  0.00     0.329 A 
ATOM     26  H6  UNL     1       8.591  -1.962   1.617  1.00  0.00     0.173 HD
HETATM   27  O5  UNL     1       6.867  -0.666   2.878  1.00  0.00    -0.246 OA
ENDBRANCH  18  19
ENDBRANCH  13  18
ENDBRANCH   2   7
BRANCH   1  28
HETATM   28  C1  UNL     1      -2.876  -0.112   1.272  1.00  0.00     0.271 C 
BRANCH  28  29
HETATM   29  N2  UNL     1      -3.387  -1.465   1.499  1.00  0.00    -0.113 NA
BRANCH  29  30
HETATM   30  N1  UNL     1      -4.214  -1.482   2.650  1.00  0.00    -0.346 N 
ATOM     31  H12 UNL     1      -4.414  -0.664   3.225  1.00  0.00     0.172 HD
ATOM     32  H11 UNL     1      -4.570  -2.425   2.808  1.00  0.00     0.172 HD
ENDBRANCH  29  30
ENDBRANCH  28  29
BRANCH  28  33
HETATM   33  O1  UNL     1      -2.044   0.206   2.312  1.00  0.00    -0.374 OA
ATOM     34  H1  UNL     1      -1.712   1.084   2.165  1.00  0.00     0.212 HD
ENDBRANCH  28  33
ENDBRANCH   1  28
BRANCH   1  35
HETATM   35  O2  UNL     1      -2.001   1.576  -0.037  1.00  0.00    -0.379 OA
ATOM     36  H2  UNL     1      -1.734   1.786  -0.924  1.00  0.00     0.211 HD
ENDBRANCH   1  35
BRANCH   3  37
HETATM   37  O6  UNL     1      -1.432  -2.913  -0.615  1.00  0.00    -0.387 OA
ATOM     38  H6  UNL     1      -1.539  -3.752  -1.047  1.00  0.00     0.210 HD
ENDBRANCH   3  37
BRANCH   6  39
HETATM   39  C16 UNL     1      -4.159   1.609  -1.378  1.00  0.00     0.151 C 
BRANCH  39  40
HETATM   40  O9  UNL     1      -5.229   1.450  -2.313  1.00  0.00    -0.393 OA
ATOM     41  H9  UNL     1      -5.569   2.311  -2.525  1.00  0.00     0.210 HD
ENDBRANCH  39  40
BRANCH  39  42
HETATM   42  C17 UNL     1      -4.732   2.357  -0.192  1.00  0.00     0.196 C 
BRANCH  42  43
HETATM   43  O10 UNL     1      -5.235   3.587  -0.709  1.00  0.00    -0.398 OA
ATOM     44  H10 UNL     1      -5.594   4.056   0.035  1.00  0.00     0.209 HD
ENDBRANCH  42  43
ENDBRANCH  39  42
ENDBRANCH   6  39
BRANCH   4  45
HETATM   45  O7  UNL     1      -3.609  -2.801  -1.822  1.00  0.00    -0.390 OA
ATOM     46  H7  UNL     1      -4.392  -2.810  -2.359  1.00  0.00     0.210 HD
ENDBRANCH   4  45
BRANCH   5  47
HETATM   47  O8  UNL     1      -4.652  -0.732  -2.901  1.00  0.00    -0.392 OA
ATOM     48  H8  UNL     1      -5.089   0.109  -2.973  1.00  0.00     0.210 HD
ENDBRANCH   5  47
TORSDOF 15
