REMARK  7 active torsions:
REMARK  status: ('A' for Active; 'I' for Inactive)
REMARK    1  A    between atoms: C7_7  and  N1_8 
REMARK    2  A    between atoms: N1_8  and  C8_10 
REMARK    3  A    between atoms: C11_13  and  C12_14 
REMARK    4  A    between atoms: C12_14  and  C13_15 
REMARK    5  A    between atoms: C13_15  and  C14_16 
REMARK    6  A    between atoms: C14_16  and  C15_17 
REMARK    7  A    between atoms: C14_16  and  C21_23 
ROOT
HETATM    1  C8  UNL     1       2.675   0.296  -0.839  1.00  0.00     0.032 A 
HETATM    2  C9  UNL     1       1.772  -0.044  -1.862  1.00  0.00     0.030 A 
HETATM    3  C10 UNL     1       0.444  -0.293  -1.637  1.00  0.00     0.009 A 
HETATM    4  C11 UNL     1      -0.068  -0.218  -0.363  1.00  0.00    -0.058 A 
HETATM    5  C27 UNL     1       0.787   0.113   0.665  1.00  0.00     0.009 A 
HETATM    6  C28 UNL     1       2.129   0.364   0.421  1.00  0.00     0.030 A 
ENDROOT
BRANCH   4   7
HETATM    7  C12 UNL     1      -1.532  -0.491  -0.101  1.00  0.00     0.039 C 
BRANCH   7   8
HETATM    8  C13 UNL     1      -2.244   0.798  -0.220  1.00  0.00     0.019 C 
BRANCH   8   9
HETATM    9  C14 UNL     1      -3.713   0.816  -0.042  1.00  0.00     0.052 C 
BRANCH   9  10
HETATM   10  C15 UNL     1      -4.177   0.304   1.286  1.00  0.00    -0.050 A 
HETATM   11  C16 UNL     1      -4.108  -1.040   1.585  1.00  0.00     0.008 A 
HETATM   12  C17 UNL     1      -4.534  -1.495   2.813  1.00  0.00     0.001 A 
HETATM   13  C18 UNL     1      -5.039  -0.656   3.784  1.00  0.00     0.000 A 
HETATM   14  C19 UNL     1      -5.104   0.680   3.478  1.00  0.00     0.001 A 
HETATM   15  C20 UNL     1      -4.682   1.142   2.255  1.00  0.00     0.008 A 
ENDBRANCH   9  10
BRANCH   9  16
HETATM   16  C21 UNL     1      -4.532   0.329  -1.155  1.00  0.00    -0.050 A 
HETATM   17  C22 UNL     1      -5.901   0.385  -1.042  1.00  0.00     0.008 A 
HETATM   18  C23 UNL     1      -6.715  -0.056  -2.096  1.00  0.00     0.001 A 
HETATM   19  C24 UNL     1      -6.140  -0.548  -3.249  1.00  0.00     0.000 A 
HETATM   20  C25 UNL     1      -4.772  -0.596  -3.342  1.00  0.00     0.001 A 
HETATM   21  C26 UNL     1      -3.981  -0.158  -2.297  1.00  0.00     0.008 A 
ENDBRANCH   9  16
ENDBRANCH   8   9
ENDBRANCH   7   8
ENDBRANCH   4   7
BRANCH   1  22
HETATM   22  N1  UNL     1       4.021   0.584  -1.159  1.00  0.00    -0.356 N 
ATOM     23  H1  UNL     1       4.184   1.097  -2.025  1.00  0.00     0.166 HD
BRANCH  22  24
HETATM   24  C7  UNL     1       5.152   0.240  -0.414  1.00  0.00     0.039 A 
HETATM   25  C5  UNL     1       6.384   0.793  -0.780  1.00  0.00    -0.035 A 
HETATM   26  C4  UNL     1       7.497   0.440  -0.086  1.00  0.00     0.009 A 
HETATM   27  C6  UNL     1       6.416   1.757  -1.929  1.00  0.00     0.050 C 
HETATM   28  C3  UNL     1       7.487  -0.441   0.969  1.00  0.00     0.007 A 
HETATM   29  C2  UNL     1       6.282  -0.993   1.339  1.00  0.00    -0.060 A 
HETATM   30  C1  UNL     1       6.193  -1.953   2.471  1.00  0.00     0.048 C 
HETATM   31  C29 UNL     1       5.131  -0.632   0.626  1.00  0.00     0.036 A 
ENDBRANCH  22  24
ENDBRANCH   1  22
TORSDOF 7
