REMARK  10 active torsions:
REMARK  status: ('A' for Active; 'I' for Inactive)
REMARK    1  A    between atoms: C2_2  and  C3_3 
REMARK    2  A    between atoms: C2_2  and  C13_13 
REMARK    3  A    between atoms: C3_3  and  C4_4 
REMARK    4  A    between atoms: C4_4  and  C5_5 
REMARK    5  A    between atoms: C6_6  and  C7_7 
REMARK    6  A    between atoms: C13_13  and  C14_14 
REMARK    7  A    between atoms: C14_14  and  C15_15 
REMARK    8  A    between atoms: C15_15  and  N2_25 
REMARK    9  A    between atoms: N1_16  and  C16_18 
REMARK   10  A    between atoms: N2_25  and  C23_27 
ROOT
HETATM    1  C15 UNL     1      -2.329  -0.353  -0.508  1.00  0.00     0.082 C 
HETATM    2  N1  UNL     1      -3.358   0.395  -0.279  1.00  0.00    -0.346 N 
ATOM      3  H1  UNL     1      -4.002   0.569  -1.051  1.00  0.00     0.167 HD
ENDROOT
BRANCH   1   4
HETATM    4  C14 UNL     1      -1.301  -0.704   0.498  1.00  0.00     0.081 C 
BRANCH   4   5
HETATM    5  C13 UNL     1       0.101  -0.343   0.002  1.00  0.00     0.045 C 
BRANCH   5   6
HETATM    6  C2  UNL     1       1.127  -0.702   1.001  1.00  0.00    -0.060 C 
HETATM    7  C1  UNL     1       0.765  -1.242   2.167  1.00  0.00     0.019 C 
BRANCH   6   8
HETATM    8  C3  UNL     1       2.532  -0.494   0.762  1.00  0.00     0.061 C 
BRANCH   8   9
HETATM    9  C4  UNL     1       3.139  -0.014  -0.225  1.00  0.00    -0.128 C 
BRANCH   9  10
HETATM   10  C5  UNL     1       3.814   0.520  -1.322  1.00  0.00     0.056 C 
HETATM   11  C6  UNL     1       5.075   0.719  -1.525  1.00  0.00     0.019 C 
BRANCH  11  12
HETATM   12  C7  UNL     1       6.212   0.466  -0.708  1.00  0.00    -0.036 A 
HETATM   13  C8  UNL     1       6.305  -0.203   0.472  1.00  0.00     0.011 A 
HETATM   14  C9  UNL     1       7.475  -0.323   1.225  1.00  0.00     0.001 A 
HETATM   15  C10 UNL     1       8.612   0.261   0.766  1.00  0.00     0.000 A 
HETATM   16  C11 UNL     1       8.591   0.952  -0.418  1.00  0.00     0.001 A 
HETATM   17  C12 UNL     1       7.429   1.051  -1.133  1.00  0.00     0.011 A 
ENDBRANCH  11  12
ENDBRANCH   9  10
ENDBRANCH   8   9
ENDBRANCH   6   8
ENDBRANCH   5   6
ENDBRANCH   4   5
ENDBRANCH   1   4
BRANCH   1  18
HETATM   18  N2  UNL     1      -2.235  -0.863  -1.829  1.00  0.00    -0.346 N 
ATOM     19  H2  UNL     1      -1.447  -0.577  -2.410  1.00  0.00     0.167 HD
BRANCH  18  20
HETATM   20  C23 UNL     1      -3.204  -1.764  -2.378  1.00  0.00     0.033 A 
HETATM   21  C24 UNL     1      -3.123  -2.194  -3.684  1.00  0.00     0.029 A 
HETATM   22  C25 UNL     1      -4.018  -3.057  -4.275  1.00  0.00     0.002 A 
HETATM   23  C26 UNL     1      -5.073  -3.522  -3.495  1.00  0.00     0.000 A 
HETATM   24  C27 UNL     1      -5.209  -3.127  -2.181  1.00  0.00     0.002 A 
HETATM   25  C28 UNL     1      -4.263  -2.251  -1.648  1.00  0.00     0.029 A 
ENDBRANCH  18  20
ENDBRANCH   1  18
BRANCH   2  26
HETATM   26  C16 UNL     1      -3.652   0.993   0.981  1.00  0.00     0.033 A 
HETATM   27  C17 UNL     1      -3.967   0.270   2.087  1.00  0.00     0.029 A 
HETATM   28  C18 UNL     1      -4.248   0.883   3.281  1.00  0.00     0.003 A 
HETATM   29  C19 UNL     1      -4.211   2.259   3.371  1.00  0.00     0.007 A 
HETATM   30  C20 UNL     1      -3.892   3.003   2.253  1.00  0.00    -0.060 A 
HETATM   31  C21 UNL     1      -3.844   4.481   2.308  1.00  0.00     0.048 C 
HETATM   32  C22 UNL     1      -3.613   2.367   1.058  1.00  0.00     0.036 A 
ENDBRANCH   2  26
TORSDOF 10
