REMARK  8 active torsions:
REMARK  status: ('A' for Active; 'I' for Inactive)
REMARK    1  A    between atoms: C2_2  and  C3_3 
REMARK    2  A    between atoms: C3_3  and  C4_4 
REMARK    3  A    between atoms: C7_7  and  N1_8 
REMARK    4  A    between atoms: N1_8  and  C8_10 
REMARK    5  A    between atoms: C8_10  and  C9_11 
REMARK    6  A    between atoms: C12_14  and  C13_15 
REMARK    7  A    between atoms: C13_15  and  C14_16 
REMARK    8  A    between atoms: C13_15  and  C20_22 
ROOT
HETATM    1  C9  UNL     1      -0.053  -0.874   0.085  1.00  0.00    -0.041 A 
HETATM    2  C10 UNL     1      -0.522  -0.350   1.275  1.00  0.00     0.009 A 
HETATM    3  C11 UNL     1      -1.844   0.029   1.455  1.00  0.00     0.009 A 
HETATM    4  C12 UNL     1      -2.762  -0.112   0.413  1.00  0.00    -0.045 A 
HETATM    5  C26 UNL     1      -2.292  -0.636  -0.776  1.00  0.00     0.009 A 
HETATM    6  C27 UNL     1      -0.981  -1.004  -0.932  1.00  0.00     0.009 A 
ENDROOT
BRANCH   4   7
HETATM    7  C13 UNL     1      -4.142   0.311   0.660  1.00  0.00     0.084 C 
BRANCH   7   8
HETATM    8  C14 UNL     1      -4.471   1.663   0.173  1.00  0.00    -0.045 A 
HETATM    9  C15 UNL     1      -5.792   1.989  -0.041  1.00  0.00     0.008 A 
HETATM   10  C16 UNL     1      -6.076   3.275  -0.512  1.00  0.00     0.001 A 
HETATM   11  C17 UNL     1      -5.063   4.177  -0.750  1.00  0.00     0.000 A 
HETATM   12  C18 UNL     1      -3.758   3.805  -0.522  1.00  0.00     0.001 A 
HETATM   13  C19 UNL     1      -3.431   2.550  -0.058  1.00  0.00     0.008 A 
ENDBRANCH   7   8
BRANCH   7  14
HETATM   14  C20 UNL     1      -5.085  -0.717   0.122  1.00  0.00    -0.045 A 
HETATM   15  C21 UNL     1      -5.528  -1.751   0.950  1.00  0.00     0.008 A 
HETATM   16  C22 UNL     1      -6.395  -2.698   0.460  1.00  0.00     0.001 A 
HETATM   17  C23 UNL     1      -6.861  -2.681  -0.838  1.00  0.00     0.000 A 
HETATM   18  C24 UNL     1      -6.410  -1.648  -1.640  1.00  0.00     0.001 A 
HETATM   19  C25 UNL     1      -5.539  -0.692  -1.157  1.00  0.00     0.008 A 
ENDBRANCH   7  14
ENDBRANCH   4   7
BRANCH   1  20
HETATM   20  C8  UNL     1       1.361  -1.276  -0.112  1.00  0.00     0.158 C 
BRANCH  20  21
HETATM   21  N1  UNL     1       2.249  -0.381   0.609  1.00  0.00    -0.386 N 
ATOM     22  H1  UNL     1       1.837   0.384   1.144  1.00  0.00     0.160 HD
BRANCH  21  23
HETATM   23  C7  UNL     1       3.645  -0.516   0.606  1.00  0.00     0.028 A 
HETATM   24  C6  UNL     1       4.235  -1.522  -0.130  1.00  0.00     0.029 A 
HETATM   25  C5  UNL     1       5.608  -1.651  -0.128  1.00  0.00     0.009 A 
HETATM   26  C4  UNL     1       6.430  -0.787   0.602  1.00  0.00    -0.058 A 
HETATM   27  C29 UNL     1       5.825   0.209   1.329  1.00  0.00     0.009 A 
HETATM   28  C28 UNL     1       4.438   0.343   1.331  1.00  0.00     0.029 A 
BRANCH  26  29
HETATM   29  C3  UNL     1       7.897  -0.967   0.570  1.00  0.00     0.038 C 
BRANCH  29  30
HETATM   30  C2  UNL     1       8.562  -0.182  -0.542  1.00  0.00     0.000 C 
HETATM   31  C1  UNL     1       8.276   1.305  -0.341  1.00  0.00     0.005 C 
ENDBRANCH  29  30
ENDBRANCH  26  29
ENDBRANCH  21  23
ENDBRANCH  20  21
ENDBRANCH   1  20
TORSDOF 8
