REMARK  7 active torsions:
REMARK  status: ('A' for Active; 'I' for Inactive)
REMARK    1  A    between atoms: C2_2  and  C3_3 
REMARK    2  A    between atoms: C7_7  and  C8_8 
REMARK    3  A    between atoms: C13_13  and  C14_14 
REMARK    4  A    between atoms: C14_14  and  C15_15 
REMARK    5  A    between atoms: C20_20  and  O1_21 
REMARK    6  A    between atoms: O1_21  and  C21_22 
REMARK    7  A    between atoms: C21_22  and  C22_23 
ROOT
HETATM    1  C3  UNL     1       1.175   4.465  -0.607  1.00  0.00     0.032 A 
HETATM    2  C4  UNL     1       0.388   4.021   0.428  1.00  0.00     0.043 A 
HETATM    3  C5  UNL     1       0.370   2.623   0.401  1.00  0.00    -0.004 A 
HETATM    4  C6  UNL     1      -0.236   1.660   1.174  1.00  0.00     0.026 A 
HETATM    5  C7  UNL     1      -0.076   0.301   0.910  1.00  0.00    -0.022 A 
HETATM    6  C19 UNL     1       0.714  -0.038  -0.157  1.00  0.00     0.051 A 
HETATM    7  C20 UNL     1       1.338   0.915  -0.956  1.00  0.00     0.097 A 
HETATM    8  C28 UNL     1       1.158   2.270  -0.666  1.00  0.00     0.076 A 
HETATM    9  N1  UNL     1       1.639   3.396  -1.268  1.00  0.00    -0.353 N 
ATOM     10  H1  UNL     1       2.250   3.420  -2.085  1.00  0.00     0.166 HD
ENDROOT
BRANCH   5  11
HETATM   11  C8  UNL     1      -0.661  -0.750   1.728  1.00  0.00    -0.019 A 
HETATM   12  C9  UNL     1      -0.240  -0.815   3.076  1.00  0.00     0.013 A 
HETATM   13  C10 UNL     1      -0.710  -1.791   3.891  1.00  0.00     0.001 A 
HETATM   14  C11 UNL     1      -1.599  -2.711   3.389  1.00  0.00     0.001 A 
HETATM   15  C12 UNL     1      -2.009  -2.652   2.090  1.00  0.00     0.008 A 
HETATM   16  C13 UNL     1      -1.536  -1.659   1.244  1.00  0.00    -0.044 A 
BRANCH  16  17
HETATM   17  C14 UNL     1      -2.040  -1.608  -0.136  1.00  0.00     0.066 C 
BRANCH  17  18
HETATM   18  C15 UNL     1      -3.099  -0.549  -0.315  1.00  0.00    -0.020 C 
HETATM   19  C16 UNL     1      -4.325  -0.811  -0.706  1.00  0.00    -0.091 C 
HETATM   20  C17 UNL     1      -4.726  -2.219  -0.997  1.00  0.00     0.042 C 
HETATM   21  C18 UNL     1      -5.357   0.251  -0.878  1.00  0.00     0.042 C 
ENDBRANCH  17  18
ENDBRANCH  16  17
ENDBRANCH   5  11
BRANCH   7  22
HETATM   22  O1  UNL     1       2.129   0.615  -2.024  1.00  0.00    -0.344 OA
BRANCH  22  23
HETATM   23  C21 UNL     1       2.485  -0.627  -2.531  1.00  0.00     0.214 C 
BRANCH  23  24
HETATM   24  C22 UNL     1       3.247  -1.461  -1.560  1.00  0.00    -0.034 A 
HETATM   25  C23 UNL     1       3.271  -2.839  -1.648  1.00  0.00     0.009 A 
HETATM   26  C24 UNL     1       3.980  -3.627  -0.762  1.00  0.00     0.001 A 
HETATM   27  C25 UNL     1       4.704  -3.049   0.261  1.00  0.00     0.000 A 
HETATM   28  C26 UNL     1       4.681  -1.667   0.349  1.00  0.00     0.001 A 
HETATM   29  C27 UNL     1       3.983  -0.886  -0.521  1.00  0.00     0.009 A 
ENDBRANCH  23  24
ENDBRANCH  22  23
ENDBRANCH   7  22
BRANCH   1  30
HETATM   30  C2  UNL     1       1.434   5.886  -0.898  1.00  0.00     0.019 C 
HETATM   31  C1  UNL     1       0.929   6.848  -0.165  1.00  0.00     0.013 C 
ENDBRANCH   1  30
TORSDOF 7
