REMARK  1 active torsions:
REMARK  status: ('A' for Active; 'I' for Inactive)
REMARK    1  A    between atoms: C2_2  and  C3_3 
ROOT
HETATM    1  C3  UNL     1       1.734  -0.130  -0.165  1.00  0.00     0.125 C 
HETATM    2  C4  UNL     1       0.352  -0.505   0.335  1.00  0.00     0.104 C 
HETATM    3  C5  UNL     1      -0.438   0.700  -0.110  1.00  0.00     0.310 C 
HETATM    4  C6  UNL     1       0.583   1.779  -0.126  1.00  0.00     0.238 C 
HETATM    5  O1  UNL     1       1.811   1.207   0.221  1.00  0.00    -0.381 OA
HETATM    6  N1  UNL     1      -1.040   0.413  -1.373  1.00  0.00    -0.036 N 
ATOM      7  H11 UNL     1      -0.415  -0.016  -2.055  1.00  0.00     0.280 HD
ATOM      8  H12 UNL     1      -1.259   1.234  -1.937  1.00  0.00     0.280 HD
HETATM    9  C7  UNL     1      -2.194  -0.401  -1.006  1.00  0.00     0.268 C 
HETATM   10  C8  UNL     1      -2.360  -0.245   0.491  1.00  0.00     0.210 C 
HETATM   11  C9  UNL     1      -3.810  -0.030   0.853  1.00  0.00     0.042 C 
HETATM   12  N2  UNL     1      -1.570   0.965   0.743  1.00  0.00    -0.033 N 
ATOM     13  H21 UNL     1      -2.049   1.852   0.586  1.00  0.00     0.280 HD
ATOM     14  H22 UNL     1      -1.356   1.162   1.720  1.00  0.00     0.280 HD
ENDROOT
BRANCH   1  15
HETATM   15  C2  UNL     1       2.803  -0.946   0.479  1.00  0.00     0.027 C 
HETATM   16  C1  UNL     1       4.139  -0.491  -0.090  1.00  0.00     0.007 C 
ENDBRANCH   1  15
TORSDOF 1
