REMARK  2 active torsions:
REMARK  status: ('A' for Active; 'I' for Inactive)
REMARK    1  A    between atoms: C3_6  and  C4_7 
REMARK    2  A    between atoms: C4_7  and  C5_8 
ROOT
HETATM    1  C1  UNL     1      -3.365  -0.171  -0.669  1.00  0.00     0.259 C 
HETATM    2  C2  UNL     1      -2.430  -1.282  -0.289  1.00  0.00     0.260 C 
HETATM    3  N1  UNL     1      -1.048  -0.852  -0.425  1.00  0.00    -0.068 N 
ATOM      4  H11 UNL     1      -0.819  -0.547  -1.371  1.00  0.00     0.277 HD
ATOM      5  H12 UNL     1      -0.385  -1.625  -0.369  1.00  0.00     0.277 HD
HETATM    6  C3  UNL     1      -0.807   0.159   0.558  1.00  0.00     0.211 C 
HETATM    7  C9  UNL     1      -1.854   1.237   0.572  1.00  0.00     0.265 C 
HETATM    8  N2  UNL     1      -2.782   1.134  -0.538  1.00  0.00    -0.072 N 
ATOM      9  H21 UNL     1      -3.506   1.850  -0.473  1.00  0.00     0.277 HD
ATOM     10  H22 UNL     1      -2.338   1.422  -1.410  1.00  0.00     0.277 HD
ENDROOT
BRANCH   6  11
HETATM   11  C4  UNL     1       0.538   0.805   0.477  1.00  0.00     0.041 C 
BRANCH  11  12
HETATM   12  C5  UNL     1       1.680  -0.187   0.651  1.00  0.00     0.013 C 
HETATM   13  C6  UNL     1       2.996   0.556   0.555  1.00  0.00     0.033 C 
HETATM   14  C7  UNL     1       3.833  -0.293  -0.380  1.00  0.00     0.168 C 
HETATM   15  O1  UNL     1       3.152  -1.489  -0.463  1.00  0.00    -0.391 OA
HETATM   16  C8  UNL     1       1.782  -1.145  -0.506  1.00  0.00     0.172 C 
ENDBRANCH  11  12
ENDBRANCH   6  11
TORSDOF 2
