REMARK  2 active torsions:
REMARK  status: ('A' for Active; 'I' for Inactive)
REMARK    1  A    between atoms: C3_4  and  N1_5 
REMARK    2  A    between atoms: N1_5  and  C4_8 
ROOT
HETATM    1  C4  UNL     1       0.745  -0.423   0.154  1.00  0.00     0.192 C 
HETATM    2  C5  UNL     1       1.325   0.899  -0.247  1.00  0.00     0.060 C 
HETATM    3  C6  UNL     1       2.600   0.573  -1.011  1.00  0.00     0.234 C 
HETATM    4  N2  UNL     1       3.517   0.081  -0.003  1.00  0.00    -0.075 N 
ATOM      5  H21 UNL     1       3.633   0.756   0.753  1.00  0.00     0.277 HD
ATOM      6  H22 UNL     1       4.475   0.064  -0.351  1.00  0.00     0.277 HD
HETATM    7  C7  UNL     1       3.123  -1.205   0.502  1.00  0.00     0.234 C 
HETATM    8  C8  UNL     1       1.684  -1.400   0.742  1.00  0.00     0.060 C 
ENDROOT
BRANCH   1   9
HETATM    9  N1  UNL     1      -0.399  -0.226   1.054  1.00  0.00    -0.044 N 
ATOM     10  H12 UNL     1      -0.118   0.231   1.922  1.00  0.00     0.280 HD
ATOM     11  H11 UNL     1      -0.727  -1.111   1.441  1.00  0.00     0.280 HD
BRANCH   9  12
HETATM   12  C3  UNL     1      -1.467   0.494   0.397  1.00  0.00     0.321 C 
HETATM   13  O1  UNL     1      -2.520   0.559   1.284  1.00  0.00    -0.359 OA
HETATM   14  C2  UNL     1      -3.676   0.734   0.573  1.00  0.00     0.170 C 
HETATM   15  C1  UNL     1      -3.438   0.303  -0.837  1.00  0.00     0.030 C 
HETATM   16  C9  UNL     1      -2.031  -0.254  -0.782  1.00  0.00     0.063 C 
ENDBRANCH   9  12
ENDBRANCH   1   9
TORSDOF 2
