REMARK  3 active torsions:
REMARK  status: ('A' for Active; 'I' for Inactive)
REMARK    1  A    between atoms: O1_2  and  C2_3 
REMARK    2  A    between atoms: C6_7  and  C7_8 
REMARK    3  A    between atoms: C7_8  and  N1_9 
ROOT
HETATM    1  C2  UNL     1      -1.630   0.262  -0.147  1.00  0.00     0.143 C 
HETATM    2  C3  UNL     1      -1.343   0.739   1.229  1.00  0.00     0.038 C 
HETATM    3  C4  UNL     1      -0.152  -0.097   1.658  1.00  0.00    -0.008 C 
HETATM    4  C5  UNL     1       1.131   0.375   1.052  1.00  0.00     0.031 C 
HETATM    5  C6  UNL     1       1.516  -0.536  -0.077  1.00  0.00     0.102 C 
HETATM    6  N2  UNL     1       0.417  -0.676  -0.965  1.00  0.00    -0.409 N 
ATOM      7  H2  UNL     1       0.515  -0.541  -1.971  1.00  0.00     0.154 HD
HETATM    8  C8  UNL     1      -0.828  -1.016  -0.368  1.00  0.00     0.106 C 
HETATM    9  C9  UNL     1      -0.595  -1.449   1.083  1.00  0.00     0.032 C 
ENDROOT
BRANCH   5  10
HETATM   10  C7  UNL     1       2.702   0.016  -0.864  1.00  0.00     0.254 C 
BRANCH  10  11
HETATM   11  N1  UNL     1       3.865   0.179  -0.033  1.00  0.00    -0.077 N 
ATOM     12  H13 UNL     1       3.660   0.755   0.783  1.00  0.00     0.274 HD
ATOM     13  H12 UNL     1       4.107  -0.691   0.442  1.00  0.00     0.274 HD
ATOM     14  H11 UNL     1       4.657   0.548  -0.559  1.00  0.00     0.274 HD
ENDBRANCH  10  11
ENDBRANCH   5  10
BRANCH   1  15
HETATM   15  O1  UNL     1      -2.961   0.099  -0.453  1.00  0.00    -0.389 OA
HETATM   16  C1  UNL     1      -3.427   0.889  -1.480  1.00  0.00     0.202 C 
ENDBRANCH   1  15
TORSDOF 3
