REMARK  5 active torsions:
REMARK  status: ('A' for Active; 'I' for Inactive)
REMARK    1  A    between atoms: C1_2  and  O2_4 
REMARK    2  A    between atoms: O2_4  and  C2_5 
REMARK       I    between atoms: C2_5  and  N2_7 
REMARK    3  A    between atoms: C3_8  and  O4_9 
REMARK    4  A    between atoms: C5_13  and  N4_14 
REMARK    5  A    between atoms: C6_17  and  C7_18 
ROOT
HETATM    1  C2  UNL     1       1.696  -0.622   0.145  1.00  0.00     0.382 C 
HETATM    2  O3  UNL     1       2.324  -1.744   0.308  1.00  0.00    -0.237 OA
HETATM    3  N2  UNL     1       0.292  -0.636   0.356  1.00  0.00    -0.228 N 
HETATM    4  C3  UNL     1      -0.418  -1.759   0.727  1.00  0.00     0.179 A 
HETATM    5  C4  UNL     1      -1.732  -1.477   0.858  1.00  0.00     0.133 A 
HETATM    6  N3  UNL     1      -2.826  -2.312   1.219  1.00  0.00    -0.095 NA
HETATM    7  C5  UNL     1      -1.860  -0.139   0.564  1.00  0.00     0.163 A 
HETATM    8  C6  UNL     1      -0.580   0.365   0.253  1.00  0.00     0.146 A 
ENDROOT
BRANCH   1   9
HETATM    9  O2  UNL     1       2.489   0.412  -0.210  1.00  0.00    -0.211 OA
BRANCH   9  10
HETATM   10  C1  UNL     1       3.861   0.346  -0.398  1.00  0.00     0.381 C 
HETATM   11  N1  UNL     1       4.633   1.469  -0.769  1.00  0.00    -0.032 NA
HETATM   12  O1  UNL     1       4.383  -0.802  -0.211  1.00  0.00    -0.242 OA
ENDBRANCH   9  10
ENDBRANCH   1   9
BRANCH   4  13
HETATM   13  O4  UNL     1       0.138  -2.996   0.933  1.00  0.00    -0.344 OA
ATOM     14  H4  UNL     1      -0.351  -3.769   1.189  1.00  0.00     0.219 HD
ENDBRANCH   4  13
BRANCH   8  15
HETATM   15  C7  UNL     1      -0.358   1.752  -0.111  1.00  0.00     0.284 C 
HETATM   16  N5  UNL     1      -1.454   2.701  -0.061  1.00  0.00    -0.056 NA
HETATM   17  O7  UNL     1       0.713   2.269  -0.482  1.00  0.00    -0.269 OA
ENDBRANCH   8  15
BRANCH   7  18
HETATM   18  N4  UNL     1      -3.086   0.577   0.565  1.00  0.00    -0.111 N 
HETATM   19  O5  UNL     1      -3.647   0.943   1.636  1.00  0.00    -0.532 OA
HETATM   20  O6  UNL     1      -3.759   0.920  -0.590  1.00  0.00    -0.532 OA
ENDBRANCH   7  18
TORSDOF 5
