REMARK  2 active torsions:
REMARK  status: ('A' for Active; 'I' for Inactive)
REMARK    1  A    between atoms: C3_5  and  C4_6 
REMARK    2  A    between atoms: C6_18  and  N6_19 
ROOT
HETATM    1  C1  UNL     1       1.364   3.518  -1.013  1.00  0.00     0.089 C 
HETATM    2  C2  UNL     1       1.117   2.094  -0.614  1.00  0.00     0.095 A 
HETATM    3  N1  UNL     1       2.128   1.248  -0.358  1.00  0.00    -0.330 N 
ATOM      4  H1  UNL     1       3.084   1.595  -0.440  1.00  0.00     0.168 HD
HETATM    5  C3  UNL     1       1.944  -0.021  -0.002  1.00  0.00     0.155 A 
HETATM    6  N5  UNL     1       0.668  -0.433   0.094  1.00  0.00    -0.174 N 
ATOM      7  H5  UNL     1       0.489  -1.400   0.364  1.00  0.00     0.186 HD
HETATM    8  C6  UNL     1      -0.377   0.364  -0.148  1.00  0.00     0.683 A 
HETATM    9  N8  UNL     1      -0.141   1.638  -0.505  1.00  0.00    -0.181 N 
ATOM     10  H8  UNL     1      -0.924   2.264  -0.695  1.00  0.00     0.185 HD
ENDROOT
BRANCH   5  11
HETATM   11  C4  UNL     1       3.048  -0.961   0.282  1.00  0.00     0.146 A 
HETATM   12  N2  UNL     1       2.842  -2.246   0.642  1.00  0.00    -0.234 N 
HETATM   13  O1  UNL     1       3.974  -2.818   0.822  1.00  0.00    -0.155 OA
ATOM     14  H2  UNL     1       1.931  -2.690   0.753  1.00  0.00     0.197 HD
HETATM   15  N3  UNL     1       4.933  -1.990   0.604  1.00  0.00    -0.224 N 
HETATM   16  C5  UNL     1       4.395  -0.787   0.254  1.00  0.00     0.154 A 
ATOM     17  H3  UNL     1       5.929  -2.198   0.680  1.00  0.00     0.198 HD
HETATM   18  N4  UNL     1       5.051   0.265  -0.033  1.00  0.00    -0.382 N 
ATOM     19  H42 UNL     1       4.649   1.165  -0.295  1.00  0.00     0.157 HD
ATOM     20  H41 UNL     1       6.062   0.396  -0.054  1.00  0.00     0.157 HD
ENDBRANCH   5  11
BRANCH   8  21
HETATM   21  N6  UNL     1      -1.689  -0.165  -0.019  1.00  0.00    -0.214 N 
HETATM   22  C7  UNL     1      -1.833  -1.541   0.367  1.00  0.00     0.168 C 
HETATM   23  C8  UNL     1      -3.246  -1.965   0.592  1.00  0.00     0.252 C 
HETATM   24  N7  UNL     1      -4.130  -0.852   0.896  1.00  0.00    -0.072 N 
HETATM   25  C9  UNL     1      -4.118   0.004  -0.300  1.00  0.00     0.252 C 
ATOM     26  H72 UNL     1      -5.065  -1.140   1.183  1.00  0.00     0.277 HD
ATOM     27  H71 UNL     1      -3.885  -0.358   1.754  1.00  0.00     0.277 HD
HETATM   28  C10 UNL     1      -2.791   0.723  -0.288  1.00  0.00     0.168 C 
ENDBRANCH   8  21
TORSDOF 2
