REMARK  5 active torsions:
REMARK  status: ('A' for Active; 'I' for Inactive)
REMARK    1  A    between atoms: C3_7  and  N3_8 
REMARK    2  A    between atoms: C4_12  and  C5_13 
REMARK    3  A    between atoms: C5_13  and  O2_14 
REMARK    4  A    between atoms: C5_13  and  O3_16 
REMARK    5  A    between atoms: C6_18  and  N5_19 
ROOT
HETATM    1  C1  UNL     1       3.009   1.725   0.223  1.00  0.00     0.180 C 
HETATM    2  N1  UNL     1       2.149   0.534   0.167  1.00  0.00    -0.135 N 
HETATM    3  C2  UNL     1       2.679  -0.676   0.231  1.00  0.00     0.354 A 
HETATM    4  O1  UNL     1       3.939  -0.795   0.342  1.00  0.00    -0.245 OA
HETATM    5  N2  UNL     1       1.879  -1.750   0.179  1.00  0.00    -0.140 N 
ATOM      6  H2  UNL     1       2.290  -2.682   0.230  1.00  0.00     0.189 HD
HETATM    7  C3  UNL     1       0.528  -1.622   0.060  1.00  0.00     0.701 A 
HETATM    8  N4  UNL     1      -0.034  -0.403  -0.008  1.00  0.00     0.028 N 
HETATM    9  C4  UNL     1      -1.321   0.042  -0.118  1.00  0.00     0.157 A 
HETATM   10  C6  UNL     1      -1.239   1.418  -0.122  1.00  0.00     0.217 A 
HETATM   11  N6  UNL     1       0.076   1.761  -0.020  1.00  0.00    -0.167 N 
ATOM     12  H6  UNL     1       0.442   2.713   0.000  1.00  0.00     0.186 HD
HETATM   13  C7  UNL     1       0.806   0.645   0.049  1.00  0.00     0.711 A 
ENDROOT
BRANCH   9  14
HETATM   14  C5  UNL     1      -2.550  -0.739  -0.212  1.00  0.00     0.311 C 
BRANCH  14  15
HETATM   15  O2  UNL     1      -2.557  -1.786  -1.119  1.00  0.00    -0.366 OA
ATOM     16  H2  UNL     1      -3.357  -2.294  -1.180  1.00  0.00     0.213 HD
ENDBRANCH  14  15
BRANCH  14  17
HETATM   17  O3  UNL     1      -3.033  -1.140   1.047  1.00  0.00    -0.366 OA
ATOM     18  H3  UNL     1      -3.833  -1.648   0.986  1.00  0.00     0.213 HD
ENDBRANCH  14  17
ENDBRANCH   9  14
BRANCH  10  19
HETATM   19  N5  UNL     1      -2.311   2.373  -0.215  1.00  0.00    -0.095 N 
HETATM   20  O4  UNL     1      -3.401   2.131   0.282  1.00  0.00    -0.530 OA
HETATM   21  O5  UNL     1      -2.017   3.555  -0.873  1.00  0.00    -0.530 OA
ENDBRANCH  10  19
BRANCH   7  22
HETATM   22  N3  UNL     1      -0.177  -2.674   0.038  1.00  0.00    -0.233 N 
ATOM     23  H32 UNL     1       0.250  -3.599   0.090  1.00  0.00     0.174 HD
ATOM     24  H31 UNL     1      -1.189  -2.578  -0.051  1.00  0.00     0.174 HD
ENDBRANCH   7  22
TORSDOF 5
