REMARK  5 active torsions:
REMARK  status: ('A' for Active; 'I' for Inactive)
REMARK    1  A    between atoms: C5_5  and  O1_6 
REMARK    2  A    between atoms: C6_8  and  C7_9 
REMARK    3  A    between atoms: C6_8  and  C8_12 
REMARK    4  A    between atoms: C8_12  and  C9_14 
REMARK    5  A    between atoms: C9_14  and  O5_15 
ROOT
HETATM    1  C1  UNL     1      -0.681  -0.828  -2.368  1.00  0.00     0.016 C 
HETATM    2  C2  UNL     1      -0.323  -0.765  -0.897  1.00  0.00    -0.035 C 
HETATM    3  C3  UNL     1      -0.650  -2.129  -0.307  1.00  0.00     0.012 C 
HETATM    4  C4  UNL     1      -2.138  -2.352  -0.177  1.00  0.00     0.034 C 
HETATM    5  C5  UNL     1      -2.680  -1.285   0.764  1.00  0.00     0.145 C 
HETATM    6  C6  UNL     1      -2.480   0.092   0.237  1.00  0.00     0.140 C 
HETATM    7  C10 UNL     1      -1.045   0.253  -0.111  1.00  0.00     0.023 C 
HETATM    8  C11 UNL     1      -0.702   1.626  -0.644  1.00  0.00     0.007 C 
HETATM    9  C12 UNL     1       0.727   1.855  -0.193  1.00  0.00     0.006 C 
HETATM   10  C13 UNL     1       1.680   0.789  -0.605  1.00  0.00    -0.002 C 
HETATM   11  C14 UNL     1       1.183  -0.574  -0.820  1.00  0.00     0.001 C 
HETATM   12  C15 UNL     1       1.780  -1.577   0.182  1.00  0.00     0.046 C 
HETATM   13  C16 UNL     1       3.308  -1.567   0.063  1.00  0.00     0.218 C 
HETATM   14  F1  UNL     1       3.789  -2.085   1.250  1.00  0.00    -0.245 F 
HETATM   15  C17 UNL     1       3.839  -0.178  -0.088  1.00  0.00     0.197 C 
HETATM   16  F2  UNL     1       4.050   0.122  -1.417  1.00  0.00    -0.231 F 
HETATM   17  C18 UNL     1       4.979   0.145   0.764  1.00  0.00     0.169 C 
HETATM   18  O6  UNL     1       5.835  -0.592   1.152  1.00  0.00    -0.294 OA
HETATM   19  C19 UNL     1       4.878   1.598   1.070  1.00  0.00     0.083 C 
HETATM   20  C20 UNL     1       3.545   2.052   0.508  1.00  0.00     0.016 C 
HETATM   21  C21 UNL     1       2.778   0.753   0.454  1.00  0.00     0.041 C 
ENDROOT
BRANCH   6  22
HETATM   22  C7  UNL     1      -2.628   0.968   1.487  1.00  0.00     0.192 C 
HETATM   23  O2  UNL     1      -3.366   1.941   1.567  1.00  0.00    -0.647 OA
HETATM   24  O3  UNL     1      -1.862   0.623   2.603  1.00  0.00    -0.647 OA
ENDBRANCH   6  22
BRANCH   6  25
HETATM   25  C8  UNL     1      -3.460   0.619  -0.692  1.00  0.00     0.172 C 
HETATM   26  O4  UNL     1      -3.027   0.982  -1.804  1.00  0.00    -0.294 OA
BRANCH  25  27
HETATM   27  C9  UNL     1      -4.913   0.820  -0.576  1.00  0.00     0.244 C 
BRANCH  27  28
HETATM   28  O5  UNL     1      -5.521   0.467   0.589  1.00  0.00    -0.394 OA
ATOM     29  H5  UNL     1      -6.459   0.597   0.664  1.00  0.00     0.209 HD
ENDBRANCH  27  28
ENDBRANCH  25  27
ENDBRANCH   6  25
BRANCH   5  30
HETATM   30  O1  UNL     1      -3.882  -1.624   1.282  1.00  0.00    -0.394 OA
ATOM     31  H1  UNL     1      -4.220  -0.958   1.869  1.00  0.00     0.210 HD
ENDBRANCH   5  30
TORSDOF 5
