REMARK  4 active torsions:
REMARK  status: ('A' for Active; 'I' for Inactive)
REMARK    1  A    between atoms: N1_1  and  C1_4 
REMARK    2  A    between atoms: C5_10  and  C6_11 
REMARK    3  A    between atoms: C8_14  and  O1_15 
REMARK    4  A    between atoms: C10_18  and  N4_19 
ROOT
HETATM    1  C1  UNL     1       2.793  -1.489   1.417  1.00  0.00     0.046 A 
HETATM    2  C2  UNL     1       3.776  -1.069   0.484  1.00  0.00    -0.007 A 
HETATM    3  C3  UNL     1       3.358  -0.201  -0.468  1.00  0.00     0.027 A 
HETATM    4  N2  UNL     1       2.055   0.225  -0.525  1.00  0.00    -0.357 N 
ATOM      5  H2  UNL     1       1.769   0.878  -1.255  1.00  0.00     0.166 HD
HETATM    6  C4  UNL     1       1.167  -0.201   0.354  1.00  0.00     0.059 A 
HETATM    7  C5  UNL     1      -0.218   0.184   0.165  1.00  0.00     0.033 A 
HETATM    8  C10 UNL     1      -1.145  -0.316   0.963  1.00  0.00     0.044 A 
HETATM    9  C16 UNL     1      -0.796  -1.190   2.025  1.00  0.00     0.031 A 
HETATM   10  C17 UNL     1       0.534  -1.559   2.212  1.00  0.00     0.018 A 
HETATM   11  C18 UNL     1       1.487  -1.056   1.355  1.00  0.00     0.018 A 
HETATM   12  C19 UNL     1       4.226   0.378  -1.513  1.00  0.00     0.131 C 
HETATM   13  S1  UNL     1       5.624  -0.753  -1.913  1.00  0.00    -0.163 SA
HETATM   14  C20 UNL     1       6.170  -1.322  -0.286  1.00  0.00     0.079 C 
HETATM   15  C21 UNL     1       5.084  -1.741   0.624  1.00  0.00     0.053 C 
ENDROOT
BRANCH   8  16
HETATM   16  N4  UNL     1      -2.489  -0.494   0.464  1.00  0.00    -0.374 N 
HETATM   17  C11 UNL     1      -2.527  -1.953  -0.023  1.00  0.00     0.123 C 
HETATM   18  C12 UNL     1      -3.378  -2.040  -1.196  1.00  0.00     0.026 C 
HETATM   19  C13 UNL     1      -4.815  -1.865  -0.722  1.00  0.00     0.082 C 
HETATM   20  C14 UNL     1      -4.920  -0.794   0.318  1.00  0.00     0.259 C 
HETATM   21  F1  UNL     1      -5.984   0.002  -0.059  1.00  0.00    -0.205 F 
HETATM   22  F2  UNL     1      -5.154  -1.275   1.570  1.00  0.00    -0.205 F 
HETATM   23  C15 UNL     1      -3.683   0.162   0.297  1.00  0.00     0.202 C 
ENDBRANCH   8  16
BRANCH   7  24
HETATM   24  C6  UNL     1      -0.417   1.135  -0.942  1.00  0.00     0.101 C 
HETATM   25  N3  UNL     1      -0.669   2.416  -0.552  1.00  0.00    -0.384 N 
HETATM   26  C7  UNL     1      -0.680   3.550  -1.362  1.00  0.00     0.155 C 
HETATM   27  C9  UNL     1      -0.637   3.056   0.656  1.00  0.00     0.155 C 
HETATM   28  C8  UNL     1      -1.022   4.377  -0.092  1.00  0.00     0.153 C 
BRANCH  28  29
HETATM   29  O1  UNL     1      -2.371   4.678  -0.006  1.00  0.00    -0.392 OA
ATOM     30  H1  UNL     1      -2.580   5.184   0.771  1.00  0.00     0.210 HD
ENDBRANCH  28  29
ENDBRANCH   7  24
BRANCH   1  31
HETATM   31  N1  UNL     1       3.057  -2.305   2.380  1.00  0.00    -0.398 N 
ATOM     32  H12 UNL     1       4.024  -2.626   2.426  1.00  0.00     0.156 HD
ATOM     33  H11 UNL     1       2.350  -2.607   3.051  1.00  0.00     0.156 HD
ENDBRANCH   1  31
TORSDOF 4
