REMARK  4 active torsions:
REMARK  status: ('A' for Active; 'I' for Inactive)
REMARK    1  A    between atoms: C4_6  and  C5_7 
REMARK    2  A    between atoms: C5_7  and  C6_8 
REMARK    3  A    between atoms: C6_8  and  N3_9 
REMARK    4  A    between atoms: C13_26  and  C14_27 
ROOT
HETATM    1  N1  UNL     1      -2.464  -1.858  -2.045  1.00  0.00    -0.195 NA
HETATM    2  C1  UNL     1      -2.194  -1.315  -1.028  1.00  0.00     0.087 C 
HETATM    3  C2  UNL     1      -1.816  -0.625   0.235  1.00  0.00     0.168 C 
HETATM    4  C3  UNL     1      -2.040  -1.539   1.376  1.00  0.00     0.087 C 
HETATM    5  N2  UNL     1      -2.187  -2.266   2.295  1.00  0.00    -0.195 NA
HETATM    6  C4  UNL     1      -2.421   0.675   0.394  1.00  0.00     0.160 C 
HETATM    7  O1  UNL     1      -1.675   1.708   0.932  1.00  0.00    -0.383 OA
HETATM    8  C7  UNL     1      -0.473   1.530   1.441  1.00  0.00     0.176 C 
HETATM    9  C8  UNL     1       0.347   0.371   1.094  1.00  0.00     0.050 C 
HETATM   10  C9  UNL     1      -0.265  -0.595   0.101  1.00  0.00     0.043 C 
HETATM   11  C10 UNL     1       0.320   0.245  -0.913  1.00  0.00     0.051 C 
HETATM   12  C11 UNL     1       0.748  -0.009  -2.258  1.00  0.00     0.186 C 
HETATM   13  O2  UNL     1       2.036   0.625  -2.423  1.00  0.00    -0.322 OA
HETATM   14  C12 UNL     1       2.390   1.755  -1.704  1.00  0.00     0.213 C 
HETATM   15  N4  UNL     1       3.101   2.722  -2.174  1.00  0.00    -0.365 N 
ATOM     16  H41 UNL     1       3.362   3.554  -1.645  1.00  0.00     0.159 HD
ATOM     17  H42 UNL     1       3.441   2.683  -3.135  1.00  0.00     0.159 HD
HETATM   18  N5  UNL     1       1.905   1.811  -0.334  1.00  0.00    -0.342 N 
ATOM     19  H5  UNL     1       1.900   2.643   0.256  1.00  0.00     0.164 HD
HETATM   20  C13 UNL     1       1.430   0.500   0.063  1.00  0.00     0.074 C 
ENDROOT
BRANCH   6  21
HETATM   21  C5  UNL     1      -3.753   0.773   1.045  1.00  0.00     0.062 C 
BRANCH  21  22
HETATM   22  C6  UNL     1      -4.951   0.147   0.481  1.00  0.00     0.232 C 
BRANCH  22  23
HETATM   23  N3  UNL     1      -5.026  -1.270   0.351  1.00  0.00    -0.079 N 
ATOM     24  H33 UNL     1      -4.216  -1.587  -0.182  1.00  0.00     0.274 HD
ATOM     25  H32 UNL     1      -4.846  -1.686   1.264  1.00  0.00     0.274 HD
ATOM     26  H31 UNL     1      -5.860  -1.706  -0.042  1.00  0.00     0.274 HD
ENDBRANCH  22  23
ENDBRANCH  21  22
ENDBRANCH   6  21
BRANCH  20  27
HETATM   27  C14 UNL     1       2.532  -0.385   0.280  1.00  0.00    -0.007 A 
HETATM   28  C15 UNL     1       2.844  -1.570  -0.327  1.00  0.00     0.013 A 
HETATM   29  C16 UNL     1       3.960  -2.336  -0.009  1.00  0.00     0.024 A 
HETATM   30  C17 UNL     1       4.825  -1.907   0.971  1.00  0.00     0.035 A 
HETATM   31 CL1  UNL     1       6.234  -2.870   1.376  1.00  0.00    -0.084 Cl
HETATM   32  C18 UNL     1       4.541  -0.719   1.604  1.00  0.00     0.048 A 
HETATM   33  C19 UNL     1       3.432   0.027   1.277  1.00  0.00     0.044 A 
HETATM   34 CL2  UNL     1       3.219   1.506   2.193  1.00  0.00    -0.084 Cl
ENDBRANCH  20  27
TORSDOF 4
