REMARK  4 active torsions:
REMARK  status: ('A' for Active; 'I' for Inactive)
REMARK    1  A    between atoms: C2_3  and  N2_4 
REMARK    2  A    between atoms: C2_3  and  C3_8 
REMARK    3  A    between atoms: C3_8  and  C4_9 
REMARK    4  A    between atoms: C4_9  and  C5_10 
ROOT
HETATM    1  N1  UNL     1       4.178   0.995   0.507  1.00  0.00    -0.195 NA
HETATM    2  C1  UNL     1       3.489   0.354  -0.174  1.00  0.00     0.092 C 
HETATM    3  C2  UNL     1       2.596  -0.450  -1.022  1.00  0.00     0.289 C 
ENDROOT
BRANCH   3   4
HETATM    4  N2  UNL     1       1.957   0.385  -1.981  1.00  0.00    -0.063 N 
ATOM      5  H23 UNL     1       1.469   1.166  -1.543  1.00  0.00     0.275 HD
ATOM      6  H22 UNL     1       2.629   0.920  -2.531  1.00  0.00     0.275 HD
ATOM      7  H21 UNL     1       1.338  -0.173  -2.569  1.00  0.00     0.275 HD
ENDBRANCH   3   4
BRANCH   3   8
HETATM    8  C3  UNL     1       1.720  -1.345  -0.217  1.00  0.00     0.048 C 
BRANCH   8   9
HETATM    9  C4  UNL     1       0.818  -0.697   0.764  1.00  0.00     0.008 C 
BRANCH   9  10
HETATM   10  C5  UNL     1      -0.196   0.269   0.214  1.00  0.00    -0.012 C 
HETATM   11  C6  UNL     1      -1.083  -0.457  -0.750  1.00  0.00     0.024 C 
HETATM   12  C7  UNL     1      -2.520  -0.517  -0.303  1.00  0.00     0.114 C 
HETATM   13  N3  UNL     1      -3.066   0.737   0.095  1.00  0.00    -0.421 N 
HETATM   14  C8  UNL     1      -2.241   1.501   0.974  1.00  0.00     0.114 C 
ATOM     15  H3  UNL     1      -3.978   1.064  -0.224  1.00  0.00     0.153 HD
HETATM   16  C9  UNL     1      -0.973   0.803   1.408  1.00  0.00     0.024 C 
ENDBRANCH   9  10
ENDBRANCH   8   9
ENDBRANCH   3   8
TORSDOF 4
