REMARK  7 active torsions:
REMARK  status: ('A' for Active; 'I' for Inactive)
REMARK    1  A    between atoms: C2_2  and  N1_3 
REMARK    2  A    between atoms: C4_5  and  C5_6 
REMARK    3  A    between atoms: C5_6  and  C6_7 
REMARK    4  A    between atoms: C6_7  and  N2_8 
REMARK    5  A    between atoms: N2_8  and  C7_10 
REMARK    6  A    between atoms: C7_10  and  C8_11 
REMARK    7  A    between atoms: C8_11  and  C9_12 
ROOT
HETATM    1  N2  UNL     1      -0.316  -0.304   0.461  1.00  0.00    -0.401 N 
ATOM      2  H2  UNL     1       0.341  -1.029   0.748  1.00  0.00     0.158 HD
ENDROOT
BRANCH   1   3
HETATM    3  C6  UNL     1      -0.125   0.987   0.956  1.00  0.00     0.124 C 
BRANCH   3   4
HETATM    4  C5  UNL     1       1.146   0.938   1.842  1.00  0.00     0.078 C 
BRANCH   4   5
HETATM    5  C4  UNL     1       2.309   0.503   1.037  1.00  0.00     0.027 A 
HETATM    6  C3  UNL     1       3.205   1.256   0.323  1.00  0.00     0.117 A 
HETATM    7  N1  UNL     1       4.123   0.444  -0.268  1.00  0.00    -0.345 N 
HETATM    8  C15 UNL     1       3.787  -0.804   0.085  1.00  0.00     0.079 A 
HETATM    9  N3  UNL     1       2.695  -0.787   0.873  1.00  0.00    -0.348 N 
HETATM   10  C16 UNL     1       4.550  -2.025  -0.358  1.00  0.00     0.089 C 
ATOM     11  H3  UNL     1       2.237  -1.604   1.277  1.00  0.00     0.167 HD
BRANCH   7  12
HETATM   12  C2  UNL     1       5.223   0.906  -1.104  1.00  0.00     0.125 C 
HETATM   13  C1  UNL     1       6.451   1.177  -0.270  1.00  0.00     0.027 C 
ENDBRANCH   7  12
ENDBRANCH   4   5
ENDBRANCH   3   4
ENDBRANCH   1   3
BRANCH   1  14
HETATM   14  C7  UNL     1      -1.347  -0.662  -0.399  1.00  0.00     0.074 C 
BRANCH  14  15
HETATM   15  C8  UNL     1      -2.759  -0.701   0.088  1.00  0.00     0.089 C 
HETATM   16  C10 UNL     1      -3.234   0.644   0.484  1.00  0.00     0.024 C 
HETATM   17  C11 UNL     1      -4.720   0.885   0.284  1.00  0.00     0.001 C 
HETATM   18  C12 UNL     1      -5.225   0.564  -1.076  1.00  0.00     0.000 C 
HETATM   19  C13 UNL     1      -4.157  -0.128  -1.914  1.00  0.00     0.001 C 
HETATM   20  C14 UNL     1      -3.576  -1.262  -1.087  1.00  0.00     0.024 C 
BRANCH  15  21
HETATM   21  C9  UNL     1      -2.943  -1.665   1.243  1.00  0.00     0.400 C 
HETATM   22  F1  UNL     1      -2.601  -2.960   0.881  1.00  0.00    -0.170 F 
HETATM   23  F2  UNL     1      -4.267  -1.731   1.632  1.00  0.00    -0.170 F 
HETATM   24  F3  UNL     1      -2.226  -1.287   2.359  1.00  0.00    -0.170 F 
ENDBRANCH  15  21
ENDBRANCH  14  15
ENDBRANCH   1  14
TORSDOF 7
