REMARK  5 active torsions:
REMARK  status: ('A' for Active; 'I' for Inactive)
REMARK    1  A    between atoms: C4_4  and  C5_5 
REMARK    2  A    between atoms: C8_9  and  C9_10 
REMARK    3  A    between atoms: C9_10  and  N1_11 
REMARK    4  A    between atoms: C14_16  and  O2_17 
REMARK    5  A    between atoms: O2_17  and  C15_18 
ROOT
HETATM    1  C1  UNL     1      -3.587  -2.712  -0.764  1.00  0.00     0.068 C 
HETATM    2  C2  UNL     1      -3.054  -1.396  -0.382  1.00  0.00     0.008 A 
HETATM    3  C3  UNL     1      -1.832  -1.141   0.261  1.00  0.00     0.036 A 
HETATM    4  C4  UNL     1      -1.702   0.210   0.452  1.00  0.00     0.002 A 
HETATM    5  C14 UNL     1      -2.886   0.776  -0.103  1.00  0.00     0.154 A 
HETATM    6  N2  UNL     1      -3.658  -0.202  -0.584  1.00  0.00    -0.340 N 
ATOM      7  H2  UNL     1      -4.564  -0.069  -1.034  1.00  0.00     0.167 HD
ENDROOT
BRANCH   4   8
HETATM    8  C5  UNL     1      -0.534   0.903   0.959  1.00  0.00     0.056 C 
HETATM    9  C6  UNL     1      -0.402   0.731   2.502  1.00  0.00     0.038 C 
HETATM   10  C7  UNL     1      -0.037  -0.685   2.629  1.00  0.00     0.169 C 
HETATM   11  O1  UNL     1       0.623  -1.027   1.408  1.00  0.00    -0.383 OA
HETATM   12  C8  UNL     1       0.787   0.195   0.724  1.00  0.00     0.158 C 
BRANCH  12  13
HETATM   13  C9  UNL     1       1.305   0.039  -0.610  1.00  0.00     0.304 C 
BRANCH  13  14
HETATM   14  N1  UNL     1       2.630  -0.596  -0.598  1.00  0.00     0.090 N 
HETATM   15  C10 UNL     1       3.094  -1.032  -1.860  1.00  0.00     0.272 C 
HETATM   16  C11 UNL     1       4.350  -0.279  -2.230  1.00  0.00     0.032 C 
HETATM   17  C12 UNL     1       4.640   0.595  -1.060  1.00  0.00     0.032 C 
HETATM   18  C13 UNL     1       3.648   0.233  -0.021  1.00  0.00     0.272 C 
ENDBRANCH  13  14
ENDBRANCH  12  13
ENDBRANCH   4   8
BRANCH   5  19
HETATM   19  O2  UNL     1      -3.160   2.101  -0.109  1.00  0.00    -0.273 OA
BRANCH  19  20
HETATM   20  C15 UNL     1      -4.302   2.745  -0.603  1.00  0.00     0.506 C 
HETATM   21  F1  UNL     1      -4.087   4.045  -1.088  1.00  0.00    -0.184 F 
HETATM   22  F2  UNL     1      -5.133   2.998   0.542  1.00  0.00    -0.184 F 
ENDBRANCH  19  20
ENDBRANCH   5  19
TORSDOF 5
