REMARK  6 active torsions:
REMARK  status: ('A' for Active; 'I' for Inactive)
REMARK    1  A    between atoms: C4_4  and  C5_5 
REMARK    2  A    between atoms: C5_5  and  C6_6 
REMARK    3  A    between atoms: C6_6  and  N1_7 
REMARK    4  A    between atoms: N1_7  and  C7_9 
REMARK    5  A    between atoms: C7_9  and  C8_10 
REMARK    6  A    between atoms: C7_9  and  C15_17 
ROOT
HETATM    1  C7  UNL     1      -0.675  -1.050   1.204  1.00  0.00     0.153 C 
ENDROOT
BRANCH   1   2
HETATM    2  N1  UNL     1       0.524  -0.291   1.325  1.00  0.00    -0.411 N 
ATOM      3  H1  UNL     1       0.679   0.237   2.184  1.00  0.00     0.153 HD
BRANCH   2   4
HETATM    4  C6  UNL     1       1.485  -0.234   0.340  1.00  0.00     0.121 C 
BRANCH   4   5
HETATM    5  C5  UNL     1       2.612   0.705   0.829  1.00  0.00     0.086 C 
BRANCH   5   6
HETATM    6  C4  UNL     1       3.665   0.785  -0.222  1.00  0.00     0.080 A 
HETATM    7  C3  UNL     1       4.834   1.504  -0.207  1.00  0.00     0.061 A 
HETATM    8  C2  UNL     1       5.494   1.283  -1.377  1.00  0.00     0.031 A 
HETATM    9  C1  UNL     1       6.801   1.866  -1.773  1.00  0.00     0.070 C 
HETATM   10  N2  UNL     1       4.698   0.427  -2.079  1.00  0.00    -0.266 N 
HETATM   11  O1  UNL     1       3.635   0.153  -1.380  1.00  0.00    -0.242 OA
ATOM     12  H2  UNL     1       4.904   0.059  -3.008  1.00  0.00     0.194 HD
ENDBRANCH   5   6
ENDBRANCH   4   5
ENDBRANCH   2   4
ENDBRANCH   1   2
BRANCH   1  13
HETATM   13  C8  UNL     1      -1.536  -0.607   0.063  1.00  0.00     0.014 C 
HETATM   14  C9  UNL     1      -2.825  -1.358  -0.090  1.00  0.00     0.007 C 
HETATM   15  C10 UNL     1      -3.853  -0.536  -0.874  1.00  0.00     0.005 C 
HETATM   16  C11 UNL     1      -4.294   0.665  -0.069  1.00  0.00    -0.019 C 
HETATM   17  C12 UNL     1      -4.778   1.749  -0.991  1.00  0.00     0.010 C 
HETATM   18  C13 UNL     1      -3.157   1.163   0.824  1.00  0.00     0.005 C 
HETATM   19  C14 UNL     1      -1.871   0.860   0.106  1.00  0.00     0.007 C 
ENDBRANCH   1  13
BRANCH   1  20
HETATM   20  C15 UNL     1      -0.505  -2.520   1.351  1.00  0.00     0.260 C 
HETATM   21  C16 UNL     1       0.378  -3.213   0.366  1.00  0.00     0.092 C 
HETATM   22  F1  UNL     1      -1.710  -3.172   1.398  1.00  0.00    -0.204 F 
HETATM   23  F2  UNL     1       0.056  -2.748   2.623  1.00  0.00    -0.204 F 
ENDBRANCH   1  20
TORSDOF 6
