REMARK  7 active torsions:
REMARK  status: ('A' for Active; 'I' for Inactive)
REMARK    1  A    between atoms: C3_5  and  N2_6 
REMARK    2  A    between atoms: N2_6  and  C4_8 
REMARK    3  A    between atoms: C4_8  and  C6_10 
REMARK    4  A    between atoms: C6_10  and  C7_11 
REMARK    5  A    between atoms: C7_11  and  C8_12 
REMARK    6  A    between atoms: C11_17  and  C12_18 
REMARK    7  A    between atoms: C12_18  and  C15_21 
ROOT
HETATM    1  C1  UNL     1      -1.842   2.636  -2.129  1.00  0.00     0.089 C 
HETATM    2  C2  UNL     1      -1.931   1.440  -1.266  1.00  0.00     0.094 A 
HETATM    3  N1  UNL     1      -0.788   0.917  -0.807  1.00  0.00    -0.181 N 
ATOM      4  H1  UNL     1       0.095   1.362  -1.057  1.00  0.00     0.185 HD
HETATM    5  C3  UNL     1      -0.769  -0.180  -0.025  1.00  0.00     0.684 A 
HETATM    6  N3  UNL     1      -1.951  -0.728   0.285  1.00  0.00    -0.179 N 
ATOM      7  H3  UNL     1      -1.953  -1.561   0.874  1.00  0.00     0.185 HD
HETATM    8  C11 UNL     1      -3.141  -0.245  -0.135  1.00  0.00     0.112 A 
HETATM    9  N4  UNL     1      -3.088   0.828  -0.908  1.00  0.00    -0.334 N 
ATOM     10  H4  UNL     1      -3.965   1.216  -1.254  1.00  0.00     0.168 HD
ENDROOT
BRANCH   5  11
HETATM   11  N2  UNL     1       0.362  -0.574   0.438  1.00  0.00    -0.199 N 
ATOM     12  H2  UNL     1       0.366  -1.412   1.019  1.00  0.00     0.183 HD
BRANCH  11  13
HETATM   13  C4  UNL     1       1.592   0.059   0.206  1.00  0.00     0.000 C 
HETATM   14  C5  UNL     1       2.095   0.749   1.440  1.00  0.00     0.064 C 
BRANCH  13  15
HETATM   15  C6  UNL     1       2.561  -0.591  -0.692  1.00  0.00     0.053 C 
BRANCH  15  16
HETATM   16  C7  UNL     1       3.895   0.050  -0.848  1.00  0.00     0.009 C 
BRANCH  16  17
HETATM   17  C8  UNL     1       4.879  -0.104   0.260  1.00  0.00    -0.023 C 
HETATM   18  C9  UNL     1       5.221  -1.612   0.316  1.00  0.00     0.009 C 
HETATM   19  C10 UNL     1       6.139   0.658  -0.021  1.00  0.00     0.009 C 
ENDBRANCH  16  17
ENDBRANCH  15  16
ENDBRANCH  13  15
ENDBRANCH  11  13
ENDBRANCH   5  11
BRANCH   8  20
HETATM   20  C12 UNL     1      -4.400  -0.855   0.322  1.00  0.00     0.070 C 
HETATM   21  C13 UNL     1      -4.259  -2.242   0.894  1.00  0.00     0.029 C 
HETATM   22  C14 UNL     1      -4.796  -0.003   1.591  1.00  0.00     0.029 C 
BRANCH  20  23
HETATM   23  C15 UNL     1      -5.561  -0.701  -0.594  1.00  0.00     0.368 C 
HETATM   24  F1  UNL     1      -6.626  -1.398   0.045  1.00  0.00    -0.213 F 
HETATM   25  F2  UNL     1      -6.040   0.634  -0.563  1.00  0.00    -0.213 F 
ENDBRANCH  20  23
ENDBRANCH   8  20
TORSDOF 7
