REMARK  6 active torsions:
REMARK  status: ('A' for Active; 'I' for Inactive)
REMARK    1  A    between atoms: N1_2  and  C3_4 
REMARK    2  A    between atoms: C3_4  and  C4_5 
REMARK    3  A    between atoms: C4_5  and  S1_6 
REMARK    4  A    between atoms: S1_6  and  C5_7 
REMARK    5  A    between atoms: C6_10  and  C7_11 
REMARK    6  A    between atoms: C8_14  and  C9_15 
ROOT
HETATM    1  C5  UNL     1       0.689   0.062   0.860  1.00  0.00     0.145 A 
HETATM    2  N2  UNL     1       0.901  -0.796  -0.114  1.00  0.00    -0.334 N 
ATOM      3  H2  UNL     1       1.818  -1.153  -0.381  1.00  0.00     0.168 HD
HETATM    4  C6  UNL     1      -0.239  -1.135  -0.703  1.00  0.00     0.099 A 
HETATM    5  C8  UNL     1      -1.256  -0.419  -0.026  1.00  0.00     0.043 A 
HETATM    6  N3  UNL     1      -0.648   0.293   0.919  1.00  0.00    -0.338 N 
ATOM      7  H3  UNL     1      -1.112   0.914   1.582  1.00  0.00     0.168 HD
ENDROOT
BRANCH   1   8
HETATM    8  S1  UNL     1       1.924   0.863   1.920  1.00  0.00    -0.092 SA
BRANCH   8   9
HETATM    9  C4  UNL     1       3.592   0.396   1.396  1.00  0.00     0.102 C 
BRANCH   9  10
HETATM   10  C3  UNL     1       3.931   0.959   0.046  1.00  0.00     0.126 C 
BRANCH  10  11
HETATM   11  N1  UNL     1       5.193   0.600  -0.477  1.00  0.00    -0.420 N 
HETATM   12  C1  UNL     1       5.438  -0.703  -0.933  1.00  0.00     0.142 C 
HETATM   13  C2  UNL     1       6.353   1.301  -0.077  1.00  0.00     0.142 C 
ENDBRANCH  10  11
ENDBRANCH   9  10
ENDBRANCH   8   9
ENDBRANCH   1   8
BRANCH   4  14
HETATM   14  C7  UNL     1      -0.408  -2.127  -1.779  1.00  0.00     0.405 C 
HETATM   15  F1  UNL     1      -0.044  -3.391  -1.178  1.00  0.00    -0.207 F 
HETATM   16  F2  UNL     1       0.512  -1.928  -2.765  1.00  0.00    -0.207 F 
ENDBRANCH   4  14
BRANCH   5  17
HETATM   17  C9  UNL     1      -2.637  -0.389  -0.497  1.00  0.00     0.039 C 
HETATM   18  C10 UNL     1      -3.756  -1.010   0.253  1.00  0.00     0.019 C 
HETATM   19  C11 UNL     1      -4.559   0.272   0.047  1.00  0.00    -0.046 C 
HETATM   20  C12 UNL     1      -5.539   0.481   1.206  1.00  0.00     0.015 C 
HETATM   21  C13 UNL     1      -5.229   0.454  -1.276  1.00  0.00     0.015 C 
HETATM   22  C14 UNL     1      -3.231   0.980   0.177  1.00  0.00     0.019 C 
ENDBRANCH   5  17
TORSDOF 6
