REMARK  12 active torsions:
REMARK  status: ('A' for Active; 'I' for Inactive)
REMARK    1  A    between atoms: C2_2  and  C3_3 
REMARK    2  A    between atoms: C3_3  and  C4_4 
REMARK    3  A    between atoms: C4_4  and  C5_5 
REMARK    4  A    between atoms: C5_5  and  C6_6 
REMARK    5  A    between atoms: C8_9  and  C9_10 
REMARK    6  A    between atoms: C10_15  and  O3_16 
REMARK    7  A    between atoms: C11_18  and  C12_19 
REMARK    8  A    between atoms: C12_19  and  C14_21 
REMARK    9  A    between atoms: C17_27  and  C18_28 
REMARK   10  A    between atoms: C18_28  and  C19_29 
REMARK   11  A    between atoms: C19_29  and  C20_30 
REMARK   12  A    between atoms: C20_30  and  N3_31 
ROOT
HETATM    1  C6  UNL     1       2.105  -0.716  -0.378  1.00  0.00     0.139 C 
HETATM    2  S1  UNL     1       1.376  -1.633   0.996  1.00  0.00    -0.152 SA
HETATM    3  C7  UNL     1       0.367  -3.024   0.583  1.00  0.00     0.111 C 
HETATM    4  C8  UNL     1       0.066  -3.316  -0.829  1.00  0.00     0.194 C 
HETATM    5  N1  UNL     1      -0.742  -2.457  -1.597  1.00  0.00    -0.358 N 
ATOM      6  H1  UNL     1      -0.166  -1.900  -2.228  1.00  0.00     0.162 HD
HETATM    7  C10 UNL     1      -2.079  -2.137  -1.758  1.00  0.00     0.136 C 
HETATM    8  C11 UNL     1      -3.064  -1.416  -0.961  1.00  0.00     0.162 C 
HETATM    9  N2  UNL     1      -3.023   0.044  -1.154  1.00  0.00    -0.347 N 
ATOM     10  H2  UNL     1      -3.917   0.513  -1.301  1.00  0.00     0.163 HD
HETATM   11  C16 UNL     1      -1.870   0.860  -1.156  1.00  0.00     0.241 C 
HETATM   12  O4  UNL     1      -1.693   1.648  -2.121  1.00  0.00    -0.271 OA
HETATM   13  C17 UNL     1      -0.801   0.910  -0.128  1.00  0.00     0.177 C 
HETATM   14  N6  UNL     1       0.500   1.290  -0.664  1.00  0.00    -0.347 N 
ATOM     15  H6  UNL     1       0.514   2.016  -1.380  1.00  0.00     0.163 HD
HETATM   16  C22 UNL     1       1.748   0.740  -0.278  1.00  0.00     0.232 C 
HETATM   17  O5  UNL     1       2.589   1.563   0.177  1.00  0.00    -0.272 OA
ENDROOT
BRANCH  13  18
HETATM   18  C18 UNL     1      -1.161   1.933   0.964  1.00  0.00     0.040 C 
BRANCH  18  19
HETATM   19  C19 UNL     1      -1.327   3.312   0.408  1.00  0.00     0.047 C 
BRANCH  19  20
HETATM   20  C20 UNL     1      -1.677   4.289   1.498  1.00  0.00     0.063 C 
BRANCH  20  21
HETATM   21  N3  UNL     1      -1.859   5.630   1.108  1.00  0.00    -0.347 N 
HETATM   22  C21 UNL     1      -1.921   6.184  -0.026  1.00  0.00     0.200 C 
HETATM   23  N4  UNL     1      -1.819   5.571  -1.296  1.00  0.00    -0.067 NA
HETATM   24  N5  UNL     1      -2.121   7.615  -0.035  1.00  0.00    -0.067 NA
ATOM     25  H3  UNL     1      -1.960   6.277   1.890  1.00  0.00     0.167 HD
ENDBRANCH  20  21
ENDBRANCH  19  20
ENDBRANCH  18  19
ENDBRANCH  13  18
BRANCH   8  26
HETATM   26  C12 UNL     1      -3.213  -1.767   0.484  1.00  0.00     0.012 C 
HETATM   27  C13 UNL     1      -4.323  -0.824   1.007  1.00  0.00     0.012 C 
BRANCH  26  28
HETATM   28  C14 UNL     1      -3.846  -3.156   0.650  1.00  0.00     0.002 C 
HETATM   29  C15 UNL     1      -3.969  -3.445   2.132  1.00  0.00     0.005 C 
ENDBRANCH  26  28
ENDBRANCH   8  26
BRANCH   1  30
HETATM   30  C5  UNL     1       3.603  -0.874  -0.219  1.00  0.00     0.025 C 
BRANCH  30  31
HETATM   31  C4  UNL     1       4.426  -0.228  -1.270  1.00  0.00     0.002 C 
BRANCH  31  32
HETATM   32  C3  UNL     1       5.891  -0.476  -0.994  1.00  0.00    -0.000 C 
BRANCH  32  33
HETATM   33  C2  UNL     1       6.340   0.072   0.323  1.00  0.00    -0.005 C 
HETATM   34  C1  UNL     1       7.829  -0.209   0.530  1.00  0.00     0.005 C 
ENDBRANCH  32  33
ENDBRANCH  31  32
ENDBRANCH  30  31
ENDBRANCH   1  30
BRANCH   7  35
HETATM   35  O3  UNL     1      -2.584  -2.582  -2.893  1.00  0.00    -0.348 OA
ATOM     36  H3  UNL     1      -3.502  -2.362  -3.004  1.00  0.00     0.219 HD
ENDBRANCH   7  35
BRANCH   4  37
HETATM   37  C9  UNL     1      -0.328  -4.781  -0.888  1.00  0.00     0.197 C 
HETATM   38  O1  UNL     1      -1.297  -5.059  -1.623  1.00  0.00    -0.646 OA
HETATM   39  O2  UNL     1       0.366  -5.726  -0.158  1.00  0.00    -0.646 OA
ENDBRANCH   4  37
TORSDOF 12
