REMARK  14 active torsions:
REMARK  status: ('A' for Active; 'I' for Inactive)
REMARK    1  A    between atoms: C2_2  and  C3_3 
REMARK    2  A    between atoms: C3_3  and  N1_4 
REMARK    3  A    between atoms: N1_4  and  C4_5 
REMARK    4  A    between atoms: N1_4  and  C20_37 
REMARK    5  A    between atoms: C4_5  and  C5_6 
REMARK    6  A    between atoms: C5_6  and  C6_7 
REMARK    7  A    between atoms: C6_7  and  N2_8 
REMARK    8  A    between atoms: N2_8  and  C7_10 
REMARK    9  A    between atoms: C8_13  and  N4_14 
REMARK   10  A    between atoms: N4_14  and  C9_16 
REMARK   11  A    between atoms: C9_16  and  C10_17 
REMARK   12  A    between atoms: C13_26  and  N8_27 
REMARK   13  A    between atoms: N8_27  and  C14_29 
REMARK   14  A    between atoms: C24_41  and  C25_42 
ROOT
HETATM    1  C7  UNL     1       0.080   1.784   0.356  1.00  0.00     0.707 A 
HETATM    2  N3  UNL     1      -0.898   2.697   0.249  1.00  0.00    -0.022 N 
ATOM      3  H3  UNL     1      -0.659   3.685   0.334  1.00  0.00     0.203 HD
HETATM    4  C8  UNL     1      -2.193   2.353   0.032  1.00  0.00     0.707 A 
HETATM    5  N7  UNL     1      -2.471   1.027  -0.076  1.00  0.00    -0.021 N 
ATOM      6  H7  UNL     1      -3.435   0.738  -0.239  1.00  0.00     0.203 HD
HETATM    7  C13 UNL     1      -1.523   0.088   0.024  1.00  0.00     0.707 A 
HETATM    8  N9  UNL     1      -0.253   0.493   0.241  1.00  0.00    -0.022 N 
ATOM      9  H9  UNL     1       0.480  -0.212   0.320  1.00  0.00     0.203 HD
ENDROOT
BRANCH   1  10
HETATM   10  N2  UNL     1       1.274   2.195   0.561  1.00  0.00    -0.225 N 
ATOM     11  H2  UNL     1       1.395   3.205   0.630  1.00  0.00     0.177 HD
BRANCH  10  12
HETATM   12  C6  UNL     1       2.454   1.412   0.705  1.00  0.00     0.139 C 
BRANCH  12  13
HETATM   13  C5  UNL     1       2.617   0.746   2.034  1.00  0.00     0.040 C 
BRANCH  13  14
HETATM   14  C4  UNL     1       3.895  -0.055   2.078  1.00  0.00     0.126 C 
BRANCH  14  15
HETATM   15  N1  UNL     1       3.934  -1.099   1.070  1.00  0.00    -0.364 N 
BRANCH  15  16
HETATM   16  C3  UNL     1       3.004  -2.194   1.249  1.00  0.00     0.151 C 
BRANCH  16  17
HETATM   17  C2  UNL     1       3.366  -3.023   2.441  1.00  0.00    -0.017 C 
HETATM   18  C1  UNL     1       3.654  -4.308   2.342  1.00  0.00     0.008 C 
ENDBRANCH  16  17
ENDBRANCH  15  16
BRANCH  15  19
HETATM   19  C20 UNL     1       4.853  -1.015  -0.015  1.00  0.00     0.103 A 
HETATM   20  C21 UNL     1       5.097  -2.035  -0.811  1.00  0.00     0.048 A 
HETATM   21  C22 UNL     1       6.055  -1.867  -1.904  1.00  0.00     0.006 A 
HETATM   22  C23 UNL     1       6.656  -0.707  -2.076  1.00  0.00     0.033 A 
HETATM   23  C24 UNL     1       6.369   0.414  -1.178  1.00  0.00     0.074 A 
HETATM   24  N12 UNL     1       5.526   0.216  -0.240  1.00  0.00    -0.340 N 
ATOM     25  H12 UNL     1       5.322   0.992   0.389  1.00  0.00     0.167 HD
BRANCH  23  26
HETATM   26  C25 UNL     1       6.992   1.713  -1.310  1.00  0.00     0.137 C 
HETATM   27  N10 UNL     1       7.832   1.947  -2.227  1.00  0.00    -0.386 N 
ATOM     28 2H10 UNL     1       8.082   1.215  -2.892  1.00  0.00     0.157 HD
ATOM     29 1H10 UNL     1       8.271   2.863  -2.320  1.00  0.00     0.157 HD
HETATM   30  N11 UNL     1       6.642   2.737  -0.380  1.00  0.00    -0.081 NA
ENDBRANCH  23  26
ENDBRANCH  15  19
ENDBRANCH  14  15
ENDBRANCH  13  14
ENDBRANCH  12  13
ENDBRANCH  10  12
ENDBRANCH   1  10
BRANCH   4  31
HETATM   31  N4  UNL     1      -3.111   3.255  -0.067  1.00  0.00    -0.219 N 
ATOM     32  H4  UNL     1      -2.890   4.247   0.016  1.00  0.00     0.178 HD
BRANCH  31  33
HETATM   33  C9  UNL     1      -4.467   2.803  -0.300  1.00  0.00     0.196 C 
BRANCH  33  34
HETATM   34  C10 UNL     1      -5.344   3.969  -0.538  1.00  0.00     0.044 A 
HETATM   35  C11 UNL     1      -6.683   3.979  -0.861  1.00  0.00     0.115 A 
HETATM   36  N5  UNL     1      -7.070   5.249  -0.982  1.00  0.00    -0.360 N 
HETATM   37  C12 UNL     1      -6.033   6.053  -0.748  1.00  0.00     0.180 A 
ATOM     38  H5  UNL     1      -8.013   5.558  -1.217  1.00  0.00     0.166 HD
HETATM   39  N6  UNL     1      -4.984   5.259  -0.478  1.00  0.00    -0.353 N 
ATOM     40  H6  UNL     1      -4.045   5.591  -0.258  1.00  0.00     0.166 HD
ENDBRANCH  33  34
ENDBRANCH  31  33
ENDBRANCH   4  31
BRANCH   7  41
HETATM   41  N8  UNL     1      -1.797  -1.141  -0.077  1.00  0.00    -0.220 N 
ATOM     42  H8  UNL     1      -1.008  -1.781   0.014  1.00  0.00     0.178 HD
BRANCH  41  43
HETATM   43  C14 UNL     1      -3.064  -1.747  -0.301  1.00  0.00     0.099 C 
HETATM   44  C15 UNL     1      -3.933  -1.798   0.938  1.00  0.00     0.026 C 
HETATM   45  C16 UNL     1      -5.332  -2.151   0.487  1.00  0.00     0.002 C 
HETATM   46  C17 UNL     1      -5.367  -3.466  -0.257  1.00  0.00     0.000 C 
HETATM   47  C18 UNL     1      -4.341  -3.518  -1.363  1.00  0.00     0.002 C 
HETATM   48  C19 UNL     1      -2.967  -3.158  -0.836  1.00  0.00     0.026 C 
ENDBRANCH  41  43
ENDBRANCH   7  41
TORSDOF 14
