REMARK  13 active torsions:
REMARK  status: ('A' for Active; 'I' for Inactive)
REMARK    1  A    between atoms: C2_2  and  O2_4 
REMARK    2  A    between atoms: O2_4  and  C3_5 
REMARK    3  A    between atoms: C4_8  and  N2_9 
REMARK    4  A    between atoms: N4_15  and  N5_17 
REMARK    5  A    between atoms: N5_17  and  O3_19 
REMARK    6  A    between atoms: O3_19  and  C6_20 
REMARK    7  A    between atoms: C6_20  and  C7_22 
REMARK    8  A    between atoms: C7_22  and  O5_23 
REMARK    9  A    between atoms: N6_25  and  O6_27 
REMARK   10  A    between atoms: N7_29  and  C8_30 
REMARK   11  A    between atoms: C8_30  and  O7_31 
REMARK   12  A    between atoms: C8_30  and  N8_33 
REMARK   13  A    between atoms: N8_33  and  O8_35 
ROOT
HETATM    1  C3  UNL     1      -2.057   0.399   0.650  1.00  0.00     0.271 A 
HETATM    2  N1  UNL     1      -1.953   1.490   1.478  1.00  0.00    -0.153 N 
ATOM      3  H1  UNL     1      -2.792   2.039   1.666  1.00  0.00     0.188 HD
HETATM    4  C4  UNL     1      -0.810   1.865   2.047  1.00  0.00     0.693 A 
HETATM    5  N3  UNL     1       0.266   1.131   1.783  1.00  0.00    -0.020 N 
ATOM      6  H3  UNL     1       1.163   1.384   2.197  1.00  0.00     0.203 HD
HETATM    7  C5  UNL     1       0.186   0.064   0.981  1.00  0.00     0.726 A 
HETATM    8  N4  UNL     1       1.271  -0.610   0.768  1.00  0.00    -0.111 N 
ATOM      9  H4  UNL     1       1.236  -1.428   0.159  1.00  0.00     0.207 HD
HETATM   10  N7  UNL     1      -0.994  -0.350   0.377  1.00  0.00    -0.068 N 
ENDROOT
BRANCH   8  11
HETATM   11  N5  UNL     1       2.483  -0.249   1.347  1.00  0.00    -0.184 N 
ATOM     12  H5  UNL     1       2.704  -0.533   2.301  1.00  0.00     0.217 HD
BRANCH  11  13
HETATM   13  O3  UNL     1       3.381   0.496   0.618  1.00  0.00    -0.176 OA
BRANCH  13  14
HETATM   14  C6  UNL     1       4.641   0.034   0.275  1.00  0.00     0.359 C 
HETATM   15  O4  UNL     1       4.926  -1.138   0.678  1.00  0.00    -0.253 OA
BRANCH  14  16
HETATM   16  C7  UNL     1       5.598   0.797  -0.487  1.00  0.00     0.239 C 
HETATM   17  N6  UNL     1       6.749   0.292  -0.763  1.00  0.00    -0.242 N 
ATOM     18  H6  UNL     1       6.962  -0.649  -0.432  1.00  0.00     0.196 HD
BRANCH  16  19
HETATM   19  O5  UNL     1       5.308   2.066  -0.931  1.00  0.00    -0.340 OA
ATOM     20  H5  UNL     1       5.939   2.569  -1.433  1.00  0.00     0.219 HD
ENDBRANCH  16  19
BRANCH  17  21
HETATM   21  O6  UNL     1       7.702   0.968  -1.485  1.00  0.00    -0.288 OA
ATOM     22  H6  UNL     1       8.552   0.595  -1.689  1.00  0.00     0.244 HD
ENDBRANCH  17  21
ENDBRANCH  14  16
ENDBRANCH  13  14
ENDBRANCH  11  13
ENDBRANCH   8  11
BRANCH  10  23
HETATM   23  C8  UNL     1      -0.941  -1.557  -0.331  1.00  0.00     0.268 C 
BRANCH  23  24
HETATM   24  O7  UNL     1       0.323  -1.902  -0.615  1.00  0.00    -0.330 OA
ATOM     25  H7  UNL     1       0.359  -2.721  -1.095  1.00  0.00     0.221 HD
ENDBRANCH  23  24
BRANCH  23  26
HETATM   26  N8  UNL     1      -1.827  -2.490  -0.809  1.00  0.00    -0.227 N 
HETATM   27  C9  UNL     1      -3.238  -2.677  -0.774  1.00  0.00     0.189 C 
BRANCH  26  28
HETATM   28  O8  UNL     1      -1.190  -3.548  -1.534  1.00  0.00    -0.285 OA
ATOM     29  H8  UNL     1      -1.803  -4.194  -1.865  1.00  0.00     0.245 HD
ENDBRANCH  26  28
ENDBRANCH  23  26
ENDBRANCH  10  23
BRANCH   4  30
HETATM   30  N2  UNL     1      -0.740   2.905   2.832  1.00  0.00    -0.234 N 
ATOM     31  H22 UNL     1      -1.566   3.468   3.035  1.00  0.00     0.174 HD
ATOM     32  H21 UNL     1       0.136   3.192   3.268  1.00  0.00     0.174 HD
ENDBRANCH   4  30
BRANCH   1  33
HETATM   33  O2  UNL     1      -3.309   0.133   0.117  1.00  0.00    -0.245 OA
BRANCH  33  34
HETATM   34  C2  UNL     1      -3.840   1.029  -0.855  1.00  0.00     0.262 C 
HETATM   35  C1  UNL     1      -5.179   0.765  -1.440  1.00  0.00     0.126 C 
HETATM   36  O1  UNL     1      -3.119   1.999  -1.151  1.00  0.00    -0.265 OA
ENDBRANCH  33  34
ENDBRANCH   1  33
TORSDOF 13
