REMARK  8 active torsions:
REMARK  status: ('A' for Active; 'I' for Inactive)
REMARK    1  A    between atoms: C2_2  and  N1_3 
REMARK    2  A    between atoms: C2_2  and  C7_21 
REMARK    3  A    between atoms: N1_3  and  N2_4 
REMARK    4  A    between atoms: N2_4  and  C3_6 
REMARK    5  A    between atoms: C5_11  and  N5_12 
REMARK    6  A    between atoms: C6_15  and  N6_16 
REMARK    7  A    between atoms: C9_23  and  N8_24 
REMARK    8  A    between atoms: N8_24  and  N9_26 
ROOT
HETATM    1  N1  UNL     1      -0.128  -0.863   0.164  1.00  0.00    -0.318 NA
ENDROOT
BRANCH   1   2
HETATM    2  C2  UNL     1      -0.851  -1.257  -0.670  1.00  0.00     0.106 C 
HETATM    3  C1  UNL     1      -0.581  -2.539  -1.430  1.00  0.00     0.084 C 
BRANCH   2   4
HETATM    4  C7  UNL     1      -2.133  -0.568  -1.108  1.00  0.00     0.153 A 
HETATM    5  C8  UNL     1      -2.408   0.677  -0.353  1.00  0.00     0.110 A 
HETATM    6  C9  UNL     1      -3.695   0.656   0.348  1.00  0.00     0.106 A 
HETATM    7  N10 UNL     1      -4.479  -0.339   0.297  1.00  0.00    -0.319 N 
HETATM    8  C10 UNL     1      -4.245  -1.540  -0.417  1.00  0.00     0.190 A 
ATOM      9  H10 UNL     1      -5.355  -0.269   0.815  1.00  0.00     0.169 HD
HETATM   10  N11 UNL     1      -5.180  -2.604  -0.421  1.00  0.00    -0.063 NA
HETATM   11  N12 UNL     1      -3.136  -1.592  -1.055  1.00  0.00    -0.353 N 
ATOM     12  H12 UNL     1      -2.947  -2.447  -1.578  1.00  0.00     0.163 HD
BRANCH   6  13
HETATM   13  N8  UNL     1      -4.075   1.826   1.131  1.00  0.00    -0.229 N 
ATOM     14  H8  UNL     1      -5.010   1.902   1.532  1.00  0.00     0.194 HD
BRANCH  13  15
HETATM   15  N9  UNL     1      -3.149   2.825   1.318  1.00  0.00    -0.038 N 
HETATM   16  O3  UNL     1      -2.522   2.888   2.392  1.00  0.00    -0.516 OA
HETATM   17  O4  UNL     1      -2.878   3.771   0.365  1.00  0.00    -0.516 OA
ENDBRANCH  13  15
ENDBRANCH   6  13
ENDBRANCH   2   4
ENDBRANCH   1   2
BRANCH   1  18
HETATM   18  N2  UNL     1       0.562  -0.307   1.093  1.00  0.00    -0.065 N 
ATOM     19  H2  UNL     1       0.100  -0.129   1.985  1.00  0.00     0.221 HD
BRANCH  18  20
HETATM   20  C3  UNL     1       1.797   0.042   0.979  1.00  0.00     0.710 A 
HETATM   21  N3  UNL     1       2.413  -0.188  -0.185  1.00  0.00    -0.174 N 
HETATM   22  C4  UNL     1       3.720   0.183  -0.299  1.00  0.00     0.168 A 
ATOM     23  H3  UNL     1       1.921  -0.627  -0.963  1.00  0.00     0.185 HD
HETATM   24  N4  UNL     1       4.446  -0.021  -1.491  1.00  0.00    -0.079 NA
HETATM   25  C5  UNL     1       4.333   0.764   0.770  1.00  0.00     0.188 A 
HETATM   26  C6  UNL     1       3.689   0.991   1.953  1.00  0.00     0.151 A 
HETATM   27  N7  UNL     1       2.397   0.613   2.031  1.00  0.00    -0.172 N 
ATOM     28  H7  UNL     1       1.875   0.763   2.894  1.00  0.00     0.186 HD
BRANCH  25  29
HETATM   29  N5  UNL     1       5.694   1.156   0.672  1.00  0.00    -0.108 N 
HETATM   30  O1  UNL     1       6.027   2.139   0.017  1.00  0.00    -0.532 OA
HETATM   31  O2  UNL     1       6.645   0.420   1.323  1.00  0.00    -0.532 OA
ENDBRANCH  25  29
BRANCH  26  32
HETATM   32  N6  UNL     1       4.262   1.540   2.968  1.00  0.00    -0.383 N 
ATOM     33  H62 UNL     1       5.239   1.826   2.909  1.00  0.00     0.157 HD
ATOM     34  H61 UNL     1       3.781   1.710   3.851  1.00  0.00     0.157 HD
ENDBRANCH  26  32
ENDBRANCH  18  20
ENDBRANCH   1  18
TORSDOF 8
