REMARK  7 active torsions:
REMARK  status: ('A' for Active; 'I' for Inactive)
REMARK    1  A    between atoms: C3_3  and  N1_4 
REMARK    2  A    between atoms: N1_4  and  N2_6 
REMARK    3  A    between atoms: N2_6  and  C4_8 
REMARK    4  A    between atoms: N3_9  and  N4_10 
REMARK    5  A    between atoms: C5_13  and  N5_14 
REMARK    6  A    between atoms: N6_16  and  C6_18 
REMARK    7  A    between atoms: N11_31  and  N12_32 
REMARK       I    between atoms: N12_32  and  C10_34 
ROOT
HETATM    1  C1  UNL     1      -5.124  -3.469  -0.149  1.00  0.00     0.103 C 
HETATM    2  C2  UNL     1      -3.856  -3.445  -0.503  1.00  0.00    -0.142 C 
HETATM    3  C3  UNL     1      -2.598  -3.341  -0.869  1.00  0.00     0.157 C 
ENDROOT
BRANCH   3   4
HETATM    4  N1  UNL     1      -2.250  -2.155  -1.532  1.00  0.00    -0.290 N 
ATOM      5  H1  UNL     1      -1.891  -2.219  -2.485  1.00  0.00     0.187 HD
BRANCH   4   6
HETATM    6  N2  UNL     1      -2.371  -0.896  -0.953  1.00  0.00    -0.128 N 
ATOM      7  H2  UNL     1      -3.308  -0.510  -0.841  1.00  0.00     0.205 HD
BRANCH   6   8
HETATM    8  C4  UNL     1      -1.372  -0.186  -0.549  1.00  0.00     0.742 A 
HETATM    9  N3  UNL     1      -0.073  -0.608  -0.652  1.00  0.00    -0.068 N 
HETATM   10  C5  UNL     1       0.697   0.351  -0.148  1.00  0.00     0.204 A 
HETATM   11  C9  UNL     1      -0.142   1.362   0.261  1.00  0.00     0.204 A 
HETATM   12  N10 UNL     1       0.311   2.576   0.860  1.00  0.00    -0.076 NA
HETATM   13  N11 UNL     1      -1.453   1.026   0.009  1.00  0.00    -0.062 N 
BRANCH   9  14
HETATM   14  N4  UNL     1       0.322  -1.833  -1.193  1.00  0.00    -0.322 N 
ATOM     15  H42 UNL     1      -0.269  -2.569  -1.580  1.00  0.00     0.178 HD
ATOM     16  H41 UNL     1       1.289  -2.147  -1.270  1.00  0.00     0.178 HD
ENDBRANCH   9  14
BRANCH  10  17
HETATM   17  N5  UNL     1       2.127   0.354  -0.043  1.00  0.00    -0.266 N 
HETATM   18  N6  UNL     1       2.723   0.005   1.018  1.00  0.00    -0.130 N 
ATOM     19  H6  UNL     1       2.214  -0.296   1.849  1.00  0.00     0.205 HD
ATOM     20  H5  UNL     1       2.681   0.646  -0.848  1.00  0.00     0.189 HD
BRANCH  18  21
HETATM   21  C6  UNL     1       4.154   0.057   0.983  1.00  0.00     0.705 A 
HETATM   22  N7  UNL     1       4.867  -1.025   0.596  1.00  0.00    -0.139 N 
HETATM   23  C7  UNL     1       6.217  -0.966   0.566  1.00  0.00     0.342 A 
ATOM     24  H7  UNL     1       4.387  -1.884   0.327  1.00  0.00     0.189 HD
HETATM   25  O1  UNL     1       6.884  -1.971   0.206  1.00  0.00    -0.246 OA
HETATM   26  N8  UNL     1       6.894   0.131   0.906  1.00  0.00    -0.260 N 
HETATM   27  C8  UNL     1       6.178   1.215   1.294  1.00  0.00     0.342 A 
ATOM     28  H8  UNL     1       7.913   0.154   0.875  1.00  0.00     0.175 HD
HETATM   29  O2  UNL     1       6.812   2.240   1.613  1.00  0.00    -0.246 OA
HETATM   30  N9  UNL     1       4.839   1.148   1.321  1.00  0.00    -0.139 N 
ATOM     31  H9  UNL     1       4.319   1.974   1.615  1.00  0.00     0.189 HD
ENDBRANCH  18  21
ENDBRANCH  10  17
BRANCH  13  32
HETATM   32  N12 UNL     1      -2.504   1.865   0.323  1.00  0.00    -0.248 N 
HETATM   33  C10 UNL     1      -3.879   1.689   0.141  1.00  0.00     0.233 C 
HETATM   34  C11 UNL     1      -4.829   2.793   0.586  1.00  0.00     0.119 C 
HETATM   35  O3  UNL     1      -4.430   0.713  -0.353  1.00  0.00    -0.272 OA
ATOM     36  H12 UNL     1      -2.236   2.750   0.754  1.00  0.00     0.191 HD
ENDBRANCH  13  32
ENDBRANCH   6   8
ENDBRANCH   4   6
ENDBRANCH   3   4
TORSDOF 7
