REMARK  7 active torsions:
REMARK  status: ('A' for Active; 'I' for Inactive)
REMARK    1  A    between atoms: C1_4  and  C2_6 
REMARK    2  A    between atoms: C3_11  and  N5_12 
REMARK    3  A    between atoms: N7_20  and  C8_21 
REMARK    4  A    between atoms: C9_27  and  C10_28 
REMARK    5  A    between atoms: C10_28  and  N11_33 
REMARK    6  A    between atoms: N10_29  and  O1_31 
REMARK    7  A    between atoms: N11_33  and  N12_35 
ROOT
HETATM    1  C2  UNL     1       0.771   2.364   0.853  1.00  0.00     0.186 A 
HETATM    2  N3  UNL     1       0.126   2.408   2.051  1.00  0.00    -0.267 N 
ATOM      3  H3  UNL     1       0.395   2.993   2.842  1.00  0.00     0.189 HD
HETATM    4  N4  UNL     1      -0.890   1.587   2.033  1.00  0.00    -0.130 N 
ATOM      5  H4  UNL     1      -1.534   1.435   2.809  1.00  0.00     0.205 HD
HETATM    6  C3  UNL     1      -0.963   0.956   0.807  1.00  0.00     0.705 A 
HETATM    7  N7  UNL     1       0.075   1.472   0.135  1.00  0.00    -0.108 N 
ENDROOT
BRANCH   7   8
HETATM    8  C8  UNL     1       0.445   1.124  -1.230  1.00  0.00     0.169 A 
HETATM    9  N8  UNL     1      -0.125   1.767  -2.238  1.00  0.00    -0.295 N 
HETATM   10  S1  UNL     1       0.564   1.101  -3.606  1.00  0.00     0.069 SA
ATOM     11  H8  UNL     1      -0.828   2.504  -2.190  1.00  0.00     0.177 HD
HETATM   12  N9  UNL     1       1.582  -0.002  -2.858  1.00  0.00    -0.306 N 
HETATM   13  C9  UNL     1       1.365   0.170  -1.542  1.00  0.00     0.133 A 
ATOM     14  H9  UNL     1       2.224  -0.658  -3.303  1.00  0.00     0.176 HD
BRANCH  13  15
HETATM   15  C10 UNL     1       2.119  -0.665  -0.554  1.00  0.00     0.171 C 
HETATM   16  N10 UNL     1       1.589  -0.978   0.553  1.00  0.00    -0.250 N 
ATOM     17  H10 UNL     1       0.644  -0.650   0.752  1.00  0.00     0.196 HD
BRANCH  16  18
HETATM   18  O1  UNL     1       2.225  -1.731   1.485  1.00  0.00    -0.288 OA
ATOM     19  H1  UNL     1       1.827  -1.966   2.315  1.00  0.00     0.244 HD
ENDBRANCH  16  18
BRANCH  15  20
HETATM   20  N11 UNL     1       3.436  -1.110  -0.855  1.00  0.00    -0.289 N 
ATOM     21  H11 UNL     1       4.158  -0.426  -1.080  1.00  0.00     0.188 HD
BRANCH  20  22
HETATM   22  N12 UNL     1       3.755  -2.468  -0.847  1.00  0.00    -0.344 N 
ATOM     23 2H12 UNL     1       3.021  -3.139  -0.620  1.00  0.00     0.176 HD
ATOM     24 1H12 UNL     1       4.699  -2.787  -1.063  1.00  0.00     0.176 HD
ENDBRANCH  20  22
ENDBRANCH  15  20
ENDBRANCH  13  15
ENDBRANCH   7   8
BRANCH   1  25
HETATM   25  C1  UNL     1       1.937   3.156   0.532  1.00  0.00     0.157 C 
HETATM   26  N1  UNL     1       2.427   3.959   1.401  1.00  0.00    -0.385 N 
ATOM     27  H12 UNL     1       3.250   4.518   1.175  1.00  0.00     0.157 HD
ATOM     28  H11 UNL     1       1.987   4.024   2.319  1.00  0.00     0.157 HD
HETATM   29  N2  UNL     1       2.544   3.066  -0.734  1.00  0.00    -0.079 NA
ENDBRANCH   1  25
BRANCH   6  30
HETATM   30  N5  UNL     1      -1.949   0.010   0.452  1.00  0.00    -0.213 N 
HETATM   31  C4  UNL     1      -2.108  -0.684  -0.787  1.00  0.00     0.168 C 
HETATM   32  C5  UNL     1      -3.315  -1.650  -0.669  1.00  0.00     0.252 C 
HETATM   33  N6  UNL     1      -3.162  -2.514   0.456  1.00  0.00    -0.072 N 
HETATM   34  C6  UNL     1      -3.049  -1.798   1.712  1.00  0.00     0.252 C 
ATOM     35  H62 UNL     1      -3.918  -3.198   0.494  1.00  0.00     0.277 HD
ATOM     36  H61 UNL     1      -2.371  -3.145   0.325  1.00  0.00     0.277 HD
HETATM   37  C7  UNL     1      -2.957  -0.326   1.465  1.00  0.00     0.168 C 
ENDBRANCH   6  30
TORSDOF 7
