REMARK  5 active torsions:
REMARK  status: ('A' for Active; 'I' for Inactive)
REMARK    1  A    between atoms: S1_2  and  C2_3 
REMARK    2  A    between atoms: C5_9  and  N2_10 
REMARK    3  A    between atoms: N2_10  and  N3_12 
REMARK    4  A    between atoms: C7_17  and  N5_18 
REMARK       I    between atoms: N6_21  and  C8_22 
REMARK    5  A    between atoms: N10_29  and  N11_30 
ROOT
HETATM    1  N3  UNL     1      -0.394   0.275   1.617  1.00  0.00    -0.282 N 
ATOM      2  H3  UNL     1      -0.920   1.058   2.005  1.00  0.00     0.188 HD
HETATM    3  C6  UNL     1       0.701   0.539   1.029  1.00  0.00     0.163 A 
HETATM    4  N4  UNL     1       1.112   1.851   0.950  1.00  0.00    -0.173 N 
ATOM      5  H4  UNL     1       0.528   2.575   1.369  1.00  0.00     0.186 HD
HETATM    6  C7  UNL     1       2.241   2.209   0.348  1.00  0.00     0.689 A 
HETATM    7  N6  UNL     1       3.059   1.294  -0.228  1.00  0.00    -0.084 N 
HETATM    8  C8  UNL     1       4.267   1.711  -0.866  1.00  0.00     0.355 C 
HETATM    9  N7  UNL     1       5.156   0.807  -1.482  1.00  0.00    -0.039 NA
HETATM   10  O2  UNL     1       4.530   2.935  -0.868  1.00  0.00    -0.249 OA
HETATM   11  C9  UNL     1       2.726  -0.003  -0.193  1.00  0.00     0.172 A 
HETATM   12  N8  UNL     1       3.548  -0.994  -0.780  1.00  0.00    -0.079 NA
HETATM   13  C10 UNL     1       1.538  -0.375   0.442  1.00  0.00     0.134 A 
HETATM   14  N9  UNL     1       1.173  -1.757   0.479  1.00  0.00    -0.095 NA
ENDROOT
BRANCH   1  15
HETATM   15  N2  UNL     1      -0.920  -0.969   1.769  1.00  0.00    -0.282 N 
ATOM     16  H2  UNL     1      -0.436  -1.602   2.405  1.00  0.00     0.188 HD
BRANCH  15  17
HETATM   17  C5  UNL     1      -2.097  -1.475   1.115  1.00  0.00     0.148 A 
HETATM   18  C4  UNL     1      -2.523  -2.771   1.342  1.00  0.00     0.126 A 
HETATM   19  C3  UNL     1      -3.644  -3.224   0.716  1.00  0.00     0.251 A 
HETATM   20  N1  UNL     1      -4.326  -2.424  -0.109  1.00  0.00    -0.302 N 
HETATM   21  O1  UNL     1      -4.054  -4.391   0.902  1.00  0.00    -0.268 OA
HETATM   22  C2  UNL     1      -3.919  -1.137  -0.345  1.00  0.00     0.169 A 
ATOM     23  H1  UNL     1      -5.164  -2.777  -0.571  1.00  0.00     0.171 HD
HETATM   24  N10 UNL     1      -2.833  -0.716   0.268  1.00  0.00    -0.222 N 
BRANCH  22  25
HETATM   25  S1  UNL     1      -4.869  -0.153  -1.436  1.00  0.00    -0.096 SA
HETATM   26  C1  UNL     1      -4.321   1.509  -1.712  1.00  0.00     0.099 C 
ENDBRANCH  22  25
BRANCH  24  27
HETATM   27  N11 UNL     1      -2.372   0.577   0.059  1.00  0.00    -0.335 N 
ATOM     28 2H11 UNL     1      -2.926   1.148  -0.579  1.00  0.00     0.177 HD
ATOM     29 1H11 UNL     1      -1.530   0.903   0.534  1.00  0.00     0.177 HD
ENDBRANCH  24  27
ENDBRANCH  15  17
ENDBRANCH   1  15
BRANCH   6  30
HETATM   30  N5  UNL     1       2.595   3.472   0.297  1.00  0.00    -0.234 N 
ATOM     31  H52 UNL     1       1.980   4.160   0.730  1.00  0.00     0.174 HD
ATOM     32  H51 UNL     1       3.462   3.747  -0.165  1.00  0.00     0.174 HD
ENDBRANCH   6  30
TORSDOF 5
