REMARK  7 active torsions:
REMARK  status: ('A' for Active; 'I' for Inactive)
REMARK    1  A    between atoms: C1_4  and  S1_6 
REMARK    2  A    between atoms: S1_6  and  C2_7 
REMARK    3  A    between atoms: C2_7  and  C3_8 
REMARK       I    between atoms: C3_8  and  N3_10 
REMARK    4  A    between atoms: N3_10  and  N4_12 
REMARK    5  A    between atoms: C7_18  and  C8_19 
REMARK    6  A    between atoms: C9_25  and  N8_26 
REMARK    7  A    between atoms: N9_29  and  N10_30 
ROOT
HETATM    1  N4  UNL     1       0.031  -0.906   0.410  1.00  0.00    -0.116 N 
HETATM    2  C4  UNL     1      -0.735  -0.156  -0.384  1.00  0.00     0.315 A 
HETATM    3  O2  UNL     1      -0.360   0.340  -1.468  1.00  0.00    -0.262 OA
HETATM    4  C5  UNL     1      -2.059   0.133  -0.040  1.00  0.00     0.172 A 
HETATM    5  C6  UNL     1      -3.032   0.885  -0.705  1.00  0.00     0.116 A 
HETATM    6  N5  UNL     1      -2.898   1.559  -1.938  1.00  0.00    -0.097 NA
HETATM    7  C7  UNL     1      -4.162   0.830   0.105  1.00  0.00     0.152 A 
HETATM    8  N6  UNL     1      -3.818   0.082   1.161  1.00  0.00    -0.271 N 
ATOM      9  H6  UNL     1      -4.447  -0.138   1.934  1.00  0.00     0.188 HD
HETATM   10  N7  UNL     1      -2.567  -0.337   1.083  1.00  0.00    -0.075 N 
HETATM   11  C9  UNL     1      -1.808  -1.091   1.887  1.00  0.00     0.735 A 
HETATM   12  N9  UNL     1      -0.534  -1.363   1.545  1.00  0.00    -0.000 N 
ENDROOT
BRANCH   1  13
HETATM   13  N3  UNL     1       1.328  -1.231   0.143  1.00  0.00    -0.242 N 
HETATM   14  C3  UNL     1       2.221  -0.961  -0.883  1.00  0.00     0.247 C 
HETATM   15  O1  UNL     1       2.031  -0.297  -1.897  1.00  0.00    -0.271 OA
ATOM     16  H3  UNL     1       1.740  -1.812   0.873  1.00  0.00     0.192 HD
BRANCH  14  17
HETATM   17  C2  UNL     1       3.622  -1.552  -0.759  1.00  0.00     0.186 C 
BRANCH  17  18
HETATM   18  S1  UNL     1       4.690  -0.538   0.242  1.00  0.00    -0.088 SA
BRANCH  18  19
HETATM   19  C1  UNL     1       5.163   1.003  -0.464  1.00  0.00     0.148 C 
HETATM   20  N1  UNL     1       4.959   1.434  -1.633  1.00  0.00    -0.382 N 
ATOM     21  H12 UNL     1       5.233   2.327  -2.042  1.00  0.00     0.157 HD
ATOM     22  H11 UNL     1       4.438   0.807  -2.246  1.00  0.00     0.157 HD
HETATM   23  N2  UNL     1       5.909   1.900   0.414  1.00  0.00    -0.075 NA
ENDBRANCH  18  19
ENDBRANCH  17  18
ENDBRANCH  14  17
ENDBRANCH   1  13
BRANCH  12  24
HETATM   24  N10 UNL     1       0.246  -2.146   2.387  1.00  0.00    -0.307 N 
ATOM     25 2H10 UNL     1       1.211  -2.352   2.128  1.00  0.00     0.179 HD
ATOM     26 1H10 UNL     1      -0.182  -2.492   3.246  1.00  0.00     0.179 HD
ENDBRANCH  12  24
BRANCH  11  27
HETATM   27  N8  UNL     1      -2.293  -1.565   3.002  1.00  0.00    -0.230 N 
ATOM     28  H82 UNL     1      -3.258  -1.359   3.261  1.00  0.00     0.174 HD
ATOM     29  H81 UNL     1      -1.715  -2.140   3.615  1.00  0.00     0.174 HD
ENDBRANCH  11  27
BRANCH   7  30
HETATM   30  C8  UNL     1      -5.442   1.467  -0.167  1.00  0.00     0.230 C 
HETATM   31  O3  UNL     1      -6.392   1.344   0.644  1.00  0.00    -0.643 OA
HETATM   32  O4  UNL     1      -5.680   2.225  -1.302  1.00  0.00    -0.643 OA
ENDBRANCH   7  30
TORSDOF 7
