REMARK  10 active torsions:
REMARK  status: ('A' for Active; 'I' for Inactive)
REMARK       I    between atoms: C1_2  and  N1_3 
REMARK    1  A    between atoms: C1_2  and  S2_28 
REMARK    2  A    between atoms: N1_3  and  C2_5 
REMARK    3  A    between atoms: C5_8  and  N2_9 
REMARK    4  A    between atoms: C6_10  and  S1_11 
REMARK    5  A    between atoms: S1_11  and  C7_12 
REMARK    6  A    between atoms: C7_12  and  C8_13 
REMARK    7  A    between atoms: C8_13  and  C9_14 
REMARK    8  A    between atoms: S2_28  and  C18_29 
REMARK    9  A    between atoms: C20_31  and  C21_32 
REMARK   10  A    between atoms: C21_32  and  C22_33 
ROOT
HETATM    1  C2  UNL     1       0.080  -0.641   0.767  1.00  0.00     0.038 A 
HETATM    2  C3  UNL     1      -0.081  -2.015   0.562  1.00  0.00     0.032 A 
HETATM    3  C4  UNL     1      -1.196  -2.405  -0.135  1.00  0.00     0.036 A 
HETATM    4  C5  UNL     1      -2.086  -1.484  -0.593  1.00  0.00     0.085 A 
HETATM    5  C16 UNL     1      -1.952  -0.149  -0.410  1.00  0.00     0.145 A 
HETATM    6  F1  UNL     1      -2.758   0.841  -0.854  1.00  0.00    -0.204 F 
HETATM    7  C17 UNL     1      -0.818   0.258   0.297  1.00  0.00     0.074 A 
ENDROOT
BRANCH   1   8
HETATM    8  N1  UNL     1       1.198  -0.120   1.466  1.00  0.00    -0.318 N 
HETATM    9  C1  UNL     1       2.511  -0.507   1.161  1.00  0.00     0.289 C 
HETATM   10  O1  UNL     1       2.694  -1.363   0.251  1.00  0.00    -0.260 OA
ATOM     11  H1  UNL     1       1.043   0.557   2.213  1.00  0.00     0.169 HD
BRANCH   9  12
HETATM   12  S2  UNL     1       3.863   0.222   2.101  1.00  0.00    -0.017 SA
BRANCH  12  13
HETATM   13  C18 UNL     1       5.440  -0.105   1.377  1.00  0.00     0.106 C 
HETATM   14  C19 UNL     1       5.909   0.173   0.208  1.00  0.00     0.047 C 
HETATM   15  C20 UNL     1       7.281  -0.248  -0.062  1.00  0.00     0.004 C 
HETATM   16  C27 UNL     1       7.540  -1.533   0.694  1.00  0.00     0.193 C 
HETATM   17  S3  UNL     1       6.759  -0.925   2.245  1.00  0.00     0.186 S 
HETATM   18  O4  UNL     1       6.331  -2.049   3.065  1.00  0.00    -0.222 OA
HETATM   19  O5  UNL     1       7.578   0.115   2.880  1.00  0.00    -0.222 OA
BRANCH  15  20
HETATM   20  C21 UNL     1       8.177   0.483  -0.679  1.00  0.00    -0.113 C 
BRANCH  20  21
HETATM   21  C22 UNL     1       9.088   1.179  -1.285  1.00  0.00    -0.009 C 
HETATM   22  C23 UNL     1       8.061   2.493  -1.418  1.00  0.00     0.074 C 
HETATM   23  C24 UNL     1       8.715   3.531  -2.048  1.00  0.00    -0.021 C 
HETATM   24  C25 UNL     1      10.009   3.205  -1.879  1.00  0.00    -0.003 C 
HETATM   25  C26 UNL     1      10.041   1.956  -1.935  1.00  0.00     0.015 C 
ENDBRANCH  20  21
ENDBRANCH  15  20
ENDBRANCH  12  13
ENDBRANCH   9  12
ENDBRANCH   1   8
BRANCH   4  26
HETATM   26  N2  UNL     1      -3.229  -1.945  -1.331  1.00  0.00    -0.231 N 
HETATM   27  C6  UNL     1      -4.508  -1.597  -1.313  1.00  0.00     0.176 A 
HETATM   28  N3  UNL     1      -5.112  -2.362  -2.240  1.00  0.00    -0.233 N 
HETATM   29  O2  UNL     1      -4.260  -3.145  -2.811  1.00  0.00    -0.178 OA
ATOM     30  H3  UNL     1      -6.107  -2.328  -2.461  1.00  0.00     0.197 HD
HETATM   31  C15 UNL     1      -3.094  -2.919  -2.283  1.00  0.00     0.396 A 
HETATM   32  O3  UNL     1      -2.037  -3.491  -2.596  1.00  0.00    -0.235 OA
BRANCH  27  33
HETATM   33  S1  UNL     1      -5.316  -0.379  -0.328  1.00  0.00    -0.091 SA
BRANCH  33  34
HETATM   34  C7  UNL     1      -6.044  -0.988   1.175  1.00  0.00     0.087 C 
BRANCH  34  35
HETATM   35  C8  UNL     1      -6.558   0.261   1.913  1.00  0.00     0.049 C 
BRANCH  35  36
HETATM   36  C9  UNL     1      -7.481   0.920   0.976  1.00  0.00    -0.057 A 
HETATM   37  C10 UNL     1      -6.997   1.832   0.058  1.00  0.00     0.007 A 
HETATM   38  C11 UNL     1      -7.838   2.466  -0.848  1.00  0.00     0.001 A 
HETATM   39  C12 UNL     1      -9.183   2.168  -0.810  1.00  0.00     0.000 A 
HETATM   40  C13 UNL     1      -9.662   1.238   0.131  1.00  0.00     0.001 A 
HETATM   41  C14 UNL     1      -8.841   0.611   1.017  1.00  0.00     0.007 A 
ENDBRANCH  35  36
ENDBRANCH  34  35
ENDBRANCH  33  34
ENDBRANCH  27  33
ENDBRANCH   4  26
TORSDOF 10
