REMARK  14 active torsions:
REMARK  status: ('A' for Active; 'I' for Inactive)
REMARK    1  A    between atoms: C2_2  and  N1_3 
REMARK    2  A    between atoms: C2_2  and  C38_53 
REMARK       I    between atoms: N1_3  and  C3_5 
REMARK    3  A    between atoms: C3_5  and  C4_7 
REMARK    4  A    between atoms: C4_7  and  C5_8 
REMARK    5  A    between atoms: C5_8  and  C6_9 
REMARK    6  A    between atoms: C7_10  and  C8_11 
REMARK    7  A    between atoms: N2_26  and  C23_28 
REMARK    8  A    between atoms: C23_28  and  C24_29 
REMARK    9  A    between atoms: C25_30  and  C26_31 
REMARK   10  A    between atoms: C26_31  and  S1_32 
REMARK   11  A    between atoms: S1_32  and  N3_35 
REMARK   12  A    between atoms: N3_35  and  C27_37 
REMARK   13  A    between atoms: C27_37  and  C28_38 
REMARK   14  A    between atoms: C28_38  and  N4_39 
ROOT
HETATM    1  C8  UNL     1      -3.288   2.568  -0.804  1.00  0.00    -0.008 A 
HETATM    2  C9  UNL     1      -2.315   3.139  -1.592  1.00  0.00     0.014 A 
HETATM    3  C10 UNL     1      -0.968   3.114  -1.226  1.00  0.00     0.015 A 
HETATM    4  C11 UNL     1      -0.508   2.519  -0.066  1.00  0.00     0.006 A 
HETATM    5  C12 UNL     1      -1.490   1.967   0.703  1.00  0.00     0.028 A 
HETATM    6  C13 UNL     1      -2.849   1.992   0.337  1.00  0.00     0.030 A 
HETATM    7  C14 UNL     1      -1.144   1.449   2.015  1.00  0.00     0.194 A 
HETATM    8  O2  UNL     1      -2.026   0.939   2.738  1.00  0.00    -0.287 OA
HETATM    9  C15 UNL     1       0.214   1.514   2.503  1.00  0.00     0.027 A 
HETATM   10  C16 UNL     1       0.498   1.011   3.776  1.00  0.00     0.016 A 
HETATM   11  C17 UNL     1       1.762   1.042   4.304  1.00  0.00     0.001 A 
HETATM   12  C18 UNL     1       2.769   1.583   3.557  1.00  0.00     0.001 A 
HETATM   13  C19 UNL     1       2.468   2.089   2.268  1.00  0.00     0.014 A 
HETATM   14  C20 UNL     1       1.220   2.063   1.730  1.00  0.00     0.005 A 
HETATM   15  C21 UNL     1       0.915   2.605   0.358  1.00  0.00     0.053 A 
HETATM   16  N2  UNL     1       1.842   2.679  -0.500  1.00  0.00    -0.373 N 
HETATM   17  C22 UNL     1       1.581   2.620  -1.961  1.00  0.00     0.150 C 
ENDROOT
BRANCH   1  18
HETATM   18  C7  UNL     1      -4.694   2.667  -1.240  1.00  0.00     0.050 A 
HETATM   19  C6  UNL     1      -5.822   2.040  -0.805  1.00  0.00    -0.018 A 
HETATM   20  C37 UNL     1      -6.874   2.502  -1.618  1.00  0.00    -0.001 A 
HETATM   21  C32 UNL     1      -6.383   3.391  -2.527  1.00  0.00     0.043 A 
HETATM   22  C36 UNL     1      -8.224   2.207  -1.632  1.00  0.00     0.014 A 
HETATM   23  N6  UNL     1      -5.076   3.467  -2.274  1.00  0.00    -0.354 N 
HETATM   24  C33 UNL     1      -7.215   3.999  -3.459  1.00  0.00     0.030 A 
ATOM     25  H6  UNL     1      -4.432   4.060  -2.798  1.00  0.00     0.166 HD
HETATM   26  C34 UNL     1      -8.549   3.713  -3.477  1.00  0.00     0.002 A 
HETATM   27  C35 UNL     1      -9.033   2.814  -2.556  1.00  0.00     0.001 A 
BRANCH  19  28
HETATM   28  C5  UNL     1      -5.978   1.041   0.253  1.00  0.00     0.051 C 
BRANCH  28  29
HETATM   29  C4  UNL     1      -5.568  -0.346  -0.205  1.00  0.00     0.107 C 
BRANCH  29  30
HETATM   30  C3  UNL     1      -5.685  -1.347   0.875  1.00  0.00     0.218 C 
HETATM   31  N1  UNL     1      -5.511  -2.733   0.658  1.00  0.00    -0.349 N 
ATOM     32  H1  UNL     1      -5.301  -3.069  -0.282  1.00  0.00     0.163 HD
HETATM   33  O1  UNL     1      -5.951  -0.943   2.038  1.00  0.00    -0.274 OA
BRANCH  31  34
HETATM   34  C2  UNL     1      -5.624  -3.679   1.734  1.00  0.00     0.169 C 
HETATM   35  C1  UNL     1      -4.563  -4.739   1.686  1.00  0.00     0.042 C 
BRANCH  34  36
HETATM   36  C38 UNL     1      -7.003  -4.280   1.676  1.00  0.00     0.253 C 
HETATM   37  N7  UNL     1      -7.356  -5.295   2.625  1.00  0.00    -0.060 NA
HETATM   38  O5  UNL     1      -7.803  -3.883   0.809  1.00  0.00    -0.275 OA
ENDBRANCH  34  36
ENDBRANCH  31  34
ENDBRANCH  29  30
ENDBRANCH  28  29
ENDBRANCH  19  28
ENDBRANCH   1  18
BRANCH  16  39
HETATM   39  C23 UNL     1       3.259   3.042  -0.373  1.00  0.00     0.216 C 
BRANCH  39  40
HETATM   40  C24 UNL     1       4.148   1.972  -0.809  1.00  0.00    -0.086 C 
HETATM   41  C25 UNL     1       4.889   1.082  -1.136  1.00  0.00    -0.088 C 
BRANCH  41  42
HETATM   42  C26 UNL     1       5.819  -0.016  -1.502  1.00  0.00     0.256 C 
BRANCH  42  43
HETATM   43  S1  UNL     1       7.485   0.605  -1.499  1.00  0.00     0.237 S 
HETATM   44  O3  UNL     1       7.757   1.032  -0.062  1.00  0.00    -0.205 OA
HETATM   45  O4  UNL     1       7.565   1.821  -2.342  1.00  0.00    -0.205 OA
BRANCH  43  46
HETATM   46  N3  UNL     1       8.637  -0.581  -1.887  1.00  0.00    -0.317 N 
ATOM     47  H3  UNL     1       9.250  -0.527  -2.700  1.00  0.00     0.172 HD
BRANCH  46  48
HETATM   48  C27 UNL     1       8.656  -1.676  -0.942  1.00  0.00     0.152 C 
BRANCH  48  49
HETATM   49  C28 UNL     1       9.682  -2.724  -1.282  1.00  0.00     0.149 C 
BRANCH  49  50
HETATM   50  N4  UNL     1       9.693  -3.808  -0.329  1.00  0.00    -0.350 N 
HETATM   51  C29 UNL     1      10.413  -3.896   0.811  1.00  0.00     0.108 A 
HETATM   52  C30 UNL     1      10.137  -5.095   1.425  1.00  0.00     0.106 A 
HETATM   53  N5  UNL     1       9.245  -5.753   0.666  1.00  0.00    -0.361 N 
HETATM   54  C31 UNL     1       8.985  -4.964  -0.391  1.00  0.00     0.182 A 
ATOM     55  H5  UNL     1       8.844  -6.671   0.855  1.00  0.00     0.166 HD
ENDBRANCH  49  50
ENDBRANCH  48  49
ENDBRANCH  46  48
ENDBRANCH  43  46
ENDBRANCH  42  43
ENDBRANCH  41  42
ENDBRANCH  39  40
ENDBRANCH  16  39
TORSDOF 14
