REMARK  11 active torsions:
REMARK  status: ('A' for Active; 'I' for Inactive)
REMARK    1  A    between atoms: C2_2  and  N1_3 
REMARK    2  A    between atoms: N1_3  and  C3_4 
REMARK    3  A    between atoms: N1_3  and  C5_6 
REMARK    4  A    between atoms: C5_6  and  C6_7 
REMARK    5  A    between atoms: C7_8  and  C8_9 
REMARK    6  A    between atoms: C8_9  and  C9_10 
REMARK    7  A    between atoms: C9_10  and  C10_11 
REMARK    8  A    between atoms: C10_11  and  C11_12 
REMARK    9  A    between atoms: C11_12  and  C12_13 
REMARK   10  A    between atoms: C12_13  and  N2_14 
REMARK   11  A    between atoms: C24_27  and  O2_29 
ROOT
HETATM    1  N2  UNL     1      -1.774   1.168  -0.208  1.00  0.00    -0.323 N 
HETATM    2  C13 UNL     1      -2.147   1.218   1.198  1.00  0.00     0.232 C 
HETATM    3  O1  UNL     1      -1.308   1.525   2.083  1.00  0.00    -0.272 OA
HETATM    4  C14 UNL     1      -3.531   0.867   1.217  1.00  0.00     0.113 C 
HETATM    5  C15 UNL     1      -4.218   0.396   2.391  1.00  0.00    -0.074 C 
HETATM    6  C16 UNL     1      -3.636   0.367   3.743  1.00  0.00     0.044 C 
HETATM    7  C17 UNL     1      -5.481  -0.066   2.321  1.00  0.00    -0.023 C 
HETATM    8  C18 UNL     1      -6.431  -0.222   1.213  1.00  0.00     0.028 C 
HETATM    9  C19 UNL     1      -5.972   0.422  -0.075  1.00  0.00     0.016 C 
HETATM   10  C20 UNL     1      -4.762  -0.170  -0.681  1.00  0.00    -0.004 C 
HETATM   11  C21 UNL     1      -5.071  -1.529  -1.306  1.00  0.00     0.019 C 
HETATM   12  C22 UNL     1      -3.571  -0.303   0.231  1.00  0.00     0.040 C 
HETATM   13  C23 UNL     1      -2.673   0.219  -0.837  1.00  0.00     0.132 C 
HETATM   14  C24 UNL     1      -3.887   0.715  -1.533  1.00  0.00     0.083 C 
HETATM   15  C25 UNL     1      -3.900   0.159  -2.971  1.00  0.00     0.049 C 
ENDROOT
BRANCH   1  16
HETATM   16  C12 UNL     1      -0.734   1.841  -0.908  1.00  0.00     0.067 C 
BRANCH  16  17
HETATM   17  C11 UNL     1       0.543   1.268  -1.263  1.00  0.00     0.045 C 
BRANCH  17  18
HETATM   18  C10 UNL     1       1.434   0.691  -0.239  1.00  0.00     0.006 C 
BRANCH  18  19
HETATM   19  C9  UNL     1       1.019  -0.579   0.407  1.00  0.00     0.012 C 
BRANCH  19  20
HETATM   20  C8  UNL     1       2.116  -0.940   1.430  1.00  0.00     0.094 C 
BRANCH  20  21
HETATM   21  C7  UNL     1       3.385  -1.093   0.727  1.00  0.00    -0.105 C 
HETATM   22  C6  UNL     1       4.457  -1.206   0.155  1.00  0.00    -0.076 C 
BRANCH  22  23
HETATM   23  C5  UNL     1       5.715  -1.382  -0.530  1.00  0.00     0.365 C 
BRANCH  23  24
HETATM   24  N1  UNL     1       6.783  -0.739   0.203  1.00  0.00     0.098 N 
BRANCH  24  25
HETATM   25  C2  UNL     1       8.020  -1.184  -0.530  1.00  0.00     0.269 C 
HETATM   26  C1  UNL     1       8.188  -2.671  -0.300  1.00  0.00     0.037 C 
ENDBRANCH  24  25
BRANCH  24  27
HETATM   27  C3  UNL     1       6.747   0.699  -0.091  1.00  0.00     0.269 C 
HETATM   28  C4  UNL     1       5.676   1.448   0.614  1.00  0.00     0.037 C 
ENDBRANCH  24  27
ENDBRANCH  23  24
ENDBRANCH  22  23
ENDBRANCH  20  21
ENDBRANCH  19  20
ENDBRANCH  18  19
ENDBRANCH  17  18
ENDBRANCH  16  17
ENDBRANCH   1  16
BRANCH  14  29
HETATM   29  O2  UNL     1      -4.161   2.044  -1.582  1.00  0.00    -0.387 OA
ATOM     30  H2  UNL     1      -3.610   2.601  -2.119  1.00  0.00     0.210 HD
ENDBRANCH  14  29
TORSDOF 11
