REMARK  9 active torsions:
REMARK  status: ('A' for Active; 'I' for Inactive)
REMARK    1  A    between atoms: C2_2  and  N1_3 
REMARK    2  A    between atoms: N1_3  and  C3_4 
REMARK    3  A    between atoms: N1_3  and  C5_6 
REMARK    4  A    between atoms: C5_6  and  C6_7 
REMARK    5  A    between atoms: C6_7  and  N2_8 
REMARK    6  A    between atoms: N2_8  and  C7_10 
REMARK    7  A    between atoms: C7_10  and  C8_11 
REMARK    8  A    between atoms: C7_10  and  C15_20 
REMARK       I    between atoms: C8_11  and  N3_13 
REMARK    9  A    between atoms: N3_13  and  C10_15 
ROOT
HETATM    1  C7  UNL     1      -0.489  -0.420  -0.469  1.00  0.00     0.082 C 
ENDROOT
BRANCH   1   2
HETATM    2  N2  UNL     1       0.923  -0.159  -0.201  1.00  0.00    -0.386 N 
ATOM      3  H2  UNL     1       1.468  -0.583   0.550  1.00  0.00     0.159 HD
BRANCH   2   4
HETATM    4  C6  UNL     1       1.433   0.801  -1.172  1.00  0.00     0.150 C 
BRANCH   4   5
HETATM    5  C5  UNL     1       2.936   0.890  -1.191  1.00  0.00     0.292 C 
BRANCH   5   6
HETATM    6  N1  UNL     1       3.629   1.342  -0.063  1.00  0.00     0.089 N 
BRANCH   6   7
HETATM    7  C2  UNL     1       3.646   0.571   1.113  1.00  0.00     0.268 C 
HETATM    8  C1  UNL     1       4.190   1.360   2.273  1.00  0.00     0.037 C 
ENDBRANCH   6   7
BRANCH   6   9
HETATM    9  C3  UNL     1       5.025   1.540  -0.464  1.00  0.00     0.268 C 
HETATM   10  C4  UNL     1       5.191   2.237  -1.791  1.00  0.00     0.037 C 
ENDBRANCH   6   9
ENDBRANCH   5   6
ENDBRANCH   4   5
ENDBRANCH   2   4
ENDBRANCH   1   2
BRANCH   1  11
HETATM   11  C8  UNL     1      -1.289   0.770  -0.390  1.00  0.00     0.266 C 
HETATM   12  O1  UNL     1      -1.828   1.219  -1.461  1.00  0.00    -0.266 OA
HETATM   13  N3  UNL     1      -1.563   1.576   0.766  1.00  0.00    -0.347 N 
HETATM   14  C9  UNL     1      -1.050   1.151   2.031  1.00  0.00     0.153 C 
BRANCH  13  15
HETATM   15  C10 UNL     1      -2.235   2.850   0.721  1.00  0.00     0.087 C 
HETATM   16  C11 UNL     1      -3.722   2.789   0.461  1.00  0.00     0.025 C 
HETATM   17  C12 UNL     1      -4.067   4.030  -0.369  1.00  0.00     0.002 C 
HETATM   18  C13 UNL     1      -2.757   4.504  -0.957  1.00  0.00     0.002 C 
HETATM   19  C14 UNL     1      -1.647   3.812  -0.229  1.00  0.00     0.025 C 
ENDBRANCH  13  15
ENDBRANCH   1  11
BRANCH   1  20
HETATM   20  C15 UNL     1      -0.899  -1.766  -0.059  1.00  0.00     0.008 C 
HETATM   21  C16 UNL     1       0.107  -2.717  -0.736  1.00  0.00     0.020 C 
HETATM   22  C17 UNL     1      -0.291  -4.157  -0.731  1.00  0.00    -0.013 C 
HETATM   23  C18 UNL     1      -0.332  -4.551   0.755  1.00  0.00     0.009 C 
HETATM   24  C22 UNL     1      -1.587  -4.353  -1.429  1.00  0.00     0.009 C 
HETATM   25  C19 UNL     1      -1.347  -3.675   1.404  1.00  0.00    -0.013 C 
HETATM   26  C20 UNL     1      -2.665  -3.967   0.747  1.00  0.00     0.009 C 
HETATM   27  C24 UNL     1      -1.037  -2.191   1.335  1.00  0.00     0.020 C 
HETATM   28  C21 UNL     1      -2.588  -3.497  -0.682  1.00  0.00    -0.013 C 
HETATM   29  C23 UNL     1      -2.293  -2.058  -0.705  1.00  0.00     0.020 C 
ENDBRANCH   1  20
TORSDOF 9
