REMARK  12 active torsions:
REMARK  status: ('A' for Active; 'I' for Inactive)
REMARK    1  A    between atoms: C2_2  and  C4_4 
REMARK    2  A    between atoms: C4_4  and  C5_5 
REMARK    3  A    between atoms: C5_5  and  O1_6 
REMARK    4  A    between atoms: C5_5  and  C17_22 
REMARK    5  A    between atoms: O1_6  and  C6_7 
REMARK       I    between atoms: C6_7  and  N1_9 
REMARK    6  A    between atoms: N1_9  and  C7_11 
REMARK    7  A    between atoms: C7_11  and  C8_12 
REMARK    8  A    between atoms: C7_11  and  C11_15 
REMARK    9  A    between atoms: C11_15  and  C14_18 
REMARK   10  A    between atoms: C14_18  and  S1_19 
REMARK   11  A    between atoms: C17_22  and  O3_23 
REMARK   12  A    between atoms: C17_22  and  N2_25 
ROOT
HETATM    1  C6  UNL     1       0.158   0.280  -0.410  1.00  0.00     0.361 C 
HETATM    2  O2  UNL     1       0.139  -0.987  -0.452  1.00  0.00    -0.238 OA
HETATM    3  N1  UNL     1       1.267   1.072  -0.653  1.00  0.00    -0.331 N 
ATOM      4  H1  UNL     1       1.137   2.081  -0.585  1.00  0.00     0.165 HD
ENDROOT
BRANCH   1   5
HETATM    5  O1  UNL     1      -1.057   0.864  -0.090  1.00  0.00    -0.290 OA
BRANCH   5   6
HETATM    6  C5  UNL     1      -2.244   0.027   0.172  1.00  0.00     0.208 C 
BRANCH   6   7
HETATM    7  C4  UNL     1      -2.597   0.321   1.618  1.00  0.00     0.045 C 
BRANCH   7   8
HETATM    8  C2  UNL     1      -3.716  -0.418   2.229  1.00  0.00    -0.020 C 
HETATM    9  C1  UNL     1      -3.473  -1.921   2.296  1.00  0.00     0.009 C 
HETATM   10  C3  UNL     1      -3.942  -0.000   3.692  1.00  0.00     0.009 C 
ENDBRANCH   7   8
ENDBRANCH   6   7
BRANCH   6  11
HETATM   11  C17 UNL     1      -3.279   0.434  -0.787  1.00  0.00     0.144 C 
BRANCH  11  12
HETATM   12  O3  UNL     1      -3.069   1.626  -1.274  1.00  0.00    -0.347 OA
ATOM     13  H3  UNL     1      -3.739   1.889  -1.894  1.00  0.00     0.219 HD
ENDBRANCH  11  12
BRANCH  11  14
HETATM   14  N2  UNL     1      -4.414  -0.188  -1.272  1.00  0.00    -0.363 N 
HETATM   15  C18 UNL     1      -5.373   0.481  -2.208  1.00  0.00     0.124 C 
HETATM   16  C19 UNL     1      -6.725   0.039  -1.653  1.00  0.00     0.021 C 
HETATM   17  C20 UNL     1      -6.440  -1.159  -0.771  1.00  0.00     0.021 C 
HETATM   18  C21 UNL     1      -5.006  -1.499  -1.167  1.00  0.00     0.124 C 
ENDBRANCH  11  14
ENDBRANCH   6  11
ENDBRANCH   5   6
ENDBRANCH   1   5
BRANCH   3  19
HETATM   19  C7  UNL     1       2.617   0.595  -1.001  1.00  0.00     0.102 C 
BRANCH  19  20
HETATM   20  C8  UNL     1       2.982   1.015  -2.382  1.00  0.00     0.001 C 
HETATM   21  C9  UNL     1       4.339   0.553  -2.810  1.00  0.00     0.011 C 
HETATM   22  C10 UNL     1       2.012   0.514  -3.433  1.00  0.00     0.011 C 
ENDBRANCH  19  20
BRANCH  19  23
HETATM   23  C11 UNL     1       3.460   1.054   0.121  1.00  0.00    -0.004 C 
HETATM   24  C12 UNL     1       3.469   2.598   0.196  1.00  0.00     0.021 C 
HETATM   25  C13 UNL     1       2.637   0.740   1.416  1.00  0.00     0.021 C 
BRANCH  23  26
HETATM   26  C14 UNL     1       4.808   0.573   0.351  1.00  0.00     0.018 C 
BRANCH  26  27
HETATM   27  S1  UNL     1       5.059  -1.154   0.624  1.00  0.00    -0.208 SA
HETATM   28  C15 UNL     1       6.834  -1.406   0.857  1.00  0.00     0.082 C 
HETATM   29  C16 UNL     1       4.290  -1.786   2.078  1.00  0.00     0.082 C 
ENDBRANCH  26  27
ENDBRANCH  23  26
ENDBRANCH  19  23
ENDBRANCH   3  19
TORSDOF 12
