REMARK  6 active torsions:
REMARK  status: ('A' for Active; 'I' for Inactive)
REMARK    1  A    between atoms: N1_1  and  C1_4 
REMARK    2  A    between atoms: C2_10  and  N4_11 
REMARK    3  A    between atoms: N4_11  and  N5_13 
REMARK    4  A    between atoms: N5_13  and  C3_15 
REMARK    5  A    between atoms: C3_15  and  N6_16 
REMARK    6  A    between atoms: N6_16  and  N7_17 
ROOT
HETATM    1  C1  UNL     1      -2.358  -0.146   0.042  1.00  0.00     0.169 A 
HETATM    2  N2  UNL     1      -3.479   0.599  -0.107  1.00  0.00    -0.222 N 
ATOM      3  H2  UNL     1      -4.428   0.314   0.135  1.00  0.00     0.198 HD
HETATM    4  O1  UNL     1      -3.131   1.732  -0.609  1.00  0.00    -0.153 OA
HETATM    5  N3  UNL     1      -1.845   1.783  -0.803  1.00  0.00    -0.221 N 
ATOM      6  H3  UNL     1      -1.331   2.574  -1.191  1.00  0.00     0.198 HD
HETATM    7  C2  UNL     1      -1.306   0.610  -0.403  1.00  0.00     0.188 A 
ENDROOT
BRANCH   7   8
HETATM    8  N4  UNL     1      -0.051   0.369  -0.475  1.00  0.00    -0.284 N 
ATOM      9  H4  UNL     1       0.556   1.098  -0.850  1.00  0.00     0.188 HD
BRANCH   8  10
HETATM   10  N5  UNL     1       0.535  -0.828  -0.072  1.00  0.00    -0.318 N 
ATOM     11  H5  UNL     1       0.165  -1.725  -0.388  1.00  0.00     0.181 HD
BRANCH  10  12
HETATM   12  C3  UNL     1       1.696  -0.765   0.818  1.00  0.00     0.273 C 
BRANCH  12  13
HETATM   13  N6  UNL     1       2.711  -0.017   0.107  1.00  0.00    -0.127 NA
BRANCH  13  14
HETATM   14  N7  UNL     1       3.883   0.135   0.812  1.00  0.00    -0.347 N 
ATOM     15  H72 UNL     1       4.009  -0.250   1.748  1.00  0.00     0.172 HD
ATOM     16  H71 UNL     1       4.598   0.662   0.311  1.00  0.00     0.172 HD
ENDBRANCH  13  14
ENDBRANCH  12  13
ENDBRANCH  10  12
ENDBRANCH   8  10
ENDBRANCH   7   8
BRANCH   1  17
HETATM   17  N1  UNL     1      -2.260  -1.326   0.504  1.00  0.00    -0.381 N 
ATOM     18  H12 UNL     1      -3.043  -1.889   0.835  1.00  0.00     0.157 HD
ATOM     19  H11 UNL     1      -1.416  -1.887   0.616  1.00  0.00     0.157 HD
ENDBRANCH   1  17
TORSDOF 6
