REMARK  6 active torsions:
REMARK  status: ('A' for Active; 'I' for Inactive)
REMARK    1  A    between atoms: N1_1  and  C1_4 
REMARK    2  A    between atoms: C2_7  and  N3_8 
REMARK    3  A    between atoms: N4_11  and  C3_12 
REMARK    4  A    between atoms: C3_12  and  C4_13 
REMARK    5  A    between atoms: C4_13  and  C5_14 
REMARK    6  A    between atoms: C5_14  and  N5_15 
ROOT
HETATM    1  C1  UNL     1      -2.912   0.382  -0.479  1.00  0.00     0.705 A 
HETATM    2  N2  UNL     1      -2.809  -0.375   0.627  1.00  0.00    -0.020 N 
ATOM      3  H2  UNL     1      -3.571  -0.838   1.122  1.00  0.00     0.203 HD
HETATM    4  C2  UNL     1      -1.500  -0.403   0.955  1.00  0.00     0.707 A 
HETATM    5  N4  UNL     1      -0.781   0.326   0.069  1.00  0.00    -0.109 N 
HETATM    6  N6  UNL     1      -1.670   0.791  -0.792  1.00  0.00    -0.115 N 
ATOM      7  H6  UNL     1      -1.443   1.384  -1.591  1.00  0.00     0.206 HD
ENDROOT
BRANCH   5   8
HETATM    8  C3  UNL     1       0.656   0.535   0.085  1.00  0.00     0.170 C 
BRANCH   8   9
HETATM    9  C4  UNL     1       1.385  -0.529  -0.708  1.00  0.00     0.050 C 
BRANCH   9  10
HETATM   10  C5  UNL     1       2.871  -0.195  -0.609  1.00  0.00     0.231 C 
BRANCH  10  11
HETATM   11  N5  UNL     1       3.332  -0.197   0.747  1.00  0.00    -0.079 N 
ATOM     12  H53 UNL     1       2.773   0.427   1.329  1.00  0.00     0.274 HD
ATOM     13  H52 UNL     1       3.120  -1.081   1.209  1.00  0.00     0.274 HD
ATOM     14  H51 UNL     1       4.325   0.026   0.813  1.00  0.00     0.274 HD
ENDBRANCH  10  11
ENDBRANCH   9  10
ENDBRANCH   8   9
ENDBRANCH   5   8
BRANCH   4  15
HETATM   15  N3  UNL     1      -0.940  -1.020   1.961  1.00  0.00    -0.233 N 
ATOM     16  H32 UNL     1      -1.482  -1.569   2.628  1.00  0.00     0.174 HD
ATOM     17  H31 UNL     1       0.049  -1.041   2.209  1.00  0.00     0.174 HD
ENDBRANCH   4  15
BRANCH   1  18
HETATM   18  N1  UNL     1      -4.027   0.643  -1.097  1.00  0.00    -0.233 N 
ATOM     19  H12 UNL     1      -4.969   0.333  -0.860  1.00  0.00     0.174 HD
ATOM     20  H11 UNL     1      -4.105   1.217  -1.936  1.00  0.00     0.174 HD
ENDBRANCH   1  18
TORSDOF 6
