REMARK  5 active torsions:
REMARK  status: ('A' for Active; 'I' for Inactive)
REMARK    1  A    between atoms: N1_1  and  C1_4 
REMARK    2  A    between atoms: C2_9  and  O1_10 
REMARK    3  A    between atoms: O1_10  and  C3_11 
REMARK    4  A    between atoms: C3_11  and  C4_12 
REMARK    5  A    between atoms: C4_12  and  N4_13 
ROOT
HETATM    1  C1  UNL     1      -3.003  -0.275   0.750  1.00  0.00     0.693 A 
HETATM    2  N2  UNL     1      -2.651  -1.252  -0.099  1.00  0.00    -0.129 N 
ATOM      3  H2  UNL     1      -3.260  -1.991  -0.450  1.00  0.00     0.205 HD
HETATM    4  N3  UNL     1      -1.377  -1.088  -0.400  1.00  0.00    -0.250 N 
ATOM      5  H3  UNL     1      -0.841  -1.688  -1.028  1.00  0.00     0.191 HD
HETATM    6  C2  UNL     1      -0.887  -0.006   0.248  1.00  0.00     0.253 A 
HETATM    7  N5  UNL     1      -1.902   0.503   0.967  1.00  0.00    -0.153 N 
ATOM      8  H5  UNL     1      -1.858   1.325   1.569  1.00  0.00     0.188 HD
ENDROOT
BRANCH   6   9
HETATM    9  O1  UNL     1       0.405   0.495   0.194  1.00  0.00    -0.319 OA
BRANCH   9  10
HETATM   10  C3  UNL     1       1.355  -0.178  -0.627  1.00  0.00     0.206 C 
BRANCH  10  11
HETATM   11  C4  UNL     1       2.700   0.487  -0.575  1.00  0.00     0.256 C 
BRANCH  11  12
HETATM   12  N4  UNL     1       3.155   0.463   0.802  1.00  0.00    -0.077 N 
ATOM     13  H43 UNL     1       2.483   0.878   1.448  1.00  0.00     0.274 HD
ATOM     14  H42 UNL     1       3.163  -0.476   1.200  1.00  0.00     0.274 HD
ATOM     15  H41 UNL     1       4.069   0.915   0.837  1.00  0.00     0.274 HD
ENDBRANCH  11  12
ENDBRANCH  10  11
ENDBRANCH   9  10
ENDBRANCH   6   9
BRANCH   1  16
HETATM   16  N1  UNL     1      -4.168  -0.093   1.274  1.00  0.00    -0.233 N 
ATOM     17  H12 UNL     1      -4.990  -0.674   1.112  1.00  0.00     0.174 HD
ATOM     18  H11 UNL     1      -4.436   0.650   1.920  1.00  0.00     0.174 HD
ENDBRANCH   1  16
TORSDOF 5
