REMARK  5 active torsions:
REMARK  status: ('A' for Active; 'I' for Inactive)
REMARK    1  A    between atoms: N1_1  and  O1_4 
REMARK    2  A    between atoms: O1_4  and  C1_5 
REMARK    3  A    between atoms: C1_5  and  C2_6 
REMARK    4  A    between atoms: C2_6  and  C3_7 
REMARK    5  A    between atoms: C4_10  and  N4_11 
ROOT
HETATM    1  C3  UNL     1      -0.478   0.039   1.115  1.00  0.00     0.236 C 
HETATM    2  N2  UNL     1      -0.844  -1.266   0.601  1.00  0.00    -0.112 NA
HETATM    3  N3  UNL     1      -1.717  -0.934  -0.426  1.00  0.00    -0.086 NA
HETATM    4  C4  UNL     1      -2.477   0.145   0.126  1.00  0.00     0.433 C 
HETATM    5  O2  UNL     1      -1.656   0.746   1.078  1.00  0.00    -0.323 OA
ENDROOT
BRANCH   1   6
HETATM    6  C2  UNL     1       0.534   0.677   0.174  1.00  0.00     0.079 C 
BRANCH   6   7
HETATM    7  C1  UNL     1       1.775  -0.169   0.060  1.00  0.00     0.204 C 
BRANCH   7   8
HETATM    8  O1  UNL     1       2.667   0.430  -0.793  1.00  0.00    -0.287 OA
BRANCH   8   9
HETATM    9  N1  UNL     1       3.803  -0.258  -0.953  1.00  0.00    -0.311 N 
ATOM     10  H12 UNL     1       3.975  -1.144  -0.478  1.00  0.00     0.184 HD
ATOM     11  H11 UNL     1       4.466   0.187  -1.587  1.00  0.00     0.184 HD
ENDBRANCH   8   9
ENDBRANCH   7   8
ENDBRANCH   6   7
ENDBRANCH   1   6
BRANCH   4  12
HETATM   12  N4  UNL     1      -2.823   1.051  -0.942  1.00  0.00    -0.037 N 
ATOM     13  H43 UNL     1      -2.007   1.372  -1.463  1.00  0.00     0.279 HD
ATOM     14  H42 UNL     1      -3.305   0.585  -1.711  1.00  0.00     0.279 HD
ATOM     15  H41 UNL     1      -3.365   1.820  -0.548  1.00  0.00     0.279 HD
ENDBRANCH   4  12
TORSDOF 5
