REMARK  4 active torsions:
REMARK  status: ('A' for Active; 'I' for Inactive)
REMARK    1  A    between atoms: N1_1  and  C1_5 
REMARK    2  A    between atoms: C1_5  and  C2_6 
REMARK    3  A    between atoms: C2_6  and  C3_7 
REMARK    4  A    between atoms: C3_7  and  N2_8 
ROOT
HETATM    1  N2  UNL     1       0.302  -0.497   0.019  1.00  0.00    -0.360 N 
ATOM      2  H2  UNL     1      -0.162  -1.387  -0.161  1.00  0.00     0.162 HD
HETATM    3  C4  UNL     1       1.592  -0.415   0.089  1.00  0.00     0.205 C 
HETATM    4  N3  UNL     1       2.544  -1.478  -0.061  1.00  0.00    -0.256 N 
ATOM      5  H3  UNL     1       2.331  -2.439  -0.330  1.00  0.00     0.187 HD
HETATM    6  N4  UNL     1       3.812  -0.969   0.226  1.00  0.00    -0.006 NA
HETATM    7  N5  UNL     1       3.736   0.418   0.093  1.00  0.00    -0.006 NA
HETATM    8  N6  UNL     1       2.393   0.738   0.329  1.00  0.00    -0.256 N 
ATOM      9  H6  UNL     1       2.045   1.650   0.625  1.00  0.00     0.187 HD
ENDROOT
BRANCH   1  10
HETATM   10  C3  UNL     1      -0.459   0.722   0.205  1.00  0.00     0.124 C 
BRANCH  10  11
HETATM   11  C2  UNL     1      -1.842   0.617  -0.376  1.00  0.00     0.047 C 
BRANCH  11  12
HETATM   12  C1  UNL     1      -2.663  -0.481   0.232  1.00  0.00     0.231 C 
BRANCH  12  13
HETATM   13  N1  UNL     1      -3.965  -0.451  -0.432  1.00  0.00    -0.079 N 
ATOM     14  H13 UNL     1      -4.418   0.462  -0.388  1.00  0.00     0.274 HD
ATOM     15  H12 UNL     1      -3.900  -0.513  -1.448  1.00  0.00     0.274 HD
ATOM     16  H11 UNL     1      -4.523  -1.198  -0.018  1.00  0.00     0.274 HD
ENDBRANCH  12  13
ENDBRANCH  11  12
ENDBRANCH  10  11
ENDBRANCH   1  10
TORSDOF 4
