REMARK  6 active torsions:
REMARK  status: ('A' for Active; 'I' for Inactive)
REMARK    1  A    between atoms: N1_1  and  C1_5 
REMARK    2  A    between atoms: C1_5  and  C2_6 
REMARK    3  A    between atoms: C2_6  and  N2_7 
REMARK    4  A    between atoms: C2_6  and  C3_11 
REMARK    5  A    between atoms: C3_11  and  C4_12 
REMARK    6  A    between atoms: C5_17  and  N5_18 
ROOT
HETATM    1  C4  UNL     1       0.886   0.102  -0.329  1.00  0.00     0.305 C 
HETATM    2  N3  UNL     1       1.188   0.842   0.864  1.00  0.00    -0.307 N 
ATOM      3  H3  UNL     1       0.495   1.211   1.515  1.00  0.00     0.182 HD
HETATM    4  N4  UNL     1       2.435   0.969   0.988  1.00  0.00    -0.286 N 
ATOM      5  H4  UNL     1       2.900   1.456   1.754  1.00  0.00     0.184 HD
HETATM    6  C5  UNL     1       3.106   0.327  -0.108  1.00  0.00     0.499 C 
HETATM    7  N6  UNL     1       2.108  -0.690  -0.479  1.00  0.00    -0.006 N 
ATOM      8  H61 UNL     1       2.242  -1.139  -1.385  1.00  0.00     0.284 HD
ATOM      9  H62 UNL     1       2.142  -1.563   0.047  1.00  0.00     0.284 HD
ENDROOT
BRANCH   1  10
HETATM   10  C3  UNL     1      -0.331  -0.780  -0.168  1.00  0.00     0.090 C 
BRANCH  10  11
HETATM   11  C2  UNL     1      -1.494   0.130   0.165  1.00  0.00     0.212 C 
BRANCH  11  12
HETATM   12  C1  UNL     1      -2.778  -0.649   0.351  1.00  0.00     0.262 C 
BRANCH  12  13
HETATM   13  N1  UNL     1      -3.862   0.224   0.684  1.00  0.00    -0.077 N 
ATOM     14  H13 UNL     1      -3.647   0.797   1.500  1.00  0.00     0.274 HD
ATOM     15  H12 UNL     1      -3.970   0.970  -0.004  1.00  0.00     0.274 HD
ATOM     16  H11 UNL     1      -4.727  -0.301   0.809  1.00  0.00     0.274 HD
ENDBRANCH  12  13
ENDBRANCH  11  12
BRANCH  11  17
HETATM   17  N2  UNL     1      -1.606   1.099  -0.887  1.00  0.00    -0.073 N 
ATOM     18  H23 UNL     1      -1.907   0.666  -1.760  1.00  0.00     0.274 HD
ATOM     19  H22 UNL     1      -2.399   1.722  -0.735  1.00  0.00     0.274 HD
ATOM     20  H21 UNL     1      -0.741   1.624  -1.012  1.00  0.00     0.274 HD
ENDBRANCH  11  17
ENDBRANCH  10  11
ENDBRANCH   1  10
BRANCH   6  21
HETATM   21  N5  UNL     1       4.363  -0.248   0.249  1.00  0.00    -0.031 N 
ATOM     22  H53 UNL     1       4.968   0.449   0.683  1.00  0.00     0.279 HD
ATOM     23  H52 UNL     1       4.255  -0.892   1.033  1.00  0.00     0.279 HD
ATOM     24  H51 UNL     1       4.839  -0.704  -0.529  1.00  0.00     0.279 HD
ENDBRANCH   6  21
TORSDOF 6
