REMARK  8 active torsions:
REMARK  status: ('A' for Active; 'I' for Inactive)
REMARK    1  A    between atoms: C4_8  and  N3_9 
REMARK    2  A    between atoms: N3_9  and  C5_11 
REMARK    3  A    between atoms: N8_24  and  C8_25 
REMARK    4  A    between atoms: C8_25  and  N9_26 
REMARK    5  A    between atoms: N9_26  and  C9_28 
REMARK    6  A    between atoms: C10_31  and  N11_32 
REMARK    7  A    between atoms: C11_37  and  C12_38 
REMARK    8  A    between atoms: C12_38  and  N13_39 
ROOT
HETATM    1  C1  UNL     1      -1.060   3.823   1.767  1.00  0.00     0.090 C 
HETATM    2  C2  UNL     1      -1.322   2.464   1.186  1.00  0.00     0.093 A 
HETATM    3  N1  UNL     1      -2.085   1.597   1.892  1.00  0.00    -0.328 N 
ATOM      4  H1  UNL     1      -2.477   1.853   2.798  1.00  0.00     0.169 HD
HETATM    5  C3  UNL     1      -2.305   0.393   1.357  1.00  0.00     0.169 A 
HETATM    6  N2  UNL     1      -2.997  -0.719   1.743  1.00  0.00    -0.172 N 
ATOM      7  H2  UNL     1      -3.525  -0.830   2.609  1.00  0.00     0.186 HD
HETATM    8  C4  UNL     1      -2.856  -1.641   0.774  1.00  0.00     0.687 A 
HETATM    9  N7  UNL     1      -2.084  -1.151  -0.240  1.00  0.00    -0.171 N 
ATOM     10  H7  UNL     1      -1.831  -1.656  -1.089  1.00  0.00     0.186 HD
HETATM   11  C7  UNL     1      -1.713   0.100   0.060  1.00  0.00     0.184 A 
HETATM   12  N8  UNL     1      -0.948   1.007  -0.618  1.00  0.00    -0.253 N 
HETATM   13  N18 UNL     1      -0.792   2.157  -0.008  1.00  0.00    -0.284 N 
ATOM     14  H18 UNL     1      -0.228   2.868  -0.474  1.00  0.00     0.188 HD
ENDROOT
BRANCH  12  15
HETATM   15  C8  UNL     1      -0.423   0.629  -1.904  1.00  0.00     0.290 C 
BRANCH  15  16
HETATM   16  N9  UNL     1       0.842  -0.027  -1.772  1.00  0.00    -0.208 N 
ATOM     17  H9  UNL     1       0.882  -1.020  -2.000  1.00  0.00     0.179 HD
BRANCH  16  18
HETATM   18  C9  UNL     1       2.036   0.590  -1.352  1.00  0.00     0.695 A 
HETATM   19  N10 UNL     1       2.055   1.897  -1.042  1.00  0.00    -0.023 N 
HETATM   20  C10 UNL     1       3.192   2.458  -0.647  1.00  0.00     0.691 A 
ATOM     21  H10 UNL     1       1.203   2.454  -1.109  1.00  0.00     0.203 HD
HETATM   22  N12 UNL     1       4.307   1.727  -0.561  1.00  0.00    -0.178 N 
HETATM   23  C11 UNL     1       4.339   0.418  -0.859  1.00  0.00     0.134 A 
ATOM     24  H12 UNL     1       5.168   2.181  -0.257  1.00  0.00     0.185 HD
HETATM   25  N17 UNL     1       3.192  -0.141  -1.255  1.00  0.00    -0.178 N 
ATOM     26  H17 UNL     1       3.176  -1.133  -1.490  1.00  0.00     0.185 HD
BRANCH  20  27
HETATM   27  N11 UNL     1       3.202   3.724  -0.349  1.00  0.00    -0.234 N 
ATOM     28 2H11 UNL     1       2.351   4.282  -0.415  1.00  0.00     0.174 HD
ATOM     29 1H11 UNL     1       4.075   4.155  -0.046  1.00  0.00     0.174 HD
ENDBRANCH  20  27
BRANCH  23  30
HETATM   30  C12 UNL     1       5.603  -0.313  -0.738  1.00  0.00     0.241 C 
BRANCH  30  31
HETATM   31  N13 UNL     1       5.795  -0.891   0.580  1.00  0.00    -0.199 N 
HETATM   32  N14 UNL     1       5.492  -2.053   1.152  1.00  0.00     0.005 NA
HETATM   33  N15 UNL     1       6.039  -1.651   2.286  1.00  0.00     0.007 NA
HETATM   34  N16 UNL     1       6.343  -0.491   1.716  1.00  0.00     0.005 NA
ENDBRANCH  30  31
ENDBRANCH  23  30
ENDBRANCH  16  18
ENDBRANCH  15  16
ENDBRANCH  12  15
BRANCH   8  35
HETATM   35  N3  UNL     1      -3.385  -2.958   0.712  1.00  0.00    -0.171 N 
ATOM     36  H3  UNL     1      -2.838  -3.731   1.091  1.00  0.00     0.186 HD
BRANCH  35  37
HETATM   37  C5  UNL     1      -4.557  -3.206   0.180  1.00  0.00     0.188 A 
HETATM   38  N4  UNL     1      -5.137  -4.415   0.077  1.00  0.00    -0.221 N 
HETATM   39  O1  UNL     1      -6.290  -4.274  -0.503  1.00  0.00    -0.153 OA
ATOM     40  H4  UNL     1      -4.738  -5.296   0.401  1.00  0.00     0.198 HD
HETATM   41  N5  UNL     1      -6.515  -3.035  -0.795  1.00  0.00    -0.222 N 
HETATM   42  C6  UNL     1      -5.446  -2.317  -0.382  1.00  0.00     0.168 A 
ATOM     43  H5  UNL     1      -7.348  -2.666  -1.254  1.00  0.00     0.198 HD
HETATM   44  N6  UNL     1      -5.292  -1.045  -0.495  1.00  0.00    -0.381 N 
ATOM     45  H62 UNL     1      -4.486  -0.503  -0.183  1.00  0.00     0.157 HD
ATOM     46  H61 UNL     1      -5.950  -0.387  -0.911  1.00  0.00     0.157 HD
ENDBRANCH  35  37
ENDBRANCH   8  35
TORSDOF 8
