REMARK  14 active torsions:
REMARK  status: ('A' for Active; 'I' for Inactive)
REMARK    1  A    between atoms: N1_1  and  C1_4 
REMARK    2  A    between atoms: N4_9  and  C2_10 
REMARK    3  A    between atoms: C2_10  and  C3_11 
REMARK       I    between atoms: C3_11  and  N5_13 
REMARK    4  A    between atoms: N5_13  and  C4_15 
REMARK    5  A    between atoms: C4_15  and  C5_16 
REMARK    6  A    between atoms: C6_23  and  C7_24 
REMARK    7  A    between atoms: C8_25  and  O2_26 
REMARK    8  A    between atoms: C9_28  and  O3_29 
REMARK    9  A    between atoms: C10_31  and  O4_32 
REMARK   10  A    between atoms: C11_34  and  C12_35 
REMARK   11  A    between atoms: C12_35  and  O5_36 
REMARK   12  A    between atoms: C12_35  and  N9_38 
REMARK   13  A    between atoms: N9_38  and  O6_40 
REMARK   14  A    between atoms: C13_42  and  O7_43 
ROOT
HETATM    1  C5  UNL     1       0.725  -0.533   0.397  1.00  0.00     0.116 A 
HETATM    2  N6  UNL     1       1.309   0.674   0.516  1.00  0.00    -0.273 N 
ATOM      3  H6  UNL     1       2.280   0.709   0.825  1.00  0.00     0.190 HD
HETATM    4  N7  UNL     1       0.706   1.803   0.259  1.00  0.00    -0.240 N 
ATOM      5  H7  UNL     1       1.200   2.689   0.367  1.00  0.00     0.208 HD
HETATM    6  N8  UNL     1      -0.550   1.782  -0.142  1.00  0.00    -0.270 N 
ATOM      7  H8  UNL     1      -1.027   2.661  -0.345  1.00  0.00     0.190 HD
HETATM    8  C6  UNL     1      -1.213   0.620  -0.288  1.00  0.00     0.138 A 
HETATM    9  N10 UNL     1      -0.551  -0.540  -0.011  1.00  0.00    -0.328 N 
ATOM     10  H10 UNL     1      -1.037  -1.430  -0.117  1.00  0.00     0.169 HD
ENDROOT
BRANCH   8  11
HETATM   11  C7  UNL     1      -2.601   0.587  -0.720  1.00  0.00     0.080 A 
HETATM   12  C8  UNL     1      -2.927   0.506  -2.046  1.00  0.00     0.118 A 
HETATM   13  C9  UNL     1      -4.237   0.478  -2.482  1.00  0.00     0.134 A 
HETATM   14  C10 UNL     1      -5.242   0.534  -1.545  1.00  0.00     0.119 A 
HETATM   15  C11 UNL     1      -4.948   0.616  -0.179  1.00  0.00     0.087 A 
HETATM   16  C13 UNL     1      -3.636   0.642   0.211  1.00  0.00     0.100 A 
BRANCH  12  17
HETATM   17  O2  UNL     1      -1.909   0.449  -2.995  1.00  0.00    -0.357 OA
ATOM     18  H2  UNL     1      -2.135   0.393  -3.916  1.00  0.00     0.217 HD
ENDBRANCH  12  17
BRANCH  13  19
HETATM   19  O3  UNL     1      -4.522   0.397  -3.836  1.00  0.00    -0.356 OA
ATOM     20  H3  UNL     1      -5.423   0.378  -4.136  1.00  0.00     0.218 HD
ENDBRANCH  13  19
BRANCH  14  21
HETATM   21  O4  UNL     1      -6.582   0.510  -1.891  1.00  0.00    -0.357 OA
ATOM     22  H4  UNL     1      -7.276   0.549  -1.244  1.00  0.00     0.218 HD
ENDBRANCH  14  21
BRANCH  15  23
HETATM   23  C12 UNL     1      -6.017   0.682   0.776  1.00  0.00     0.176 C 
BRANCH  23  24
HETATM   24  O5  UNL     1      -7.233   0.661   0.303  1.00  0.00    -0.344 OA
ATOM     25  H5  UNL     1      -7.941   0.705   0.935  1.00  0.00     0.219 HD
ENDBRANCH  23  24
BRANCH  23  26
HETATM   26  N9  UNL     1      -5.963   0.766   2.171  1.00  0.00    -0.247 N 
ATOM     27  H9  UNL     1      -5.066   0.785   2.656  1.00  0.00     0.196 HD
BRANCH  26  28
HETATM   28  O6  UNL     1      -7.144   0.822   2.878  1.00  0.00    -0.288 OA
ATOM     29  H6  UNL     1      -7.107   0.879   3.826  1.00  0.00     0.244 HD
ENDBRANCH  26  28
ENDBRANCH  23  26
ENDBRANCH  15  23
BRANCH  16  30
HETATM   30  O7  UNL     1      -3.245   0.723   1.523  1.00  0.00    -0.358 OA
ATOM     31  H7  UNL     1      -3.951   0.761   2.158  1.00  0.00     0.217 HD
ENDBRANCH  16  30
ENDBRANCH   8  11
BRANCH   1  32
HETATM   32  C4  UNL     1       1.524  -1.733   0.739  1.00  0.00     0.200 C 
BRANCH  32  33
HETATM   33  N5  UNL     1       2.705  -1.416   1.485  1.00  0.00    -0.352 N 
HETATM   34  C3  UNL     1       3.828  -0.885   0.829  1.00  0.00     0.239 C 
HETATM   35  O1  UNL     1       3.810  -0.693  -0.401  1.00  0.00    -0.272 OA
ATOM     36  H5  UNL     1       2.731  -1.576   2.492  1.00  0.00     0.162 HD
BRANCH  34  37
HETATM   37  C2  UNL     1       5.064  -0.534   1.571  1.00  0.00     0.274 C 
BRANCH  37  38
HETATM   38  N4  UNL     1       6.082  -0.017   0.677  1.00  0.00    -0.196 N 
HETATM   39  N3  UNL     1       6.296   1.232   0.316  1.00  0.00    -0.211 N 
HETATM   40  N2  UNL     1       7.314   1.331  -0.517  1.00  0.00    -0.115 N 
ATOM     41  H3  UNL     1       5.743   2.025   0.641  1.00  0.00     0.210 HD
HETATM   42  C1  UNL     1       7.766   0.065  -0.688  1.00  0.00     0.707 A 
ATOM     43  H2  UNL     1       7.683   2.181  -0.943  1.00  0.00     0.207 HD
HETATM   44  N11 UNL     1       6.994  -0.740   0.053  1.00  0.00    -0.113 N 
ATOM     45  H11 UNL     1       7.095  -1.753   0.124  1.00  0.00     0.207 HD
BRANCH  42  46
HETATM   46  N1  UNL     1       8.769  -0.294  -1.441  1.00  0.00    -0.232 N 
ATOM     47  H12 UNL     1       9.357   0.319  -2.005  1.00  0.00     0.174 HD
ATOM     48  H11 UNL     1       9.109  -1.247  -1.570  1.00  0.00     0.174 HD
ENDBRANCH  42  46
ENDBRANCH  37  38
ENDBRANCH  34  37
ENDBRANCH  32  33
ENDBRANCH   1  32
TORSDOF 14
