REMARK  3 active torsions:
REMARK  status: ('A' for Active; 'I' for Inactive)
REMARK    1  A    between atoms: O1_2  and  C2_3 
REMARK    2  A    between atoms: C2_3  and  C3_4 
REMARK    3  A    between atoms: C3_4  and  N1_5 
ROOT
HETATM    1  N1  UNL     1       1.107   0.146  -0.613  1.00  0.00    -0.217 N 
HETATM    2  N2  UNL     1       1.938   1.132  -0.867  1.00  0.00    -0.277 N 
ATOM      3  H2  UNL     1       1.671   2.039  -1.250  1.00  0.00     0.189 HD
HETATM    4  C4  UNL     1       3.190   0.768  -0.548  1.00  0.00     0.216 A 
HETATM    5  N3  UNL     1       3.088  -0.491  -0.086  1.00  0.00    -0.279 N 
ATOM      6  H3  UNL     1       3.860  -1.070   0.245  1.00  0.00     0.189 HD
HETATM    7  N4  UNL     1       1.830  -0.846  -0.133  1.00  0.00    -0.225 N 
ATOM      8  H4  UNL     1       1.464  -1.753   0.158  1.00  0.00     0.210 HD
ENDROOT
BRANCH   1   9
HETATM    9  C3  UNL     1      -0.350   0.123  -0.815  1.00  0.00     0.197 C 
BRANCH   9  10
HETATM   10  C2  UNL     1      -1.067   0.608   0.413  1.00  0.00     0.190 C 
BRANCH  10  11
HETATM   11  O1  UNL     1      -2.438   0.599   0.236  1.00  0.00    -0.394 OA
HETATM   12  C1  UNL     1      -2.987  -0.626  -0.034  1.00  0.00     0.201 C 
ENDBRANCH  10  11
ENDBRANCH   9  10
ENDBRANCH   1   9
TORSDOF 3
