REMARK  3 active torsions:
REMARK  status: ('A' for Active; 'I' for Inactive)
REMARK    1  A    between atoms: O1_2  and  C2_3 
REMARK    2  A    between atoms: C2_3  and  C3_4 
REMARK    3  A    between atoms: C3_4  and  N1_5 
ROOT
HETATM    1  N1  UNL     1       1.147   0.494  -0.717  1.00  0.00    -0.269 N 
HETATM    2  C4  UNL     1       2.195   0.518   0.140  1.00  0.00     0.219 A 
HETATM    3  N2  UNL     1       3.098  -0.345  -0.306  1.00  0.00    -0.279 N 
ATOM      4  H2  UNL     1       3.996  -0.541   0.137  1.00  0.00     0.189 HD
HETATM    5  N3  UNL     1       2.649  -0.917  -1.425  1.00  0.00    -0.227 N 
ATOM      6  H3  UNL     1       3.125  -1.620  -1.991  1.00  0.00     0.210 HD
HETATM    7  N4  UNL     1       1.472  -0.390  -1.646  1.00  0.00    -0.225 N 
ATOM      8  H4  UNL     1       0.877  -0.631  -2.439  1.00  0.00     0.210 HD
ENDROOT
BRANCH   1   9
HETATM    9  C3  UNL     1      -0.019   1.299  -0.556  1.00  0.00     0.177 C 
BRANCH   9  10
HETATM   10  C2  UNL     1      -1.092   0.621   0.265  1.00  0.00     0.189 C 
BRANCH  10  11
HETATM   11  O1  UNL     1      -1.470  -0.553  -0.362  1.00  0.00    -0.394 OA
HETATM   12  C1  UNL     1      -2.447  -1.244   0.313  1.00  0.00     0.201 C 
ENDBRANCH  10  11
ENDBRANCH   9  10
ENDBRANCH   1   9
TORSDOF 3
