REMARK  3 active torsions:
REMARK  status: ('A' for Active; 'I' for Inactive)
REMARK    1  A    between atoms: O1_2  and  N1_3 
REMARK    2  A    between atoms: C2_5  and  C3_6 
REMARK    3  A    between atoms: N3_10  and  O2_11 
ROOT
HETATM    1  C3  UNL     1      -0.972   0.454   0.089  1.00  0.00     0.086 A 
HETATM    2  C4  UNL     1      -1.621   1.343  -0.766  1.00  0.00     0.143 A 
HETATM    3  N2  UNL     1      -2.919   1.173  -0.561  1.00  0.00    -0.268 N 
ATOM      4  H2  UNL     1      -3.670   1.675  -1.034  1.00  0.00     0.190 HD
HETATM    5  N3  UNL     1      -3.071   0.239   0.363  1.00  0.00    -0.095 N 
HETATM    6  N4  UNL     1      -1.920  -0.212   0.773  1.00  0.00    -0.257 N 
ATOM      7  H4  UNL     1      -1.767  -0.933   1.478  1.00  0.00     0.191 HD
ENDROOT
BRANCH   1   8
HETATM    8  C2  UNL     1       0.463   0.267   0.231  1.00  0.00     0.146 C 
HETATM    9  N1  UNL     1       0.892  -0.604   1.076  1.00  0.00    -0.276 N 
ATOM     10  H1  UNL     1       0.243  -1.155   1.638  1.00  0.00     0.193 HD
BRANCH   9  11
HETATM   11  O1  UNL     1       2.251  -0.769   1.198  1.00  0.00    -0.286 OA
HETATM   12  C1  UNL     1       3.058  -0.917   0.046  1.00  0.00     0.237 C 
ENDBRANCH   9  11
ENDBRANCH   1   8
BRANCH   5  13
HETATM   13  O2  UNL     1      -4.297  -0.177   0.808  1.00  0.00    -0.253 OA
ATOM     14  H2  UNL     1      -4.406  -0.848   1.472  1.00  0.00     0.248 HD
ENDBRANCH   5  13
TORSDOF 3
