REMARK  5 active torsions:
REMARK  status: ('A' for Active; 'I' for Inactive)
REMARK    1  A    between atoms: N3_9  and  C5_10 
REMARK    2  A    between atoms: C5_10  and  C6_11 
REMARK       I    between atoms: C6_11  and  N4_13 
REMARK    3  A    between atoms: C13_25  and  C14_26 
REMARK    4  A    between atoms: C14_26  and  C15_27 
REMARK    5  A    between atoms: C15_27  and  N6_28 
ROOT
HETATM    1  C1  UNL     1      -4.979  -0.483  -2.078  1.00  0.00     0.044 C 
HETATM    2  C2  UNL     1      -3.864  -0.304  -1.430  1.00  0.00     0.034 A 
HETATM    3  N1  UNL     1      -2.727  -0.414  -2.221  1.00  0.00    -0.342 N 
ATOM      4  H1  UNL     1      -2.817  -0.619  -3.216  1.00  0.00     0.167 HD
HETATM    5  C3  UNL     1      -1.539  -0.254  -1.690  1.00  0.00     0.122 A 
HETATM    6  N2  UNL     1      -0.455  -0.370  -2.497  1.00  0.00    -0.338 N 
ATOM      7  H2  UNL     1      -0.593  -0.576  -3.486  1.00  0.00     0.168 HD
HETATM    8  C4  UNL     1       0.794  -0.221  -2.029  1.00  0.00     0.188 A 
HETATM    9  N3  UNL     1       0.967   0.049  -0.728  1.00  0.00    -0.301 N 
HETATM   10  C10 UNL     1      -0.078   0.172   0.107  1.00  0.00     0.263 A 
HETATM   11  O2  UNL     1       0.064   0.424   1.326  1.00  0.00    -0.267 OA
HETATM   12  C11 UNL     1      -1.366   0.022  -0.357  1.00  0.00     0.077 A 
HETATM   13  C12 UNL     1      -2.476   0.130   0.420  1.00  0.00     0.034 A 
HETATM   14  C13 UNL     1      -3.804  -0.035  -0.110  1.00  0.00    -0.008 A 
ENDROOT
BRANCH   9  15
HETATM   15  C5  UNL     1       2.332   0.207  -0.240  1.00  0.00     0.236 C 
BRANCH  15  16
HETATM   16  C6  UNL     1       2.849  -1.098   0.197  1.00  0.00     0.241 C 
HETATM   17  O1  UNL     1       2.105  -2.112   0.110  1.00  0.00    -0.271 OA
HETATM   18  N4  UNL     1       4.126  -1.275   0.705  1.00  0.00    -0.306 N 
HETATM   19  C7  UNL     1       5.001  -0.351   0.906  1.00  0.00     0.150 A 
ATOM     20  H4  UNL     1       4.400  -2.228   0.943  1.00  0.00     0.171 HD
HETATM   21  N5  UNL     1       6.238  -0.517   1.398  1.00  0.00    -0.346 N 
HETATM   22  S1  UNL     1       4.935   1.336   0.642  1.00  0.00    -0.064 SA
HETATM   23  C8  UNL     1       6.994   0.525   1.536  1.00  0.00     0.097 A 
ATOM     24  H5  UNL     1       6.576  -1.444   1.658  1.00  0.00     0.167 HD
HETATM   25  C9  UNL     1       6.502   1.748   1.177  1.00  0.00     0.070 A 
ENDBRANCH  15  16
ENDBRANCH   9  15
BRANCH  14  26
HETATM   26  C14 UNL     1      -4.757   0.095   0.747  1.00  0.00     0.030 C 
BRANCH  26  27
HETATM   27  C15 UNL     1      -6.174   0.023   0.699  1.00  0.00     0.081 C 
BRANCH  27  28
HETATM   28  N6  UNL     1      -6.869   0.221   1.831  1.00  0.00    -0.408 N 
ATOM     29  H62 UNL     1      -6.373   0.418   2.700  1.00  0.00     0.155 HD
ATOM     30  H61 UNL     1      -7.887   0.169   1.797  1.00  0.00     0.155 HD
ENDBRANCH  27  28
ENDBRANCH  26  27
ENDBRANCH  14  26
TORSDOF 5
