REMARK  3 active torsions:
REMARK  status: ('A' for Active; 'I' for Inactive)
REMARK    1  A    between atoms: C4_6  and  C5_7 
REMARK    2  A    between atoms: N4_18  and  N5_19 
REMARK       I    between atoms: N5_19  and  C9_21 
REMARK    3  A    between atoms: C9_21  and  C10_23 
ROOT
HETATM    1  C1  UNL     1       0.494  -1.165   3.267  1.00  0.00     0.065 C 
HETATM    2  C2  UNL     1      -0.294  -0.576   2.405  1.00  0.00     0.122 A 
HETATM    3  N1  UNL     1      -1.550  -0.195   2.801  1.00  0.00    -0.337 N 
ATOM      4  H1  UNL     1      -1.929  -0.282   3.744  1.00  0.00     0.167 HD
HETATM    5  C3  UNL     1      -2.194   0.308   1.746  1.00  0.00     0.105 A 
HETATM    6  C4  UNL     1      -3.446   0.790   1.718  1.00  0.00     0.055 C 
HETATM    7  C8  UNL     1      -1.325   0.235   0.702  1.00  0.00     0.295 A 
HETATM    8  O2  UNL     1      -1.559   0.611  -0.470  1.00  0.00    -0.264 OA
HETATM    9  N4  UNL     1      -0.112  -0.324   1.116  1.00  0.00    -0.200 N 
ENDROOT
BRANCH   6  10
HETATM   10  C5  UNL     1      -4.035   1.313   0.497  1.00  0.00     0.030 A 
HETATM   11  C6  UNL     1      -4.875   0.546  -0.283  1.00  0.00     0.096 A 
HETATM   12  C7  UNL     1      -5.452   0.998  -1.439  1.00  0.00     0.261 A 
HETATM   13  O1  UNL     1      -6.209   0.156  -2.046  1.00  0.00    -0.267 OA
HETATM   14  N2  UNL     1      -5.312   2.194  -1.988  1.00  0.00    -0.260 N 
HETATM   15  N3  UNL     1      -4.590   3.199  -1.538  1.00  0.00    -0.266 N 
ATOM     16  H2  UNL     1      -5.820   2.355  -2.857  1.00  0.00     0.191 HD
HETATM   17  S1  UNL     1      -3.772   2.884  -0.105  1.00  0.00     0.001 SA
ATOM     18  H3  UNL     1      -4.532   4.096  -2.020  1.00  0.00     0.195 HD
ENDBRANCH   6  10
BRANCH   9  19
HETATM   19  N5  UNL     1       0.973  -0.379   0.283  1.00  0.00    -0.254 N 
HETATM   20  C9  UNL     1       2.346  -0.408   0.490  1.00  0.00     0.270 C 
HETATM   21  O3  UNL     1       2.913  -0.354   1.589  1.00  0.00    -0.266 OA
ATOM     22  H5  UNL     1       0.718  -0.404  -0.704  1.00  0.00     0.191 HD
BRANCH  20  23
HETATM   23  C10 UNL     1       3.250  -0.509  -0.685  1.00  0.00     0.033 A 
HETATM   24  C11 UNL     1       2.856  -1.098  -1.857  1.00  0.00     0.017 A 
HETATM   25  C12 UNL     1       3.724  -1.173  -2.958  1.00  0.00     0.001 A 
HETATM   26  C13 UNL     1       4.995  -0.653  -2.880  1.00  0.00     0.000 A 
HETATM   27  C14 UNL     1       5.380  -0.064  -1.696  1.00  0.00     0.001 A 
HETATM   28  C15 UNL     1       4.527   0.009  -0.617  1.00  0.00     0.017 A 
ENDBRANCH  20  23
ENDBRANCH   9  19
TORSDOF 3
