REMARK  7 active torsions:
REMARK  status: ('A' for Active; 'I' for Inactive)
REMARK    1  A    between atoms: O1_1  and  N1_3 
REMARK    2  A    between atoms: C1_4  and  N2_5 
REMARK    3  A    between atoms: N2_5  and  C2_7 
REMARK    4  A    between atoms: C2_7  and  C3_8 
REMARK    5  A    between atoms: C3_8  and  O2_9 
REMARK    6  A    between atoms: N5_20  and  O3_21 
REMARK    7  A    between atoms: N6_24  and  O4_25 
ROOT
HETATM    1  N1  UNL     1      -1.612  -0.076   0.137  1.00  0.00    -0.204 N 
HETATM    2  C1  UNL     1      -0.487   0.625  -0.055  1.00  0.00     0.160 C 
HETATM    3  C4  UNL     1       0.754   0.032  -0.290  1.00  0.00     0.128 A 
HETATM    4  N3  UNL     1       1.709   0.979  -0.304  1.00  0.00    -0.347 N 
ATOM      5  H3  UNL     1       1.457   1.956  -0.154  1.00  0.00     0.166 HD
HETATM    6  C5  UNL     1       3.002   0.643  -0.516  1.00  0.00     0.081 A 
HETATM    7  C6  UNL     1       4.176   1.384  -0.583  1.00  0.00     0.050 A 
HETATM    8  C7  UNL     1       5.189   0.495  -0.824  1.00  0.00     0.092 A 
HETATM    9  N4  UNL     1       4.693  -0.750  -0.907  1.00  0.00    -0.349 N 
ATOM     10  H4  UNL     1       5.229  -1.601  -1.080  1.00  0.00     0.167 HD
HETATM   11  C8  UNL     1       3.353  -0.674  -0.720  1.00  0.00     0.162 A 
HETATM   12  N5  UNL     1       2.391  -1.630  -0.707  1.00  0.00    -0.184 N 
HETATM   13  C9  UNL     1       1.097  -1.299  -0.495  1.00  0.00     0.193 A 
HETATM   14  N6  UNL     1       0.271  -2.357  -0.511  1.00  0.00    -0.201 N 
HETATM   15  C10 UNL     1      -0.978  -2.471  -0.023  1.00  0.00     0.094 A 
HETATM   16  C11 UNL     1      -1.370  -3.776   0.175  1.00  0.00     0.034 A 
HETATM   17  C12 UNL     1      -2.614  -4.062   0.667  1.00  0.00     0.002 A 
HETATM   18  C13 UNL     1      -3.460  -3.002   0.957  1.00  0.00     0.002 A 
HETATM   19  C14 UNL     1      -3.079  -1.690   0.763  1.00  0.00     0.034 A 
HETATM   20  C15 UNL     1      -1.812  -1.403   0.262  1.00  0.00     0.094 A 
ENDROOT
BRANCH   2  21
HETATM   21  N2  UNL     1      -0.507   2.022  -0.028  1.00  0.00    -0.370 N 
ATOM     22  H2  UNL     1       0.392   2.480  -0.180  1.00  0.00     0.161 HD
BRANCH  21  23
HETATM   23  C2  UNL     1      -1.619   2.894   0.184  1.00  0.00     0.147 C 
BRANCH  23  24
HETATM   24  C3  UNL     1      -1.177   4.371   0.156  1.00  0.00     0.183 C 
BRANCH  24  25
HETATM   25  O2  UNL     1      -0.239   4.531   1.179  1.00  0.00    -0.399 OA
ATOM     26  H2  UNL     1       0.033   5.441   1.162  1.00  0.00     0.209 HD
ENDBRANCH  24  25
ENDBRANCH  23  24
ENDBRANCH  21  23
ENDBRANCH   2  21
BRANCH   1  27
HETATM   27  O1  UNL     1      -2.748   0.645   0.223  1.00  0.00    -0.281 OA
ATOM     28  H1  UNL     1      -3.546   0.148   0.359  1.00  0.00     0.245 HD
ENDBRANCH   1  27
BRANCH  12  29
HETATM   29  O3  UNL     1       2.675  -2.960  -0.904  1.00  0.00    -0.279 OA
ATOM     30  H3  UNL     1       2.001  -3.630  -0.895  1.00  0.00     0.245 HD
ENDBRANCH  12  29
BRANCH  14  31
HETATM   31  O4  UNL     1       0.761  -3.488  -1.106  1.00  0.00    -0.281 OA
ATOM     32  H4  UNL     1       0.176  -4.237  -1.117  1.00  0.00     0.245 HD
ENDBRANCH  14  31
TORSDOF 7
