REMARK  3 active torsions:
REMARK  status: ('A' for Active; 'I' for Inactive)
REMARK    1  A    between atoms: N1_5  and  C5_6 
REMARK    2  A    between atoms: C5_6  and  C6_7 
REMARK    3  A    between atoms: C8_9  and  N2_10 
ROOT
HETATM    1  C6  UNL     1       0.116   0.273  -1.239  1.00  0.00     0.074 A 
HETATM    2  C7  UNL     1      -0.895  -0.077  -0.337  1.00  0.00     0.078 A 
HETATM    3  C8  UNL     1      -1.854   0.818   0.056  1.00  0.00     0.121 A 
HETATM    4  N4  UNL     1      -1.781   2.054  -0.464  1.00  0.00    -0.175 N 
ATOM      5  H4  UNL     1      -2.483   2.740  -0.187  1.00  0.00     0.186 HD
HETATM    6  C13 UNL     1      -0.824   2.432  -1.335  1.00  0.00     0.706 A 
HETATM    7  N5  UNL     1      -0.593   3.604  -1.965  1.00  0.00    -0.185 N 
ATOM      8  H5  UNL     1      -1.141   4.459  -1.871  1.00  0.00     0.185 HD
HETATM    9  C14 UNL     1       0.490   3.436  -2.736  1.00  0.00     0.215 A 
HETATM   10  N6  UNL     1       0.897   2.183  -2.566  1.00  0.00    -0.275 N 
ATOM     11  H6  UNL     1       1.706   1.768  -3.029  1.00  0.00     0.189 HD
HETATM   12  N7  UNL     1       0.115   1.551  -1.719  1.00  0.00    -0.088 N 
ENDROOT
BRANCH   1  13
HETATM   13  C5  UNL     1       1.099  -0.727  -1.645  1.00  0.00     0.188 C 
BRANCH  13  14
HETATM   14  N1  UNL     1       2.058  -1.131  -0.678  1.00  0.00    -0.353 N 
HETATM   15  C4  UNL     1       3.242  -0.526  -0.538  1.00  0.00     0.045 A 
HETATM   16  C3  UNL     1       4.149  -0.966   0.434  1.00  0.00    -0.008 A 
HETATM   17  C16 UNL     1       3.943   0.603  -1.208  1.00  0.00     0.290 C 
HETATM   18  C2  UNL     1       3.834  -2.021   1.251  1.00  0.00     0.012 A 
HETATM   19  C17 UNL     1       5.380  -0.119   0.367  1.00  0.00     0.273 C 
HETATM   20  C1  UNL     1       2.620  -2.646   1.111  1.00  0.00     0.018 A 
HETATM   21  C15 UNL     1       1.762  -2.179   0.144  1.00  0.00     0.091 A 
HETATM   22  N8  UNL     1       5.339   0.241  -1.060  1.00  0.00    -0.066 N 
ATOM     23  H82 UNL     1       5.679  -0.474  -1.704  1.00  0.00     0.277 HD
ATOM     24  H81 UNL     1       6.011   0.950  -1.354  1.00  0.00     0.277 HD
ENDBRANCH  13  14
ENDBRANCH   1  13
BRANCH   3  25
HETATM   25  N2  UNL     1      -2.858   0.430   0.968  1.00  0.00    -0.357 N 
HETATM   26  C9  UNL     1      -3.900   1.401   1.338  1.00  0.00     0.169 C 
HETATM   27  C10 UNL     1      -5.248   0.804   1.102  1.00  0.00     0.080 C 
HETATM   28  N3  UNL     1      -5.329  -0.558   0.846  1.00  0.00    -0.379 N 
HETATM   29  C11 UNL     1      -4.296  -1.435   1.140  1.00  0.00     0.080 C 
ATOM     30  H3  UNL     1      -6.181  -0.928   0.425  1.00  0.00     0.164 HD
HETATM   31  C12 UNL     1      -3.000  -0.847   1.610  1.00  0.00     0.169 C 
ENDBRANCH   3  25
TORSDOF 3
