REMARK  5 active torsions:
REMARK  status: ('A' for Active; 'I' for Inactive)
REMARK    1  A    between atoms: C3_3  and  C4_4 
REMARK    2  A    between atoms: C4_4  and  C5_5 
REMARK    3  A    between atoms: N5_19  and  C9_20 
REMARK    4  A    between atoms: C13_24  and  C14_25 
REMARK    5  A    between atoms: C14_25  and  O4_27 
ROOT
HETATM    1  C1  UNL     1      -1.206   0.566   0.145  1.00  0.00     0.046 C 
HETATM    2  C2  UNL     1      -1.016  -0.637  -0.341  1.00  0.00     0.059 A 
HETATM    3  C3  UNL     1      -1.949  -1.623  -0.463  1.00  0.00     0.011 A 
HETATM    4  C8  UNL     1      -1.232  -2.707  -1.039  1.00  0.00     0.121 A 
HETATM    5  N4  UNL     1       0.033  -2.310  -1.215  1.00  0.00    -0.304 N 
ATOM      6  H4  UNL     1       0.768  -2.895  -1.614  1.00  0.00     0.186 HD
HETATM    7  N5  UNL     1       0.209  -1.089  -0.815  1.00  0.00    -0.257 N 
ENDROOT
BRANCH   3   8
HETATM    8  C4  UNL     1      -3.216  -1.717  -0.176  1.00  0.00     0.050 C 
BRANCH   8   9
HETATM    9  C5  UNL     1      -4.096  -0.751   0.398  1.00  0.00     0.107 A 
HETATM   10  N1  UNL     1      -4.200  -0.696   1.737  1.00  0.00    -0.303 N 
HETATM   11  C6  UNL     1      -5.027   0.158   2.339  1.00  0.00     0.339 A 
ATOM     12  H1  UNL     1      -3.632  -1.323   2.306  1.00  0.00     0.171 HD
HETATM   13  O1  UNL     1      -5.097   0.182   3.595  1.00  0.00    -0.245 OA
HETATM   14  N2  UNL     1      -5.782   0.992   1.605  1.00  0.00    -0.248 N 
HETATM   15  N3  UNL     1      -5.706   0.967   0.286  1.00  0.00    -0.261 N 
ATOM     16  H2  UNL     1      -6.415   1.645   2.066  1.00  0.00     0.192 HD
HETATM   17  C7  UNL     1      -4.884   0.118  -0.346  1.00  0.00     0.286 A 
ATOM     18  H3  UNL     1      -6.283   1.605  -0.261  1.00  0.00     0.190 HD
HETATM   19  O2  UNL     1      -4.793   0.073  -1.613  1.00  0.00    -0.264 OA
ENDBRANCH   8   9
ENDBRANCH   3   8
BRANCH   7  20
HETATM   20  C9  UNL     1       1.385  -0.282  -0.820  1.00  0.00     0.058 A 
HETATM   21  C10 UNL     1       1.478   0.768  -1.715  1.00  0.00     0.031 A 
HETATM   22  C11 UNL     1       2.580   1.594  -1.783  1.00  0.00     0.003 A 
HETATM   23  C12 UNL     1       3.611   1.331  -0.907  1.00  0.00     0.018 A 
HETATM   24  C13 UNL     1       3.535   0.277   0.003  1.00  0.00     0.041 A 
HETATM   25  C16 UNL     1       2.423  -0.532   0.050  1.00  0.00     0.049 A 
BRANCH  24  26
HETATM   26  C14 UNL     1       4.655   0.064   0.889  1.00  0.00     0.293 C 
HETATM   27  O3  UNL     1       4.603  -0.880   1.714  1.00  0.00    -0.259 OA
BRANCH  26  28
HETATM   28  O4  UNL     1       5.789   0.843   0.884  1.00  0.00    -0.323 OA
HETATM   29  C15 UNL     1       6.889   0.614   1.772  1.00  0.00     0.213 C 
ENDBRANCH  26  28
ENDBRANCH  24  26
ENDBRANCH   7  20
TORSDOF 5
