REMARK  4 active torsions:
REMARK  status: ('A' for Active; 'I' for Inactive)
REMARK    1  A    between atoms: N2_5  and  C3_6 
REMARK    2  A    between atoms: C7_14  and  C8_15 
REMARK    3  A    between atoms: C8_15  and  C9_16 
REMARK    4  A    between atoms: N6_21  and  C10_22 
ROOT
HETATM    1  C8  UNL     1      -0.687  -2.148   0.559  1.00  0.00     0.056 C 
ENDROOT
BRANCH   1   2
HETATM    2  C7  UNL     1      -1.892  -1.587   0.445  1.00  0.00     0.064 A 
HETATM    3  C2  UNL     1      -3.079  -2.004   1.006  1.00  0.00     0.055 A 
HETATM    4  C1  UNL     1      -3.234  -3.082   1.790  1.00  0.00     0.045 C 
HETATM    5  N1  UNL     1      -4.056  -1.155   0.640  1.00  0.00    -0.289 N 
HETATM    6  N2  UNL     1      -3.512  -0.209  -0.142  1.00  0.00    -0.201 N 
ATOM      7  H1  UNL     1      -5.038  -1.219   0.909  1.00  0.00     0.188 HD
HETATM    8  C6  UNL     1      -2.191  -0.450  -0.277  1.00  0.00     0.280 A 
HETATM    9  O2  UNL     1      -1.394   0.256  -0.949  1.00  0.00    -0.265 OA
BRANCH   6  10
HETATM   10  C3  UNL     1      -4.185   0.889  -0.751  1.00  0.00     0.152 A 
HETATM   11  C4  UNL     1      -4.248   2.185  -0.263  1.00  0.00     0.079 A 
HETATM   12  C5  UNL     1      -4.986   2.912  -1.148  1.00  0.00     0.171 A 
HETATM   13  O1  UNL     1      -5.349   2.104  -2.116  1.00  0.00    -0.248 OA
HETATM   14  N3  UNL     1      -4.892   0.911  -1.906  1.00  0.00    -0.244 N 
ATOM     15  H3  UNL     1      -5.042   0.109  -2.518  1.00  0.00     0.196 HD
ENDBRANCH   6  10
ENDBRANCH   1   2
BRANCH   1  16
HETATM   16  C9  UNL     1       0.483  -1.588  -0.097  1.00  0.00     0.120 A 
HETATM   17  N4  UNL     1       0.898  -1.664  -1.359  1.00  0.00    -0.280 N 
HETATM   18  N5  UNL     1       2.009  -1.002  -1.497  1.00  0.00    -0.232 N 
ATOM     19  H4  UNL     1       0.417  -2.166  -2.106  1.00  0.00     0.188 HD
HETATM   20  N6  UNL     1       2.355  -0.473  -0.336  1.00  0.00    -0.204 N 
ATOM     21  H5  UNL     1       2.533  -0.906  -2.367  1.00  0.00     0.209 HD
HETATM   22  C16 UNL     1       1.437  -0.810   0.563  1.00  0.00     0.296 A 
HETATM   23  O3  UNL     1       1.405  -0.507   1.768  1.00  0.00    -0.264 OA
BRANCH  20  24
HETATM   24  C10 UNL     1       3.530   0.319  -0.140  1.00  0.00     0.061 A 
HETATM   25  C11 UNL     1       4.493  -0.081   0.789  1.00  0.00     0.032 A 
HETATM   26  C12 UNL     1       5.642   0.651   1.012  1.00  0.00     0.002 A 
HETATM   27  C13 UNL     1       5.856   1.829   0.290  1.00  0.00     0.000 A 
HETATM   28  C14 UNL     1       4.917   2.237  -0.631  1.00  0.00     0.002 A 
HETATM   29  C15 UNL     1       3.775   1.481  -0.832  1.00  0.00     0.032 A 
ENDBRANCH  20  24
ENDBRANCH   1  16
TORSDOF 4
