REMARK  6 active torsions:
REMARK  status: ('A' for Active; 'I' for Inactive)
REMARK    1  A    between atoms: O1_1  and  N1_3 
REMARK    2  A    between atoms: C3_6  and  O2_7 
REMARK    3  A    between atoms: N2_9  and  O3_10 
REMARK    4  A    between atoms: N3_12  and  C4_13 
REMARK    5  A    between atoms: C4_13  and  C5_14 
REMARK    6  A    between atoms: C12_23  and  N5_24 
ROOT
HETATM    1  N1  UNL     1       1.648  -1.050   0.895  1.00  0.00    -0.049 N 
HETATM    2  C1  UNL     1       0.515  -1.742   0.728  1.00  0.00     0.131 A 
HETATM    3  C2  UNL     1      -0.019  -2.916   1.162  1.00  0.00     0.096 A 
HETATM    4  C3  UNL     1      -1.234  -3.383   0.791  1.00  0.00     0.188 A 
HETATM    5  N2  UNL     1      -1.959  -2.618  -0.078  1.00  0.00    -0.135 N 
HETATM    6  N3  UNL     1      -1.540  -1.465  -0.561  1.00  0.00    -0.241 N 
HETATM    7  C11 UNL     1      -0.325  -0.967  -0.208  1.00  0.00     0.170 A 
HETATM    8  N4  UNL     1       0.405   0.114  -0.501  1.00  0.00    -0.171 N 
ATOM      9  H4  UNL     1       0.117   0.865  -1.128  1.00  0.00     0.186 HD
HETATM   10  C12 UNL     1       1.579   0.061   0.157  1.00  0.00     0.709 A 
ENDROOT
BRANCH   6  11
HETATM   11  C4  UNL     1      -2.336  -0.692  -1.454  1.00  0.00     0.192 C 
BRANCH  11  12
HETATM   12  C5  UNL     1      -3.326   0.208  -0.895  1.00  0.00    -0.038 A 
HETATM   13  C6  UNL     1      -4.649  -0.149  -0.940  1.00  0.00     0.009 A 
HETATM   14  C7  UNL     1      -5.625   0.657  -0.420  1.00  0.00     0.001 A 
HETATM   15  C8  UNL     1      -5.250   1.851   0.158  1.00  0.00     0.000 A 
HETATM   16  C9  UNL     1      -3.941   2.276   0.239  1.00  0.00     0.001 A 
HETATM   17  C10 UNL     1      -2.986   1.398  -0.316  1.00  0.00     0.009 A 
ENDBRANCH  11  12
ENDBRANCH   6  11
BRANCH   5  18
HETATM   18  O3  UNL     1      -3.183  -3.070  -0.483  1.00  0.00    -0.266 OA
ATOM     19  H3  UNL     1      -3.687  -2.538  -1.087  1.00  0.00     0.247 HD
ENDBRANCH   5  18
BRANCH   4  20
HETATM   20  O2  UNL     1      -1.796  -4.580   1.223  1.00  0.00    -0.343 OA
ATOM     21  H2  UNL     1      -2.649  -4.908   0.963  1.00  0.00     0.219 HD
ENDBRANCH   4  20
BRANCH   1  22
HETATM   22  O1  UNL     1       2.692  -1.462   1.718  1.00  0.00    -0.269 OA
ATOM     23  H1  UNL     1       3.496  -0.971   1.837  1.00  0.00     0.245 HD
ENDBRANCH   1  22
BRANCH  10  24
HETATM   24  N5  UNL     1       2.610   1.034   0.064  1.00  0.00    -0.212 N 
HETATM   25  C13 UNL     1       3.365   1.315  -1.136  1.00  0.00     0.160 C 
HETATM   26  C14 UNL     1       4.771   0.818  -0.888  1.00  0.00     0.134 C 
HETATM   27  N6  UNL     1       5.172   0.969   0.476  1.00  0.00    -0.418 N 
HETATM   28  C15 UNL     1       4.482   2.007   1.203  1.00  0.00     0.134 C 
ATOM     29  H6  UNL     1       5.892   0.386   0.903  1.00  0.00     0.153 HD
HETATM   30  C16 UNL     1       2.977   1.814   1.240  1.00  0.00     0.160 C 
ENDBRANCH  10  24
TORSDOF 6
