REMARK  10 active torsions:
REMARK  status: ('A' for Active; 'I' for Inactive)
REMARK    1  A    between atoms: N1_1  and  C1_5 
REMARK    2  A    between atoms: C1_5  and  C2_6 
REMARK    3  A    between atoms: C2_6  and  C3_7 
REMARK    4  A    between atoms: C3_7  and  C4_8 
REMARK    5  A    between atoms: C4_8  and  S1_9 
REMARK    6  A    between atoms: S1_9  and  N2_10 
REMARK    7  A    between atoms: S1_9  and  C5_13 
REMARK    8  A    between atoms: C5_13  and  C6_14 
REMARK    9  A    between atoms: C8_21  and  N6_22 
REMARK   10  A    between atoms: C9_26  and  O1_27 
ROOT
HETATM    1  C6  UNL     1      -1.841   0.334   1.208  1.00  0.00     0.126 C 
HETATM    2  N3  UNL     1      -3.100  -0.152   1.686  1.00  0.00    -0.357 N 
ATOM      3  H3  UNL     1      -3.160  -0.473   2.652  1.00  0.00     0.162 HD
HETATM    4  C7  UNL     1      -4.251  -0.209   0.894  1.00  0.00     0.186 C 
HETATM    5  N4  UNL     1      -5.521  -0.346   1.547  1.00  0.00    -0.064 NA
HETATM    6  N5  UNL     1      -4.162  -0.140  -0.393  1.00  0.00    -0.335 N 
ATOM      7  H5  UNL     1      -5.015  -0.184  -0.951  1.00  0.00     0.164 HD
HETATM    8  C8  UNL     1      -2.886  -0.002  -1.067  1.00  0.00     0.314 C 
HETATM    9  C9  UNL     1      -1.900   0.789  -0.232  1.00  0.00     0.191 C 
ENDROOT
BRANCH   1  10
HETATM   10  C5  UNL     1      -0.773  -0.762   1.307  1.00  0.00     0.112 C 
BRANCH  10  11
HETATM   11  S1  UNL     1       0.726  -0.065   0.720  1.00  0.00    -0.133 SA
BRANCH  11  12
HETATM   12  C4  UNL     1       2.085  -1.096   0.720  1.00  0.00     0.084 C 
BRANCH  12  13
HETATM   13  C3  UNL     1       3.048  -0.843  -0.385  1.00  0.00     0.013 C 
BRANCH  13  14
HETATM   14  C2  UNL     1       3.636   0.518  -0.362  1.00  0.00     0.028 C 
BRANCH  14  15
HETATM   15  C1  UNL     1       4.654   0.702  -1.502  1.00  0.00     0.229 C 
BRANCH  15  16
HETATM   16  N1  UNL     1       5.723  -0.248  -1.380  1.00  0.00    -0.079 N 
ATOM     17  H13 UNL     1       6.168  -0.202  -0.463  1.00  0.00     0.274 HD
ATOM     18  H12 UNL     1       5.376  -1.206  -1.333  1.00  0.00     0.274 HD
ATOM     19  H11 UNL     1       6.398  -0.126  -2.135  1.00  0.00     0.274 HD
ENDBRANCH  15  16
ENDBRANCH  14  15
ENDBRANCH  13  14
ENDBRANCH  12  13
ENDBRANCH  11  12
BRANCH  11  20
HETATM   20  N2  UNL     1       0.875   1.577   0.869  1.00  0.00    -0.383 N 
ATOM     21  H22 UNL     1       1.747   1.982   0.528  1.00  0.00     0.163 HD
ATOM     22  H21 UNL     1       0.062   2.193   0.869  1.00  0.00     0.163 HD
ENDBRANCH  11  20
ENDBRANCH  10  11
ENDBRANCH   1  10
BRANCH   9  23
HETATM   23  O1  UNL     1      -2.138   2.143  -0.276  1.00  0.00    -0.390 OA
ATOM     24  H1  UNL     1      -2.175   2.429  -1.181  1.00  0.00     0.210 HD
ENDBRANCH   9  23
BRANCH   8  25
HETATM   25  N6  UNL     1      -3.124   0.751  -2.282  1.00  0.00    -0.056 N 
ATOM     26  H63 UNL     1      -3.846   0.339  -2.873  1.00  0.00     0.276 HD
ATOM     27  H62 UNL     1      -3.586   1.645  -2.115  1.00  0.00     0.276 HD
ATOM     28  H61 UNL     1      -2.226   0.848  -2.756  1.00  0.00     0.276 HD
ENDBRANCH   8  25
TORSDOF 10
