REMARK  11 active torsions:
REMARK  status: ('A' for Active; 'I' for Inactive)
REMARK    1  A    between atoms: O1_2  and  C2_3 
REMARK    2  A    between atoms: C2_3  and  C3_4 
REMARK    3  A    between atoms: C3_4  and  O2_5 
REMARK    4  A    between atoms: C3_4  and  C4_7 
REMARK    5  A    between atoms: C4_7  and  N1_8 
REMARK    6  A    between atoms: N1_8  and  C5_10 
REMARK    7  A    between atoms: C6_13  and  N3_14 
REMARK    8  A    between atoms: C7_19  and  N5_20 
REMARK    9  A    between atoms: N5_20  and  C8_22 
REMARK   10  A    between atoms: C8_22  and  C9_23 
REMARK   11  A    between atoms: C9_23  and  O3_24 
ROOT
HETATM    1  C5  UNL     1      -0.165  -0.217   0.060  1.00  0.00     0.707 A 
HETATM    2  N2  UNL     1      -0.406  -0.648   1.311  1.00  0.00    -0.022 N 
ATOM      3  H2  UNL     1       0.384  -0.710   1.953  1.00  0.00     0.203 HD
HETATM    4  C6  UNL     1      -1.613  -1.001   1.770  1.00  0.00     0.705 A 
HETATM    5  N4  UNL     1      -2.657  -0.913   0.898  1.00  0.00    -0.022 N 
ATOM      6  H4  UNL     1      -3.592  -1.174   1.211  1.00  0.00     0.203 HD
HETATM    7  C7  UNL     1      -2.480  -0.489  -0.365  1.00  0.00     0.707 A 
HETATM    8  N6  UNL     1      -1.230  -0.147  -0.764  1.00  0.00    -0.022 N 
ATOM      9  H6  UNL     1      -1.090   0.175  -1.722  1.00  0.00     0.203 HD
ENDROOT
BRANCH   1  10
HETATM   10  N1  UNL     1       1.024   0.115  -0.341  1.00  0.00    -0.223 N 
ATOM     11  H1  UNL     1       1.191   0.440  -1.293  1.00  0.00     0.177 HD
BRANCH  10  12
HETATM   12  C4  UNL     1       2.108   0.005   0.622  1.00  0.00     0.172 C 
BRANCH  12  13
HETATM   13  C3  UNL     1       3.388   0.609   0.073  1.00  0.00     0.160 C 
BRANCH  13  14
HETATM   14  C2  UNL     1       3.868  -0.098  -1.148  1.00  0.00     0.200 C 
BRANCH  14  15
HETATM   15  O1  UNL     1       5.008   0.479  -1.669  1.00  0.00    -0.393 OA
HETATM   16  C1  UNL     1       6.057   0.462  -0.769  1.00  0.00     0.201 C 
ENDBRANCH  14  15
ENDBRANCH  13  14
BRANCH  13  17
HETATM   17  O2  UNL     1       3.095   1.954  -0.186  1.00  0.00    -0.392 OA
ATOM     18  H2  UNL     1       2.789   2.405   0.592  1.00  0.00     0.210 HD
ENDBRANCH  13  17
ENDBRANCH  12  13
ENDBRANCH  10  12
ENDBRANCH   1  10
BRANCH   4  19
HETATM   19  N3  UNL     1      -1.823  -1.413   2.978  1.00  0.00    -0.234 N 
ATOM     20  H32 UNL     1      -1.042  -1.479   3.631  1.00  0.00     0.174 HD
ATOM     21  H31 UNL     1      -2.743  -1.682   3.328  1.00  0.00     0.174 HD
ENDBRANCH   4  19
BRANCH   7  22
HETATM   22  N5  UNL     1      -3.463  -0.410  -1.171  1.00  0.00    -0.223 N 
ATOM     23  H5  UNL     1      -3.246  -0.079  -2.111  1.00  0.00     0.177 HD
BRANCH  22  24
HETATM   24  C8  UNL     1      -4.826  -0.727  -0.919  1.00  0.00     0.164 C 
BRANCH  24  25
HETATM   25  C9  UNL     1      -5.636   0.528  -0.565  1.00  0.00     0.184 C 
BRANCH  25  26
HETATM   26  O3  UNL     1      -5.139   1.147   0.564  1.00  0.00    -0.399 OA
ATOM     27  H3  UNL     1      -5.640   1.924   0.783  1.00  0.00     0.209 HD
ENDBRANCH  25  26
ENDBRANCH  24  25
ENDBRANCH  22  24
ENDBRANCH   7  22
TORSDOF 11
