REMARK  9 active torsions:
REMARK  status: ('A' for Active; 'I' for Inactive)
REMARK    1  A    between atoms: N1_1  and  C1_4 
REMARK    2  A    between atoms: C2_7  and  N3_8 
REMARK    3  A    between atoms: N3_8  and  C3_10 
REMARK    4  A    between atoms: C3_10  and  C4_11 
REMARK    5  A    between atoms: C4_11  and  O1_12 
REMARK    6  A    between atoms: N6_21  and  C7_23 
REMARK    7  A    between atoms: C7_23  and  C8_24 
REMARK    8  A    between atoms: C8_24  and  C9_25 
REMARK    9  A    between atoms: C9_25  and  O3_26 
ROOT
HETATM    1  C1  UNL     1      -0.175   1.265   0.681  1.00  0.00     0.159 C 
HETATM    2  N2  UNL     1       1.005   0.980   0.028  1.00  0.00    -0.173 N 
ATOM      3  H2  UNL     1       1.337   1.691  -0.623  1.00  0.00     0.186 HD
HETATM    4  C2  UNL     1       1.775  -0.120   0.142  1.00  0.00     0.683 C 
HETATM    5  N4  UNL     1       1.519  -1.194   0.917  1.00  0.00    -0.141 N 
ATOM      6  H4  UNL     1       2.259  -1.896   0.927  1.00  0.00     0.189 HD
HETATM    7  C5  UNL     1       0.437  -1.499   1.690  1.00  0.00     0.340 C 
HETATM    8  O2  UNL     1       0.498  -2.558   2.328  1.00  0.00    -0.246 OA
HETATM    9  N5  UNL     1      -0.699  -0.784   1.847  1.00  0.00    -0.291 N 
ATOM     10  H5  UNL     1      -1.362  -1.134   2.539  1.00  0.00     0.172 HD
HETATM   11  C6  UNL     1      -1.059   0.349   1.188  1.00  0.00     0.150 C 
HETATM   12  N6  UNL     1      -2.279   0.525   1.042  1.00  0.00    -0.373 N 
ATOM     13  H6  UNL     1      -2.822  -0.227   1.465  1.00  0.00     0.161 HD
ENDROOT
BRANCH   1  14
HETATM   14  N1  UNL     1      -0.384   2.513   0.785  1.00  0.00    -0.382 N 
ATOM     15  H12 UNL     1       0.274   3.195   0.408  1.00  0.00     0.157 HD
ATOM     16  H11 UNL     1      -1.257   2.724   1.268  1.00  0.00     0.157 HD
ENDBRANCH   1  14
BRANCH  12  17
HETATM   17  C7  UNL     1      -3.106   1.492   0.445  1.00  0.00     0.123 C 
BRANCH  17  18
HETATM   18  C8  UNL     1      -4.440   0.916  -0.036  1.00  0.00     0.045 C 
BRANCH  18  19
HETATM   19  C9  UNL     1      -4.170  -0.183  -1.075  1.00  0.00     0.165 C 
BRANCH  19  20
HETATM   20  O3  UNL     1      -3.476   0.397  -2.141  1.00  0.00    -0.401 OA
ATOM     21  H3  UNL     1      -3.309  -0.283  -2.783  1.00  0.00     0.209 HD
ENDBRANCH  19  20
ENDBRANCH  18  19
ENDBRANCH  17  18
ENDBRANCH  12  17
BRANCH   4  22
HETATM   22  N3  UNL     1       2.834  -0.100  -0.568  1.00  0.00    -0.224 N 
ATOM     23  H3  UNL     1       2.989   0.731  -1.139  1.00  0.00     0.177 HD
BRANCH  22  24
HETATM   24  C3  UNL     1       3.825  -1.126  -0.643  1.00  0.00     0.164 C 
BRANCH  24  25
HETATM   25  C4  UNL     1       5.041  -0.529  -1.350  1.00  0.00     0.184 C 
BRANCH  25  26
HETATM   26  O1  UNL     1       6.045  -1.497  -1.450  1.00  0.00    -0.399 OA
ATOM     27  H1  UNL     1       6.801  -1.126  -1.890  1.00  0.00     0.209 HD
ENDBRANCH  25  26
ENDBRANCH  24  25
ENDBRANCH  22  24
ENDBRANCH   4  22
TORSDOF 9
