REMARK  11 active torsions:
REMARK  status: ('A' for Active; 'I' for Inactive)
REMARK    1  A    between atoms: N1_2  and  C2_4 
REMARK    2  A    between atoms: C2_4  and  C3_5 
REMARK    3  A    between atoms: C3_5  and  C4_6 
REMARK    4  A    between atoms: C5_10  and  N3_11 
REMARK    5  A    between atoms: C6_15  and  O1_16 
REMARK    6  A    between atoms: O1_16  and  C7_17 
REMARK    7  A    between atoms: C7_17  and  C8_18 
REMARK    8  A    between atoms: C8_18  and  C9_19 
REMARK    9  A    between atoms: C9_19  and  N4_20 
REMARK   10  A    between atoms: C10_24  and  O2_25 
REMARK   11  A    between atoms: C11_27  and  O3_28 
ROOT
HETATM    1  C4  UNL     1      -1.626   0.145   0.219  1.00  0.00     0.221 C 
HETATM    2  N2  UNL     1      -1.242   0.413   1.578  1.00  0.00    -0.037 N 
ATOM      3  H21 UNL     1      -1.357  -0.393   2.193  1.00  0.00     0.280 HD
ATOM      4  H22 UNL     1      -1.888   1.038   2.060  1.00  0.00     0.280 HD
HETATM    5  C5  UNL     1       0.140   0.923   1.545  1.00  0.00     0.411 C 
HETATM    6  C6  UNL     1       0.980   0.029   0.680  1.00  0.00     0.210 C 
HETATM    7  C10 UNL     1       0.305  -1.305   0.401  1.00  0.00     0.181 C 
HETATM    8  C11 UNL     1      -1.082  -1.181  -0.168  1.00  0.00     0.180 C 
ENDROOT
BRANCH   6   9
HETATM    9  O1  UNL     1       1.314   0.549  -0.534  1.00  0.00    -0.379 OA
BRANCH   9  10
HETATM   10  C7  UNL     1       2.635   0.659  -0.825  1.00  0.00     0.170 C 
BRANCH  10  11
HETATM   11  C8  UNL     1       3.358  -0.674  -0.811  1.00  0.00     0.053 C 
BRANCH  11  12
HETATM   12  C9  UNL     1       4.815  -0.365  -1.156  1.00  0.00     0.231 C 
BRANCH  12  13
HETATM   13  N4  UNL     1       5.383   0.537  -0.181  1.00  0.00    -0.079 N 
ATOM     14  H43 UNL     1       4.828   1.387  -0.081  1.00  0.00     0.274 HD
ATOM     15  H42 UNL     1       5.285   0.180   0.769  1.00  0.00     0.274 HD
ATOM     16  H41 UNL     1       6.355   0.743  -0.411  1.00  0.00     0.274 HD
ENDBRANCH  12  13
ENDBRANCH  11  12
ENDBRANCH  10  11
ENDBRANCH   9  10
ENDBRANCH   6   9
BRANCH   5  17
HETATM   17  N3  UNL     1       0.071   2.275   1.092  1.00  0.00    -0.048 N 
ATOM     18  H33 UNL     1      -0.416   2.376   0.201  1.00  0.00     0.276 HD
ATOM     19  H32 UNL     1      -0.558   2.854   1.649  1.00  0.00     0.276 HD
ATOM     20  H31 UNL     1       1.028   2.628   1.069  1.00  0.00     0.276 HD
ENDBRANCH   5  17
BRANCH   7  21
HETATM   21  O2  UNL     1       0.312  -2.042   1.586  1.00  0.00    -0.390 OA
ATOM     22  H2  UNL     1      -0.110  -2.875   1.412  1.00  0.00     0.210 HD
ENDBRANCH   7  21
BRANCH   8  23
HETATM   23  O3  UNL     1      -0.972  -1.349  -1.554  1.00  0.00    -0.391 OA
ATOM     24  H3  UNL     1      -0.624  -2.198  -1.802  1.00  0.00     0.210 HD
ENDBRANCH   8  23
BRANCH   1  25
HETATM   25  C3  UNL     1      -3.087   0.331  -0.035  1.00  0.00     0.055 C 
BRANCH  25  26
HETATM   26  C2  UNL     1      -3.986  -0.526   0.768  1.00  0.00     0.120 C 
BRANCH  26  27
HETATM   27  N1  UNL     1      -5.347  -0.240   0.420  1.00  0.00    -0.408 N 
HETATM   28  C1  UNL     1      -5.713   0.652  -0.411  1.00  0.00     0.112 C 
ATOM     29  H1  UNL     1      -6.076  -0.792   0.872  1.00  0.00     0.157 HD
ENDBRANCH  26  27
ENDBRANCH  25  26
ENDBRANCH   1  25
TORSDOF 11
