REMARK  11 active torsions:
REMARK  status: ('A' for Active; 'I' for Inactive)
REMARK    1  A    between atoms: N1_1  and  C1_5 
REMARK    2  A    between atoms: C1_5  and  C2_6 
REMARK    3  A    between atoms: C2_6  and  O1_7 
REMARK    4  A    between atoms: O1_7  and  N2_8 
REMARK    5  A    between atoms: N2_8  and  C3_10 
REMARK    6  A    between atoms: C3_10  and  N3_12 
REMARK    7  A    between atoms: N3_12  and  C4_14 
REMARK    8  A    between atoms: C4_14  and  C5_15 
REMARK    9  A    between atoms: C5_15  and  N4_16 
REMARK   10  A    between atoms: N4_16  and  C6_18 
REMARK   11  A    between atoms: C9_24  and  N6_25 
ROOT
HETATM    1  C4  UNL     1      -0.413  -1.345   0.468  1.00  0.00     0.166 C 
ENDROOT
BRANCH   1   2
HETATM    2  N3  UNL     1       1.024  -1.303   0.653  1.00  0.00    -0.361 N 
ATOM      3  H3  UNL     1       1.485  -1.809   1.410  1.00  0.00     0.162 HD
BRANCH   2   4
HETATM    4  C3  UNL     1       1.769  -0.503  -0.296  1.00  0.00     0.192 C 
HETATM    5  S1  UNL     1       1.500   0.252  -1.651  1.00  0.00    -0.039 SA
BRANCH   4   6
HETATM    6  N2  UNL     1       3.244  -0.507   0.015  1.00  0.00    -0.241 N 
ATOM      7  H2  UNL     1       3.603  -1.212   0.659  1.00  0.00     0.197 HD
BRANCH   6   8
HETATM    8  O1  UNL     1       4.032   0.296  -0.469  1.00  0.00    -0.277 OA
BRANCH   8   9
HETATM    9  C2  UNL     1       5.071   0.831  -0.956  1.00  0.00     0.228 C 
BRANCH   9  10
HETATM   10  C1  UNL     1       6.060   0.751   0.361  1.00  0.00     0.258 C 
BRANCH  10  11
HETATM   11  N1  UNL     1       6.054  -0.702   0.623  1.00  0.00    -0.077 N 
ATOM     12  H13 UNL     1       5.133  -1.124   0.739  1.00  0.00     0.274 HD
ATOM     13  H12 UNL     1       6.322  -1.292  -0.165  1.00  0.00     0.274 HD
ATOM     14  H11 UNL     1       6.666  -0.751   1.438  1.00  0.00     0.274 HD
ENDBRANCH  10  11
ENDBRANCH   9  10
ENDBRANCH   8   9
ENDBRANCH   6   8
ENDBRANCH   4   6
ENDBRANCH   2   4
ENDBRANCH   1   2
BRANCH   1  15
HETATM   15  C5  UNL     1      -0.720   0.149   0.603  1.00  0.00     0.075 C 
BRANCH  15  16
HETATM   16  N4  UNL     1      -1.990   0.666   0.745  1.00  0.00    -0.392 N 
ATOM     17  H4  UNL     1      -2.267   1.046   1.650  1.00  0.00     0.159 HD
BRANCH  16  18
HETATM   18  C6  UNL     1      -2.906   0.689  -0.297  1.00  0.00     0.138 C 
HETATM   19  C7  UNL     1      -3.820   1.869  -0.173  1.00  0.00     0.259 C 
HETATM   20  N5  UNL     1      -4.982   1.358   0.531  1.00  0.00    -0.071 N 
HETATM   21  C8  UNL     1      -5.224   0.074  -0.174  1.00  0.00     0.267 C 
ATOM     22  H52 UNL     1      -4.877   1.284   1.543  1.00  0.00     0.277 HD
ATOM     23  H51 UNL     1      -5.781   1.991   0.565  1.00  0.00     0.277 HD
HETATM   24  C9  UNL     1      -3.845  -0.517  -0.222  1.00  0.00     0.233 C 
BRANCH  24  25
HETATM   25  N6  UNL     1      -3.722  -1.436  -1.321  1.00  0.00    -0.071 N 
ATOM     26  H63 UNL     1      -3.841  -0.947  -2.208  1.00  0.00     0.274 HD
ATOM     27  H62 UNL     1      -2.755  -1.744  -1.420  1.00  0.00     0.274 HD
ATOM     28  H61 UNL     1      -4.348  -2.240  -1.271  1.00  0.00     0.274 HD
ENDBRANCH  24  25
ENDBRANCH  16  18
ENDBRANCH  15  16
ENDBRANCH   1  15
TORSDOF 11
