REMARK  11 active torsions:
REMARK  status: ('A' for Active; 'I' for Inactive)
REMARK    1  A    between atoms: C2_2  and  N1_3 
REMARK    2  A    between atoms: N1_3  and  C3_5 
REMARK    3  A    between atoms: C4_8  and  N3_9 
REMARK    4  A    between atoms: N3_9  and  C5_11 
REMARK    5  A    between atoms: C5_11  and  C6_12 
REMARK    6  A    between atoms: C6_12  and  O1_13 
REMARK    7  A    between atoms: C7_17  and  N5_18 
REMARK    8  A    between atoms: N5_18  and  C8_20 
REMARK    9  A    between atoms: C8_20  and  C9_21 
REMARK   10  A    between atoms: C9_21  and  C10_22 
REMARK   11  A    between atoms: C10_22  and  N6_23 
ROOT
HETATM    1  C3  UNL     1      -1.170  -1.361  -0.247  1.00  0.00     0.707 A 
HETATM    2  N2  UNL     1      -1.935  -0.294   0.048  1.00  0.00    -0.022 N 
ATOM      3  H2  UNL     1      -2.933  -0.422   0.213  1.00  0.00     0.203 HD
HETATM    4  C4  UNL     1      -1.396   0.954   0.129  1.00  0.00     0.707 A 
HETATM    5  N4  UNL     1      -0.084   1.165  -0.081  1.00  0.00    -0.022 N 
ATOM      6  H4  UNL     1       0.316   2.101  -0.019  1.00  0.00     0.203 HD
HETATM    7  C7  UNL     1       0.683   0.099  -0.375  1.00  0.00     0.707 A 
HETATM    8  N7  UNL     1       0.139  -1.128  -0.453  1.00  0.00    -0.022 N 
ATOM      9  H7  UNL     1       0.745  -1.917  -0.678  1.00  0.00     0.203 HD
ENDROOT
BRANCH   7  10
HETATM   10  N5  UNL     1       1.951   0.277  -0.582  1.00  0.00    -0.225 N 
ATOM     11  H5  UNL     1       2.322   1.225  -0.513  1.00  0.00     0.177 HD
BRANCH  10  12
HETATM   12  C8  UNL     1       2.859  -0.784  -0.902  1.00  0.00     0.139 C 
BRANCH  12  13
HETATM   13  C9  UNL     1       4.218  -0.182  -1.188  1.00  0.00     0.047 C 
BRANCH  13  14
HETATM   14  C10 UNL     1       4.650   0.551   0.072  1.00  0.00     0.231 C 
BRANCH  14  15
HETATM   15  N6  UNL     1       4.726  -0.394   1.179  1.00  0.00    -0.079 N 
ATOM     16  H63 UNL     1       3.854  -0.906   1.310  1.00  0.00     0.274 HD
ATOM     17  H62 UNL     1       5.330  -1.188   0.968  1.00  0.00     0.274 HD
ATOM     18  H61 UNL     1       5.016   0.098   2.024  1.00  0.00     0.274 HD
ENDBRANCH  14  15
ENDBRANCH  13  14
ENDBRANCH  12  13
ENDBRANCH  10  12
ENDBRANCH   7  10
BRANCH   4  19
HETATM   19  N3  UNL     1      -2.181   1.936   0.415  1.00  0.00    -0.223 N 
ATOM     20  H3  UNL     1      -3.171   1.742   0.568  1.00  0.00     0.177 HD
BRANCH  19  21
HETATM   21  C5  UNL     1      -1.722   3.285   0.526  1.00  0.00     0.164 C 
BRANCH  21  22
HETATM   22  C6  UNL     1      -2.898   4.152   0.984  1.00  0.00     0.184 C 
BRANCH  22  23
HETATM   23  O1  UNL     1      -3.900   4.041   0.022  1.00  0.00    -0.399 OA
ATOM     24  H1  UNL     1      -4.630   4.579   0.306  1.00  0.00     0.209 HD
ENDBRANCH  22  23
ENDBRANCH  21  22
ENDBRANCH  19  21
ENDBRANCH   4  19
BRANCH   1  25
HETATM   25  N1  UNL     1      -1.647  -2.563  -0.333  1.00  0.00    -0.225 N 
ATOM     26  H1  UNL     1      -1.002  -3.320  -0.561  1.00  0.00     0.177 HD
BRANCH  25  27
HETATM   27  C2  UNL     1      -3.022  -2.891  -0.128  1.00  0.00     0.133 C 
HETATM   28  C1  UNL     1      -3.196  -4.385   0.016  1.00  0.00     0.027 C 
ENDBRANCH  25  27
ENDBRANCH   1  25
TORSDOF 11
