REMARK  8 active torsions:
REMARK  status: ('A' for Active; 'I' for Inactive)
REMARK    1  A    between atoms: N1_1  and  C1_4 
REMARK    2  A    between atoms: C4_12  and  N4_13 
REMARK    3  A    between atoms: N4_13  and  C5_14 
REMARK    4  A    between atoms: N4_13  and  C7_20 
REMARK    5  A    between atoms: C5_14  and  C6_15 
REMARK    6  A    between atoms: C6_15  and  N5_16 
REMARK    7  A    between atoms: C7_20  and  C8_21 
REMARK    8  A    between atoms: C8_21  and  O2_22 
ROOT
HETATM    1  C1  UNL     1       4.485  -0.287  -0.636  1.00  0.00     0.680 A 
HETATM    2  N2  UNL     1       4.314  -1.319   0.193  1.00  0.00    -0.154 N 
ATOM      3  H2  UNL     1       5.114  -1.926   0.371  1.00  0.00     0.187 HD
HETATM    4  C2  UNL     1       3.153  -1.611   0.810  1.00  0.00     0.290 A 
HETATM    5  O1  UNL     1       3.061  -2.607   1.583  1.00  0.00    -0.265 OA
HETATM    6  C3  UNL     1       2.081  -0.778   0.554  1.00  0.00     0.162 A 
HETATM    7  N3  UNL     1       0.815  -0.743   0.965  1.00  0.00    -0.182 N 
ATOM      8  H3  UNL     1       0.404  -1.417   1.611  1.00  0.00     0.184 HD
HETATM    9  C4  UNL     1       0.141   0.293   0.422  1.00  0.00     0.686 A 
HETATM   10  N6  UNL     1       1.027   0.924  -0.356  1.00  0.00    -0.173 N 
ATOM     11  H6  UNL     1       0.828   1.756  -0.911  1.00  0.00     0.186 HD
HETATM   12  C9  UNL     1       2.227   0.298  -0.300  1.00  0.00     0.169 A 
HETATM   13  N7  UNL     1       3.418   0.502  -0.861  1.00  0.00    -0.174 N 
ATOM     14  H7  UNL     1       3.527   1.296  -1.492  1.00  0.00     0.186 HD
ENDROOT
BRANCH   9  15
HETATM   15  N4  UNL     1      -1.271   0.629   0.653  1.00  0.00    -0.193 N 
BRANCH  15  16
HETATM   16  C5  UNL     1      -1.949  -0.252   1.515  1.00  0.00     0.109 C 
BRANCH  16  17
HETATM   17  C6  UNL     1      -2.980  -1.182   1.020  1.00  0.00     0.274 C 
BRANCH  17  18
HETATM   18  N5  UNL     1      -2.571  -2.093   0.001  1.00  0.00    -0.075 N 
ATOM     19  H53 UNL     1      -2.168  -1.577  -0.781  1.00  0.00     0.274 HD
ATOM     20  H52 UNL     1      -1.755  -2.618   0.316  1.00  0.00     0.274 HD
ATOM     21  H51 UNL     1      -3.284  -2.737  -0.342  1.00  0.00     0.274 HD
ENDBRANCH  17  18
ENDBRANCH  16  17
ENDBRANCH  15  16
BRANCH  15  22
HETATM   22  C7  UNL     1      -1.716   1.787  -0.052  1.00  0.00     0.172 C 
BRANCH  22  23
HETATM   23  C8  UNL     1      -2.595   1.645  -1.227  1.00  0.00     0.185 C 
BRANCH  23  24
HETATM   24  O2  UNL     1      -3.816   1.056  -1.036  1.00  0.00    -0.399 OA
ATOM     25  H2  UNL     1      -4.382   0.964  -1.793  1.00  0.00     0.209 HD
ENDBRANCH  23  24
ENDBRANCH  22  23
ENDBRANCH  15  22
ENDBRANCH   9  15
BRANCH   1  26
HETATM   26  N1  UNL     1       5.643  -0.082  -1.182  1.00  0.00    -0.234 N 
ATOM     27  H12 UNL     1       6.452  -0.680  -1.011  1.00  0.00     0.174 HD
ATOM     28  H11 UNL     1       5.774   0.707  -1.816  1.00  0.00     0.174 HD
ENDBRANCH   1  26
TORSDOF 8
