REMARK  8 active torsions:
REMARK  status: ('A' for Active; 'I' for Inactive)
REMARK       I    between atoms: C2_2  and  N1_4 
REMARK    1  A    between atoms: N1_4  and  C3_5 
REMARK    2  A    between atoms: C4_6  and  N2_7 
REMARK    3  A    between atoms: N2_7  and  C5_9 
REMARK    4  A    between atoms: C5_9  and  N3_11 
REMARK    5  A    between atoms: N3_11  and  C6_13 
REMARK    6  A    between atoms: C6_13  and  C8_15 
REMARK    7  A    between atoms: C13_21  and  S3_23 
REMARK    8  A    between atoms: S3_23  and  O2_24 
ROOT
HETATM    1  N2  UNL     1      -0.683  -0.020   0.094  1.00  0.00    -0.359 N 
ATOM      2  H2  UNL     1      -1.124  -0.597  -0.623  1.00  0.00     0.162 HD
ENDROOT
BRANCH   1   3
HETATM    3  C4  UNL     1      -1.442   0.764   0.964  1.00  0.00     0.125 C 
HETATM    4  C3  UNL     1      -3.008   0.701   0.770  1.00  0.00     0.225 C 
HETATM    5  C13 UNL     1      -3.041   0.692   2.330  1.00  0.00     0.146 C 
HETATM    6  C12 UNL     1      -1.583   0.249   2.348  1.00  0.00     0.071 C 
HETATM    7 CL1  UNL     1      -3.295   2.281   3.064  1.00  0.00    -0.101 Cl
BRANCH   4   8
HETATM    8  N1  UNL     1      -3.584  -0.022   0.054  1.00  0.00    -0.405 NA
HETATM    9  C2  UNL     1      -4.339  -0.972  -0.886  1.00  0.00     0.282 C 
HETATM   10  C1  UNL     1      -5.540  -1.617  -0.340  1.00  0.00     0.134 C 
HETATM   11  O1  UNL     1      -4.009  -1.205  -2.053  1.00  0.00    -0.258 OA
ENDBRANCH   4   8
BRANCH   5  12
HETATM   12  S3  UNL     1      -4.090  -0.555   3.070  1.00  0.00     0.015 SA
BRANCH  12  13
HETATM   13  O2  UNL     1      -3.429  -2.109   2.630  1.00  0.00    -0.328 OA
ATOM     14  H2  UNL     1      -3.986  -2.771   3.023  1.00  0.00     0.228 HD
ENDBRANCH  12  13
ENDBRANCH   5  12
ENDBRANCH   1   3
BRANCH   1  15
HETATM   15  C5  UNL     1       0.741   0.019   0.249  1.00  0.00     0.168 C 
HETATM   16  S1  UNL     1       1.304   0.932   1.522  1.00  0.00    -0.041 SA
BRANCH  15  17
HETATM   17  N3  UNL     1       1.660  -0.667  -0.552  1.00  0.00    -0.358 N 
ATOM     18  H3  UNL     1       1.280  -1.224  -1.318  1.00  0.00     0.162 HD
BRANCH  17  19
HETATM   19  C6  UNL     1       3.067  -0.662  -0.401  1.00  0.00     0.120 C 
HETATM   20  C7  UNL     1       3.668  -1.760  -1.329  1.00  0.00     0.038 C 
BRANCH  19  21
HETATM   21  C8  UNL     1       3.767   0.628  -0.745  1.00  0.00     0.005 A 
HETATM   22  C9  UNL     1       5.075   0.607  -1.360  1.00  0.00     0.017 A 
HETATM   23  C10 UNL     1       5.554   1.848  -1.605  1.00  0.00     0.008 A 
HETATM   24  C11 UNL     1       4.813   2.938  -1.274  1.00  0.00     0.050 A 
HETATM   25  S2  UNL     1       3.436   2.249  -0.615  1.00  0.00    -0.104 SA
ENDBRANCH  19  21
ENDBRANCH  17  19
ENDBRANCH  15  17
ENDBRANCH   1  15
TORSDOF 8
