REMARK  7 active torsions:
REMARK  status: ('A' for Active; 'I' for Inactive)
REMARK    1  A    between atoms: C2_2  and  C3_3 
REMARK    2  A    between atoms: C3_3  and  N1_4 
REMARK    3  A    between atoms: N1_4  and  C4_6 
REMARK    4  A    between atoms: C5_9  and  N3_10 
REMARK    5  A    between atoms: C7_16  and  C8_17 
REMARK    6  A    between atoms: C13_23  and  O1_24 
REMARK    7  A    between atoms: O1_24  and  C14_25 
ROOT
HETATM    1  C4  UNL     1       1.948  -1.181   0.031  1.00  0.00     0.133 A 
HETATM    2  N2  UNL     1       2.580  -2.316   0.279  1.00  0.00    -0.176 N 
ATOM      3  H2  UNL     1       3.499  -2.456  -0.142  1.00  0.00     0.186 HD
HETATM    4  C5  UNL     1       2.078  -3.306   1.061  1.00  0.00     0.677 A 
HETATM    5  N4  UNL     1       0.860  -3.112   1.617  1.00  0.00    -0.201 N 
ATOM      6  H4  UNL     1       0.457  -3.837   2.211  1.00  0.00     0.183 HD
HETATM    7  C6  UNL     1       0.178  -1.984   1.399  1.00  0.00     0.122 A 
HETATM    8  C7  UNL     1       0.685  -0.998   0.615  1.00  0.00     0.038 A 
ENDROOT
BRANCH   8   9
HETATM    9  C8  UNL     1      -0.013   0.263   0.425  1.00  0.00     0.017 A 
HETATM   10  C9  UNL     1       0.697   1.374   0.882  1.00  0.00     0.042 A 
HETATM   11  C10 UNL     1       0.197   2.652   0.831  1.00  0.00     0.071 A 
HETATM   12 CL1  UNL     1       1.095   4.042   1.409  1.00  0.00    -0.081 Cl
HETATM   13  C11 UNL     1      -1.062   2.787   0.296  1.00  0.00     0.126 A 
HETATM   14  C12 UNL     1      -1.760   1.702  -0.153  1.00  0.00     0.138 A 
HETATM   15  O3  UNL     1      -1.634   4.051   0.210  1.00  0.00    -0.344 OA
HETATM   16  C13 UNL     1      -1.251   0.379  -0.104  1.00  0.00     0.116 A 
HETATM   17  O2  UNL     1      -3.025   1.967  -0.674  1.00  0.00    -0.344 OA
HETATM   18  C17 UNL     1      -3.770   3.082  -0.202  1.00  0.00     0.202 C 
HETATM   19  C18 UNL     1      -2.893   4.305  -0.365  1.00  0.00     0.202 C 
BRANCH  16  20
HETATM   20  O1  UNL     1      -2.059  -0.606  -0.594  1.00  0.00    -0.343 OA
BRANCH  20  21
HETATM   21  C14 UNL     1      -3.054  -1.373  -0.042  1.00  0.00     0.121 C 
HETATM   22  C15 UNL     1      -3.044  -2.842  -0.401  1.00  0.00     0.040 C 
HETATM   23  C16 UNL     1      -4.452  -0.886  -0.489  1.00  0.00     0.040 C 
ENDBRANCH  20  21
ENDBRANCH  16  20
ENDBRANCH   8   9
BRANCH   1  24
HETATM   24  N1  UNL     1       2.396  -0.233  -0.716  1.00  0.00    -0.355 N 
ATOM     25  H1  UNL     1       1.791   0.583  -0.810  1.00  0.00     0.166 HD
BRANCH  24  26
HETATM   26  C3  UNL     1       3.615  -0.179  -1.420  1.00  0.00     0.062 C 
BRANCH  26  27
HETATM   27  C2  UNL     1       4.561   0.927  -0.990  1.00  0.00     0.040 C 
HETATM   28  C1  UNL     1       4.954   0.802   0.453  1.00  0.00     0.010 C 
ENDBRANCH  26  27
ENDBRANCH  24  26
ENDBRANCH   1  24
BRANCH   4  29
HETATM   29  N3  UNL     1       2.734  -4.395   1.276  1.00  0.00    -0.234 N 
ATOM     30  H32 UNL     1       3.652  -4.541   0.857  1.00  0.00     0.174 HD
ATOM     31  H31 UNL     1       2.357  -5.139   1.863  1.00  0.00     0.174 HD
ENDBRANCH   4  29
TORSDOF 7
