REMARK  6 active torsions:
REMARK  status: ('A' for Active; 'I' for Inactive)
REMARK    1  A    between atoms: N1_1  and  C1_5 
REMARK    2  A    between atoms: C1_5  and  C2_6 
REMARK    3  A    between atoms: C1_5  and  C14_29 
REMARK    4  A    between atoms: C2_6  and  N2_7 
REMARK    5  A    between atoms: C4_12  and  C5_13 
REMARK    6  A    between atoms: C8_18  and  C9_19 
ROOT
HETATM    1  N2  UNL     1       0.740  -1.155  -0.021  1.00  0.00    -0.203 N 
ATOM      2  H2  UNL     1       0.462  -1.789  -0.770  1.00  0.00     0.183 HD
HETATM    3  C3  UNL     1      -0.265  -0.584   0.427  1.00  0.00     0.682 A 
HETATM    4  N3  UNL     1      -1.514  -0.834  -0.081  1.00  0.00    -0.186 N 
ATOM      5  H3  UNL     1      -1.586  -1.497  -0.853  1.00  0.00     0.184 HD
HETATM    6  C4  UNL     1      -2.635  -0.278   0.357  1.00  0.00     0.116 A 
HETATM    7  C12 UNL     1      -2.564   0.621   1.399  1.00  0.00     0.081 A 
HETATM    8 CL1  UNL     1      -3.989   1.410   2.040  1.00  0.00    -0.080 Cl
HETATM    9  C13 UNL     1      -1.342   0.891   1.926  1.00  0.00     0.132 A 
HETATM   10  N6  UNL     1      -0.225   0.289   1.439  1.00  0.00    -0.200 N 
ATOM     11  H6  UNL     1       0.677   0.511   1.861  1.00  0.00     0.183 HD
ENDROOT
BRANCH   1  12
HETATM   12  C2  UNL     1       2.111  -1.224   0.151  1.00  0.00     0.112 C 
BRANCH  12  13
HETATM   13  C1  UNL     1       2.825   0.063  -0.168  1.00  0.00     0.226 C 
BRANCH  13  14
HETATM   14  N1  UNL     1       2.577   0.471  -1.558  1.00  0.00    -0.070 N 
ATOM     15  H13 UNL     1       2.821  -0.268  -2.217  1.00  0.00     0.275 HD
ATOM     16  H12 UNL     1       1.579   0.534  -1.760  1.00  0.00     0.275 HD
ATOM     17  H11 UNL     1       3.061   1.343  -1.774  1.00  0.00     0.275 HD
ENDBRANCH  13  14
BRANCH  13  18
HETATM   18  C14 UNL     1       4.334  -0.113  -0.080  1.00  0.00     0.021 C 
HETATM   19  C15 UNL     1       4.976   1.213  -0.415  1.00  0.00     0.007 C 
HETATM   20  C16 UNL     1       6.384   0.897  -0.886  1.00  0.00     0.000 C 
HETATM   21  C17 UNL     1       6.842  -0.382  -0.228  1.00  0.00     0.000 C 
HETATM   22  C18 UNL     1       6.356  -0.553   1.175  1.00  0.00     0.000 C 
HETATM   23  C19 UNL     1       4.831  -0.550   1.249  1.00  0.00     0.007 C 
ENDBRANCH  13  18
ENDBRANCH  12  13
ENDBRANCH   1  12
BRANCH   6  24
HETATM   24  C5  UNL     1      -3.925  -0.598  -0.239  1.00  0.00     0.135 A 
HETATM   25  N4  UNL     1      -3.955  -1.493  -1.269  1.00  0.00    -0.350 N 
HETATM   26  C6  UNL     1      -5.132  -1.800  -1.837  1.00  0.00     0.091 A 
ATOM     27  H4  UNL     1      -3.093  -1.924  -1.603  1.00  0.00     0.166 HD
HETATM   28  C7  UNL     1      -6.312  -1.250  -1.422  1.00  0.00     0.042 A 
HETATM   29  C8  UNL     1      -6.262  -0.334  -0.367  1.00  0.00     0.016 A 
HETATM   30  N5  UNL     1      -5.065  -0.067   0.160  1.00  0.00    -0.344 N 
ATOM     31  H5  UNL     1      -5.029   0.599   0.931  1.00  0.00     0.167 HD
BRANCH  29  32
HETATM   32  C9  UNL     1      -7.549   0.256   0.056  1.00  0.00     0.036 A 
HETATM   33  C10 UNL     1      -7.555   1.745   0.414  1.00  0.00     0.011 A 
HETATM   34  C11 UNL     1      -7.778   0.708   1.462  1.00  0.00     0.011 A 
ENDBRANCH  29  32
ENDBRANCH   6  24
TORSDOF 6
