REMARK  6 active torsions:
REMARK  status: ('A' for Active; 'I' for Inactive)
REMARK    1  A    between atoms: C2_2  and  C5_7 
REMARK    2  A    between atoms: C3_3  and  C4_4 
REMARK    3  A    between atoms: C5_7  and  C6_8 
REMARK    4  A    between atoms: C6_8  and  C7_9 
REMARK    5  A    between atoms: C15_19  and  C16_20 
REMARK    6  A    between atoms: C18_23  and  O5_24 
ROOT
HETATM    1  C7  UNL     1       0.566  -0.136  -0.439  1.00  0.00     0.015 C 
HETATM    2  C8  UNL     1       0.535  -1.610  -0.265  1.00  0.00     0.010 C 
HETATM    3  C9  UNL     1      -0.794  -2.257  -0.393  1.00  0.00     0.034 C 
HETATM    4  C10 UNL     1      -1.942  -1.438   0.101  1.00  0.00     0.144 C 
HETATM    5  O3  UNL     1      -3.166  -2.033  -0.211  1.00  0.00    -0.315 OA
HETATM    6  C11 UNL     1      -4.323  -1.406   0.229  1.00  0.00     0.263 C 
HETATM    7  O4  UNL     1      -5.367  -2.068   0.409  1.00  0.00    -0.265 OA
HETATM    8  C12 UNL     1      -4.340   0.054   0.490  1.00  0.00     0.082 C 
HETATM    9  C13 UNL     1      -5.098   0.373   1.785  1.00  0.00     0.020 C 
HETATM   10  C14 UNL     1      -2.980   0.654   0.628  1.00  0.00     0.030 C 
HETATM   11  C15 UNL     1      -1.947  -0.013  -0.300  1.00  0.00     0.030 C 
HETATM   12  C18 UNL     1      -0.625   0.597   0.081  1.00  0.00     0.134 C 
ENDROOT
BRANCH   1  13
HETATM   13  C6  UNL     1       1.784   0.391   0.337  1.00  0.00     0.011 C 
BRANCH  13  14
HETATM   14  C5  UNL     1       2.988  -0.292  -0.290  1.00  0.00     0.034 C 
BRANCH  14  15
HETATM   15  C2  UNL     1       4.254   0.127   0.368  1.00  0.00    -0.077 C 
HETATM   16  C1  UNL     1       5.513  -0.457  -0.138  1.00  0.00     0.043 C 
HETATM   17  C3  UNL     1       4.273   0.980   1.358  1.00  0.00     0.086 C 
BRANCH  17  18
HETATM   18  C4  UNL     1       5.471   1.415   2.025  1.00  0.00     0.198 C 
HETATM   19  O1  UNL     1       5.389   2.254   2.986  1.00  0.00    -0.644 OA
HETATM   20  O2  UNL     1       6.758   1.004   1.724  1.00  0.00    -0.644 OA
ENDBRANCH  17  18
ENDBRANCH  14  15
ENDBRANCH  13  14
ENDBRANCH   1  13
BRANCH  12  21
HETATM   21  O5  UNL     1      -0.559   0.530   1.492  1.00  0.00    -0.394 OA
ATOM     22  H5  UNL     1      -1.317   0.997   1.823  1.00  0.00     0.210 HD
ENDBRANCH  12  21
BRANCH  11  23
HETATM   23  C16 UNL     1      -2.363   0.275  -1.693  1.00  0.00     0.091 C 
HETATM   24  C17 UNL     1      -2.328   1.753  -1.990  1.00  0.00     0.028 C 
HETATM   25 CL1  UNL     1      -1.385  -0.525  -2.929  1.00  0.00    -0.124 Cl
ENDBRANCH  11  23
TORSDOF 6
