REMARK  5 active torsions:
REMARK  status: ('A' for Active; 'I' for Inactive)
REMARK    1  A    between atoms: O1_2  and  C2_3 
REMARK    2  A    between atoms: N2_7  and  C4_9 
REMARK    3  A    between atoms: C11_16  and  C12_17 
REMARK       I    between atoms: C12_17  and  N3_19 
REMARK    4  A    between atoms: N3_19  and  C13_21 
REMARK    5  A    between atoms: C13_21  and  C14_22 
ROOT
HETATM    1  C2  UNL     1      -0.933   3.601   0.967  1.00  0.00     0.224 A 
HETATM    2  N1  UNL     1      -1.230   2.376   0.556  1.00  0.00    -0.307 N 
ATOM      3  H1  UNL     1      -2.145   2.208   0.138  1.00  0.00     0.171 HD
HETATM    4  C3  UNL     1      -0.380   1.355   0.667  1.00  0.00     0.121 A 
HETATM    5  N2  UNL     1      -0.573   0.178   0.343  1.00  0.00    -0.370 N 
ATOM      6  H2  UNL     1       0.281  -0.337   0.558  1.00  0.00     0.161 HD
HETATM    7  C11 UNL     1       0.871   1.639   1.249  1.00  0.00     0.091 A 
HETATM    8  C17 UNL     1       1.128   2.911   1.655  1.00  0.00     0.112 A 
HETATM    9  N4  UNL     1       0.238   3.914   1.524  1.00  0.00    -0.331 N 
ATOM     10  H4  UNL     1       0.448   4.863   1.834  1.00  0.00     0.168 HD
ENDROOT
BRANCH   5  11
HETATM   11  C4  UNL     1      -1.465  -0.720  -0.187  1.00  0.00     0.086 C 
HETATM   12  C5  UNL     1      -0.917  -1.229  -1.554  1.00  0.00     0.025 C 
HETATM   13  C6  UNL     1      -1.484  -2.600  -1.706  1.00  0.00     0.002 C 
HETATM   14  C7  UNL     1      -2.982  -2.564  -1.753  1.00  0.00     0.001 C 
HETATM   15  C8  UNL     1      -3.631  -1.624  -0.832  1.00  0.00     0.006 C 
HETATM   16  C9  UNL     1      -2.872  -0.355  -0.489  1.00  0.00     0.004 C 
HETATM   17  C10 UNL     1      -3.642   0.279   0.647  1.00  0.00     0.012 C 
ENDBRANCH   5  11
BRANCH   7  18
HETATM   18  C12 UNL     1       1.869   0.528   1.360  1.00  0.00     0.256 C 
HETATM   19  O2  UNL     1       1.605  -0.460   2.049  1.00  0.00    -0.267 OA
HETATM   20  N3  UNL     1       3.059   0.671   0.669  1.00  0.00    -0.355 N 
ATOM     21  H3  UNL     1       3.148   1.558   0.173  1.00  0.00     0.162 HD
BRANCH  20  22
HETATM   22  C13 UNL     1       4.176  -0.187   0.524  1.00  0.00     0.147 C 
BRANCH  22  23
HETATM   23  C14 UNL     1       4.032  -1.421  -0.287  1.00  0.00     0.046 C 
HETATM   24  C15 UNL     1       3.026  -2.406   0.171  1.00  0.00     0.034 C 
HETATM   25  C16 UNL     1       5.408  -2.098  -0.450  1.00  0.00     0.034 C 
HETATM   26 CL1  UNL     1       3.580  -0.931  -1.968  1.00  0.00    -0.118 Cl
ENDBRANCH  22  23
ENDBRANCH  20  22
ENDBRANCH   7  18
BRANCH   1  27
HETATM   27  O1  UNL     1      -1.857   4.647   0.831  1.00  0.00    -0.327 OA
HETATM   28  C1  UNL     1      -3.109   4.352   0.249  1.00  0.00     0.213 C 
ENDBRANCH   1  27
TORSDOF 5
