REMARK  7 active torsions:
REMARK  status: ('A' for Active; 'I' for Inactive)
REMARK    1  A    between atoms: O1_2  and  C2_3 
REMARK    2  A    between atoms: C2_3  and  C3_4 
REMARK    3  A    between atoms: C3_4  and  N1_5 
REMARK    4  A    between atoms: N1_5  and  C4_7 
REMARK    5  A    between atoms: C4_7  and  N2_9 
REMARK    6  A    between atoms: N2_9  and  C5_11 
REMARK    7  A    between atoms: C9_15  and  N3_16 
ROOT
HETATM    1  C5  UNL     1       1.107  -1.409   1.158  1.00  0.00     0.036 A 
HETATM    2  C6  UNL     1       0.163  -2.290   0.601  1.00  0.00     0.038 A 
HETATM    3  C7  UNL     1      -1.047  -1.810   0.154  1.00  0.00    -0.032 A 
HETATM    4  C8  UNL     1      -2.019  -2.774  -0.428  1.00  0.00     0.050 C 
HETATM    5  C9  UNL     1      -1.385  -0.475   0.228  1.00  0.00     0.058 A 
HETATM    6  C16 UNL     1      -0.455   0.367   0.772  1.00  0.00     0.063 A 
HETATM    7 CL1  UNL     1      -0.783   2.067   0.904  1.00  0.00    -0.082 Cl
HETATM    8  C17 UNL     1       0.767  -0.086   1.230  1.00  0.00     0.055 A 
ENDROOT
BRANCH   1   9
HETATM    9  N2  UNL     1       2.299  -1.989   1.626  1.00  0.00    -0.333 N 
ATOM     10  H2  UNL     1       2.197  -2.844   2.173  1.00  0.00     0.168 HD
BRANCH   9  11
HETATM   11  C4  UNL     1       3.600  -1.538   1.434  1.00  0.00     0.172 C 
HETATM   12  S1  UNL     1       4.871  -2.373   2.124  1.00  0.00    -0.041 SA
BRANCH  11  13
HETATM   13  N1  UNL     1       3.895  -0.389   0.671  1.00  0.00    -0.365 N 
ATOM     14  H1  UNL     1       3.135   0.131   0.232  1.00  0.00     0.161 HD
BRANCH  13  15
HETATM   15  C3  UNL     1       5.282   0.072   0.499  1.00  0.00     0.148 C 
BRANCH  15  16
HETATM   16  C2  UNL     1       5.243   1.306  -0.358  1.00  0.00     0.186 C 
BRANCH  16  17
HETATM   17  O1  UNL     1       6.450   1.886  -0.626  1.00  0.00    -0.394 OA
HETATM   18  C1  UNL     1       7.303   1.029  -1.300  1.00  0.00     0.201 C 
ENDBRANCH  16  17
ENDBRANCH  15  16
ENDBRANCH  13  15
ENDBRANCH  11  13
ENDBRANCH   9  11
ENDBRANCH   1   9
BRANCH   5  19
HETATM   19  N3  UNL     1      -2.654  -0.015  -0.254  1.00  0.00    -0.379 N 
HETATM   20  C10 UNL     1      -2.717   0.402  -1.638  1.00  0.00     0.123 C 
HETATM   21  C11 UNL     1      -3.519   1.665  -1.733  1.00  0.00     0.020 C 
HETATM   22  C12 UNL     1      -4.989   1.267  -1.682  1.00  0.00     0.002 C 
HETATM   23  C13 UNL     1      -5.552   1.401  -0.308  1.00  0.00     0.002 C 
HETATM   24  C14 UNL     1      -4.542   1.203   0.802  1.00  0.00     0.020 C 
HETATM   25  C15 UNL     1      -3.739  -0.040   0.695  1.00  0.00     0.123 C 
ENDBRANCH   5  19
TORSDOF 7
