REMARK  7 active torsions:
REMARK  status: ('A' for Active; 'I' for Inactive)
REMARK    1  A    between atoms: O1_2  and  C2_3 
REMARK    2  A    between atoms: C5_7  and  N1_8 
REMARK    3  A    between atoms: N1_8  and  C6_10 
REMARK    4  A    between atoms: C6_10  and  N2_12 
REMARK    5  A    between atoms: N2_12  and  C7_14 
REMARK    6  A    between atoms: C7_14  and  C8_15 
REMARK    7  A    between atoms: C8_15  and  N3_16 
ROOT
HETATM    1  C6  UNL     1       1.195   0.394   0.092  1.00  0.00     0.172 C 
HETATM    2  S1  UNL     1       1.346   1.817  -0.694  1.00  0.00    -0.041 SA
ENDROOT
BRANCH   1   3
HETATM    3  N1  UNL     1       2.257  -0.446   0.473  1.00  0.00    -0.331 N 
ATOM      4  H1  UNL     1       1.983  -1.267   1.013  1.00  0.00     0.168 HD
BRANCH   3   5
HETATM    5  C5  UNL     1       3.635  -0.333   0.227  1.00  0.00     0.072 A 
HETATM    6  C4  UNL     1       4.553  -1.029   0.978  1.00  0.00     0.066 A 
HETATM    7  C3  UNL     1       5.897  -1.011   0.702  1.00  0.00     0.082 A 
HETATM    8 CL1  UNL     1       4.002  -1.985   2.364  1.00  0.00    -0.082 Cl
HETATM    9  C2  UNL     1       6.370  -0.264  -0.381  1.00  0.00     0.143 A 
HETATM   10  N4  UNL     1       5.456   0.392  -1.080  1.00  0.00    -0.345 N 
HETATM   11  C16 UNL     1       4.137   0.406  -0.852  1.00  0.00     0.121 A 
ATOM     12  H4  UNL     1       5.791   0.942  -1.871  1.00  0.00     0.167 HD
BRANCH   9  13
HETATM   13  O1  UNL     1       7.718  -0.231  -0.681  1.00  0.00    -0.341 OA
HETATM   14  C1  UNL     1       8.163   0.521  -1.781  1.00  0.00     0.211 C 
ENDBRANCH   9  13
ENDBRANCH   3   5
ENDBRANCH   1   3
BRANCH   1  15
HETATM   15  N2  UNL     1      -0.143   0.010   0.435  1.00  0.00    -0.364 N 
ATOM     16  H2  UNL     1      -0.324  -0.866   0.926  1.00  0.00     0.161 HD
BRANCH  15  17
HETATM   17  C7  UNL     1      -1.224   0.887   0.072  1.00  0.00     0.163 C 
BRANCH  17  18
HETATM   18  C8  UNL     1      -2.572   0.261   0.196  1.00  0.00     0.174 C 
HETATM   19  C11 UNL     1      -2.800  -0.309   1.557  1.00  0.00     0.043 C 
HETATM   20  C12 UNL     1      -4.174  -1.010   1.608  1.00  0.00     0.003 C 
HETATM   21  C13 UNL     1      -4.014  -2.255   0.750  1.00  0.00     0.000 C 
HETATM   22  C14 UNL     1      -3.817  -1.741  -0.683  1.00  0.00     0.003 C 
HETATM   23  C15 UNL     1      -2.585  -0.913  -0.788  1.00  0.00     0.043 C 
BRANCH  18  24
HETATM   24  N3  UNL     1      -3.633   1.191  -0.127  1.00  0.00     0.091 N 
HETATM   25  C9  UNL     1      -3.682   2.304   0.765  1.00  0.00     0.310 C 
HETATM   26  C10 UNL     1      -3.598   1.654  -1.484  1.00  0.00     0.310 C 
ENDBRANCH  18  24
ENDBRANCH  17  18
ENDBRANCH  15  17
ENDBRANCH   1  15
TORSDOF 7
