REMARK  6 active torsions:
REMARK  status: ('A' for Active; 'I' for Inactive)
REMARK    1  A    between atoms: C2_2  and  O1_4 
REMARK    2  A    between atoms: C2_2  and  C4_6 
REMARK    3  A    between atoms: C4_6  and  C5_7 
REMARK    4  A    between atoms: C5_7  and  C6_8 
REMARK    5  A    between atoms: C7_9  and  C8_10 
REMARK    6  A    between atoms: N4_22  and  C13_24 
ROOT
HETATM    1  C6  UNL     1      -1.653  -1.075  -0.243  1.00  0.00    -0.007 A 
HETATM    2  C7  UNL     1      -1.917  -2.395   0.019  1.00  0.00     0.055 A 
HETATM    3  N2  UNL     1      -0.913  -3.310   0.161  1.00  0.00    -0.354 N 
ATOM      4  H2  UNL     1      -1.140  -4.285   0.355  1.00  0.00     0.166 HD
HETATM    5  C9  UNL     1       0.382  -2.931   0.046  1.00  0.00     0.049 A 
HETATM    6  C10 UNL     1       1.399  -3.877   0.194  1.00  0.00     0.047 A 
HETATM    7  C11 UNL     1       2.701  -3.455   0.070  1.00  0.00     0.092 A 
HETATM    8  N3  UNL     1       2.968  -2.162  -0.188  1.00  0.00    -0.352 N 
ATOM      9  H3  UNL     1       3.945  -1.881  -0.276  1.00  0.00     0.166 HD
HETATM   10  C12 UNL     1       2.026  -1.222  -0.336  1.00  0.00     0.115 A 
HETATM   11  N4  UNL     1       2.306   0.030  -0.581  1.00  0.00    -0.371 N 
ATOM     12  H4  UNL     1       1.549   0.706  -0.687  1.00  0.00     0.161 HD
HETATM   13  C18 UNL     1       0.699  -1.621  -0.216  1.00  0.00     0.057 A 
HETATM   14  C19 UNL     1      -0.321  -0.689  -0.361  1.00  0.00     0.058 A 
HETATM   15 CL1  UNL     1       0.034   0.969  -0.691  1.00  0.00    -0.083 Cl
ENDROOT
BRANCH   1  16
HETATM   16  C5  UNL     1      -2.719  -0.089  -0.386  1.00  0.00     0.045 C 
BRANCH  16  17
HETATM   17  C4  UNL     1      -3.325   0.389   0.902  1.00  0.00     0.042 C 
BRANCH  17  18
HETATM   18  C2  UNL     1      -4.419   1.401   0.572  1.00  0.00     0.051 C 
HETATM   19  C1  UNL     1      -5.511   0.789  -0.283  1.00  0.00     0.045 C 
HETATM   20  C3  UNL     1      -3.814   2.552  -0.204  1.00  0.00     0.045 C 
BRANCH  18  21
HETATM   21  O1  UNL     1      -4.901   1.874   1.791  1.00  0.00    -0.391 OA
ATOM     22  H1  UNL     1      -4.217   2.258   2.327  1.00  0.00     0.210 HD
ENDBRANCH  18  21
ENDBRANCH  17  18
ENDBRANCH  16  17
ENDBRANCH   1  16
BRANCH   2  23
HETATM   23  C8  UNL     1      -3.316  -2.794   0.129  1.00  0.00     0.111 C 
HETATM   24  N1  UNL     1      -3.538  -4.061   0.384  1.00  0.00    -0.406 N 
ATOM     25  H12 UNL     1      -2.765  -4.717   0.496  1.00  0.00     0.155 HD
ATOM     26  H11 UNL     1      -4.516  -4.340   0.461  1.00  0.00     0.155 HD
ENDBRANCH   2  23
BRANCH  11  27
HETATM   27  C13 UNL     1       3.658   0.460  -0.702  1.00  0.00     0.083 C 
HETATM   28  C14 UNL     1       4.294   0.755   0.656  1.00  0.00     0.025 C 
HETATM   29  C15 UNL     1       5.566   1.462   0.236  1.00  0.00     0.002 C 
HETATM   30  C16 UNL     1       5.136   2.326  -0.922  1.00  0.00     0.002 C 
HETATM   31  C17 UNL     1       3.779   1.831  -1.349  1.00  0.00     0.025 C 
ENDBRANCH  11  27
TORSDOF 6
