REMARK  4 active torsions:
REMARK  status: ('A' for Active; 'I' for Inactive)
REMARK    1  A    between atoms: C4_5  and  O2_6 
REMARK    2  A    between atoms: O2_6  and  C5_7 
REMARK    3  A    between atoms: C7_10  and  O4_11 
REMARK    4  A    between atoms: C9_14  and  O5_15 
ROOT
HETATM    1  C5  UNL     1       0.839  -0.252   0.349  1.00  0.00     0.293 C 
HETATM    2  O3  UNL     1       1.557  -1.078   1.191  1.00  0.00    -0.356 OA
HETATM    3  C6  UNL     1       2.814  -0.616   1.505  1.00  0.00     0.202 C 
HETATM    4  C7  UNL     1       3.627  -0.184   0.325  1.00  0.00     0.144 C 
HETATM    5  C8  UNL     1       2.852   0.707  -0.628  1.00  0.00     0.070 C 
HETATM    6  C9  UNL     1       1.578  -0.027  -0.977  1.00  0.00     0.176 C 
ENDROOT
BRANCH   1   7
HETATM    7  O2  UNL     1      -0.338  -0.928   0.004  1.00  0.00    -0.306 OA
BRANCH   7   8
HETATM    8  C4  UNL     1      -1.420  -0.142   0.314  1.00  0.00     0.415 C 
HETATM    9  O1  UNL     1      -2.249  -0.851   1.174  1.00  0.00    -0.336 OA
HETATM   10  C3  UNL     1      -3.559  -0.451   0.892  1.00  0.00     0.205 C 
HETATM   11  C2  UNL     1      -3.377   0.614  -0.186  1.00  0.00     0.146 C 
HETATM   12  C1  UNL     1      -4.556   0.672  -1.108  1.00  0.00     0.042 C 
HETATM   13  O6  UNL     1      -2.214   0.158  -0.810  1.00  0.00    -0.332 OA
ENDBRANCH   7   8
ENDBRANCH   1   7
BRANCH   6  14
HETATM   14  O5  UNL     1       1.938  -1.260  -1.515  1.00  0.00    -0.391 OA
ATOM     15  H5  UNL     1       2.395  -1.121  -2.336  1.00  0.00     0.210 HD
ENDBRANCH   6  14
BRANCH   4  16
HETATM   16  O4  UNL     1       4.729   0.544   0.757  1.00  0.00    -0.393 OA
ATOM     17  H4  UNL     1       5.245   0.818   0.008  1.00  0.00     0.210 HD
ENDBRANCH   4  16
TORSDOF 4
