REMARK  4 active torsions:
REMARK  status: ('A' for Active; 'I' for Inactive)
REMARK    1  A    between atoms: O1_2  and  C2_3 
REMARK    2  A    between atoms: C7_11  and  C8_12 
REMARK    3  A    between atoms: C8_12  and  O5_13 
REMARK    4  A    between atoms: C9_15  and  O6_16 
ROOT
HETATM    1  C2  UNL     1      -1.284   0.649  -0.317  1.00  0.00     0.291 C 
HETATM    2  O2  UNL     1      -0.173   0.817   0.498  1.00  0.00    -0.322 OA
HETATM    3  C3  UNL     1       0.777  -0.099   0.139  1.00  0.00     0.179 C 
HETATM    4  C4  UNL     1       1.574   0.459  -1.023  1.00  0.00     0.095 C 
HETATM    5  C5  UNL     1       2.417   1.580  -0.463  1.00  0.00     0.176 C 
HETATM    6  O3  UNL     1       3.306   1.044   0.434  1.00  0.00    -0.367 OA
HETATM    7  C6  UNL     1       2.956  -0.197   0.909  1.00  0.00     0.341 C 
HETATM    8  O4  UNL     1       1.610  -0.312   1.224  1.00  0.00    -0.330 OA
HETATM    9  C7  UNL     1       0.023  -1.324  -0.283  1.00  0.00     0.105 C 
HETATM   10  C9  UNL     1      -1.225  -0.753  -0.876  1.00  0.00     0.184 C 
ENDROOT
BRANCH   9  11
HETATM   11  C8  UNL     1      -0.271  -2.245   0.887  1.00  0.00     0.176 C 
BRANCH  11  12
HETATM   12  O5  UNL     1      -1.027  -1.568   1.812  1.00  0.00    -0.400 OA
ATOM     13  H5  UNL     1      -1.211  -2.144   2.544  1.00  0.00     0.209 HD
ENDBRANCH  11  12
ENDBRANCH   9  11
BRANCH   1  14
HETATM   14  O1  UNL     1      -2.403   0.889   0.432  1.00  0.00    -0.363 OA
HETATM   15  C1  UNL     1      -3.098   1.957  -0.126  1.00  0.00     0.204 C 
ENDBRANCH   1  14
BRANCH  10  16
HETATM   16  O6  UNL     1      -2.360  -1.493  -0.609  1.00  0.00    -0.390 OA
ATOM     17  H6  UNL     1      -2.323  -2.375  -0.961  1.00  0.00     0.210 HD
ENDBRANCH  10  16
TORSDOF 4
