REMARK  3 active torsions:
REMARK  status: ('A' for Active; 'I' for Inactive)
REMARK    1  A    between atoms: O1_2  and  N1_3 
REMARK    2  A    between atoms: N1_3  and  C2_4 
REMARK    3  A    between atoms: C8_12  and  O4_13 
ROOT
HETATM    1  C2  UNL     1       1.133  -0.066   0.232  1.00  0.00     0.387 C 
HETATM    2  O2  UNL     1       0.315   1.032   0.129  1.00  0.00    -0.343 OA
HETATM    3  C3  UNL     1      -0.401   1.337   1.251  1.00  0.00     0.205 C 
HETATM    4  C4  UNL     1      -1.420   0.320   1.642  1.00  0.00     0.155 C 
HETATM    5  O3  UNL     1      -0.896  -0.960   1.769  1.00  0.00    -0.375 OA
HETATM    6  C5  UNL     1      -1.517  -1.307   0.606  1.00  0.00     0.160 C 
HETATM    7  C6  UNL     1      -0.644  -1.307  -0.609  1.00  0.00     0.158 C 
HETATM    8  C7  UNL     1      -1.237  -0.302  -1.551  1.00  0.00     0.067 C 
HETATM    9  C8  UNL     1      -2.209   0.538  -0.776  1.00  0.00     0.130 C 
HETATM   10  C9  UNL     1      -2.368  -0.074   0.572  1.00  0.00     0.077 C 
HETATM   11  O5  UNL     1       0.685  -1.190  -0.384  1.00  0.00    -0.338 OA
ENDROOT
BRANCH   1  12
HETATM   12  N1  UNL     1       2.409   0.303  -0.409  1.00  0.00    -0.041 NA
BRANCH  12  13
HETATM   13  O1  UNL     1       3.292  -0.711  -0.364  1.00  0.00    -0.287 OA
HETATM   14  C1  UNL     1       4.565  -0.263  -0.003  1.00  0.00     0.231 C 
ENDBRANCH  12  13
ENDBRANCH   1  12
BRANCH   9  15
HETATM   15  O4  UNL     1      -3.491   0.555  -1.376  1.00  0.00    -0.395 OA
ATOM     16  H4  UNL     1      -4.106   1.087  -0.885  1.00  0.00     0.210 HD
ENDBRANCH   9  15
TORSDOF 3
