REMARK  3 active torsions:
REMARK  status: ('A' for Active; 'I' for Inactive)
REMARK    1  A    between atoms: C1_4  and  O1_5 
REMARK    2  A    between atoms: C1_4  and  C2_7 
REMARK    3  A    between atoms: C5_12  and  N3_13 
ROOT
HETATM    1  C2  UNL     1      -2.196   0.756   0.364  1.00  0.00     0.213 C 
HETATM    2  C3  UNL     1      -2.231   0.198  -1.042  1.00  0.00     0.164 C 
HETATM    3  N2  UNL     1      -0.803   0.193  -1.376  1.00  0.00    -0.163 NA
HETATM    4  O2  UNL     1      -0.442  -0.908  -2.021  1.00  0.00    -0.299 OA
HETATM    5  C4  UNL     1       0.744  -1.376  -1.524  1.00  0.00     0.225 C 
HETATM    6  C5  UNL     1       0.871  -0.845  -0.114  1.00  0.00     0.178 C 
HETATM    7  C9  UNL     1      -0.155   0.248  -0.106  1.00  0.00     0.249 C 
HETATM    8  O3  UNL     1      -1.130   0.023   0.892  1.00  0.00    -0.352 OA
ENDROOT
BRANCH   1   9
HETATM    9  C1  UNL     1      -3.434   0.572   1.124  1.00  0.00     0.140 C 
HETATM   10  N1  UNL     1      -4.461   0.049   0.569  1.00  0.00    -0.381 N 
ATOM     11  H12 UNL     1      -5.323  -0.079   1.098  1.00  0.00     0.158 HD
ATOM     12  H11 UNL     1      -4.374  -0.227  -0.409  1.00  0.00     0.158 HD
BRANCH   9  13
HETATM   13  O1  UNL     1      -3.552   0.946   2.447  1.00  0.00    -0.348 OA
ATOM     14  H1  UNL     1      -2.789   1.334   2.859  1.00  0.00     0.219 HD
ENDBRANCH   9  13
ENDBRANCH   1   9
BRANCH   6  15
HETATM   15  N3  UNL     1       2.206  -0.379   0.179  1.00  0.00    -0.293 N 
HETATM   16  C6  UNL     1       2.782   0.808  -0.068  1.00  0.00     0.112 A 
HETATM   17  C7  UNL     1       4.072   0.804   0.386  1.00  0.00     0.037 A 
HETATM   18  C8  UNL     1       4.270  -0.453   0.931  1.00  0.00     0.108 A 
HETATM   19  N4  UNL     1       3.122  -1.116   0.779  1.00  0.00    -0.310 N 
ATOM     20  H4  UNL     1       2.971  -2.076   1.089  1.00  0.00     0.186 HD
ENDBRANCH   6  15
TORSDOF 3
