REMARK  4 active torsions:
REMARK  status: ('A' for Active; 'I' for Inactive)
REMARK    1  A    between atoms: C2_2  and  N1_3 
REMARK    2  A    between atoms: N1_3  and  C3_5 
REMARK    3  A    between atoms: C3_5  and  N2_6 
REMARK    4  A    between atoms: C5_9  and  O2_10 
ROOT
HETATM    1  N2  UNL     1       0.583   0.456  -1.148  1.00  0.00     0.165 N 
HETATM    2  C4  UNL     1       0.045   1.503  -1.983  1.00  0.00     0.451 C 
HETATM    3  O1  UNL     1      -0.911   2.182  -1.262  1.00  0.00    -0.299 OA
HETATM    4  C5  UNL     1      -1.347   1.379  -0.228  1.00  0.00     0.342 C 
HETATM    5  O3  UNL     1      -2.487   0.656  -0.517  1.00  0.00    -0.293 OA
HETATM    6  C6  UNL     1      -2.339  -0.598   0.059  1.00  0.00     0.166 C 
HETATM    7  C7  UNL     1      -2.840  -0.516   1.496  1.00  0.00     0.078 C 
HETATM    8  C8  UNL     1      -3.167  -1.656  -0.629  1.00  0.00     0.078 C 
HETATM    9  O4  UNL     1      -0.978  -0.892   0.006  1.00  0.00    -0.315 OA
HETATM   10  C9  UNL     1      -0.305   0.321  -0.027  1.00  0.00     0.460 C 
ENDROOT
BRANCH   1  11
HETATM   11  C3  UNL     1       1.925   0.752  -0.702  1.00  0.00     0.397 C 
BRANCH  11  12
HETATM   12  N1  UNL     1       2.849  -0.322  -0.863  1.00  0.00    -0.398 N 
ATOM     13  H1  UNL     1       3.335  -0.489  -1.744  1.00  0.00     0.154 HD
BRANCH  12  14
HETATM   14  C2  UNL     1       3.054  -1.149   0.282  1.00  0.00     0.111 C 
HETATM   15  C1  UNL     1       3.678  -0.453   1.458  1.00  0.00     0.026 C 
ENDBRANCH  12  14
ENDBRANCH  11  12
ENDBRANCH   1  11
BRANCH   4  16
HETATM   16  O2  UNL     1      -1.438   2.133   0.929  1.00  0.00    -0.340 OA
ATOM     17  H2  UNL     1      -1.738   1.580   1.641  1.00  0.00     0.215 HD
ENDBRANCH   4  16
TORSDOF 4
