REMARK  2 active torsions:
REMARK  status: ('A' for Active; 'I' for Inactive)
REMARK    1  A    between atoms: C6_10  and  O1_11 
REMARK    2  A    between atoms: O1_11  and  C7_12 
ROOT
HETATM    1  C1  UNL     1      -3.405  -0.499   0.123  1.00  0.00     0.030 C 
HETATM    2  C2  UNL     1      -2.086  -0.428   0.038  1.00  0.00     0.027 A 
HETATM    3  C3  UNL     1      -1.250  -1.622   0.059  1.00  0.00     0.064 A 
HETATM    4  N1  UNL     1      -1.826  -2.777   0.164  1.00  0.00    -0.397 N 
ATOM      5  H11 UNL     1      -1.241  -3.612   0.179  1.00  0.00     0.156 HD
ATOM      6  H12 UNL     1      -2.838  -2.885   0.232  1.00  0.00     0.156 HD
HETATM    7  C4  UNL     1       0.197  -1.468  -0.038  1.00  0.00     0.122 A 
HETATM    8  C5  UNL     1       1.015  -2.669  -0.015  1.00  0.00     0.106 C 
HETATM    9  N2  UNL     1       1.658  -3.631  -0.014  1.00  0.00    -0.191 NA
HETATM   10  C6  UNL     1       0.806  -0.299  -0.145  1.00  0.00     0.168 A 
HETATM   11  N4  UNL     1       0.010   0.880  -0.168  1.00  0.00    -0.321 N 
ATOM     12  H4  UNL     1       0.480   1.781  -0.252  1.00  0.00     0.169 HD
HETATM   13  C9  UNL     1      -1.397   0.864  -0.081  1.00  0.00     0.128 A 
HETATM   14  N5  UNL     1      -2.143   1.911  -0.099  1.00  0.00    -0.279 N 
ATOM     15  H5  UNL     1      -3.158   1.831  -0.033  1.00  0.00     0.179 HD
HETATM   16  C10 UNL     1      -1.530   3.158  -0.211  1.00  0.00     0.183 C 
HETATM   17  N6  UNL     1      -1.028   4.214  -0.310  1.00  0.00    -0.172 NA
ENDROOT
BRANCH  10  18
HETATM   18  O1  UNL     1       2.183  -0.233  -0.233  1.00  0.00    -0.320 OA
BRANCH  18  19
HETATM   19  C7  UNL     1       2.796   1.024  -0.455  1.00  0.00     0.300 C 
HETATM   20  C8  UNL     1       4.252   0.760  -0.497  1.00  0.00     0.085 C 
HETATM   21  N3  UNL     1       5.385   0.541  -0.544  1.00  0.00    -0.195 NA
ENDBRANCH  18  19
ENDBRANCH  10  18
TORSDOF 2
