REMARK  2 active torsions:
REMARK  status: ('A' for Active; 'I' for Inactive)
REMARK    1  A    between atoms: N1_2  and  N2_3 
REMARK    2  A    between atoms: N2_3  and  C2_5 
ROOT
HETATM    1  C2  UNL     1       0.576   0.168   0.057  1.00  0.00     0.046 C 
HETATM    2  C3  UNL     1       0.095  -1.153  -0.484  1.00  0.00     0.036 C 
HETATM    3  C4  UNL     1      -1.411  -1.097  -0.643  1.00  0.00    -0.009 C 
HETATM    4  C5  UNL     1      -2.042  -0.922   0.707  1.00  0.00     0.009 C 
HETATM    5  C6  UNL     1      -1.561   0.384   1.311  1.00  0.00    -0.009 C 
HETATM    6  C7  UNL     1      -2.033   1.483   0.406  1.00  0.00     0.048 C 
HETATM    7  C8  UNL     1      -1.400   1.321  -0.958  1.00  0.00     0.106 C 
HETATM    8  F1  UNL     1      -1.753   2.398  -1.734  1.00  0.00    -0.243 F 
HETATM    9  C9  UNL     1      -1.754   0.008  -1.604  1.00  0.00     0.048 C 
HETATM   10  C10 UNL     1       0.088   1.339  -0.786  1.00  0.00     0.075 C 
HETATM   11  C11 UNL     1      -0.060   0.325   1.431  1.00  0.00     0.036 C 
ENDROOT
BRANCH   1  12
HETATM   12  N2  UNL     1       1.989   0.298   0.109  1.00  0.00    -0.330 N 
ATOM     13  H2  UNL     1       2.475   1.033  -0.405  1.00  0.00     0.176 HD
BRANCH  12  14
HETATM   14  N1  UNL     1       2.666  -0.601   0.874  1.00  0.00    -0.150 NA
HETATM   15  C1  UNL     1       3.989  -0.787   0.287  1.00  0.00     0.158 C 
ENDBRANCH  12  14
ENDBRANCH   1  12
TORSDOF 2
