REMARK  4 active torsions:
REMARK  status: ('A' for Active; 'I' for Inactive)
REMARK    1  A    between atoms: C2_2  and  N1_4 
REMARK    2  A    between atoms: C2_2  and  C4_8 
REMARK    3  A    between atoms: C9_13  and  C10_14 
REMARK    4  A    between atoms: C10_14  and  N2_15 
ROOT
HETATM    1  C4  UNL     1       0.404   0.253   0.347  1.00  0.00     0.026 C 
HETATM    2  C5  UNL     1       0.486   1.632  -0.277  1.00  0.00     0.007 C 
HETATM    3  C6  UNL     1      -0.570   2.585   0.186  1.00  0.00     0.000 C 
HETATM    4  C7  UNL     1      -1.911   1.959  -0.225  1.00  0.00     0.000 C 
HETATM    5  C8  UNL     1      -1.991   0.672   0.507  1.00  0.00     0.007 C 
HETATM    6  C9  UNL     1      -0.913  -0.329   0.098  1.00  0.00     0.017 C 
ENDROOT
BRANCH   1   7
HETATM    7  C2  UNL     1       1.602  -0.436  -0.209  1.00  0.00     0.120 C 
HETATM    8  C1  UNL     1       1.568  -0.504  -1.728  1.00  0.00     0.046 C 
HETATM    9  C3  UNL     1       1.914  -1.783   0.284  1.00  0.00     0.046 C 
BRANCH   7  10
HETATM   10  N1  UNL     1       2.759   0.423   0.112  1.00  0.00    -0.071 N 
ATOM     11  H13 UNL     1       3.635   0.109  -0.307  1.00  0.00     0.275 HD
ATOM     12  H12 UNL     1       2.733   1.336  -0.341  1.00  0.00     0.275 HD
ATOM     13  H11 UNL     1       2.782   0.469   1.131  1.00  0.00     0.275 HD
ENDBRANCH   7  10
ENDBRANCH   1   7
BRANCH   6  14
HETATM   14  C10 UNL     1      -1.271  -1.564   0.879  1.00  0.00     0.234 C 
BRANCH  14  15
HETATM   15  N2  UNL     1      -2.631  -1.930   0.439  1.00  0.00    -0.079 N 
ATOM     16  H23 UNL     1      -3.310  -1.174   0.534  1.00  0.00     0.274 HD
ATOM     17  H22 UNL     1      -2.718  -2.044  -0.571  1.00  0.00     0.274 HD
ATOM     18  H21 UNL     1      -2.874  -2.767   0.969  1.00  0.00     0.274 HD
ENDBRANCH  14  15
ENDBRANCH   6  14
TORSDOF 4
