REMARK  9 active torsions:
REMARK  status: ('A' for Active; 'I' for Inactive)
REMARK    1  A    between atoms: C2_2  and  C3_3 
REMARK    2  A    between atoms: C3_3  and  N1_4 
REMARK    3  A    between atoms: C7_8  and  C8_9 
REMARK    4  A    between atoms: C8_9  and  N2_10 
REMARK    5  A    between atoms: N2_10  and  C9_11 
REMARK    6  A    between atoms: N2_10  and  S1_14 
REMARK    7  A    between atoms: C9_11  and  C10_12 
REMARK    8  A    between atoms: S1_14  and  C11_17 
REMARK    9  A    between atoms: C11_17  and  C12_18 
ROOT
HETATM    1  N2  UNL     1      -1.405   0.460   0.164  1.00  0.00    -0.179 NA
ENDROOT
BRANCH   1   2
HETATM    2  C8  UNL     1      -0.278  -0.243  -0.358  1.00  0.00     0.148 C 
BRANCH   2   3
HETATM    3  C7  UNL     1       1.043   0.015   0.277  1.00  0.00     0.237 C 
HETATM    4  N1  UNL     1       1.995  -0.834  -0.432  1.00  0.00     0.097 N 
HETATM    5  C4  UNL     1       2.164  -2.006   0.363  1.00  0.00     0.273 C 
HETATM    6  C5  UNL     1       1.964  -1.561   1.779  1.00  0.00     0.032 C 
HETATM    7  C6  UNL     1       1.066  -0.343   1.722  1.00  0.00     0.039 C 
BRANCH   4   8
HETATM    8  C3  UNL     1       3.210  -0.167  -0.762  1.00  0.00     0.299 C 
BRANCH   8   9
HETATM    9  C2  UNL     1       3.041   1.023  -1.596  1.00  0.00    -0.007 C 
HETATM   10  C1  UNL     1       3.420   2.228  -1.225  1.00  0.00     0.008 C 
ENDBRANCH   8   9
ENDBRANCH   4   8
ENDBRANCH   2   3
ENDBRANCH   1   2
BRANCH   1  11
HETATM   11  C9  UNL     1      -1.836   1.476  -0.712  1.00  0.00     0.118 C 
BRANCH  11  12
HETATM   12  C10 UNL     1      -2.137   2.755   0.033  1.00  0.00     0.271 C 
HETATM   13  O1  UNL     1      -1.979   2.768   1.238  1.00  0.00    -0.301 OA
ENDBRANCH  11  12
ENDBRANCH   1  11
BRANCH   1  14
HETATM   14  S1  UNL     1      -2.507  -0.583   0.853  1.00  0.00     0.240 S 
HETATM   15  O2  UNL     1      -2.773  -0.179   2.280  1.00  0.00    -0.206 OA
HETATM   16  O3  UNL     1      -1.920  -1.995   0.922  1.00  0.00    -0.206 OA
BRANCH  14  17
HETATM   17  C11 UNL     1      -4.077  -0.715   0.078  1.00  0.00     0.167 C 
BRANCH  17  18
HETATM   18  C12 UNL     1      -4.108  -1.174  -1.295  1.00  0.00     0.271 C 
HETATM   19  O4  UNL     1      -4.111  -2.369  -1.617  1.00  0.00    -0.302 OA
ENDBRANCH  17  18
ENDBRANCH  14  17
ENDBRANCH   1  14
TORSDOF 9
