REMARK  8 active torsions:
REMARK  status: ('A' for Active; 'I' for Inactive)
REMARK    1  A    between atoms: C3_3  and  N1_4 
REMARK    2  A    between atoms: N2_6  and  C5_7 
REMARK    3  A    between atoms: C5_7  and  C6_8 
REMARK    4  A    between atoms: C6_8  and  N3_9 
REMARK    5  A    between atoms: N3_9  and  C7_10 
REMARK    6  A    between atoms: N3_9  and  C10_13 
REMARK    7  A    between atoms: C7_10  and  C8_11 
REMARK    8  A    between atoms: C10_13  and  C11_14 
ROOT
HETATM    1  C1  UNL     1       6.403   0.006  -2.102  1.00  0.00     0.013 C 
HETATM    2  C2  UNL     1       5.266   0.264  -1.761  1.00  0.00    -0.102 C 
HETATM    3  C3  UNL     1       3.888   0.593  -1.322  1.00  0.00     0.206 C 
ENDROOT
BRANCH   3   4
HETATM    4  N1  UNL     1       3.350  -0.540  -0.657  1.00  0.00    -0.161 NA
HETATM    5  C4  UNL     1       1.996  -0.874  -0.960  1.00  0.00     0.165 C 
HETATM    6  N2  UNL     1       0.975  -0.237  -0.229  1.00  0.00    -0.375 N 
HETATM    7  C13 UNL     1       1.270   0.489   0.916  1.00  0.00     0.140 C 
HETATM    8  C14 UNL     1       2.098  -0.378   1.875  1.00  0.00     0.177 C 
HETATM    9  S1  UNL     1       3.674  -0.576   1.034  1.00  0.00     0.218 S 
HETATM   10  O1  UNL     1       4.306  -1.901   1.343  1.00  0.00    -0.211 OA
HETATM   11  O2  UNL     1       4.609   0.539   1.366  1.00  0.00    -0.211 OA
BRANCH   6  12
HETATM   12  C5  UNL     1      -0.080   0.217  -1.073  1.00  0.00     0.168 C 
BRANCH  12  13
HETATM   13  C6  UNL     1      -1.229   0.897  -0.443  1.00  0.00     0.088 C 
BRANCH  13  14
HETATM   14  N3  UNL     1      -1.979   0.186   0.499  1.00  0.00    -0.345 N 
BRANCH  14  15
HETATM   15  C7  UNL     1      -3.054   0.869   1.088  1.00  0.00     0.094 C 
BRANCH  15  16
HETATM   16  C8  UNL     1      -4.188   1.226   0.235  1.00  0.00     0.007 C 
HETATM   17  C9  UNL     1      -4.522   2.503   0.090  1.00  0.00     0.012 C 
ENDBRANCH  15  16
ENDBRANCH  14  15
BRANCH  14  18
HETATM   18  C10 UNL     1      -2.124  -1.199   0.431  1.00  0.00     0.094 C 
BRANCH  18  19
HETATM   19  C11 UNL     1      -2.922  -1.735  -0.696  1.00  0.00     0.007 C 
HETATM   20  C12 UNL     1      -4.008  -2.466  -0.451  1.00  0.00     0.012 C 
ENDBRANCH  18  19
ENDBRANCH  14  18
ENDBRANCH  13  14
ENDBRANCH  12  13
ENDBRANCH   6  12
ENDBRANCH   3   4
TORSDOF 8
