REMARK  3 active torsions:
REMARK  status: ('A' for Active; 'I' for Inactive)
REMARK    1  A    between atoms: C2_2  and  C3_3 
REMARK    2  A    between atoms: C3_3  and  N1_4 
REMARK    3  A    between atoms: C3_3  and  C4_8 
ROOT
HETATM    1  C3  UNL     1      -0.583   0.444  -0.507  1.00  0.00     0.255 C 
ENDROOT
BRANCH   1   2
HETATM    2  C2  UNL     1      -1.355  -0.014   0.698  1.00  0.00     0.002 C 
HETATM    3  C1  UNL     1      -2.048  -1.137   0.662  1.00  0.00     0.009 C 
ENDBRANCH   1   2
BRANCH   1   4
HETATM    4  N1  UNL     1      -0.696   1.857  -0.695  1.00  0.00    -0.066 N 
ATOM      5  H13 UNL     1      -1.672   2.150  -0.743  1.00  0.00     0.275 HD
ATOM      6  H12 UNL     1      -0.418   2.368   0.143  1.00  0.00     0.275 HD
ATOM      7  H11 UNL     1      -0.172   2.168  -1.513  1.00  0.00     0.275 HD
ENDBRANCH   1   4
BRANCH   1   8
HETATM    8  C4  UNL     1       0.835  -0.006  -0.375  1.00  0.00     0.044 A 
HETATM    9  C5  UNL     1       1.577  -0.676   0.483  1.00  0.00     0.044 A 
HETATM   10  C6  UNL     1       2.733  -0.509  -0.379  1.00  0.00     0.090 A 
HETATM   11  N2  UNL     1       1.982   0.140  -1.194  1.00  0.00    -0.367 N 
ATOM     12  H2  UNL     1       2.149   0.591  -2.093  1.00  0.00     0.165 HD
ENDBRANCH   1   8
TORSDOF 3
