REMARK  3 active torsions:
REMARK  status: ('A' for Active; 'I' for Inactive)
REMARK    1  A    between atoms: C2_2  and  C3_3 
REMARK    2  A    between atoms: C3_3  and  N1_4 
REMARK    3  A    between atoms: C3_3  and  N2_8 
ROOT
HETATM    1  C3  UNL     1      -0.716  -0.155  -0.648  1.00  0.00     0.439 C 
ENDROOT
BRANCH   1   2
HETATM    2  C2  UNL     1      -1.869  -0.132   0.279  1.00  0.00     0.027 C 
HETATM    3  C1  UNL     1      -2.341   0.943   0.839  1.00  0.00     0.011 C 
ENDBRANCH   1   2
BRANCH   1   4
HETATM    4  N1  UNL     1      -1.045  -1.021  -1.741  1.00  0.00    -0.044 N 
ATOM      5  H13 UNL     1      -1.325  -1.953  -1.436  1.00  0.00     0.277 HD
ATOM      6  H12 UNL     1      -1.917  -0.761  -2.202  1.00  0.00     0.277 HD
ATOM      7  H11 UNL     1      -0.250  -1.037  -2.380  1.00  0.00     0.277 HD
ENDBRANCH   1   4
BRANCH   1   8
HETATM    8  N2  UNL     1       0.452  -0.513   0.071  1.00  0.00     0.123 N 
HETATM    9  C4  UNL     1       0.830   0.427   1.101  1.00  0.00     0.277 C 
HETATM   10  C5  UNL     1       2.256   0.325   0.588  1.00  0.00     0.060 C 
HETATM   11  C6  UNL     1       1.718  -0.501  -0.581  1.00  0.00     0.277 C 
ENDBRANCH   1   8
TORSDOF 3
