REMARK  10 active torsions:
REMARK  status: ('A' for Active; 'I' for Inactive)
REMARK    1  A    between atoms: C2_3  and  N2_4 
REMARK    2  A    between atoms: N2_4  and  C3_5 
REMARK    3  A    between atoms: N2_4  and  C10_17 
REMARK    4  A    between atoms: C3_5  and  C4_6 
REMARK    5  A    between atoms: C4_6  and  C5_7 
REMARK    6  A    between atoms: C5_7  and  C6_8 
REMARK    7  A    between atoms: C6_8  and  C7_9 
REMARK    8  A    between atoms: C7_9  and  N3_10 
REMARK    9  A    between atoms: C10_17  and  C11_18 
REMARK   10  A    between atoms: C11_18  and  N6_19 
ROOT
HETATM    1  N1  UNL     1       1.293  -3.674   0.513  1.00  0.00    -0.191 NA
HETATM    2  C1  UNL     1       1.434  -2.674   1.126  1.00  0.00     0.105 C 
HETATM    3  C2  UNL     1       1.655  -1.460   1.881  1.00  0.00     0.184 C 
ENDROOT
BRANCH   3   4
HETATM    4  N2  UNL     1       1.031  -0.341   1.358  1.00  0.00    -0.360 N 
BRANCH   4   5
HETATM    5  C3  UNL     1      -0.337  -0.103   1.410  1.00  0.00     0.064 C 
BRANCH   5   6
HETATM    6  C4  UNL     1      -1.151  -1.010   0.537  1.00  0.00     0.045 C 
BRANCH   6   7
HETATM    7  C5  UNL     1      -2.638  -0.631   0.636  1.00  0.00     0.007 C 
BRANCH   7   8
HETATM    8  C6  UNL     1      -3.463  -1.517  -0.246  1.00  0.00     0.022 C 
BRANCH   8   9
HETATM    9  C7  UNL     1      -4.921  -1.222  -0.217  1.00  0.00     0.150 C 
BRANCH   9  10
HETATM   10  N3  UNL     1      -5.255   0.126  -0.630  1.00  0.00    -0.288 N 
HETATM   11  C8  UNL     1      -5.526   0.625  -1.825  1.00  0.00     0.130 A 
HETATM   12  C9  UNL     1      -5.785   1.973  -1.656  1.00  0.00     0.127 A 
HETATM   13  N4  UNL     1      -5.658   2.226  -0.361  1.00  0.00    -0.296 N 
HETATM   14  N5  UNL     1      -5.338   1.114   0.262  1.00  0.00    -0.241 N 
ATOM     15  H4  UNL     1      -5.788   3.136   0.080  1.00  0.00     0.187 HD
ATOM     16  H5  UNL     1      -5.179   1.022   1.265  1.00  0.00     0.208 HD
ENDBRANCH   9  10
ENDBRANCH   8   9
ENDBRANCH   7   8
ENDBRANCH   6   7
ENDBRANCH   5   6
ENDBRANCH   4   5
BRANCH   4  17
HETATM   17  C10 UNL     1       1.689   0.242   0.197  1.00  0.00     0.158 C 
BRANCH  17  18
HETATM   18  C11 UNL     1       3.000   0.869   0.465  1.00  0.00     0.293 C 
BRANCH  18  19
HETATM   19  N6  UNL     1       3.548   1.420  -0.755  1.00  0.00     0.097 N 
HETATM   20  C12 UNL     1       4.769   2.179  -0.468  1.00  0.00     0.280 C 
HETATM   21  C13 UNL     1       5.889   1.162  -0.482  1.00  0.00     0.110 C 
HETATM   22  C14 UNL     1       5.374   0.060  -1.303  1.00  0.00     0.156 C 
HETATM   23  O1  UNL     1       5.940  -0.964  -1.627  1.00  0.00    -0.296 OA
HETATM   24  C15 UNL     1       3.979   0.407  -1.699  1.00  0.00     0.350 C 
ENDBRANCH  18  19
ENDBRANCH  17  18
ENDBRANCH   4  17
ENDBRANCH   3   4
TORSDOF 10
