REMARK  9 active torsions:
REMARK  status: ('A' for Active; 'I' for Inactive)
REMARK    1  A    between atoms: C3_3  and  N1_4 
REMARK    2  A    between atoms: N1_4  and  C4_5 
REMARK    3  A    between atoms: N1_4  and  C7_9 
REMARK    4  A    between atoms: C4_5  and  C5_6 
REMARK    5  A    between atoms: C7_9  and  C8_10 
REMARK    6  A    between atoms: C8_10  and  N2_11 
REMARK    7  A    between atoms: N2_11  and  C9_12 
REMARK    8  A    between atoms: N2_11  and  S1_15 
REMARK    9  A    between atoms: C9_12  and  C10_13 
ROOT
HETATM    1  C1  UNL     1      -1.428   3.304  -1.949  1.00  0.00     0.018 C 
HETATM    2  C2  UNL     1      -1.671   2.662  -0.960  1.00  0.00    -0.072 C 
HETATM    3  C3  UNL     1      -1.980   1.862   0.238  1.00  0.00     0.155 C 
ENDROOT
BRANCH   3   4
HETATM    4  N1  UNL     1      -1.869   0.483   0.074  1.00  0.00    -0.349 N 
BRANCH   4   5
HETATM    5  C4  UNL     1      -2.741  -0.238  -0.737  1.00  0.00     0.099 C 
BRANCH   5   6
HETATM    6  C5  UNL     1      -4.160  -0.347  -0.279  1.00  0.00     0.183 A 
HETATM    7  C6  UNL     1      -4.664  -1.735   0.077  1.00  0.00     0.206 A 
HETATM    8  O1  UNL     1      -5.048  -1.059  -1.070  1.00  0.00    -0.376 OA
ENDBRANCH   5   6
ENDBRANCH   4   5
BRANCH   4   9
HETATM    9  C7  UNL     1      -0.697  -0.176   0.583  1.00  0.00     0.049 A 
HETATM   10  C13 UNL     1      -0.572  -0.350   2.066  1.00  0.00     0.035 A 
HETATM   11  C14 UNL     1      -0.809  -1.542   1.103  1.00  0.00     0.035 A 
BRANCH   9  12
HETATM   12  C8  UNL     1       0.567   0.292  -0.086  1.00  0.00     0.139 C 
BRANCH  12  13
HETATM   13  N2  UNL     1       1.769  -0.377   0.368  1.00  0.00    -0.205 NA
BRANCH  13  14
HETATM   14  C9  UNL     1       2.671   0.619   0.847  1.00  0.00     0.133 C 
BRANCH  14  15
HETATM   15  C10 UNL     1       3.605   0.164   1.886  1.00  0.00    -0.022 C 
HETATM   16  C11 UNL     1       4.907   0.235   1.660  1.00  0.00     0.008 C 
ENDBRANCH  14  15
ENDBRANCH  13  14
BRANCH  13  17
HETATM   17  S1  UNL     1       2.361  -1.326  -0.918  1.00  0.00     0.208 S 
HETATM   18  C12 UNL     1       2.817  -0.380  -2.339  1.00  0.00     0.180 C 
HETATM   19  O2  UNL     1       3.568  -2.084  -0.452  1.00  0.00    -0.212 OA
HETATM   20  O3  UNL     1       1.337  -2.323  -1.370  1.00  0.00    -0.212 OA
ENDBRANCH  13  17
ENDBRANCH  12  13
ENDBRANCH   9  12
ENDBRANCH   4   9
ENDBRANCH   3   4
TORSDOF 9
