REMARK  9 active torsions:
REMARK  status: ('A' for Active; 'I' for Inactive)
REMARK    1  A    between atoms: C3_4  and  C4_5 
REMARK    2  A    between atoms: C4_5  and  N1_6 
REMARK    3  A    between atoms: N2_8  and  C6_9 
REMARK    4  A    between atoms: C6_9  and  C7_10 
REMARK    5  A    between atoms: C7_10  and  C8_11 
REMARK    6  A    between atoms: C8_11  and  C9_12 
REMARK    7  A    between atoms: C9_12  and  C10_13 
REMARK    8  A    between atoms: C10_13  and  C11_14 
REMARK    9  A    between atoms: C11_14  and  N3_15 
ROOT
HETATM    1  C7  UNL     1      -0.059  -0.642   2.102  1.00  0.00     0.022 C 
ENDROOT
BRANCH   1   2
HETATM    2  C6  UNL     1      -0.864  -1.246   0.988  1.00  0.00     0.159 C 
BRANCH   2   3
HETATM    3  N2  UNL     1      -2.103  -0.581   0.742  1.00  0.00    -0.227 N 
HETATM    4  C5  UNL     1      -3.377  -0.635   1.139  1.00  0.00     0.238 A 
HETATM    5  N1  UNL     1      -3.631   0.376   0.323  1.00  0.00    -0.226 N 
HETATM    6  O2  UNL     1      -2.408   0.402  -0.035  1.00  0.00    -0.150 OA
BRANCH   5   7
HETATM    7  C4  UNL     1      -4.761   1.205  -0.094  1.00  0.00     0.172 C 
BRANCH   7   8
HETATM    8  C3  UNL     1      -5.386   0.514  -1.284  1.00  0.00     0.083 A 
HETATM    9  C1  UNL     1      -6.582   1.163  -1.916  1.00  0.00     0.134 A 
HETATM   10  O1  UNL     1      -7.157   1.990  -2.577  1.00  0.00    -0.297 OA
HETATM   11  C2  UNL     1      -6.732  -0.076  -1.078  1.00  0.00     0.092 A 
ENDBRANCH   7   8
ENDBRANCH   5   7
ENDBRANCH   2   3
ENDBRANCH   1   2
BRANCH   1  12
HETATM   12  C8  UNL     1       0.318   0.776   1.880  1.00  0.00     0.002 C 
BRANCH  12  13
HETATM   13  C9  UNL     1       1.149   1.018   0.657  1.00  0.00     0.002 C 
BRANCH  13  14
HETATM   14  C10 UNL     1       2.445   0.311   0.619  1.00  0.00     0.020 C 
BRANCH  14  15
HETATM   15  C11 UNL     1       3.140   0.679  -0.690  1.00  0.00     0.129 C 
BRANCH  15  16
HETATM   16  N3  UNL     1       4.423   0.032  -0.818  1.00  0.00    -0.353 N 
HETATM   17  C12 UNL     1       4.465  -1.188  -1.415  1.00  0.00     0.093 A 
HETATM   18  C13 UNL     1       5.680  -1.841  -1.556  1.00  0.00     0.034 A 
HETATM   19  C14 UNL     1       6.820  -1.234  -1.084  1.00  0.00     0.090 A 
HETATM   20  N4  UNL     1       6.742  -0.040  -0.505  1.00  0.00    -0.362 N 
HETATM   21  C15 UNL     1       5.549   0.589  -0.372  1.00  0.00     0.182 A 
ATOM     22  H4  UNL     1       7.590   0.408  -0.157  1.00  0.00     0.165 HD
ENDBRANCH  15  16
ENDBRANCH  14  15
ENDBRANCH  13  14
ENDBRANCH  12  13
ENDBRANCH   1  12
TORSDOF 9
