REMARK  9 active torsions:
REMARK  status: ('A' for Active; 'I' for Inactive)
REMARK    1  A    between atoms: S1_2  and  C2_3 
REMARK    2  A    between atoms: C2_3  and  C3_4 
REMARK    3  A    between atoms: C3_4  and  N1_5 
REMARK    4  A    between atoms: N3_8  and  C4_9 
REMARK    5  A    between atoms: C4_9  and  C5_10 
REMARK    6  A    between atoms: C5_10  and  C6_11 
REMARK    7  A    between atoms: C6_11  and  C7_12 
REMARK    8  A    between atoms: C7_12  and  C8_13 
REMARK    9  A    between atoms: C8_13  and  N4_14 
ROOT
HETATM    1  C4  UNL     1      -0.032   1.421  -0.927  1.00  0.00     0.150 C 
ENDROOT
BRANCH   1   2
HETATM    2  N3  UNL     1       1.203   0.784  -0.498  1.00  0.00    -0.288 N 
HETATM    3  N2  UNL     1       2.501   1.320  -0.725  1.00  0.00    -0.239 N 
HETATM    4  N1  UNL     1       3.397   0.562  -0.255  1.00  0.00    -0.287 N 
ATOM      5  H2  UNL     1       2.685   2.201  -1.205  1.00  0.00     0.208 HD
HETATM    6  C14 UNL     1       2.738  -0.545   0.325  1.00  0.00     0.130 A 
HETATM    7  C13 UNL     1       1.418  -0.426   0.187  1.00  0.00     0.130 A 
BRANCH   4   8
HETATM    8  C3  UNL     1       4.832   0.841  -0.330  1.00  0.00     0.160 C 
BRANCH   8   9
HETATM    9  C2  UNL     1       5.376   1.151   1.018  1.00  0.00     0.095 C 
BRANCH   9  10
HETATM   10  S1  UNL     1       5.173  -0.214   2.152  1.00  0.00    -0.172 SA
HETATM   11  C1  UNL     1       6.177  -1.645   1.678  1.00  0.00     0.089 C 
ENDBRANCH   9  10
ENDBRANCH   8   9
ENDBRANCH   4   8
ENDBRANCH   1   2
BRANCH   1  12
HETATM   12  C5  UNL     1      -0.721   0.718  -2.033  1.00  0.00     0.022 C 
BRANCH  12  13
HETATM   13  C6  UNL     1      -1.172  -0.659  -1.748  1.00  0.00     0.003 C 
BRANCH  13  14
HETATM   14  C7  UNL     1      -2.162  -0.766  -0.616  1.00  0.00     0.020 C 
BRANCH  14  15
HETATM   15  C8  UNL     1      -3.405   0.037  -0.922  1.00  0.00     0.129 C 
BRANCH  15  16
HETATM   16  N4  UNL     1      -4.407  -0.007   0.090  1.00  0.00    -0.353 N 
HETATM   17  C9  UNL     1      -5.386  -0.939   0.108  1.00  0.00     0.093 A 
HETATM   18  C10 UNL     1      -6.333  -0.938   1.108  1.00  0.00     0.034 A 
HETATM   19  C11 UNL     1      -6.293   0.010   2.095  1.00  0.00     0.090 A 
HETATM   20  N5  UNL     1      -5.304   0.928   2.053  1.00  0.00    -0.362 N 
HETATM   21  C12 UNL     1      -4.384   0.914   1.068  1.00  0.00     0.182 A 
ATOM     22  H5  UNL     1      -5.252   1.643   2.778  1.00  0.00     0.165 HD
ENDBRANCH  15  16
ENDBRANCH  14  15
ENDBRANCH  13  14
ENDBRANCH  12  13
ENDBRANCH   1  12
TORSDOF 9
