REMARK  8 active torsions:
REMARK  status: ('A' for Active; 'I' for Inactive)
REMARK    1  A    between atoms: C2_2  and  C3_3 
REMARK    2  A    between atoms: C3_3  and  N1_4 
REMARK    3  A    between atoms: N1_4  and  C5_6 
REMARK    4  A    between atoms: C5_6  and  C6_7 
REMARK    5  A    between atoms: C6_7  and  N2_8 
REMARK    6  A    between atoms: N3_12  and  C10_13 
REMARK    7  A    between atoms: C10_13  and  C11_14 
REMARK    8  A    between atoms: C16_20  and  N4_21 
ROOT
HETATM    1  N2  UNL     1       0.239  -0.417  -0.260  1.00  0.00     0.098 N 
HETATM    2  C7  UNL     1      -0.314   0.835  -0.638  1.00  0.00     0.285 C 
HETATM    3  C8  UNL     1      -1.416   1.146   0.390  1.00  0.00     0.079 C 
HETATM    4  C9  UNL     1      -2.761   0.986  -0.166  1.00  0.00     0.071 C 
HETATM    5  N3  UNL     1      -3.566  -0.095   0.108  1.00  0.00    -0.371 N 
HETATM    6  C13 UNL     1      -3.100  -1.375   0.417  1.00  0.00     0.065 C 
HETATM    7  C14 UNL     1      -1.693  -1.691   0.007  1.00  0.00     0.082 C 
HETATM    8  C15 UNL     1      -0.619  -1.000   0.757  1.00  0.00     0.252 C 
HETATM    9  C16 UNL     1      -1.012   0.246   1.500  1.00  0.00     0.143 C 
ENDROOT
BRANCH   1  10
HETATM   10  C6  UNL     1       1.622  -0.533  -0.056  1.00  0.00     0.303 C 
BRANCH  10  11
HETATM   11  C5  UNL     1       2.308  -0.383  -1.414  1.00  0.00     0.302 C 
BRANCH  11  12
HETATM   12  N1  UNL     1       3.746  -0.500  -1.290  1.00  0.00     0.085 N 
HETATM   13  C4  UNL     1       4.122  -1.788  -0.731  1.00  0.00     0.309 C 
BRANCH  12  14
HETATM   14  C3  UNL     1       4.339   0.595  -0.585  1.00  0.00     0.271 C 
BRANCH  14  15
HETATM   15  C2  UNL     1       5.832   0.575  -0.837  1.00  0.00     0.026 C 
HETATM   16  C1  UNL     1       6.509   1.717  -0.103  1.00  0.00     0.007 C 
ENDBRANCH  14  15
ENDBRANCH  12  14
ENDBRANCH  11  12
ENDBRANCH  10  11
ENDBRANCH   1  10
BRANCH   9  17
HETATM   17  N4  UNL     1      -1.854   0.115   2.590  1.00  0.00    -0.335 N 
HETATM   18  N5  UNL     1      -1.588   0.348   3.773  1.00  0.00    -0.349 N 
ATOM     19  H52 UNL     1      -0.637   0.672   3.949  1.00  0.00     0.176 HD
ATOM     20  H51 UNL     1      -2.209   0.251   4.577  1.00  0.00     0.176 HD
ATOM     21  H4  UNL     1      -2.801  -0.211   2.394  1.00  0.00     0.180 HD
ENDBRANCH   9  17
BRANCH   5  22
HETATM   22  C10 UNL     1      -4.662  -0.182  -0.834  1.00  0.00     0.161 C 
BRANCH  22  23
HETATM   23  C11 UNL     1      -5.696   0.870  -0.743  1.00  0.00     0.163 A 
HETATM   24  C12 UNL     1      -7.102   0.394  -0.493  1.00  0.00     0.201 A 
HETATM   25  O1  UNL     1      -6.710   0.559  -1.815  1.00  0.00    -0.380 OA
ENDBRANCH  22  23
ENDBRANCH   5  22
TORSDOF 8
