REMARK  3 active torsions:
REMARK  status: ('A' for Active; 'I' for Inactive)
REMARK    1  A    between atoms: N1_1  and  C1_4 
REMARK    2  A    between atoms: C2_7  and  N3_8 
REMARK       I    between atoms: N4_11  and  C3_12 
REMARK       I    between atoms: C3_12  and  N5_13 
REMARK       I    between atoms: C3_12  and  N6_17 
REMARK    3  A    between atoms: N6_17  and  C4_20 
ROOT
HETATM    1  C1  UNL     1      -2.906  -0.962   0.113  1.00  0.00     0.705 A 
HETATM    2  N2  UNL     1      -2.567  -0.562  -1.129  1.00  0.00    -0.020 N 
ATOM      3  H2  UNL     1      -3.028  -0.847  -1.993  1.00  0.00     0.203 HD
HETATM    4  C2  UNL     1      -1.495   0.295  -1.034  1.00  0.00     0.711 A 
HETATM    5  N4  UNL     1      -1.204   0.397   0.290  1.00  0.00    -0.051 N 
HETATM    6  C3  UNL     1      -0.131   1.196   0.883  1.00  0.00     0.521 C 
HETATM    7  N5  UNL     1      -0.329   2.619   0.678  1.00  0.00    -0.030 N 
ATOM      8  H51 UNL     1       0.419   3.176   1.091  1.00  0.00     0.279 HD
ATOM      9  H52 UNL     1      -1.243   2.917   1.019  1.00  0.00     0.279 HD
ATOM     10  H53 UNL     1      -0.447   2.836  -0.312  1.00  0.00     0.279 HD
HETATM   11  N6  UNL     1       1.075   0.842   0.180  1.00  0.00    -0.006 N 
ATOM     12  H61 UNL     1       1.852   1.423   0.493  1.00  0.00     0.283 HD
ATOM     13  H62 UNL     1       1.017   1.137  -0.795  1.00  0.00     0.283 HD
HETATM   14  N9  UNL     1      -2.060  -0.363   0.949  1.00  0.00    -0.112 N 
ATOM     15  H9  UNL     1      -2.072  -0.476   1.963  1.00  0.00     0.206 HD
ENDROOT
BRANCH   4  16
HETATM   16  N3  UNL     1      -0.934   0.847  -1.951  1.00  0.00    -0.233 N 
ATOM     17  H32 UNL     1      -1.152   0.770  -2.944  1.00  0.00     0.174 HD
ATOM     18  H31 UNL     1      -0.139   1.482  -1.881  1.00  0.00     0.174 HD
ENDBRANCH   4  16
BRANCH  11  19
HETATM   19  C4  UNL     1       1.422  -0.533   0.261  1.00  0.00     0.314 C 
HETATM   20  C5  UNL     1       2.612  -0.845  -0.655  1.00  0.00     0.182 C 
HETATM   21  N7  UNL     1       3.417  -0.374   0.457  1.00  0.00    -0.143 NA
HETATM   22  N8  UNL     1       2.379  -0.837   1.310  1.00  0.00    -0.113 NA
ENDBRANCH  11  19
BRANCH   1  23
HETATM   23  N1  UNL     1      -3.877  -1.779   0.422  1.00  0.00    -0.233 N 
ATOM     24  H12 UNL     1      -4.525  -2.238  -0.218  1.00  0.00     0.174 HD
ATOM     25  H11 UNL     1      -4.133  -2.082   1.362  1.00  0.00     0.174 HD
ENDBRANCH   1  23
TORSDOF 3
