REMARK  4 active torsions:
REMARK  status: ('A' for Active; 'I' for Inactive)
REMARK    1  A    between atoms: N1_1  and  C1_4 
REMARK    2  A    between atoms: C4_14  and  N5_15 
REMARK    3  A    between atoms: N5_15  and  N6_17 
REMARK    4  A    between atoms: N6_17  and  N7_18 
ROOT
HETATM    1  C1  UNL     1      -2.869   0.311   0.729  1.00  0.00     0.679 A 
HETATM    2  N2  UNL     1      -2.953  -0.504  -0.321  1.00  0.00    -0.175 N 
ATOM      3  H2  UNL     1      -3.848  -0.917  -0.584  1.00  0.00     0.186 HD
HETATM    4  C2  UNL     1      -1.819  -0.781  -1.045  1.00  0.00     0.146 A 
HETATM    5  N3  UNL     1      -1.863  -1.514  -2.007  1.00  0.00    -0.383 N 
ATOM      6  H31 UNL     1      -1.021  -1.720  -2.545  1.00  0.00     0.157 HD
ATOM      7  H32 UNL     1      -2.745  -1.940  -2.291  1.00  0.00     0.157 HD
HETATM    8  C3  UNL     1      -0.605  -0.195  -0.654  1.00  0.00     0.138 A 
HETATM    9  N4  UNL     1       0.643  -0.260  -1.130  1.00  0.00    -0.183 N 
ATOM     10  H4  UNL     1       0.914  -0.810  -1.945  1.00  0.00     0.184 HD
HETATM   11  C4  UNL     1       1.500   0.487  -0.407  1.00  0.00     0.697 A 
HETATM   12  N8  UNL     1       0.729   1.045   0.571  1.00  0.00    -0.172 N 
ATOM     13  H8  UNL     1       1.070   1.675   1.297  1.00  0.00     0.186 HD
HETATM   14  C5  UNL     1      -0.551   0.641   0.436  1.00  0.00     0.167 A 
HETATM   15  N9  UNL     1      -1.696   0.864   1.092  1.00  0.00    -0.174 N 
ATOM     16  H9  UNL     1      -1.679   1.481   1.904  1.00  0.00     0.186 HD
ENDROOT
BRANCH  11  17
HETATM   17  N5  UNL     1       2.901   0.673  -0.597  1.00  0.00    -0.116 N 
ATOM     18  H5  UNL     1       3.241   0.940  -1.521  1.00  0.00     0.203 HD
BRANCH  17  19
HETATM   19  N6  UNL     1       3.826   0.502   0.440  1.00  0.00    -0.015 NA
BRANCH  19  20
HETATM   20  N7  UNL     1       3.630  -0.751   1.067  1.00  0.00    -0.328 N 
ATOM     21  H72 UNL     1       2.913  -1.422   0.791  1.00  0.00     0.174 HD
ATOM     22  H71 UNL     1       4.304  -0.876   1.822  1.00  0.00     0.174 HD
ENDBRANCH  19  20
ENDBRANCH  17  19
ENDBRANCH  11  17
BRANCH   1  23
HETATM   23  N1  UNL     1      -3.970   0.560   1.396  1.00  0.00    -0.234 N 
ATOM     24  H12 UNL     1      -4.858   0.141   1.121  1.00  0.00     0.174 HD
ATOM     25  H11 UNL     1      -3.906   1.184   2.200  1.00  0.00     0.174 HD
ENDBRANCH   1  23
TORSDOF 4
