REMARK  4 active torsions:
REMARK  status: ('A' for Active; 'I' for Inactive)
REMARK    1  A    between atoms: N1_1  and  C1_4 
REMARK    2  A    between atoms: C2_7  and  N3_8 
REMARK    3  A    between atoms: N3_8  and  N4_10 
REMARK    4  A    between atoms: N4_10  and  N5_11 
ROOT
HETATM    1  C1  UNL     1      -1.117  -1.213   0.550  1.00  0.00     0.145 A 
HETATM    2  N2  UNL     1       0.222  -1.058   0.546  1.00  0.00    -0.173 N 
ATOM      3  H2  UNL     1       0.802  -1.829   0.877  1.00  0.00     0.186 HD
HETATM    4  C2  UNL     1       0.821   0.052   0.131  1.00  0.00     0.698 A 
HETATM    5  N6  UNL     1       0.058   1.064  -0.306  1.00  0.00    -0.173 N 
ATOM      6  H6  UNL     1       0.510   1.920  -0.628  1.00  0.00     0.186 HD
HETATM    7  C3  UNL     1      -1.296   0.986  -0.333  1.00  0.00     0.152 A 
HETATM    8  N7  UNL     1      -2.294   1.809  -0.704  1.00  0.00    -0.336 N 
ATOM      9  H7  UNL     1      -2.179   2.752  -1.074  1.00  0.00     0.168 HD
HETATM   10  C4  UNL     1      -3.484   1.175  -0.504  1.00  0.00     0.182 A 
HETATM   11  N8  UNL     1      -3.228  -0.045  -0.007  1.00  0.00    -0.346 N 
ATOM     12  H8  UNL     1      -3.919  -0.752   0.245  1.00  0.00     0.167 HD
HETATM   13  C5  UNL     1      -1.883  -0.165   0.099  1.00  0.00     0.122 A 
ENDROOT
BRANCH   4  14
HETATM   14  N3  UNL     1       2.234   0.233   0.120  1.00  0.00    -0.116 N 
ATOM     15  H3  UNL     1       2.639   1.109  -0.211  1.00  0.00     0.203 HD
BRANCH  14  16
HETATM   16  N4  UNL     1       3.061  -0.803   0.568  1.00  0.00    -0.015 NA
BRANCH  16  17
HETATM   17  N5  UNL     1       4.363  -0.300   0.814  1.00  0.00    -0.328 N 
ATOM     18  H52 UNL     1       4.640   0.673   0.680  1.00  0.00     0.174 HD
ATOM     19  H51 UNL     1       4.966  -1.055   1.141  1.00  0.00     0.174 HD
ENDBRANCH  16  17
ENDBRANCH  14  16
ENDBRANCH   4  14
BRANCH   1  20
HETATM   20  N1  UNL     1      -1.666  -2.305   0.961  1.00  0.00    -0.383 N 
ATOM     21  H12 UNL     1      -1.097  -3.083   1.296  1.00  0.00     0.157 HD
ATOM     22  H11 UNL     1      -2.679  -2.422   0.964  1.00  0.00     0.157 HD
ENDBRANCH   1  20
TORSDOF 4
