REMARK  3 active torsions:
REMARK  status: ('A' for Active; 'I' for Inactive)
REMARK    1  A    between atoms: N1_1  and  C1_4 
REMARK    2  A    between atoms: C5_14  and  C6_15 
REMARK    3  A    between atoms: C6_15  and  N5_16 
ROOT
HETATM    1  C1  UNL     1       2.042   0.179  -1.089  1.00  0.00     0.130 A 
HETATM    2  N2  UNL     1       3.301   0.217  -0.541  1.00  0.00    -0.337 N 
ATOM      3  H2  UNL     1       4.107   0.422  -1.132  1.00  0.00     0.168 HD
HETATM    4  C2  UNL     1       3.475  -0.014   0.769  1.00  0.00     0.183 A 
HETATM    5  N3  UNL     1       2.423  -0.284   1.558  1.00  0.00    -0.336 N 
ATOM      6  H3  UNL     1       2.564  -0.458   2.553  1.00  0.00     0.168 HD
HETATM    7  C3  UNL     1       1.165  -0.326   1.031  1.00  0.00     0.148 A 
HETATM    8  C4  UNL     1       0.947  -0.094  -0.310  1.00  0.00     0.119 A 
HETATM    9  N4  UNL     1      -0.390  -0.162  -0.788  1.00  0.00    -0.363 N 
ATOM     10  H4  UNL     1      -0.606  -0.372  -1.763  1.00  0.00     0.161 HD
HETATM   11  C5  UNL     1      -1.428   0.085   0.193  1.00  0.00     0.222 C 
HETATM   12  N6  UNL     1      -1.213  -0.902   1.248  1.00  0.00    -0.112 NA
HETATM   13  N7  UNL     1       0.023  -0.607   1.831  1.00  0.00    -0.285 N 
ATOM     14  H7  UNL     1       0.107  -0.593   2.847  1.00  0.00     0.184 HD
ENDROOT
BRANCH  11  15
HETATM   15  C6  UNL     1      -2.810  -0.003  -0.386  1.00  0.00     0.273 C 
BRANCH  15  16
HETATM   16  N5  UNL     1      -2.912   0.996  -1.433  1.00  0.00    -0.076 N 
ATOM     17  H53 UNL     1      -2.676   1.934  -1.111  1.00  0.00     0.274 HD
ATOM     18  H52 UNL     1      -2.180   0.908  -2.138  1.00  0.00     0.274 HD
ATOM     19  H51 UNL     1      -3.851   0.936  -1.826  1.00  0.00     0.274 HD
ENDBRANCH  15  16
ENDBRANCH  11  15
BRANCH   1  20
HETATM   20  N1  UNL     1       1.874   0.401  -2.339  1.00  0.00    -0.383 N 
ATOM     21  H12 UNL     1       2.688   0.604  -2.918  1.00  0.00     0.157 HD
ATOM     22  H11 UNL     1       0.939   0.373  -2.746  1.00  0.00     0.157 HD
ENDBRANCH   1  20
TORSDOF 3
