REMARK  4 active torsions:
REMARK  status: ('A' for Active; 'I' for Inactive)
REMARK    1  A    between atoms: N1_1  and  C1_4 
REMARK    2  A    between atoms: C2_7  and  N3_8 
REMARK    3  A    between atoms: N3_8  and  N4_10 
REMARK    4  A    between atoms: N4_10  and  N5_12 
ROOT
HETATM    1  C1  UNL     1      -1.307  -0.904   0.587  1.00  0.00     0.147 A 
HETATM    2  N2  UNL     1      -0.079  -1.309   0.220  1.00  0.00    -0.173 N 
ATOM      3  H2  UNL     1       0.290  -2.198   0.558  1.00  0.00     0.186 HD
HETATM    4  C2  UNL     1       0.661  -0.534  -0.597  1.00  0.00     0.701 A 
HETATM    5  N6  UNL     1       0.168   0.634  -1.037  1.00  0.00    -0.171 N 
ATOM      6  H6  UNL     1       0.742   1.208  -1.654  1.00  0.00     0.186 HD
HETATM    7  C3  UNL     1      -1.053   1.075  -0.695  1.00  0.00     0.169 A 
HETATM    8  N7  UNL     1      -1.802   2.158  -0.959  1.00  0.00    -0.268 N 
ATOM      9  H7  UNL     1      -1.507   2.931  -1.556  1.00  0.00     0.190 HD
HETATM   10  N8  UNL     1      -2.971   2.094  -0.346  1.00  0.00    -0.240 N 
ATOM     11  H8  UNL     1      -3.719   2.787  -0.383  1.00  0.00     0.208 HD
HETATM   12  N9  UNL     1      -2.980   0.960   0.321  1.00  0.00    -0.279 N 
ATOM     13  H9  UNL     1      -3.758   0.634   0.894  1.00  0.00     0.189 HD
HETATM   14  C4  UNL     1      -1.829   0.286   0.148  1.00  0.00     0.139 A 
ENDROOT
BRANCH   4  15
HETATM   15  N3  UNL     1       1.968  -0.995  -0.966  1.00  0.00    -0.118 N 
ATOM     16  H3  UNL     1       2.104  -1.585  -1.787  1.00  0.00     0.207 HD
BRANCH  15  17
HETATM   17  N4  UNL     1       3.023  -0.622  -0.187  1.00  0.00    -0.235 N 
ATOM     18  H4  UNL     1       3.751  -1.286   0.078  1.00  0.00     0.208 HD
BRANCH  17  19
HETATM   19  N5  UNL     1       3.061   0.680   0.223  1.00  0.00    -0.330 N 
ATOM     20  H52 UNL     1       2.325   1.332  -0.050  1.00  0.00     0.178 HD
ATOM     21  H51 UNL     1       3.850   0.959   0.806  1.00  0.00     0.178 HD
ENDBRANCH  17  19
ENDBRANCH  15  17
ENDBRANCH   4  15
BRANCH   1  22
HETATM   22  N1  UNL     1      -1.986  -1.665   1.366  1.00  0.00    -0.383 N 
ATOM     23  H12 UNL     1      -1.598  -2.550   1.692  1.00  0.00     0.157 HD
ATOM     24  H11 UNL     1      -2.918  -1.358   1.644  1.00  0.00     0.157 HD
ENDBRANCH   1  22
TORSDOF 4
