REMARK  3 active torsions:
REMARK  status: ('A' for Active; 'I' for Inactive)
REMARK    1  A    between atoms: N1_1  and  C1_4 
REMARK    2  A    between atoms: C4_13  and  N6_14 
REMARK    3  A    between atoms: N6_14  and  N7_16 
REMARK       I    between atoms: N7_16  and  C5_18 
ROOT
HETATM    1  C1  UNL     1      -1.456   1.534   0.176  1.00  0.00     0.133 A 
HETATM    2  N2  UNL     1      -2.737   1.037   0.093  1.00  0.00    -0.315 N 
ATOM      3  H2  UNL     1      -3.523   1.686   0.068  1.00  0.00     0.170 HD
HETATM    4  C2  UNL     1      -2.974  -0.280   0.044  1.00  0.00     0.195 A 
HETATM    5  N3  UNL     1      -4.316  -0.749  -0.040  1.00  0.00    -0.063 NA
HETATM    6  N4  UNL     1      -1.953  -1.151   0.075  1.00  0.00    -0.317 N 
ATOM      7  H4  UNL     1      -2.127  -2.155   0.036  1.00  0.00     0.169 HD
HETATM    8  C3  UNL     1      -0.692  -0.676   0.158  1.00  0.00     0.150 A 
HETATM    9  N5  UNL     1       0.334  -1.636   0.177  1.00  0.00    -0.080 NA
HETATM   10  C4  UNL     1      -0.372   0.668   0.212  1.00  0.00     0.133 A 
ENDROOT
BRANCH  10  11
HETATM   11  N6  UNL     1       0.958   1.150   0.303  1.00  0.00    -0.291 N 
ATOM     12  H6  UNL     1       1.084   2.162   0.330  1.00  0.00     0.187 HD
BRANCH  11  13
HETATM   13  N7  UNL     1       2.109   0.366   0.359  1.00  0.00    -0.253 N 
HETATM   14  C5  UNL     1       3.126   0.423  -0.633  1.00  0.00     0.347 C 
HETATM   15  N8  UNL     1       4.282  -0.390  -0.540  1.00  0.00    -0.038 NA
HETATM   16  O1  UNL     1       2.998   1.204  -1.606  1.00  0.00    -0.249 OA
ATOM     17  H7  UNL     1       2.227  -0.275   1.144  1.00  0.00     0.191 HD
ENDBRANCH  11  13
ENDBRANCH  10  11
BRANCH   1  18
HETATM   18  N1  UNL     1      -1.300   2.796   0.215  1.00  0.00    -0.383 N 
ATOM     19  H12 UNL     1      -2.097   3.432   0.189  1.00  0.00     0.157 HD
ATOM     20  H11 UNL     1      -0.351   3.164   0.277  1.00  0.00     0.157 HD
ENDBRANCH   1  18
TORSDOF 3
