REMARK  2 active torsions:
REMARK  status: ('A' for Active; 'I' for Inactive)
REMARK       I    between atoms: N1_1  and  C1_5 
REMARK       I    between atoms: C1_5  and  N2_6 
REMARK       I    between atoms: C1_5  and  N3_10 
REMARK    1  A    between atoms: N3_10  and  C2_12 
REMARK    2  A    between atoms: C2_12  and  C3_13 
ROOT
HETATM    1  C3  UNL     1       0.668   0.137   0.363  1.00  0.00     0.074 A 
HETATM    2  N4  UNL     1       1.004   0.717   1.534  1.00  0.00    -0.299 N 
ATOM      3  H4  UNL     1       0.342   1.127   2.192  1.00  0.00     0.186 HD
HETATM    4  N5  UNL     1       2.317   0.678   1.707  1.00  0.00    -0.282 N 
ATOM      5  H5  UNL     1       2.810   1.054   2.517  1.00  0.00     0.188 HD
HETATM    6  C4  UNL     1       2.911   0.067   0.653  1.00  0.00     0.163 A 
HETATM    7  C5  UNL     1       1.874  -0.270  -0.185  1.00  0.00     0.118 A 
HETATM    8  N6  UNL     1       2.488  -0.915  -1.304  1.00  0.00    -0.279 N 
ATOM      9  H6  UNL     1       2.030  -1.533  -1.974  1.00  0.00     0.184 HD
HETATM   10  N7  UNL     1       3.855  -0.534  -1.307  1.00  0.00    -0.020 NA
HETATM   11  N8  UNL     1       4.120  -0.367   0.056  1.00  0.00    -0.266 N 
ATOM     12  H8  UNL     1       5.010  -0.527   0.528  1.00  0.00     0.186 HD
ENDROOT
BRANCH   1  13
HETATM   13  C2  UNL     1      -0.676  -0.049  -0.245  1.00  0.00     0.179 C 
BRANCH  13  14
HETATM   14  N3  UNL     1      -1.651   0.505   0.629  1.00  0.00    -0.369 N 
HETATM   15  C1  UNL     1      -3.003   0.403   0.179  1.00  0.00     0.476 C 
HETATM   16  N1  UNL     1      -3.481  -0.917  -0.032  1.00  0.00    -0.033 N 
HETATM   17  N2  UNL     1      -3.138   1.246  -1.019  1.00  0.00    -0.033 N 
ATOM     18  H13 UNL     1      -4.443  -0.910  -0.370  1.00  0.00     0.278 HD
ATOM     19  H12 UNL     1      -3.028  -1.348  -0.838  1.00  0.00     0.278 HD
ATOM     20  H11 UNL     1      -3.387  -1.502   0.799  1.00  0.00     0.278 HD
ATOM     21  H23 UNL     1      -2.685   0.815  -1.825  1.00  0.00     0.278 HD
ATOM     22  H22 UNL     1      -4.100   1.253  -1.357  1.00  0.00     0.278 HD
ATOM     23  H21 UNL     1      -2.795   2.194  -0.867  1.00  0.00     0.278 HD
ATOM     24  H3  UNL     1      -1.403   0.945   1.515  1.00  0.00     0.157 HD
ENDBRANCH  13  14
ENDBRANCH   1  13
TORSDOF 2
