REMARK  5 active torsions:
REMARK  status: ('A' for Active; 'I' for Inactive)
REMARK    1  A    between atoms: C1_2  and  C2_4 
REMARK    2  A    between atoms: C1_2  and  N4_15 
REMARK    3  A    between atoms: C2_4  and  C3_5 
REMARK    4  A    between atoms: C3_5  and  N1_6 
REMARK    5  A    between atoms: N1_6  and  C4_8 
ROOT
HETATM    1  C2  UNL     1       0.456  -0.682   0.501  1.00  0.00     0.110 C 
ENDROOT
BRANCH   1   2
HETATM    2  C1  UNL     1      -0.485   0.212  -0.221  1.00  0.00     0.192 C 
HETATM    3 CL1  UNL     1      -0.551  -0.221  -1.954  1.00  0.00    -0.077 Cl
HETATM    4 CL2  UNL     1       0.072   1.887  -0.089  1.00  0.00    -0.077 Cl
BRANCH   2   5
HETATM    5  N4  UNL     1      -1.819   0.132   0.307  1.00  0.00    -0.359 N 
HETATM    6  C7  UNL     1      -2.479   1.297   0.701  1.00  0.00     0.125 C 
HETATM    7  C8  UNL     1      -3.869   1.433   0.069  1.00  0.00     0.020 C 
HETATM    8  C9  UNL     1      -4.839   0.411   0.527  1.00  0.00     0.002 C 
HETATM    9  C10 UNL     1      -4.925  -0.694  -0.477  1.00  0.00     0.005 C 
HETATM   10  C11 UNL     1      -3.550  -1.078  -0.945  1.00  0.00     0.044 C 
HETATM   11  C12 UNL     1      -2.537  -1.044   0.177  1.00  0.00     0.061 C 
ENDBRANCH   2   5
ENDBRANCH   1   2
BRANCH   1  12
HETATM   12  C3  UNL     1       1.867  -0.810   0.068  1.00  0.00     0.069 C 
BRANCH  12  13
HETATM   13  N1  UNL     1       2.714   0.314   0.056  1.00  0.00    -0.342 N 
ATOM     14  H1  UNL     1       2.302   1.243  -0.028  1.00  0.00     0.167 HD
BRANCH  13  15
HETATM   15  C4  UNL     1       4.156   0.189   0.159  1.00  0.00     0.174 C 
HETATM   16  N2  UNL     1       4.659  -0.249   1.262  1.00  0.00    -0.361 N 
HETATM   17  C5  UNL     1       6.087  -0.317   1.216  1.00  0.00     0.142 C 
ATOM     18  H2  UNL     1       4.103  -0.516   2.074  1.00  0.00     0.162 HD
HETATM   19  C6  UNL     1       6.463   0.491  -0.021  1.00  0.00     0.142 C 
HETATM   20  N3  UNL     1       5.193   0.482  -0.737  1.00  0.00    -0.361 N 
ATOM     21  H3  UNL     1       5.077   0.661  -1.734  1.00  0.00     0.162 HD
ENDBRANCH  13  15
ENDBRANCH  12  13
ENDBRANCH   1  12
TORSDOF 5
