REMARK  4 active torsions:
REMARK  status: ('A' for Active; 'I' for Inactive)
REMARK    1  A    between atoms: C3_3  and  C4_4 
REMARK    2  A    between atoms: C6_6  and  N1_7 
REMARK    3  A    between atoms: N1_7  and  C7_9 
REMARK    4  A    between atoms: C7_9  and  C8_10 
ROOT
HETATM    1  C4  UNL     1       1.720   0.572   0.337  1.00  0.00     0.028 C 
HETATM    2  C5  UNL     1       0.675   1.536  -0.247  1.00  0.00     0.034 C 
HETATM    3  C6  UNL     1      -0.230   0.822   0.795  1.00  0.00     0.077 C 
HETATM    4  C12 UNL     1       0.537  -0.420   0.324  1.00  0.00     0.034 C 
ENDROOT
BRANCH   3   5
HETATM    5  N1  UNL     1      -1.589   0.920   0.684  1.00  0.00    -0.417 N 
ATOM      6  H1  UNL     1      -2.100   1.383   1.435  1.00  0.00     0.153 HD
BRANCH   5   7
HETATM    7  C7  UNL     1      -2.324   0.419  -0.407  1.00  0.00     0.120 C 
BRANCH   7   8
HETATM    8  C8  UNL     1      -3.817   0.610  -0.126  1.00  0.00     0.030 C 
HETATM    9  C9  UNL     1      -4.189  -0.150   1.149  1.00  0.00     0.035 C 
HETATM   10  C10 UNL     1      -5.101  -1.225   0.591  1.00  0.00     0.232 C 
HETATM   11  N2  UNL     1      -5.815  -0.492  -0.451  1.00  0.00    -0.075 N 
HETATM   12  C11 UNL     1      -4.693   0.073  -1.201  1.00  0.00     0.238 C 
ATOM     13  H22 UNL     1      -6.480  -1.039  -0.998  1.00  0.00     0.277 HD
ATOM     14  H21 UNL     1      -6.508   0.180  -0.121  1.00  0.00     0.277 HD
ENDBRANCH   7   8
ENDBRANCH   5   7
ENDBRANCH   3   5
BRANCH   1  15
HETATM   15  C3  UNL     1       2.894   0.269  -0.405  1.00  0.00     0.010 A 
HETATM   16  C2  UNL     1       4.012  -0.355   0.192  1.00  0.00     0.034 A 
HETATM   17  C1  UNL     1       4.137  -0.773   1.622  1.00  0.00     0.070 C 
HETATM   18  N4  UNL     1       4.969  -0.524  -0.700  1.00  0.00    -0.299 N 
HETATM   19  N3  UNL     1       4.527  -0.036  -1.858  1.00  0.00    -0.287 N 
HETATM   20  C14 UNL     1       6.293  -1.114  -0.562  1.00  0.00     0.177 C 
HETATM   21  C13 UNL     1       3.264   0.452  -1.698  1.00  0.00     0.126 A 
ATOM     22  H3  UNL     1       5.053  -0.029  -2.732  1.00  0.00     0.188 HD
HETATM   23 CL1  UNL     1       2.295   1.190  -2.934  1.00  0.00    -0.062 Cl
ENDBRANCH   1  15
TORSDOF 4
