REMARK  16 active torsions:
REMARK  status: ('A' for Active; 'I' for Inactive)
REMARK    1  A    between atoms: C2_2  and  C3_3 
REMARK    2  A    between atoms: C3_3  and  N1_4 
REMARK    3  A    between atoms: C3_3  and  C17_27 
REMARK       I    between atoms: N1_4  and  C4_6 
REMARK    4  A    between atoms: C4_6  and  C5_8 
REMARK    5  A    between atoms: C5_8  and  O2_10 
REMARK    6  A    between atoms: O2_10  and  C7_11 
REMARK       I    between atoms: C7_11  and  N2_13 
REMARK    7  A    between atoms: C10_16  and  N3_17 
REMARK       I    between atoms: N3_17  and  C11_19 
REMARK    8  A    between atoms: C11_19  and  O5_21 
REMARK    9  A    between atoms: O5_21  and  C12_22 
REMARK       I    between atoms: C17_27  and  N4_29 
REMARK   10  A    between atoms: N4_29  and  C18_31 
REMARK   11  A    between atoms: C18_31  and  C19_32 
REMARK   12  A    between atoms: C18_31  and  C26_39 
REMARK   13  A    between atoms: C19_32  and  C20_33 
REMARK   14  A    between atoms: C20_33  and  C22_35 
REMARK   15  A    between atoms: C22_35  and  C23_36 
REMARK   16  A    between atoms: C26_39  and  O8_41 
ROOT
HETATM    1  N1  UNL     1      -0.485   0.979   1.994  1.00  0.00    -0.346 N 
ATOM      2  H1  UNL     1      -0.756   1.025   2.976  1.00  0.00     0.163 HD
HETATM    3  C4  UNL     1       0.593   0.157   1.597  1.00  0.00     0.247 C 
HETATM    4  O1  UNL     1       0.941   0.106   0.408  1.00  0.00    -0.271 OA
ENDROOT
BRANCH   1   5
HETATM    5  C3  UNL     1      -1.213   1.765   0.996  1.00  0.00     0.176 C 
BRANCH   5   6
HETATM    6  C2  UNL     1      -0.864   3.241   1.062  1.00  0.00     0.030 C 
HETATM    7  C1  UNL     1       0.589   3.523   0.824  1.00  0.00     0.007 C 
ENDBRANCH   5   6
BRANCH   5   8
HETATM    8  C17 UNL     1      -2.665   1.599   1.121  1.00  0.00     0.241 C 
HETATM    9  O6  UNL     1      -3.141   0.931   2.055  1.00  0.00    -0.271 OA
HETATM   10  N4  UNL     1      -3.569   2.194   0.181  1.00  0.00    -0.345 N 
ATOM     11  H4  UNL     1      -3.180   2.736  -0.591  1.00  0.00     0.163 HD
BRANCH  10  12
HETATM   12  C18 UNL     1      -4.975   2.065   0.273  1.00  0.00     0.184 C 
BRANCH  12  13
HETATM   13  C19 UNL     1      -5.598   0.716   0.167  1.00  0.00     0.040 C 
BRANCH  13  14
HETATM   14  C20 UNL     1      -5.424  -0.034  -1.092  1.00  0.00    -0.016 C 
HETATM   15  C21 UNL     1      -3.927  -0.278  -1.429  1.00  0.00     0.010 C 
BRANCH  14  16
HETATM   16  C22 UNL     1      -6.066  -1.381  -1.202  1.00  0.00     0.008 C 
BRANCH  16  17
HETATM   17  C23 UNL     1      -7.525  -1.501  -1.076  1.00  0.00    -0.023 C 
HETATM   18  C24 UNL     1      -8.179  -1.116   0.214  1.00  0.00     0.009 C 
HETATM   19  C25 UNL     1      -7.977  -2.953  -1.394  1.00  0.00     0.009 C 
ENDBRANCH  16  17
ENDBRANCH  14  16
ENDBRANCH  13  14
ENDBRANCH  12  13
BRANCH  12  20
HETATM   20  C26 UNL     1      -5.535   2.804   1.452  1.00  0.00     0.281 C 
HETATM   21  O7  UNL     1      -4.777   3.448   2.208  1.00  0.00    -0.263 OA
BRANCH  20  22
HETATM   22  O8  UNL     1      -6.884   2.782   1.719  1.00  0.00    -0.325 OA
HETATM   23  C27 UNL     1      -7.402   3.472   2.830  1.00  0.00     0.213 C 
ENDBRANCH  20  22
ENDBRANCH  12  20
ENDBRANCH  10  12
ENDBRANCH   5   8
ENDBRANCH   1   5
BRANCH   3  24
HETATM   24  C5  UNL     1       1.323  -0.660   2.593  1.00  0.00     0.221 C 
HETATM   25  C6  UNL     1       1.709   0.037   3.835  1.00  0.00     0.050 C 
BRANCH  24  26
HETATM   26  O2  UNL     1       2.446  -1.267   1.998  1.00  0.00    -0.289 OA
BRANCH  26  27
HETATM   27  C7  UNL     1       2.623  -2.590   1.670  1.00  0.00     0.363 C 
HETATM   28  O3  UNL     1       1.634  -3.364   1.948  1.00  0.00    -0.238 OA
HETATM   29  N2  UNL     1       3.795  -3.077   1.064  1.00  0.00    -0.326 N 
HETATM   30  C8  UNL     1       4.097  -4.397   0.608  1.00  0.00     0.130 C 
HETATM   31  C16 UNL     1       4.973  -2.298   0.789  1.00  0.00     0.153 C 
HETATM   32  C9  UNL     1       4.898  -4.115  -0.690  1.00  0.00     0.047 C 
HETATM   33  C10 UNL     1       5.091  -2.625  -0.730  1.00  0.00     0.106 C 
BRANCH  33  34
HETATM   34  N3  UNL     1       6.380  -2.193  -1.201  1.00  0.00    -0.331 N 
HETATM   35  C11 UNL     1       6.585  -0.958  -1.875  1.00  0.00     0.361 C 
HETATM   36  O4  UNL     1       5.613  -0.177  -2.085  1.00  0.00    -0.238 OA
ATOM     37  H3  UNL     1       7.184  -2.801  -1.044  1.00  0.00     0.165 HD
BRANCH  35  38
HETATM   38  O5  UNL     1       7.805  -0.549  -2.319  1.00  0.00    -0.294 OA
BRANCH  38  39
HETATM   39  C12 UNL     1       8.162   0.631  -2.961  1.00  0.00     0.061 C 
HETATM   40  C13 UNL     1       9.670   0.508  -3.251  1.00  0.00     0.046 C 
HETATM   41  C14 UNL     1       7.468   0.947  -4.231  1.00  0.00     0.046 C 
HETATM   42  C15 UNL     1       8.003   1.834  -2.013  1.00  0.00     0.046 C 
ENDBRANCH  38  39
ENDBRANCH  35  38
ENDBRANCH  33  34
ENDBRANCH  26  27
ENDBRANCH  24  26
ENDBRANCH   3  24
TORSDOF 16
