REMARK  12 active torsions:
REMARK  status: ('A' for Active; 'I' for Inactive)
REMARK    1  A    between atoms: C2_2  and  C3_3 
REMARK    2  A    between atoms: C3_3  and  C4_4 
REMARK    3  A    between atoms: C4_4  and  C5_5 
REMARK    4  A    between atoms: C5_5  and  N1_6 
REMARK    5  A    between atoms: C5_5  and  C19_27 
REMARK       I    between atoms: N1_6  and  C6_8 
REMARK    6  A    between atoms: C6_8  and  C7_10 
REMARK    7  A    between atoms: C11_15  and  C12_16 
REMARK    8  A    between atoms: C12_16  and  C13_18 
REMARK       I    between atoms: C13_18  and  N2_20 
REMARK    9  A    between atoms: N2_20  and  C14_22 
REMARK   10  A    between atoms: C19_27  and  C20_29 
REMARK       I    between atoms: C20_29  and  N3_31 
REMARK   11  A    between atoms: N3_31  and  C21_33 
REMARK   12  A    between atoms: C21_33  and  C22_34 
ROOT
HETATM    1  C5  UNL     1      -1.209  -0.558  -0.581  1.00  0.00     0.165 C 
ENDROOT
BRANCH   1   2
HETATM    2  C4  UNL     1      -0.966   0.680  -1.331  1.00  0.00     0.043 C 
BRANCH   2   3
HETATM    3  C3  UNL     1      -1.779   1.886  -1.273  1.00  0.00    -0.038 C 
HETATM    4  C26 UNL     1      -1.701   2.583   0.090  1.00  0.00     0.010 C 
HETATM    5  C27 UNL     1      -2.075   4.000  -0.250  1.00  0.00     0.001 C 
HETATM    6  C28 UNL     1      -1.630   4.230  -1.665  1.00  0.00     0.001 C 
HETATM    7  C29 UNL     1      -1.011   2.951  -2.118  1.00  0.00     0.010 C 
BRANCH   3   8
HETATM    8  C2  UNL     1      -3.200   1.868  -1.676  1.00  0.00     0.005 C 
HETATM    9  C1  UNL     1      -3.448   1.430  -3.105  1.00  0.00     0.006 C 
ENDBRANCH   3   8
ENDBRANCH   2   3
ENDBRANCH   1   2
BRANCH   1  10
HETATM   10  N1  UNL     1      -0.065  -1.503  -0.954  1.00  0.00    -0.349 N 
HETATM   11  C6  UNL     1       0.714  -2.110   0.028  1.00  0.00     0.224 C 
HETATM   12  O1  UNL     1       0.397  -1.844   1.247  1.00  0.00    -0.273 OA
ATOM     13  H1  UNL     1       0.130  -1.691  -1.937  1.00  0.00     0.163 HD
BRANCH  11  14
HETATM   14  C7  UNL     1       1.824  -2.990  -0.227  1.00  0.00     0.100 C 
HETATM   15  C8  UNL     1       1.443  -4.017  -1.303  1.00  0.00     0.089 C 
HETATM   16  S1  UNL     1       2.068  -3.176  -2.786  1.00  0.00    -0.163 SA
HETATM   17  C9  UNL     1       3.211  -2.004  -1.959  1.00  0.00     0.056 C 
HETATM   18  C10 UNL     1       2.921  -0.582  -2.226  1.00  0.00     0.022 C 
HETATM   19  C11 UNL     1       3.157  -2.461  -0.547  1.00  0.00     0.092 C 
BRANCH  19  20
HETATM   20  C12 UNL     1       3.675  -1.561   0.465  1.00  0.00     0.222 C 
HETATM   21  O2  UNL     1       3.080  -1.262   1.547  1.00  0.00    -0.287 OA
BRANCH  20  22
HETATM   22  C13 UNL     1       4.983  -0.923   0.274  1.00  0.00     0.288 C 
HETATM   23  O3  UNL     1       5.612  -1.156  -0.776  1.00  0.00    -0.264 OA
HETATM   24  N2  UNL     1       5.567  -0.059   1.218  1.00  0.00    -0.350 N 
ATOM     25  H2  UNL     1       5.044   0.118   2.076  1.00  0.00     0.163 HD
BRANCH  24  26
HETATM   26  C14 UNL     1       6.828   0.590   1.076  1.00  0.00     0.084 C 
HETATM   27  C15 UNL     1       7.901  -0.044   1.953  1.00  0.00     0.025 C 
HETATM   28  C16 UNL     1       8.897   1.088   2.207  1.00  0.00     0.002 C 
HETATM   29  C17 UNL     1       8.018   2.284   2.356  1.00  0.00     0.002 C 
HETATM   30  C18 UNL     1       6.862   2.034   1.429  1.00  0.00     0.025 C 
ENDBRANCH  24  26
ENDBRANCH  20  22
ENDBRANCH  19  20
ENDBRANCH  11  14
ENDBRANCH   1  10
BRANCH   1  31
HETATM   31  C19 UNL     1      -2.442  -1.260  -0.921  1.00  0.00     0.239 C 
HETATM   32  O4  UNL     1      -2.585  -1.914  -2.011  1.00  0.00    -0.285 OA
BRANCH  31  33
HETATM   33  C20 UNL     1      -3.635  -1.285  -0.027  1.00  0.00     0.293 C 
HETATM   34  O5  UNL     1      -3.458  -0.639   1.029  1.00  0.00    -0.264 OA
HETATM   35  N3  UNL     1      -4.773  -1.978  -0.411  1.00  0.00    -0.332 N 
ATOM     36  H3  UNL     1      -4.693  -2.452  -1.311  1.00  0.00     0.168 HD
BRANCH  35  37
HETATM   37  C21 UNL     1      -5.999  -2.140   0.212  1.00  0.00     0.096 C 
BRANCH  37  38
HETATM   38  C22 UNL     1      -6.963  -1.061   0.434  1.00  0.00     0.159 C 
HETATM   39  C23 UNL     1      -6.643  -0.059   1.483  1.00  0.00     0.039 C 
HETATM   40  C24 UNL     1      -6.639  -0.954   2.733  1.00  0.00     0.029 C 
HETATM   41  C25 UNL     1      -7.731  -1.947   2.352  1.00  0.00     0.168 C 
HETATM   42  O6  UNL     1      -8.151  -1.617   1.062  1.00  0.00    -0.381 OA
ENDBRANCH  37  38
ENDBRANCH  35  37
ENDBRANCH  31  33
ENDBRANCH   1  31
TORSDOF 12
