REMARK  14 active torsions:
REMARK  status: ('A' for Active; 'I' for Inactive)
REMARK    1  A    between atoms: C2_2  and  C3_3 
REMARK    2  A    between atoms: C3_3  and  C4_4 
REMARK    3  A    between atoms: C4_4  and  C5_5 
REMARK    4  A    between atoms: C4_4  and  C24_37 
REMARK       I    between atoms: C5_5  and  N1_7 
REMARK    5  A    between atoms: N1_7  and  C6_9 
REMARK    6  A    between atoms: C6_9  and  C7_10 
REMARK    7  A    between atoms: C6_9  and  C11_18 
REMARK    8  A    between atoms: C7_10  and  C8_11 
REMARK       I    between atoms: C11_18  and  N4_20 
REMARK    9  A    between atoms: C15_25  and  C16_26 
REMARK       I    between atoms: C16_26  and  N5_28 
REMARK   10  A    between atoms: N5_28  and  C17_30 
REMARK   11  A    between atoms: C17_30  and  C18_31 
REMARK   12  A    between atoms: C17_30  and  C21_34 
REMARK   13  A    between atoms: C24_37  and  O5_39 
REMARK   14  A    between atoms: O5_39  and  C25_40 
ROOT
HETATM    1  C6  UNL     1       1.136  -1.402  -1.449  1.00  0.00     0.183 C 
ENDROOT
BRANCH   1   2
HETATM    2  N1  UNL     1       2.005  -1.851  -0.369  1.00  0.00    -0.347 N 
HETATM    3  C5  UNL     1       2.978  -1.000   0.203  1.00  0.00     0.232 C 
HETATM    4  O1  UNL     1       3.044   0.174  -0.290  1.00  0.00    -0.273 OA
ATOM      5  H1  UNL     1       1.909  -2.803  -0.017  1.00  0.00     0.163 HD
BRANCH   3   6
HETATM    6  C4  UNL     1       3.899  -1.358   1.296  1.00  0.00     0.180 C 
BRANCH   6   7
HETATM    7  C3  UNL     1       4.853  -2.408   0.828  1.00  0.00     0.050 C 
BRANCH   7   8
HETATM    8  C2  UNL     1       5.827  -2.819   1.875  1.00  0.00    -0.036 C 
HETATM    9  C1  UNL     1       5.903  -4.058   2.342  1.00  0.00     0.007 C 
ENDBRANCH   7   8
ENDBRANCH   6   7
BRANCH   6  10
HETATM   10  C24 UNL     1       4.606  -0.170   1.820  1.00  0.00     0.273 C 
HETATM   11  O4  UNL     1       4.558   0.155   3.014  1.00  0.00    -0.264 OA
BRANCH  10  12
HETATM   12  O5  UNL     1       5.361   0.636   0.951  1.00  0.00    -0.311 OA
BRANCH  12  13
HETATM   13  C25 UNL     1       6.000   1.786   1.511  1.00  0.00     0.060 C 
HETATM   14  C26 UNL     1       6.760   2.556   0.470  1.00  0.00     0.045 C 
HETATM   15  C27 UNL     1       6.986   1.357   2.573  1.00  0.00     0.045 C 
HETATM   16  C28 UNL     1       4.948   2.700   2.121  1.00  0.00     0.045 C 
ENDBRANCH  12  13
ENDBRANCH  10  12
ENDBRANCH   6  10
ENDBRANCH   3   6
ENDBRANCH   1   2
BRANCH   1  17
HETATM   17  C7  UNL     1       1.081  -2.399  -2.563  1.00  0.00     0.093 C 
BRANCH  17  18
HETATM   18  C8  UNL     1       2.374  -2.700  -3.197  1.00  0.00     0.028 A 
HETATM   19  C9  UNL     1       2.923  -2.054  -4.283  1.00  0.00     0.114 A 
HETATM   20  N2  UNL     1       4.108  -2.642  -4.536  1.00  0.00    -0.360 N 
HETATM   21  C10 UNL     1       4.277  -3.607  -3.642  1.00  0.00     0.180 A 
ATOM     22  H2  UNL     1       4.758  -2.391  -5.281  1.00  0.00     0.166 HD
HETATM   23  N3  UNL     1       3.211  -3.671  -2.790  1.00  0.00    -0.354 N 
ATOM     24  H3  UNL     1       3.078  -4.317  -2.012  1.00  0.00     0.166 HD
ENDBRANCH  17  18
ENDBRANCH   1  17
BRANCH   1  25
HETATM   25  C11 UNL     1      -0.281  -1.301  -0.930  1.00  0.00     0.253 C 
HETATM   26  O2  UNL     1      -0.493  -1.857   0.193  1.00  0.00    -0.270 OA
HETATM   27  N4  UNL     1      -1.287  -0.627  -1.657  1.00  0.00    -0.274 N 
HETATM   28  S1  UNL     1      -1.127   0.218  -3.244  1.00  0.00    -0.038 SA
HETATM   29  C15 UNL     1      -2.678  -0.251  -1.653  1.00  0.00     0.211 C 
HETATM   30  C12 UNL     1      -2.486   1.053  -2.404  1.00  0.00     0.051 C 
HETATM   31  C13 UNL     1      -2.013   2.188  -1.540  1.00  0.00     0.031 C 
HETATM   32  C14 UNL     1      -3.583   1.411  -3.379  1.00  0.00     0.031 C 
BRANCH  29  33
HETATM   33  C16 UNL     1      -3.369  -0.165  -0.381  1.00  0.00     0.243 C 
HETATM   34  O3  UNL     1      -2.861  -0.592   0.672  1.00  0.00    -0.271 OA
HETATM   35  N5  UNL     1      -4.681   0.411  -0.223  1.00  0.00    -0.354 N 
ATOM     36  H5  UNL     1      -5.158   0.791  -1.040  1.00  0.00     0.162 HD
BRANCH  35  37
HETATM   37  C17 UNL     1      -5.334   0.463   1.057  1.00  0.00     0.091 C 
BRANCH  37  38
HETATM   38  C18 UNL     1      -5.234   1.854   1.605  1.00  0.00     0.001 C 
HETATM   39  C19 UNL     1      -5.878   2.025   2.949  1.00  0.00     0.011 C 
HETATM   40  C20 UNL     1      -5.698   2.955   0.722  1.00  0.00     0.011 C 
ENDBRANCH  37  38
BRANCH  37  41
HETATM   41  C21 UNL     1      -6.681  -0.116   0.930  1.00  0.00     0.001 C 
HETATM   42  C22 UNL     1      -7.594   0.593  -0.028  1.00  0.00     0.011 C 
HETATM   43  C23 UNL     1      -7.394  -0.484   2.189  1.00  0.00     0.011 C 
ENDBRANCH  37  41
ENDBRANCH  35  37
ENDBRANCH  29  33
ENDBRANCH   1  25
TORSDOF 14
