REMARK  15 active torsions:
REMARK  status: ('A' for Active; 'I' for Inactive)
REMARK    1  A    between atoms: C2_2  and  O1_3 
REMARK    2  A    between atoms: O1_3  and  C3_4 
REMARK    3  A    between atoms: C3_4  and  C4_6 
REMARK    4  A    between atoms: C4_6  and  N1_7 
REMARK    5  A    between atoms: N1_7  and  N2_9 
REMARK    6  A    between atoms: N2_9  and  C5_11 
REMARK    7  A    between atoms: C6_14  and  N4_15 
REMARK    8  A    between atoms: C7_20  and  C8_21 
REMARK    9  A    between atoms: C8_21  and  N7_22 
REMARK   10  A    between atoms: N7_22  and  C9_24 
REMARK   11  A    between atoms: C10_27  and  C11_28 
REMARK   12  A    between atoms: C14_36  and  O3_37 
REMARK   13  A    between atoms: C15_39  and  N11_40 
REMARK   14  A    between atoms: C16_45  and  N13_46 
REMARK   15  A    between atoms: N13_46  and  C17_48 
ROOT
HETATM    1  C5  UNL     1      -2.123   0.860   0.943  1.00  0.00     0.712 C 
HETATM    2  N3  UNL     1      -0.759   0.855   1.031  1.00  0.00    -0.169 N 
ATOM      3  H3  UNL     1      -0.351   1.459   1.745  1.00  0.00     0.186 HD
HETATM    4  C6  UNL     1       0.123   0.135   0.274  1.00  0.00     0.190 C 
HETATM    5  C15 UNL     1      -0.185  -0.430  -0.945  1.00  0.00     0.161 C 
HETATM    6  N12 UNL     1      -1.388  -0.946  -1.351  1.00  0.00    -0.173 N 
ATOM      7  H12 UNL     1      -1.386  -1.407  -2.261  1.00  0.00     0.186 HD
HETATM    8  C16 UNL     1      -2.572  -0.927  -0.711  1.00  0.00     0.695 C 
HETATM    9  N14 UNL     1      -2.894   0.049   0.199  1.00  0.00    -0.021 N 
ATOM     10  H14 UNL     1      -3.896   0.182   0.334  1.00  0.00     0.203 HD
ENDROOT
BRANCH   4  11
HETATM   11  N4  UNL     1       1.435  -0.037   0.790  1.00  0.00    -0.197 N 
HETATM   12  N5  UNL     1       2.243  -1.083   0.764  1.00  0.00    -0.232 N 
HETATM   13  N6  UNL     1       3.388  -0.846   1.367  1.00  0.00    -0.284 N 
ATOM     14  H5  UNL     1       2.006  -1.973   0.326  1.00  0.00     0.209 HD
HETATM   15  C7  UNL     1       3.348   0.410   1.817  1.00  0.00     0.097 A 
ATOM     16  H6  UNL     1       4.163  -1.501   1.471  1.00  0.00     0.188 HD
HETATM   17  C14 UNL     1       2.099   0.919   1.444  1.00  0.00     0.191 A 
BRANCH  15  18
HETATM   18  C8  UNL     1       4.414   1.094   2.557  1.00  0.00     0.184 C 
BRANCH  18  19
HETATM   19  N7  UNL     1       5.533   0.195   2.722  1.00  0.00    -0.373 N 
ATOM     20  H7  UNL     1       5.816  -0.069   3.666  1.00  0.00     0.161 HD
BRANCH  19  21
HETATM   21  C9  UNL     1       6.254  -0.334   1.619  1.00  0.00     0.083 C 
HETATM   22  N8  UNL     1       6.591   0.458   0.686  1.00  0.00    -0.367 N 
HETATM   23  C10 UNL     1       7.321   0.068  -0.488  1.00  0.00     0.156 C 
ATOM     24  H8  UNL     1       6.325   1.439   0.776  1.00  0.00     0.161 HD
HETATM   25  C12 UNL     1       6.654  -1.083  -1.251  1.00  0.00     0.107 C 
HETATM   26  S1  UNL     1       6.581  -2.467  -0.073  1.00  0.00    -0.159 SA
HETATM   27  C13 UNL     1       6.591  -1.744   1.580  1.00  0.00     0.149 C 
BRANCH  23  28
HETATM   28  C11 UNL     1       8.731  -0.263  -0.198  1.00  0.00     0.110 C 
HETATM   29  N9  UNL     1       9.242  -1.428  -0.464  1.00  0.00    -0.389 N 
ATOM     30  H92 UNL     1       8.651  -2.145  -0.885  1.00  0.00     0.157 HD
ATOM     31  H91 UNL     1      10.216  -1.657  -0.264  1.00  0.00     0.157 HD
HETATM   32  N10 UNL     1       9.554   0.735   0.388  1.00  0.00    -0.086 NA
ENDBRANCH  23  28
ENDBRANCH  19  21
ENDBRANCH  18  19
ENDBRANCH  15  18
BRANCH  17  33
HETATM   33  O3  UNL     1       1.667   2.199   1.727  1.00  0.00    -0.343 OA
ATOM     34  H3  UNL     1       2.139   2.879   2.192  1.00  0.00     0.219 HD
ENDBRANCH  17  33
ENDBRANCH   4  11
BRANCH   5  35
HETATM   35  N11 UNL     1       0.774  -0.468  -1.781  1.00  0.00    -0.382 N 
ATOM     36 2H11 UNL     1       1.669  -0.084  -1.479  1.00  0.00     0.157 HD
ATOM     37 1H11 UNL     1       0.546  -0.886  -2.683  1.00  0.00     0.157 HD
ENDBRANCH   5  35
BRANCH   1  38
HETATM   38  N2  UNL     1      -2.710   1.754   1.667  1.00  0.00    -0.135 N 
ATOM     39  H2  UNL     1      -2.138   2.376   2.238  1.00  0.00     0.205 HD
BRANCH  38  40
HETATM   40  N1  UNL     1      -4.097   1.900   1.697  1.00  0.00    -0.313 N 
ATOM     41  H1  UNL     1      -4.646   1.274   2.286  1.00  0.00     0.181 HD
BRANCH  40  42
HETATM   42  C4  UNL     1      -4.786   2.913   0.918  1.00  0.00     0.251 C 
BRANCH  42  43
HETATM   43  C3  UNL     1      -6.245   2.800   1.178  1.00  0.00     0.278 C 
HETATM   44  O2  UNL     1      -6.687   1.920   1.974  1.00  0.00    -0.263 OA
BRANCH  43  45
HETATM   45  O1  UNL     1      -7.168   3.639   0.571  1.00  0.00    -0.321 OA
BRANCH  45  46
HETATM   46  C2  UNL     1      -8.529   3.473   0.866  1.00  0.00     0.174 C 
HETATM   47  C1  UNL     1      -9.399   4.466   0.120  1.00  0.00     0.034 C 
ENDBRANCH  45  46
ENDBRANCH  43  45
ENDBRANCH  42  43
ENDBRANCH  40  42
ENDBRANCH  38  40
ENDBRANCH   1  38
BRANCH   8  48
HETATM   48  N13 UNL     1      -3.457  -1.810  -0.912  1.00  0.00    -0.217 N 
ATOM     49  H13 UNL     1      -4.302  -1.670  -0.358  1.00  0.00     0.178 HD
BRANCH  48  50
HETATM   50  C17 UNL     1      -3.515  -2.946  -1.743  1.00  0.00     0.036 C 
HETATM   51  C18 UNL     1      -3.553  -2.630  -3.218  1.00  0.00     0.038 C 
HETATM   52  C19 UNL     1      -2.304  -3.813  -1.477  1.00  0.00     0.038 C 
HETATM   53  C20 UNL     1      -4.723  -3.828  -1.426  1.00  0.00     0.038 C 
ENDBRANCH  48  50
ENDBRANCH   8  48
TORSDOF 15
