REMARK  14 active torsions:
REMARK  status: ('A' for Active; 'I' for Inactive)
REMARK    1  A    between atoms: N1_1  and  C1_4 
REMARK    2  A    between atoms: C2_5  and  C3_6 
REMARK    3  A    between atoms: C6_9  and  O1_10 
REMARK    4  A    between atoms: N2_15  and  C10_16 
REMARK    5  A    between atoms: C16_24  and  C17_25 
REMARK       I    between atoms: C17_25  and  N4_27 
REMARK    6  A    between atoms: N4_27  and  C18_29 
REMARK    7  A    between atoms: C19_31  and  O4_32 
REMARK    8  A    between atoms: C19_31  and  C20_34 
REMARK    9  A    between atoms: C20_34  and  O5_35 
REMARK   10  A    between atoms: C21_38  and  C22_39 
REMARK   11  A    between atoms: C22_39  and  O7_40 
REMARK   12  A    between atoms: C22_39  and  C23_42 
REMARK   13  A    between atoms: C23_42  and  C24_47 
REMARK   14  A    between atoms: N5_43  and  O8_45 
ROOT
HETATM    1  C17 UNL     1       0.692  -0.757  -0.261  1.00  0.00     0.274 C 
HETATM    2  O2  UNL     1       1.210  -1.899   0.073  1.00  0.00    -0.266 OA
HETATM    3  N4  UNL     1       1.612   0.181  -0.708  1.00  0.00    -0.327 N 
ATOM      4  H4  UNL     1       1.289   1.107  -0.990  1.00  0.00     0.165 HD
ENDROOT
BRANCH   1   5
HETATM    5  C16 UNL     1      -0.744  -0.603  -0.129  1.00  0.00     0.143 A 
HETATM    6  C1  UNL     1      -1.493   0.502  -0.483  1.00  0.00     0.072 A 
HETATM    7  C2  UNL     1      -2.865   0.553  -0.303  1.00  0.00     0.020 A 
HETATM    8  C9  UNL     1      -3.483  -0.565   0.252  1.00  0.00     0.131 A 
HETATM    9  N2  UNL     1      -2.738  -1.620   0.584  1.00  0.00    -0.266 N 
HETATM   10  N3  UNL     1      -1.452  -1.658   0.414  1.00  0.00    -0.287 N 
ATOM     11  H3  UNL     1      -0.945  -2.498   0.692  1.00  0.00     0.188 HD
BRANCH   6  12
HETATM   12  N1  UNL     1      -0.907   1.473  -1.025  1.00  0.00    -0.396 N 
ATOM     13  H12 UNL     1      -1.460   2.289  -1.286  1.00  0.00     0.156 HD
ATOM     14  H11 UNL     1       0.104   1.435  -1.158  1.00  0.00     0.156 HD
ENDBRANCH   6  12
BRANCH   7  15
HETATM   15  C3  UNL     1      -3.677   1.709  -0.618  1.00  0.00    -0.022 A 
HETATM   16  C4  UNL     1      -3.389   2.922  -0.041  1.00  0.00     0.015 A 
HETATM   17  C5  UNL     1      -4.140   4.046  -0.317  1.00  0.00     0.037 A 
HETATM   18  C6  UNL     1      -5.208   3.986  -1.185  1.00  0.00     0.065 A 
HETATM   19  C7  UNL     1      -5.489   2.771  -1.758  1.00  0.00     0.037 A 
HETATM   20  C8  UNL     1      -4.755   1.632  -1.500  1.00  0.00     0.015 A 
BRANCH  18  21
HETATM   21  O1  UNL     1      -5.948   5.108  -1.454  1.00  0.00    -0.361 OA
ATOM     22  H1  UNL     1      -6.685   5.067  -2.053  1.00  0.00     0.217 HD
ENDBRANCH  18  21
ENDBRANCH   7  15
BRANCH   9  23
HETATM   23  C10 UNL     1      -3.403  -2.753   1.152  1.00  0.00     0.056 A 
HETATM   24  C11 UNL     1      -4.030  -2.705   2.368  1.00  0.00     0.031 A 
HETATM   25  C12 UNL     1      -4.647  -3.835   2.847  1.00  0.00     0.002 A 
HETATM   26  C13 UNL     1      -4.651  -5.004   2.143  1.00  0.00     0.000 A 
HETATM   27  C14 UNL     1      -4.014  -5.032   0.919  1.00  0.00     0.002 A 
HETATM   28  C15 UNL     1      -3.392  -3.915   0.422  1.00  0.00     0.031 A 
ENDBRANCH   9  23
ENDBRANCH   1   5
BRANCH   3  29
HETATM   29  C18 UNL     1       3.048  -0.141  -0.781  1.00  0.00     0.262 C 
HETATM   30  O3  UNL     1       3.494  -0.012  -2.103  1.00  0.00    -0.303 OA
HETATM   31  C19 UNL     1       4.533   0.884  -2.103  1.00  0.00     0.305 C 
HETATM   32  O6  UNL     1       4.983   0.995  -0.789  1.00  0.00    -0.318 OA
HETATM   33  C21 UNL     1       3.782   0.974  -0.086  1.00  0.00     0.211 C 
BRANCH  31  34
HETATM   34  O4  UNL     1       4.140   2.165  -2.500  1.00  0.00    -0.342 OA
ATOM     35  H4  UNL     1       4.859   2.785  -2.500  1.00  0.00     0.215 HD
ENDBRANCH  31  34
BRANCH  31  36
HETATM   36  C20 UNL     1       5.649   0.451  -3.034  1.00  0.00     0.266 C 
BRANCH  36  37
HETATM   37  O5  UNL     1       5.173   0.347  -4.339  1.00  0.00    -0.393 OA
ATOM     38  H5  UNL     1       5.872   0.076  -4.922  1.00  0.00     0.209 HD
ENDBRANCH  36  37
ENDBRANCH  31  36
BRANCH  33  39
HETATM   39  C22 UNL     1       3.918   0.814   1.387  1.00  0.00     0.210 C 
BRANCH  39  40
HETATM   40  O7  UNL     1       4.693   1.884   1.850  1.00  0.00    -0.386 OA
ATOM     41  H7  UNL     1       4.780   1.782   2.790  1.00  0.00     0.210 HD
ENDBRANCH  39  40
BRANCH  39  42
HETATM   42  C23 UNL     1       4.337  -0.492   1.878  1.00  0.00     0.139 C 
HETATM   43  N5  UNL     1       3.508  -1.141   2.666  1.00  0.00    -0.264 N 
ATOM     44  H5  UNL     1       3.769  -2.058   3.028  1.00  0.00     0.194 HD
BRANCH  43  45
HETATM   45  O8  UNL     1       2.297  -0.598   3.006  1.00  0.00    -0.289 OA
ATOM     46  H8  UNL     1       1.698  -1.067   3.575  1.00  0.00     0.244 HD
ENDBRANCH  43  45
BRANCH  42  47
HETATM   47  C24 UNL     1       5.583  -1.172   1.598  1.00  0.00     0.227 C 
HETATM   48  O9  UNL     1       6.488  -0.702   0.873  1.00  0.00    -0.643 OA
HETATM   49  O10 UNL     1       5.825  -2.418   2.148  1.00  0.00    -0.643 OA
ENDBRANCH  42  47
ENDBRANCH  39  42
ENDBRANCH  33  39
ENDBRANCH   3  29
TORSDOF 14
