REMARK  13 active torsions:
REMARK  status: ('A' for Active; 'I' for Inactive)
REMARK    1  A    between atoms: C4_4  and  C5_5 
REMARK    2  A    between atoms: C5_5  and  O1_6 
REMARK    3  A    between atoms: C5_5  and  N1_8 
REMARK    4  A    between atoms: N1_8  and  C6_10 
REMARK    5  A    between atoms: C7_13  and  C8_14 
REMARK    6  A    between atoms: N4_22  and  O2_23 
REMARK    7  A    between atoms: C14_25  and  O3_26 
REMARK    8  A    between atoms: O3_26  and  O4_27 
REMARK    9  A    between atoms: C15_31  and  N6_32 
REMARK   10  A    between atoms: N6_32  and  N7_33 
REMARK   11  A    between atoms: C16_35  and  C17_36 
REMARK   12  A    between atoms: N9_40  and  C20_41 
REMARK   13  A    between atoms: C20_41  and  C21_42 
ROOT
HETATM    1  C5  UNL     1      -2.022  -0.552  -0.847  1.00  0.00     0.245 C 
ENDROOT
BRANCH   1   2
HETATM    2  C4  UNL     1      -0.666  -0.604  -0.186  1.00  0.00     0.155 C 
HETATM    3  C3  UNL     1      -0.551  -1.805   0.652  1.00  0.00     0.034 C 
HETATM    4  C2  UNL     1       0.467  -2.641   0.548  1.00  0.00     0.046 C 
HETATM    5  C1  UNL     1       0.546  -3.829   1.406  1.00  0.00     0.076 C 
HETATM    6  O7  UNL     1       1.431  -2.375  -0.363  1.00  0.00    -0.301 OA
HETATM    7  C15 UNL     1       1.581  -1.095  -1.024  1.00  0.00     0.435 C 
HETATM    8  N5  UNL     1       0.307  -0.488  -1.232  1.00  0.00    -0.357 N 
ATOM      9  H5  UNL     1       0.096   0.012  -2.096  1.00  0.00     0.159 HD
BRANCH   7  10
HETATM   10  N6  UNL     1       2.514  -0.305  -0.438  1.00  0.00    -0.315 NA
BRANCH  10  11
HETATM   11  N7  UNL     1       3.428   0.469   0.135  1.00  0.00    -0.251 N 
HETATM   12  C16 UNL     1       3.922   0.464   1.295  1.00  0.00     0.099 C 
ATOM     13  H7  UNL     1       3.797   1.200  -0.473  1.00  0.00     0.200 HD
BRANCH  12  14
HETATM   14  C17 UNL     1       4.980   1.549   1.553  1.00  0.00     0.038 A 
HETATM   15  C18 UNL     1       5.867   1.745   0.455  1.00  0.00     0.017 A 
HETATM   16  C19 UNL     1       7.000   2.637   0.172  1.00  0.00     0.134 C 
HETATM   17  C23 UNL     1       6.291   1.115   1.825  1.00  0.00     0.015 A 
HETATM   18  N8  UNL     1       8.171   1.735   0.207  1.00  0.00    -0.164 NA
HETATM   19  N9  UNL     1       7.771   0.378   0.179  1.00  0.00    -0.224 NA
HETATM   20  C22 UNL     1       7.093  -0.028   1.415  1.00  0.00     0.115 C 
BRANCH  19  21
HETATM   21  C20 UNL     1       9.007  -0.386   0.126  1.00  0.00     0.222 C 
BRANCH  21  22
HETATM   22  C21 UNL     1       9.801  -0.139  -1.092  1.00  0.00     0.187 C 
HETATM   23  O5  UNL     1      10.888  -0.742  -1.244  1.00  0.00    -0.647 OA
HETATM   24  O6  UNL     1       9.420   0.723  -2.087  1.00  0.00    -0.647 OA
ENDBRANCH  21  22
ENDBRANCH  19  21
ENDBRANCH  12  14
ENDBRANCH  10  11
ENDBRANCH   7  10
ENDBRANCH   1   2
BRANCH   1  25
HETATM   25  O1  UNL     1      -2.142  -1.611  -1.762  1.00  0.00    -0.374 OA
ATOM     26  H1  UNL     1      -2.995  -1.578  -2.178  1.00  0.00     0.212 HD
ENDBRANCH   1  25
BRANCH   1  27
HETATM   27  N1  UNL     1      -3.143  -0.456   0.025  1.00  0.00    -0.348 N 
ATOM     28  H1  UNL     1      -3.065  -0.764   0.994  1.00  0.00     0.163 HD
BRANCH  27  29
HETATM   29  C6  UNL     1      -4.378   0.073  -0.460  1.00  0.00     0.128 C 
HETATM   30  N2  UNL     1      -5.464   0.144   0.231  1.00  0.00    -0.350 N 
HETATM   31  C7  UNL     1      -6.641   0.706  -0.368  1.00  0.00     0.230 C 
ATOM     32  H2  UNL     1      -5.487  -0.195   1.193  1.00  0.00     0.163 HD
HETATM   33  N3  UNL     1      -6.788   0.471  -1.780  1.00  0.00    -0.302 N 
HETATM   34  N4  UNL     1      -5.681   0.030  -2.442  1.00  0.00    -0.069 NA
ATOM     35  H3  UNL     1      -7.674   0.626  -2.260  1.00  0.00     0.179 HD
HETATM   36  C14 UNL     1      -4.451   0.566  -1.855  1.00  0.00     0.348 C 
BRANCH  31  37
HETATM   37  C8  UNL     1      -7.904   0.428   0.335  1.00  0.00    -0.015 A 
HETATM   38  C9  UNL     1      -9.026   0.051  -0.424  1.00  0.00     0.011 A 
HETATM   39  C10 UNL     1     -10.249  -0.188   0.139  1.00  0.00     0.001 A 
HETATM   40  C11 UNL     1     -10.414  -0.060   1.528  1.00  0.00     0.000 A 
HETATM   41  C12 UNL     1      -9.334   0.304   2.280  1.00  0.00     0.001 A 
HETATM   42  C13 UNL     1      -8.095   0.542   1.684  1.00  0.00     0.011 A 
ENDBRANCH  31  37
BRANCH  34  43
HETATM   43  O2  UNL     1      -5.605  -1.327  -2.516  1.00  0.00    -0.291 OA
ATOM     44  H2  UNL     1      -4.834  -1.634  -2.977  1.00  0.00     0.239 HD
ENDBRANCH  34  43
BRANCH  36  45
HETATM   45  O3  UNL     1      -4.516   1.954  -1.833  1.00  0.00    -0.210 OA
BRANCH  45  46
HETATM   46  O4  UNL     1      -3.626   2.542  -2.598  1.00  0.00    -0.248 OA
ATOM     47  H4  UNL     1      -3.670   3.491  -2.583  1.00  0.00     0.253 HD
ENDBRANCH  45  46
ENDBRANCH  36  45
ENDBRANCH  27  29
ENDBRANCH   1  27
TORSDOF 13
