REMARK  14 active torsions:
REMARK  status: ('A' for Active; 'I' for Inactive)
REMARK    1  A    between atoms: S1_2  and  C2_3 
REMARK    2  A    between atoms: C3_5  and  O2_6 
REMARK    3  A    between atoms: O2_6  and  C4_7 
REMARK    4  A    between atoms: C7_11  and  N1_12 
REMARK    5  A    between atoms: C9_17  and  O4_18 
REMARK    6  A    between atoms: O4_18  and  C10_19 
REMARK    7  A    between atoms: C13_22  and  O5_24 
REMARK    8  A    between atoms: C15_26  and  C16_27 
REMARK    9  A    between atoms: C16_27  and  C17_32 
REMARK   10  A    between atoms: N2_28  and  O6_30 
REMARK   11  A    between atoms: C17_32  and  N3_33 
REMARK   12  A    between atoms: C17_32  and  O7_37 
REMARK   13  A    between atoms: C18_40  and  N4_41 
REMARK   14  A    between atoms: C21_46  and  O9_47 
ROOT
HETATM    1  C4  UNL     1      -1.177  -1.606  -0.678  1.00  0.00     0.292 C 
HETATM    2  O3  UNL     1      -0.941  -2.937  -0.416  1.00  0.00    -0.352 OA
HETATM    3  C5  UNL     1      -1.045  -3.321   0.886  1.00  0.00     0.151 C 
HETATM    4  C6  UNL     1       0.278  -3.998   1.272  1.00  0.00     0.042 C 
HETATM    5  C7  UNL     1      -1.360  -2.269   1.885  1.00  0.00     0.214 C 
HETATM    6  C8  UNL     1      -0.551  -1.049   1.620  1.00  0.00     0.072 C 
HETATM    7  C9  UNL     1      -0.287  -0.753   0.170  1.00  0.00     0.182 C 
ENDROOT
BRANCH   7   8
HETATM    8  O4  UNL     1       1.048  -0.863  -0.070  1.00  0.00    -0.351 OA
BRANCH   8   9
HETATM    9  C10 UNL     1       1.727   0.260  -0.445  1.00  0.00     0.261 C 
HETATM   10  C11 UNL     1       2.459   0.114  -1.760  1.00  0.00     0.064 C 
HETATM   11  C12 UNL     1       3.764  -0.627  -1.597  1.00  0.00     0.045 C 
HETATM   12  C13 UNL     1       4.689   0.293  -0.807  1.00  0.00     0.086 C 
HETATM   13  C14 UNL     1       5.337   1.190  -1.837  1.00  0.00     0.049 C 
HETATM   14  C15 UNL     1       3.841   1.103   0.094  1.00  0.00     0.210 C 
HETATM   15  O8  UNL     1       2.692   0.501   0.534  1.00  0.00    -0.347 OA
BRANCH  12  16
HETATM   16  O5  UNL     1       5.651  -0.493  -0.178  1.00  0.00    -0.387 OA
ATOM     17  H5  UNL     1       6.227   0.080   0.314  1.00  0.00     0.210 HD
ENDBRANCH  12  16
BRANCH  14  18
HETATM   18  C16 UNL     1       4.584   1.622   1.272  1.00  0.00     0.097 C 
HETATM   19  N2  UNL     1       4.295   1.273   2.478  1.00  0.00    -0.270 N 
ATOM     20  H2  UNL     1       4.843   1.663   3.245  1.00  0.00     0.193 HD
BRANCH  19  21
HETATM   21  O6  UNL     1       3.302   0.416   2.767  1.00  0.00    -0.290 OA
ATOM     22  H6  UNL     1       3.089   0.159   3.656  1.00  0.00     0.244 HD
ENDBRANCH  19  21
BRANCH  18  23
HETATM   23  C17 UNL     1       5.730   2.580   1.148  1.00  0.00     0.367 C 
BRANCH  23  24
HETATM   24  N3  UNL     1       6.080   3.056   2.497  1.00  0.00    -0.048 N 
ATOM     25  H33 UNL     1       5.283   3.458   2.991  1.00  0.00     0.277 HD
ATOM     26  H32 UNL     1       6.274   2.293   3.145  1.00  0.00     0.277 HD
ATOM     27  H31 UNL     1       6.860   3.708   2.413  1.00  0.00     0.277 HD
ENDBRANCH  23  24
BRANCH  23  28
HETATM   28  O7  UNL     1       6.879   1.899   0.718  1.00  0.00    -0.365 OA
ATOM     29  H7  UNL     1       7.605   2.506   0.639  1.00  0.00     0.212 HD
ENDBRANCH  23  28
ENDBRANCH  18  23
ENDBRANCH  14  18
ENDBRANCH   8   9
ENDBRANCH   7   8
BRANCH   1  30
HETATM   30  O2  UNL     1      -2.502  -1.321  -0.348  1.00  0.00    -0.327 OA
BRANCH  30  31
HETATM   31  C3  UNL     1      -3.270  -0.916  -1.413  1.00  0.00     0.289 C 
HETATM   32  O1  UNL     1      -4.408  -1.643  -1.606  1.00  0.00    -0.341 OA
HETATM   33  C2  UNL     1      -5.519  -0.867  -1.424  1.00  0.00     0.216 C 
HETATM   34  C21 UNL     1      -5.074   0.353  -0.649  1.00  0.00     0.184 C 
HETATM   35  C18 UNL     1      -3.671   0.529  -1.165  1.00  0.00     0.169 C 
BRANCH  33  36
HETATM   36  S1  UNL     1      -6.868  -1.735  -0.577  1.00  0.00    -0.139 SA
HETATM   37  C1  UNL     1      -6.440  -2.148   1.126  1.00  0.00     0.092 C 
ENDBRANCH  33  36
BRANCH  34  38
HETATM   38  O9  UNL     1      -5.882   1.441  -0.802  1.00  0.00    -0.390 OA
ATOM     39  H9  UNL     1      -5.602   2.207  -0.315  1.00  0.00     0.210 HD
ENDBRANCH  34  38
BRANCH  35  40
HETATM   40  N4  UNL     1      -3.565   1.335  -2.323  1.00  0.00    -0.370 N 
HETATM   41  C19 UNL     1      -3.437   2.577  -2.433  1.00  0.00     0.085 C 
HETATM   42  C20 UNL     1      -3.345   3.202  -3.767  1.00  0.00     0.085 C 
HETATM   43  N5  UNL     1      -3.377   3.415  -1.300  1.00  0.00    -0.088 NA
ATOM     44  H4  UNL     1      -3.598   0.826  -3.206  1.00  0.00     0.161 HD
ENDBRANCH  35  40
ENDBRANCH  30  31
ENDBRANCH   1  30
BRANCH   5  45
HETATM   45  N1  UNL     1      -0.975  -2.768   3.219  1.00  0.00    -0.072 N 
ATOM     46  H13 UNL     1      -1.407  -3.664   3.443  1.00  0.00     0.274 HD
ATOM     47  H12 UNL     1      -0.001  -3.070   3.260  1.00  0.00     0.274 HD
ATOM     48  H11 UNL     1      -1.191  -2.045   3.905  1.00  0.00     0.274 HD
ENDBRANCH   5  45
TORSDOF 14
