REMARK  13 active torsions:
REMARK  status: ('A' for Active; 'I' for Inactive)
REMARK    1  A    between atoms: C3_8  and  N4_9 
REMARK    2  A    between atoms: C4_11  and  C5_12 
REMARK    3  A    between atoms: C10_18  and  C11_19 
REMARK    4  A    between atoms: C11_19  and  C12_20 
REMARK    5  A    between atoms: C12_20  and  N5_21 
REMARK       I    between atoms: N5_21  and  C13_23 
REMARK    6  A    between atoms: C13_23  and  C14_25 
REMARK    7  A    between atoms: C14_25  and  O2_26 
REMARK    8  A    between atoms: O2_26  and  C15_27 
REMARK    9  A    between atoms: C15_27  and  C16_28 
REMARK   10  A    between atoms: C16_28  and  C17_29 
REMARK   11  A    between atoms: C17_29  and  C18_30 
REMARK   12  A    between atoms: C19_32  and  C20_33 
REMARK   13  A    between atoms: C21_34  and  C22_35 
ROOT
HETATM    1  N4  UNL     1      -2.308   2.930  -0.478  1.00  0.00    -0.350 N 
ATOM      2  H4  UNL     1      -1.620   3.678  -0.561  1.00  0.00     0.166 HD
HETATM    3  C4  UNL     1      -1.631   1.792  -0.796  1.00  0.00     0.101 C 
ENDROOT
BRANCH   3   4
HETATM    4  C5  UNL     1      -1.038   1.044   0.350  1.00  0.00    -0.014 A 
HETATM    5  C6  UNL     1      -1.155   1.558   1.628  1.00  0.00     0.016 A 
HETATM    6  C7  UNL     1      -0.631   0.907   2.722  1.00  0.00     0.043 A 
HETATM    7  C8  UNL     1       0.022  -0.275   2.549  1.00  0.00     0.117 A 
HETATM    8  F1  UNL     1       0.547  -0.931   3.621  1.00  0.00    -0.206 F 
HETATM    9  C9  UNL     1       0.161  -0.819   1.303  1.00  0.00     0.050 A 
HETATM   10  C10 UNL     1      -0.376  -0.146   0.199  1.00  0.00    -0.042 A 
BRANCH  10  11
HETATM   11  C11 UNL     1      -0.194  -0.780  -1.098  1.00  0.00     0.059 C 
BRANCH  11  12
HETATM   12  C12 UNL     1       0.927  -0.305  -1.962  1.00  0.00     0.127 C 
BRANCH  12  13
HETATM   13  N5  UNL     1       2.251  -0.465  -1.393  1.00  0.00    -0.359 N 
HETATM   14  C13 UNL     1       2.795  -1.717  -1.041  1.00  0.00     0.241 C 
HETATM   15  O1  UNL     1       2.165  -2.803  -1.192  1.00  0.00    -0.271 OA
ATOM     16  H5  UNL     1       2.817   0.370  -1.240  1.00  0.00     0.162 HD
BRANCH  14  17
HETATM   17  C14 UNL     1       4.179  -1.819  -0.459  1.00  0.00     0.270 C 
BRANCH  17  18
HETATM   18  O2  UNL     1       4.694  -0.558  -0.397  1.00  0.00    -0.382 OA
BRANCH  18  19
HETATM   19  C15 UNL     1       5.958  -0.417   0.111  1.00  0.00     0.168 C 
BRANCH  19  20
HETATM   20  C16 UNL     1       6.944  -1.173  -0.714  1.00  0.00     0.027 C 
BRANCH  20  21
HETATM   21  C17 UNL     1       8.354  -1.006  -0.182  1.00  0.00     0.013 C 
BRANCH  21  22
HETATM   22  C18 UNL     1       8.508  -1.503   1.234  1.00  0.00     0.085 C 
HETATM   23 BR1  UNL     1       8.045  -3.393   1.295  1.00  0.00    -0.097 Br
ENDBRANCH  21  22
ENDBRANCH  20  21
ENDBRANCH  19  20
ENDBRANCH  18  19
ENDBRANCH  17  18
ENDBRANCH  14  17
ENDBRANCH  12  13
ENDBRANCH  11  12
ENDBRANCH  10  11
ENDBRANCH   3   4
BRANCH   1  24
HETATM   24  C3  UNL     1      -3.342   3.488  -0.141  1.00  0.00     0.128 A 
HETATM   25  N3  UNL     1      -3.317   4.872   0.022  1.00  0.00    -0.337 N 
HETATM   26  C2  UNL     1      -4.437   5.477   0.386  1.00  0.00     0.183 A 
ATOM     27  H3  UNL     1      -2.461   5.403  -0.135  1.00  0.00     0.168 HD
HETATM   28  N2  UNL     1      -5.600   4.848   0.610  1.00  0.00    -0.340 N 
HETATM   29  C1  UNL     1      -5.651   3.531   0.462  1.00  0.00     0.139 A 
ATOM     30  H2  UNL     1      -6.429   5.372   0.889  1.00  0.00     0.167 HD
HETATM   31  N1  UNL     1      -6.871   2.789   0.687  1.00  0.00    -0.081 NA
HETATM   32  C19 UNL     1      -4.518   2.812   0.081  1.00  0.00     0.103 A 
BRANCH  32  33
HETATM   33  C20 UNL     1      -4.646   1.365  -0.047  1.00  0.00    -0.053 C 
HETATM   34  C21 UNL     1      -4.777   0.171  -0.129  1.00  0.00    -0.043 C 
BRANCH  34  35
HETATM   35  C22 UNL     1      -4.937  -1.256  -0.198  1.00  0.00     0.086 A 
HETATM   36  C23 UNL     1      -5.460  -1.893  -1.299  1.00  0.00     0.039 A 
HETATM   37  C24 UNL     1      -5.613  -3.265  -1.359  1.00  0.00     0.004 A 
HETATM   38  C25 UNL     1      -5.225  -4.015  -0.277  1.00  0.00     0.017 A 
HETATM   39  C26 UNL     1      -4.704  -3.378   0.820  1.00  0.00     0.089 A 
HETATM   40  N6  UNL     1      -4.574  -2.042   0.834  1.00  0.00    -0.359 N 
ATOM     41  H6  UNL     1      -4.182  -1.601   1.666  1.00  0.00     0.166 HD
ENDBRANCH  34  35
ENDBRANCH  32  33
ENDBRANCH   1  24
TORSDOF 13
