REMARK  13 active torsions:
REMARK  status: ('A' for Active; 'I' for Inactive)
REMARK    1  A    between atoms: S1_2  and  C2_3 
REMARK    2  A    between atoms: C7_11  and  S2_12 
REMARK    3  A    between atoms: S2_12  and  N1_15 
REMARK    4  A    between atoms: N1_15  and  C8_16 
REMARK    5  A    between atoms: N1_15  and  C13_24 
REMARK    6  A    between atoms: C8_16  and  C9_17 
REMARK    7  A    between atoms: C9_17  and  O3_18 
REMARK    8  A    between atoms: O3_18  and  C10_19 
REMARK    9  A    between atoms: C10_19  and  C12_21 
REMARK   10  A    between atoms: C13_24  and  C14_25 
REMARK   11  A    between atoms: C14_25  and  O6_26 
REMARK   12  A    between atoms: C14_25  and  C15_28 
REMARK   13  A    between atoms: C15_28  and  O7_29 
ROOT
HETATM    1  N1  UNL     1      -0.090   0.547  -0.083  1.00  0.00    -0.282 N 
ENDROOT
BRANCH   1   2
HETATM    2  S2  UNL     1      -0.874  -0.058  -1.430  1.00  0.00     0.267 S 
HETATM    3  O1  UNL     1      -0.329  -1.445  -1.827  1.00  0.00    -0.200 OA
HETATM    4  O2  UNL     1      -0.577   0.865  -2.604  1.00  0.00    -0.200 OA
BRANCH   2   5
HETATM    5  C7  UNL     1      -2.595  -0.317  -1.295  1.00  0.00     0.117 A 
HETATM    6  C2  UNL     1      -3.090  -1.464  -0.737  1.00  0.00     0.065 A 
HETATM    7  C3  UNL     1      -4.469  -1.617  -0.680  1.00  0.00     0.152 A 
HETATM    8  F1  UNL     1      -4.998  -2.735  -0.135  1.00  0.00    -0.203 F 
HETATM    9  C4  UNL     1      -5.300  -0.633  -1.176  1.00  0.00     0.052 A 
HETATM   10 BR1  UNL     1      -7.206  -0.844  -1.096  1.00  0.00    -0.048 Br
HETATM   11  C5  UNL     1      -4.763   0.508  -1.732  1.00  0.00     0.043 A 
HETATM   12  C6  UNL     1      -3.410   0.699  -1.809  1.00  0.00     0.037 A 
HETATM   13 BR2  UNL     1      -2.668   2.274  -2.621  1.00  0.00    -0.049 Br
BRANCH   6  14
HETATM   14  S1  UNL     1      -2.005  -2.744  -0.121  1.00  0.00    -0.130 SA
HETATM   15  C1  UNL     1      -2.899  -4.145   0.530  1.00  0.00     0.095 C 
ENDBRANCH   6  14
ENDBRANCH   2   5
ENDBRANCH   1   2
BRANCH   1  16
HETATM   16  C8  UNL     1       0.883  -0.296   0.479  1.00  0.00     0.167 C 
BRANCH  16  17
HETATM   17  C9  UNL     1       2.274  -0.101  -0.151  1.00  0.00     0.189 C 
BRANCH  17  18
HETATM   18  O3  UNL     1       3.107  -0.993   0.502  1.00  0.00    -0.374 OA
BRANCH  18  19
HETATM   19  C10 UNL     1       4.404  -0.979   0.087  1.00  0.00     0.218 C 
HETATM   20  C11 UNL     1       5.256  -0.505   1.269  1.00  0.00     0.051 C 
BRANCH  19  21
HETATM   21  C12 UNL     1       4.939  -2.266  -0.346  1.00  0.00     0.202 C 
HETATM   22  O4  UNL     1       4.200  -3.280  -0.312  1.00  0.00    -0.646 OA
HETATM   23  O5  UNL     1       6.237  -2.431  -0.797  1.00  0.00    -0.646 OA
ENDBRANCH  19  21
ENDBRANCH  18  19
ENDBRANCH  17  18
ENDBRANCH  16  17
ENDBRANCH   1  16
BRANCH   1  24
HETATM   24  C13 UNL     1       0.006   1.899   0.198  1.00  0.00     0.110 C 
BRANCH  24  25
HETATM   25  C14 UNL     1      -0.868   2.479   1.264  1.00  0.00     0.180 C 
BRANCH  25  26
HETATM   26  O6  UNL     1      -2.210   2.375   1.109  1.00  0.00    -0.388 OA
ATOM     27  H6  UNL     1      -2.765   2.743   1.786  1.00  0.00     0.210 HD
ENDBRANCH  25  26
BRANCH  25  28
HETATM   28  C15 UNL     1      -0.479   3.963   1.368  1.00  0.00     0.201 C 
BRANCH  28  29
HETATM   29  O7  UNL     1       0.922   3.992   1.527  1.00  0.00    -0.398 OA
ATOM     30  H7  UNL     1       1.162   4.909   1.591  1.00  0.00     0.209 HD
ENDBRANCH  28  29
ENDBRANCH  25  28
ENDBRANCH  24  25
ENDBRANCH   1  24
TORSDOF 13
