REMARK  14 active torsions:
REMARK  status: ('A' for Active; 'I' for Inactive)
REMARK    1  A    between atoms: C2_2  and  C3_3 
REMARK    2  A    between atoms: C6_6  and  N1_7 
REMARK    3  A    between atoms: N1_7  and  C7_9 
REMARK    4  A    between atoms: C10_15  and  N3_16 
REMARK    5  A    between atoms: N3_16  and  C11_17 
REMARK    6  A    between atoms: N4_20  and  C14_21 
REMARK    7  A    between atoms: C14_21  and  C15_22 
REMARK    8  A    between atoms: C20_32  and  C21_33 
REMARK    9  A    between atoms: C21_33  and  N7_34 
REMARK   10  A    between atoms: N7_34  and  C22_37 
REMARK   11  A    between atoms: C22_37  and  C23_38 
REMARK   12  A    between atoms: C23_38  and  C24_39 
REMARK   13  A    between atoms: C23_38  and  N9_43 
REMARK   14  A    between atoms: C24_39  and  N8_40 
ROOT
HETATM    1  C3  UNL     1      -2.605   1.112  -3.154  1.00  0.00    -0.049 A 
HETATM    2  C4  UNL     1      -1.522   1.660  -3.829  1.00  0.00     0.010 A 
HETATM    3  C5  UNL     1      -0.272   1.740  -3.278  1.00  0.00     0.032 A 
HETATM    4  C6  UNL     1      -0.114   1.247  -2.005  1.00  0.00     0.070 A 
HETATM    5  C18 UNL     1      -1.208   0.686  -1.305  1.00  0.00     0.080 A 
HETATM    6  C19 UNL     1      -0.919   0.169  -0.007  1.00  0.00     0.102 C 
HETATM    7  N6  UNL     1      -0.644  -0.260   1.042  1.00  0.00    -0.191 NA
HETATM    8  C20 UNL     1      -2.458   0.607  -1.851  1.00  0.00    -0.003 A 
ENDROOT
BRANCH   4   9
HETATM    9  N1  UNL     1       1.179   1.299  -1.394  1.00  0.00    -0.190 N 
ATOM     10  H1  UNL     1       1.373   2.009  -0.688  1.00  0.00     0.184 HD
BRANCH   9  11
HETATM   11  C7  UNL     1       2.117   0.447  -1.729  1.00  0.00     0.685 A 
HETATM   12  N2  UNL     1       1.896  -0.501  -2.654  1.00  0.00    -0.200 N 
HETATM   13  C8  UNL     1       2.838  -1.375  -3.021  1.00  0.00     0.135 A 
ATOM     14  H2  UNL     1       0.977  -0.556  -3.092  1.00  0.00     0.183 HD
HETATM   15  C9  UNL     1       4.081  -1.335  -2.460  1.00  0.00     0.108 A 
HETATM   16 CL1  UNL     1       5.322  -2.498  -2.984  1.00  0.00    -0.078 Cl
HETATM   17  C10 UNL     1       4.367  -0.375  -1.493  1.00  0.00     0.210 A 
HETATM   18  N5  UNL     1       3.320   0.480  -1.187  1.00  0.00    -0.163 N 
ATOM     19  H5  UNL     1       3.494   1.196  -0.482  1.00  0.00     0.187 HD
BRANCH  17  20
HETATM   20  N3  UNL     1       5.429  -0.285  -0.962  1.00  0.00    -0.423 NA
BRANCH  20  21
HETATM   21  C11 UNL     1       6.631  -0.189  -0.366  1.00  0.00     0.168 C 
HETATM   22  C12 UNL     1       7.613  -1.328  -0.391  1.00  0.00     0.069 C 
HETATM   23  C13 UNL     1       8.235  -1.448   0.994  1.00  0.00     0.275 C 
HETATM   24  N4  UNL     1       8.864  -0.165   1.280  1.00  0.00     0.093 N 
HETATM   25  C16 UNL     1       7.813   0.755   1.649  1.00  0.00     0.275 C 
HETATM   26  C17 UNL     1       6.474   0.321   1.079  1.00  0.00     0.069 C 
BRANCH  24  27
HETATM   27  C14 UNL     1       9.923  -0.296   2.227  1.00  0.00     0.343 C 
BRANCH  27  28
HETATM   28  C15 UNL     1      10.618   1.000   2.491  1.00  0.00     0.381 C 
HETATM   29  F1  UNL     1       9.809   1.969   2.992  1.00  0.00    -0.213 F 
HETATM   30  F2  UNL     1      11.678   0.849   3.377  1.00  0.00    -0.213 F 
ENDBRANCH  27  28
ENDBRANCH  24  27
ENDBRANCH  20  21
ENDBRANCH  17  20
ENDBRANCH   9  11
ENDBRANCH   4   9
BRANCH   8  31
HETATM   31  C21 UNL     1      -3.640   0.024  -1.216  1.00  0.00     0.273 C 
BRANCH  31  32
HETATM   32  N7  UNL     1      -3.498  -0.429   0.131  1.00  0.00    -0.066 N 
ATOM     33  H72 UNL     1      -2.656  -0.996   0.233  1.00  0.00     0.277 HD
ATOM     34  H71 UNL     1      -3.257   0.347   0.748  1.00  0.00     0.277 HD
BRANCH  32  35
HETATM   35  C22 UNL     1      -4.650  -1.136   0.631  1.00  0.00     0.284 C 
BRANCH  35  36
HETATM   36  C23 UNL     1      -5.888  -0.377   0.846  1.00  0.00     0.023 C 
BRANCH  36  37
HETATM   37  C24 UNL     1      -5.875   0.774   1.773  1.00  0.00     0.079 C 
BRANCH  37  38
HETATM   38  N8  UNL     1      -5.519   0.658   3.112  1.00  0.00    -0.300 NA
HETATM   39  C25 UNL     1      -6.368   0.022   4.050  1.00  0.00     0.115 C 
HETATM   40  C26 UNL     1      -5.216   2.001   3.620  1.00  0.00     0.115 C 
ENDBRANCH  37  38
ENDBRANCH  36  37
BRANCH  36  41
HETATM   41  N9  UNL     1      -7.114  -1.124   0.854  1.00  0.00    -0.293 NA
HETATM   42  C27 UNL     1      -7.372  -1.646  -0.522  1.00  0.00     0.116 C 
HETATM   43  C28 UNL     1      -7.078  -2.281   1.729  1.00  0.00     0.116 C 
ENDBRANCH  36  41
ENDBRANCH  35  36
ENDBRANCH  32  35
ENDBRANCH  31  32
ENDBRANCH   8  31
BRANCH   1  44
HETATM   44  C2  UNL     1      -3.906   1.057  -3.825  1.00  0.00     0.035 C 
HETATM   45  C1  UNL     1      -4.820   2.150  -3.342  1.00  0.00     0.010 C 
ENDBRANCH   1  44
TORSDOF 14
