REMARK  12 active torsions:
REMARK  status: ('A' for Active; 'I' for Inactive)
REMARK    1  A    between atoms: C4_7  and  C5_8 
REMARK       I    between atoms: C5_8  and  N3_10 
REMARK    2  A    between atoms: N3_10  and  C6_12 
REMARK    3  A    between atoms: C6_12  and  C7_13 
REMARK    4  A    between atoms: C7_13  and  N4_14 
REMARK    5  A    between atoms: N5_17  and  C10_18 
REMARK    6  A    between atoms: C10_18  and  C11_19 
REMARK    7  A    between atoms: C11_19  and  C12_20 
REMARK    8  A    between atoms: C12_20  and  C13_21 
REMARK    9  A    between atoms: C13_21  and  C14_22 
REMARK   10  A    between atoms: C14_22  and  N6_23 
REMARK   11  A    between atoms: C17_26  and  C18_28 
REMARK   12  A    between atoms: C28_42  and  N8_43 
ROOT
HETATM    1  N1  UNL     1      12.753  -0.200  -2.490  1.00  0.00    -0.190 NA
HETATM    2  C1  UNL     1      11.760  -0.273  -1.892  1.00  0.00     0.121 C 
HETATM    3  C2  UNL     1      10.534  -0.345  -1.160  1.00  0.00     0.157 A 
HETATM    4  N2  UNL     1       9.983   0.764  -0.663  1.00  0.00    -0.352 N 
ATOM      5  H2  UNL     1      10.452   1.657  -0.817  1.00  0.00     0.166 HD
HETATM    6  C3  UNL     1       8.811   0.748   0.046  1.00  0.00     0.124 A 
HETATM    7  C4  UNL     1       8.188  -0.451   0.248  1.00  0.00     0.117 A 
HETATM    8  N7  UNL     1       8.759  -1.566  -0.262  1.00  0.00    -0.335 N 
ATOM      9  H7  UNL     1       8.292  -2.460  -0.110  1.00  0.00     0.168 HD
HETATM   10  C28 UNL     1       9.910  -1.558  -0.959  1.00  0.00     0.137 A 
ENDROOT
BRANCH  10  11
HETATM   11  N8  UNL     1      10.468  -2.608  -1.454  1.00  0.00    -0.383 N 
ATOM     12  H82 UNL     1      11.340  -2.602  -1.982  1.00  0.00     0.157 HD
ATOM     13  H81 UNL     1      10.006  -3.505  -1.305  1.00  0.00     0.157 HD
ENDBRANCH  10  11
BRANCH   7  14
HETATM   14  C5  UNL     1       6.947  -0.535   0.985  1.00  0.00     0.269 C 
HETATM   15  O1  UNL     1       6.437  -1.674   1.168  1.00  0.00    -0.266 OA
HETATM   16  N3  UNL     1       6.314   0.601   1.488  1.00  0.00    -0.354 N 
ATOM     17  H3  UNL     1       6.744   1.513   1.335  1.00  0.00     0.162 HD
BRANCH  16  18
HETATM   18  C6  UNL     1       5.074   0.531   2.216  1.00  0.00     0.153 C 
BRANCH  18  19
HETATM   19  C7  UNL     1       3.987  -0.012   1.333  1.00  0.00     0.292 C 
BRANCH  19  20
HETATM   20  N4  UNL     1       3.847   0.829   0.170  1.00  0.00     0.093 N 
HETATM   21  C8  UNL     1       3.315   2.117   0.463  1.00  0.00     0.302 C 
HETATM   22  C9  UNL     1       1.844   2.029   0.828  1.00  0.00     0.302 C 
HETATM   23  N5  UNL     1       1.112   1.168  -0.082  1.00  0.00     0.091 N 
HETATM   24  C26 UNL     1       1.876   0.894  -1.288  1.00  0.00     0.302 C 
HETATM   25  C27 UNL     1       3.124   0.154  -0.897  1.00  0.00     0.302 C 
BRANCH  23  26
HETATM   26  C10 UNL     1      -0.185   1.748  -0.411  1.00  0.00     0.272 C 
BRANCH  26  27
HETATM   27  C11 UNL     1      -1.022   1.720   0.844  1.00  0.00     0.030 C 
BRANCH  27  28
HETATM   28  C12 UNL     1      -1.201   0.319   1.304  1.00  0.00     0.003 C 
BRANCH  28  29
HETATM   29  C13 UNL     1      -1.914  -0.522   0.257  1.00  0.00     0.030 C 
BRANCH  29  30
HETATM   30  C14 UNL     1      -3.258   0.047  -0.041  1.00  0.00     0.272 C 
BRANCH  30  31
HETATM   31  N6  UNL     1      -3.968  -0.728  -1.024  1.00  0.00     0.088 N 
HETATM   32  C15 UNL     1      -4.381  -2.008  -0.558  1.00  0.00     0.274 C 
HETATM   33  C16 UNL     1      -5.750  -1.968   0.132  1.00  0.00     0.061 C 
HETATM   34  C17 UNL     1      -6.780  -1.701  -0.945  1.00  0.00     0.070 C 
HETATM   35 CL1  UNL     1      -7.322  -3.271  -1.602  1.00  0.00    -0.114 Cl
HETATM   36  C24 UNL     1      -6.145  -0.930  -2.049  1.00  0.00     0.061 C 
HETATM   37  C25 UNL     1      -5.102   0.048  -1.527  1.00  0.00     0.274 C 
BRANCH  34  38
HETATM   38  C18 UNL     1      -7.925  -1.035  -0.298  1.00  0.00     0.004 A 
HETATM   39  C19 UNL     1      -8.313   0.218  -0.684  1.00  0.00     0.015 A 
HETATM   40  C20 UNL     1      -9.388   0.845  -0.072  1.00  0.00     0.043 A 
HETATM   41  C21 UNL     1     -10.075   0.219   0.927  1.00  0.00     0.119 A 
HETATM   42  F1  UNL     1     -11.122   0.820   1.529  1.00  0.00    -0.206 F 
HETATM   43  C22 UNL     1      -9.707  -1.042   1.337  1.00  0.00     0.085 A 
HETATM   44  C23 UNL     1      -8.624  -1.657   0.710  1.00  0.00     0.127 A 
HETATM   45  F2  UNL     1      -8.291  -2.896   1.137  1.00  0.00    -0.205 F 
ENDBRANCH  34  38
ENDBRANCH  30  31
ENDBRANCH  29  30
ENDBRANCH  28  29
ENDBRANCH  27  28
ENDBRANCH  26  27
ENDBRANCH  23  26
ENDBRANCH  19  20
ENDBRANCH  18  19
ENDBRANCH  16  18
ENDBRANCH   7  14
TORSDOF 12
