REMARK  11 active torsions:
REMARK  status: ('A' for Active; 'I' for Inactive)
REMARK    1  A    between atoms: C2_2  and  C4_4 
REMARK    2  A    between atoms: C4_4  and  N1_5 
REMARK    3  A    between atoms: C4_4  and  C24_39 
REMARK       I    between atoms: N1_5  and  C5_7 
REMARK    4  A    between atoms: C5_7  and  C6_9 
REMARK    5  A    between atoms: C6_9  and  C7_10 
REMARK    6  A    between atoms: C7_10  and  N2_11 
REMARK    7  A    between atoms: C8_12  and  C9_13 
REMARK    8  A    between atoms: C9_13  and  C10_14 
REMARK    9  A    between atoms: C10_14  and  C11_15 
REMARK   10  A    between atoms: C15_23  and  C16_24 
REMARK   11  A    between atoms: C16_24  and  C17_25 
ROOT
HETATM    1  N2  UNL     1      -0.381   0.955   0.712  1.00  0.00    -0.332 N 
HETATM    2  C8  UNL     1      -0.389   2.219   0.171  1.00  0.00     0.015 A 
HETATM    3  C12 UNL     1      -1.182   2.238  -0.945  1.00  0.00     0.046 A 
HETATM    4  C13 UNL     1      -1.688   0.988  -1.126  1.00  0.00     0.078 A 
HETATM    5  C14 UNL     1      -2.531   0.662  -2.164  1.00  0.00     0.259 C 
HETATM    6  O2  UNL     1      -2.746   1.489  -3.080  1.00  0.00    -0.267 OA
HETATM    7  N3  UNL     1      -3.206  -0.517  -2.338  1.00  0.00    -0.321 N 
ATOM      8  H3  UNL     1      -3.681  -0.643  -3.232  1.00  0.00     0.169 HD
HETATM    9  C15 UNL     1      -3.311  -1.552  -1.431  1.00  0.00     0.085 C 
HETATM   10  C22 UNL     1      -2.255  -1.880  -0.616  1.00  0.00     0.270 C 
HETATM   11  O3  UNL     1      -1.994  -3.117  -0.599  1.00  0.00    -0.266 OA
HETATM   12  N5  UNL     1      -1.470  -1.100   0.149  1.00  0.00    -0.307 N 
ATOM     13  H5  UNL     1      -1.058  -1.530   0.977  1.00  0.00     0.170 HD
HETATM   14  C23 UNL     1      -1.172   0.213  -0.078  1.00  0.00     0.126 A 
ENDROOT
BRANCH   1  15
HETATM   15  C7  UNL     1       0.293   0.639   1.911  1.00  0.00     0.163 C 
BRANCH  15  16
HETATM   16  C6  UNL     1       1.746   0.425   1.930  1.00  0.00     0.067 C 
BRANCH  16  17
HETATM   17  C5  UNL     1       2.385  -0.605   1.148  1.00  0.00     0.239 C 
HETATM   18  N1  UNL     1       3.817  -0.822   1.253  1.00  0.00    -0.343 N 
ATOM     19  H1  UNL     1       4.347  -0.228   1.890  1.00  0.00     0.163 HD
HETATM   20  O1  UNL     1       1.820  -1.378   0.347  1.00  0.00    -0.269 OA
BRANCH  18  21
HETATM   21  C4  UNL     1       4.525  -1.817   0.518  1.00  0.00     0.189 C 
BRANCH  21  22
HETATM   22  C2  UNL     1       5.711  -1.256  -0.238  1.00  0.00     0.011 C 
HETATM   23  C1  UNL     1       5.250  -0.184  -1.237  1.00  0.00     0.012 C 
HETATM   24  C3  UNL     1       6.376  -2.337  -1.063  1.00  0.00     0.012 C 
ENDBRANCH  21  22
BRANCH  21  25
HETATM   25  C24 UNL     1       5.061  -2.826   1.464  1.00  0.00     0.197 C 
HETATM   26  O4  UNL     1       4.844  -2.676   2.687  1.00  0.00    -0.646 OA
HETATM   27  O5  UNL     1       5.778  -3.891   0.956  1.00  0.00    -0.646 OA
ENDBRANCH  21  25
ENDBRANCH  18  21
ENDBRANCH  16  17
ENDBRANCH  15  16
ENDBRANCH   1  15
BRANCH   2  28
HETATM   28  C9  UNL     1       0.388   3.359   0.701  1.00  0.00     0.058 C 
BRANCH  28  29
HETATM   29  C10 UNL     1       0.032   4.675   0.136  1.00  0.00     0.021 C 
BRANCH  29  30
HETATM   30  C11 UNL     1      -1.357   5.122   0.454  1.00  0.00     0.115 C 
HETATM   31 CL1  UNL     1      -1.469   5.229   2.240  1.00  0.00    -0.130 Cl
ENDBRANCH  29  30
ENDBRANCH  28  29
ENDBRANCH   2  28
BRANCH   9  32
HETATM   32  C16 UNL     1      -4.607  -2.208  -1.384  1.00  0.00     0.105 C 
BRANCH  32  33
HETATM   33  C17 UNL     1      -5.588  -1.651  -0.428  1.00  0.00    -0.006 A 
HETATM   34  C18 UNL     1      -5.636  -1.953   0.894  1.00  0.00     0.057 A 
HETATM   35 CL2  UNL     1      -4.577  -3.157   1.647  1.00  0.00    -0.082 Cl
HETATM   36  C19 UNL     1      -6.567  -1.358   1.769  1.00  0.00     0.112 A 
HETATM   37  N4  UNL     1      -7.412  -0.473   1.234  1.00  0.00    -0.372 N 
HETATM   38  C20 UNL     1      -7.401  -0.145  -0.069  1.00  0.00     0.112 A 
ATOM     39  H4  UNL     1      -8.097  -0.025   1.843  1.00  0.00     0.164 HD
HETATM   40  C21 UNL     1      -6.509  -0.707  -0.938  1.00  0.00     0.057 A 
HETATM   41 CL3  UNL     1      -6.499  -0.277  -2.635  1.00  0.00    -0.082 Cl
ENDBRANCH  32  33
ENDBRANCH   9  32
TORSDOF 11
