REMARK  2 active torsions:
REMARK  status: ('A' for Active; 'I' for Inactive)
REMARK    1  A    between atoms: C2_2  and  O1_5 
REMARK    2  A    between atoms: O1_5  and  C5_6 
ROOT
HETATM    1  C5  UNL     1      -1.960   0.530  -0.562  1.00  0.00     0.157 C 
HETATM    2  C6  UNL     1      -1.352   0.962  -1.858  1.00  0.00     0.064 C 
HETATM    3  C7  UNL     1      -0.078   1.642  -1.373  1.00  0.00     0.275 C 
HETATM    4  N1  UNL     1       0.363   0.835  -0.264  1.00  0.00     0.095 N 
HETATM    5  C8  UNL     1       0.982   1.688   0.755  1.00  0.00     0.273 C 
HETATM    6  C9  UNL     1       1.990   2.636   0.262  1.00  0.00     0.030 C 
HETATM    7  C10 UNL     1       3.473   2.221   0.390  1.00  0.00     0.002 C 
HETATM    8  C11 UNL     1       3.507   0.816   0.133  1.00  0.00     0.000 C 
HETATM    9  C12 UNL     1       4.570  -0.134  -0.068  1.00  0.00     0.000 C 
HETATM   10  C13 UNL     1       3.942  -1.427  -0.645  1.00  0.00     0.000 C 
HETATM   11  C14 UNL     1       3.191  -2.271   0.266  1.00  0.00     0.000 C 
HETATM   12  C15 UNL     1       1.789  -2.746  -0.193  1.00  0.00     0.000 C 
HETATM   13  C16 UNL     1       0.904  -1.622  -0.087  1.00  0.00     0.002 C 
HETATM   14  C17 UNL     1      -0.530  -1.482  -0.089  1.00  0.00     0.038 C 
HETATM   15  C18 UNL     1      -0.727   0.044   0.174  1.00  0.00     0.251 C 
ENDROOT
BRANCH   1  16
HETATM   16  O1  UNL     1      -2.850  -0.493  -0.649  1.00  0.00    -0.374 OA
BRANCH  16  17
HETATM   17  C2  UNL     1      -4.041  -0.337  -0.006  1.00  0.00     0.050 C 
HETATM   18  C1  UNL     1      -4.863  -1.609  -0.248  1.00  0.00     0.045 C 
HETATM   19  C3  UNL     1      -3.756  -0.331   1.502  1.00  0.00     0.045 C 
HETATM   20  C4  UNL     1      -4.805   0.894  -0.306  1.00  0.00     0.045 C 
ENDBRANCH  16  17
ENDBRANCH   1  16
TORSDOF 2
