REMARK  1 active torsions:
REMARK  status: ('A' for Active; 'I' for Inactive)
REMARK    1  A    between atoms: N1_4  and  N2_6 
ROOT
HETATM    1  C1  UNL     1      -0.760  -2.741  -0.218  1.00  0.00     0.017 C 
HETATM    2  C2  UNL     1      -1.233  -1.422  -0.787  1.00  0.00     0.037 C 
HETATM    3  C3  UNL     1      -0.137  -0.429  -0.896  1.00  0.00     0.008 C 
HETATM    4  N1  UNL     1       1.104  -0.738  -1.049  1.00  0.00    -0.309 N 
ATOM      5  H1  UNL     1       1.356  -1.725  -1.099  1.00  0.00     0.186 HD
HETATM    6  C10 UNL     1      -0.778   0.908  -0.794  1.00  0.00     0.060 C 
HETATM    7  C11 UNL     1      -1.957   0.680   0.065  1.00  0.00     0.007 C 
HETATM    8  C12 UNL     1      -3.235   1.276  -0.375  1.00  0.00    -0.043 C 
HETATM    9  C13 UNL     1      -3.563   2.581   0.316  1.00  0.00     0.015 C 
HETATM   10  C14 UNL     1      -3.393   1.446  -1.855  1.00  0.00     0.015 C 
HETATM   11  C15 UNL     1      -4.269   0.263   0.105  1.00  0.00     0.010 C 
HETATM   12  C16 UNL     1      -3.582  -1.045  -0.240  1.00  0.00     0.011 C 
HETATM   13  C17 UNL     1      -2.160  -0.794   0.201  1.00  0.00    -0.031 C 
HETATM   14  C18 UNL     1      -1.920  -1.259   1.622  1.00  0.00     0.016 C 
ENDROOT
BRANCH   4  15
HETATM   15  N2  UNL     1       2.119   0.212  -1.150  1.00  0.00    -0.309 N 
HETATM   16  C4  UNL     1       3.333  -0.005  -0.781  1.00  0.00     0.003 C 
HETATM   17  C5  UNL     1       4.301   1.110  -0.953  1.00  0.00     0.054 C 
HETATM   18  C9  UNL     1       3.860  -1.241  -0.207  1.00  0.00     0.054 C 
HETATM   19  C6  UNL     1       4.842   1.392   0.426  1.00  0.00     0.006 C 
HETATM   20  C7  UNL     1       5.483   0.211   1.073  1.00  0.00     0.001 C 
HETATM   21  C8  UNL     1       4.777  -1.079   0.941  1.00  0.00     0.006 C 
ATOM     22  H2  UNL     1       1.888   1.127  -1.537  1.00  0.00     0.186 HD
ENDBRANCH   4  15
TORSDOF 1
