REMARK  1 active torsions:
REMARK  status: ('A' for Active; 'I' for Inactive)
REMARK    1  A    between atoms: C2_2  and  C3_3 
ROOT
HETATM    1  C1  UNL     1      -2.496  -0.497   1.738  1.00  0.00     0.023 C 
HETATM    2  C2  UNL     1      -2.457   0.281   0.477  1.00  0.00     0.014 C 
HETATM    3  C4  UNL     1      -3.110  -0.471  -0.659  1.00  0.00     0.016 C 
HETATM    4  C5  UNL     1      -2.303  -1.598  -1.184  1.00  0.00     0.002 C 
HETATM    5  C6  UNL     1      -0.888  -1.566  -0.699  1.00  0.00     0.010 C 
HETATM    6  C7  UNL     1      -0.289  -0.153  -0.742  1.00  0.00    -0.033 C 
HETATM    7  C8  UNL     1      -0.317   0.231  -2.232  1.00  0.00     0.016 C 
HETATM    8  C9  UNL     1      -1.114   0.792   0.067  1.00  0.00     0.009 C 
HETATM    9  C10 UNL     1      -0.371   1.412   1.225  1.00  0.00     0.009 C 
HETATM   10  C11 UNL     1       0.865   2.042   0.621  1.00  0.00     0.038 C 
HETATM   11  C12 UNL     1       1.827   0.964   0.092  1.00  0.00     0.062 C 
HETATM   12  C13 UNL     1       2.455   1.641  -1.142  1.00  0.00     0.046 C 
HETATM   13  O2  UNL     1       2.803   0.861   1.013  1.00  0.00    -0.374 OA
HETATM   14  C14 UNL     1       3.476  -0.277   1.197  1.00  0.00     0.127 A 
HETATM   15  C15 UNL     1       3.819  -1.277   0.178  1.00  0.00     0.039 A 
HETATM   16  C16 UNL     1       2.731  -1.540   1.141  1.00  0.00     0.017 A 
HETATM   17  C17 UNL     1       1.317  -1.440   0.647  1.00  0.00     0.015 C 
HETATM   18  C18 UNL     1       1.141  -0.282  -0.331  1.00  0.00     0.029 C 
ENDROOT
BRANCH   2  19
HETATM   19  C3  UNL     1      -3.340   1.495   0.688  1.00  0.00     0.240 C 
HETATM   20  O1  UNL     1      -4.030   1.639   1.653  1.00  0.00    -0.306 OA
ENDBRANCH   2  19
TORSDOF 1
