REMARK  3 active torsions:
REMARK  status: ('A' for Active; 'I' for Inactive)
REMARK    1  A    between atoms: C2_2  and  C3_3 
REMARK    2  A    between atoms: C3_3  and  O1_4 
REMARK    3  A    between atoms: C4_6  and  C5_7 
ROOT
HETATM    1  C3  UNL     1       1.324   0.140   0.310  1.00  0.00     0.063 C 
HETATM    2  C4  UNL     1       0.172   0.787   0.263  1.00  0.00     0.043 C 
ENDROOT
BRANCH   2   3
HETATM    3  C5  UNL     1      -1.066   0.054   0.466  1.00  0.00     0.173 C 
HETATM    4  C6  UNL     1      -1.750  -0.379  -0.809  1.00  0.00     0.206 C 
HETATM    5  O2  UNL     1      -3.106  -0.253  -0.515  1.00  0.00    -0.364 OA
HETATM    6  C7  UNL     1      -3.163  -0.067   0.871  1.00  0.00     0.338 C 
HETATM    7  O3  UNL     1      -2.084   0.826   1.060  1.00  0.00    -0.356 OA
ENDBRANCH   2   3
BRANCH   1   8
HETATM    8  C2  UNL     1       2.587   0.836   0.113  1.00  0.00     0.026 C 
HETATM    9  C1  UNL     1       3.748   0.207   0.156  1.00  0.00     0.014 C 
ENDBRANCH   1   8
BRANCH   1  10
HETATM   10  O1  UNL     1       1.381  -1.226   0.549  1.00  0.00    -0.361 OA
ATOM     11  H1  UNL     1       0.557  -1.680   0.678  1.00  0.00     0.217 HD
ENDBRANCH   1  10
TORSDOF 3
