REMARK  2 active torsions:
REMARK  status: ('A' for Active; 'I' for Inactive)
REMARK    1  A    between atoms: S1_2  and  S2_3 
REMARK    2  A    between atoms: S2_3  and  C2_4 
ROOT
HETATM    1  C2  UNL     1      -0.470   0.796  -0.225  1.00  0.00     0.085 C 
HETATM    2  C3  UNL     1      -1.691   1.059   0.639  1.00  0.00     0.045 C 
HETATM    3  C4  UNL     1      -2.193  -0.309   0.972  1.00  0.00     0.233 C 
HETATM    4  N1  UNL     1      -1.698  -1.231  -0.008  1.00  0.00    -0.074 N 
ATOM      5  H11 UNL     1      -2.444  -1.647  -0.565  1.00  0.00     0.277 HD
ATOM      6  H12 UNL     1      -1.339  -2.089   0.410  1.00  0.00     0.277 HD
HETATM    7  C5  UNL     1      -0.718  -0.560  -0.816  1.00  0.00     0.248 C 
ENDROOT
BRANCH   1   8
HETATM    8  S2  UNL     1       0.978   0.832   0.861  1.00  0.00    -0.091 SA
BRANCH   8   9
HETATM    9  S1  UNL     1       2.677   1.278  -0.358  1.00  0.00    -0.102 SA
HETATM   10  C1  UNL     1       3.559  -0.305  -0.570  1.00  0.00     0.102 C 
ENDBRANCH   8   9
ENDBRANCH   1   8
TORSDOF 2
