REMARK  2 active torsions:
REMARK  status: ('A' for Active; 'I' for Inactive)
REMARK    1  A    between atoms: C2_2  and  C4_4 
REMARK    2  A    between atoms: C6_6  and  C7_7 
ROOT
HETATM    1  C7  UNL     1       2.155  -0.232  -0.232  1.00  0.00     0.117 A 
HETATM    2  N1  UNL     1       2.593  -1.390  -0.791  1.00  0.00    -0.272 N 
ATOM      3  H1  UNL     1       2.008  -2.094  -1.241  1.00  0.00     0.190 HD
HETATM    4  N2  UNL     1       3.907  -1.449  -0.652  1.00  0.00    -0.227 N 
ATOM      5  H2  UNL     1       4.497  -2.213  -0.982  1.00  0.00     0.210 HD
HETATM    6  N3  UNL     1       4.340  -0.376  -0.025  1.00  0.00    -0.227 N 
ATOM      7  H3  UNL     1       5.306  -0.156   0.217  1.00  0.00     0.210 HD
HETATM    8  N4  UNL     1       3.272   0.360   0.228  1.00  0.00    -0.272 N 
ATOM      9  H4  UNL     1       3.292   1.259   0.709  1.00  0.00     0.190 HD
ENDROOT
BRANCH   1  10
HETATM   10  C6  UNL     1       0.783   0.288  -0.133  1.00  0.00     0.061 A 
HETATM   11  C4  UNL     1      -0.374  -0.640  -0.076  1.00  0.00     0.001 A 
HETATM   12  C5  UNL     1      -0.053   0.028  -1.397  1.00  0.00     0.018 A 
BRANCH  11  13
HETATM   13  C2  UNL     1      -1.646  -0.148   0.565  1.00  0.00    -0.018 C 
HETATM   14  C1  UNL     1      -2.780  -0.434  -0.404  1.00  0.00     0.010 C 
HETATM   15  C3  UNL     1      -1.633   1.347   0.806  1.00  0.00     0.010 C 
ENDBRANCH  11  13
ENDBRANCH   1  10
TORSDOF 2
