REMARK  2 active torsions:
REMARK  status: ('A' for Active; 'I' for Inactive)
REMARK    1  A    between atoms: C2_2  and  C4_5 
REMARK    2  A    between atoms: C8_9  and  N2_10 
ROOT
HETATM    1  C1  UNL     1      -3.020   0.241   0.116  1.00  0.00     0.031 C 
HETATM    2  C2  UNL     1      -1.809   0.654   0.441  1.00  0.00     0.019 C 
HETATM    3  C3  UNL     1      -1.776   1.338   1.752  1.00  0.00     0.094 C 
HETATM    4  N1  UNL     1      -1.774   1.858   2.782  1.00  0.00    -0.192 NA
ENDROOT
BRANCH   2   5
HETATM    5  C4  UNL     1      -0.615   0.443  -0.349  1.00  0.00     0.051 C 
HETATM    6  C5  UNL     1      -0.872  -0.330  -1.599  1.00  0.00     0.012 C 
HETATM    7  C6  UNL     1       0.337  -1.231  -1.839  1.00  0.00     0.003 C 
HETATM    8  C7  UNL     1       1.282  -0.862  -0.721  1.00  0.00     0.025 C 
HETATM    9  C8  UNL     1       0.452  -0.334   0.424  1.00  0.00     0.085 C 
BRANCH   9  10
HETATM   10  N2  UNL     1       1.113   0.488   1.329  1.00  0.00    -0.421 N 
HETATM   11  C9  UNL     1       2.512   0.667   1.262  1.00  0.00     0.140 C 
ATOM     12  H2  UNL     1       0.579   0.969   2.053  1.00  0.00     0.153 HD
ENDBRANCH   9  10
ENDBRANCH   2   5
TORSDOF 2
