REMARK  2 active torsions:
REMARK  status: ('A' for Active; 'I' for Inactive)
REMARK    1  A    between atoms: O1_2  and  C2_3 
REMARK    2  A    between atoms: C2_3  and  C4_5 
ROOT
HETATM    1  C4  UNL     1      -0.780   0.347   0.638  1.00  0.00     0.224 C 
HETATM    2  C5  UNL     1      -1.748   1.213  -0.099  1.00  0.00     0.111 C 
HETATM    3  S1  UNL     1      -2.493  -0.024  -1.238  1.00  0.00    -0.140 SA
HETATM    4  C6  UNL     1      -1.709  -1.498  -0.465  1.00  0.00     0.306 C 
HETATM    5  N1  UNL     1      -1.306  -0.956   0.794  1.00  0.00    -0.059 N 
ATOM      6  H11 UNL     1      -2.066  -0.976   1.473  1.00  0.00     0.278 HD
ATOM      7  H12 UNL     1      -0.651  -1.571   1.277  1.00  0.00     0.278 HD
ENDROOT
BRANCH   1   8
HETATM    8  C2  UNL     1       0.609   0.385   0.044  1.00  0.00     0.148 C 
HETATM    9  C3  UNL     1       1.071   1.820  -0.099  1.00  0.00     0.042 C 
BRANCH   8  10
HETATM   10  O1  UNL     1       1.541  -0.283   0.798  1.00  0.00    -0.389 OA
HETATM   11  C1  UNL     1       2.130  -1.314   0.073  1.00  0.00     0.202 C 
ENDBRANCH   8  10
ENDBRANCH   1   8
TORSDOF 2
