REMARK  3 active torsions:
REMARK  status: ('A' for Active; 'I' for Inactive)
REMARK    1  A    between atoms: C2_2  and  C3_3 
REMARK    2  A    between atoms: C4_4  and  N1_5 
REMARK    3  A    between atoms: N2_10  and  O1_12 
ROOT
HETATM    1  C3  UNL     1       1.245  -0.665  -0.232  1.00  0.00     0.043 C 
HETATM    2  C4  UNL     1       0.305   0.265  -0.098  1.00  0.00     0.087 C 
ENDROOT
BRANCH   1   3
HETATM    3  C2  UNL     1       2.652  -0.382  -0.037  1.00  0.00     0.029 C 
HETATM    4  C1  UNL     1       3.082   0.980   0.324  1.00  0.00     0.070 C 
HETATM    5  N2  UNL     1       3.513  -1.311  -0.178  1.00  0.00    -0.274 N 
ATOM      6  H2  UNL     1       3.214  -2.254  -0.428  1.00  0.00     0.193 HD
BRANCH   5   7
HETATM    7  O1  UNL     1       4.841  -1.036   0.008  1.00  0.00    -0.290 OA
ATOM      8  H1  UNL     1       5.483  -1.728  -0.097  1.00  0.00     0.244 HD
ENDBRANCH   5   7
ENDBRANCH   1   3
BRANCH   2   9
HETATM    9  N1  UNL     1      -1.052  -0.022  -0.289  1.00  0.00    -0.390 N 
HETATM   10  C5  UNL     1      -1.822  -1.017   0.393  1.00  0.00     0.122 C 
HETATM   11  C6  UNL     1      -3.144  -0.299   0.620  1.00  0.00     0.021 C 
HETATM   12  C7  UNL     1      -3.140   0.893  -0.314  1.00  0.00     0.021 C 
HETATM   13  C8  UNL     1      -1.949   0.621  -1.207  1.00  0.00     0.122 C 
ENDBRANCH   2   9
TORSDOF 3
