REMARK  2 active torsions:
REMARK  status: ('A' for Active; 'I' for Inactive)
REMARK       I    between atoms: C1_2  and  N1_3 
REMARK    1  A    between atoms: C1_2  and  C5_8 
REMARK    2  A    between atoms: N1_3  and  C2_5 
ROOT
HETATM    1  O1  UNL     1      -0.500   1.367   1.103  1.00  0.00    -0.273 OA
HETATM    2  C1  UNL     1      -0.559   0.347   0.372  1.00  0.00     0.222 C 
HETATM    3  N1  UNL     1       0.601  -0.272  -0.158  1.00  0.00    -0.356 N 
ATOM      4  H1  UNL     1       0.508  -1.099  -0.747  1.00  0.00     0.162 HD
ENDROOT
BRANCH   2   5
HETATM    5  C5  UNL     1      -1.918  -0.180   0.090  1.00  0.00     0.078 A 
HETATM    6  C6  UNL     1      -3.079   0.735   0.030  1.00  0.00     0.015 A 
HETATM    7  C7  UNL     1      -2.899  -0.113   1.257  1.00  0.00     0.015 A 
ENDBRANCH   2   5
BRANCH   3   8
HETATM    8  C2  UNL     1       1.912   0.258   0.129  1.00  0.00     0.084 A 
HETATM    9  C3  UNL     1       3.005  -0.806   0.364  1.00  0.00     0.027 A 
HETATM   10  C4  UNL     1       3.022   0.033  -0.848  1.00  0.00     0.027 A 
ENDBRANCH   3   8
TORSDOF 2
