REMARK  2 active torsions:
REMARK  status: ('A' for Active; 'I' for Inactive)
REMARK    1  A    between atoms: C2_2  and  C3_3 
REMARK    2  A    between atoms: C7_7  and  C8_8 
ROOT
HETATM    1  C3  UNL     1       0.284  -0.073   0.943  1.00  0.00     0.025 C 
HETATM    2  C4  UNL     1       0.737   1.378   0.744  1.00  0.00    -0.001 A 
HETATM    3  C5  UNL     1      -0.034   2.562   0.901  1.00  0.00     0.011 A 
HETATM    4  C6  UNL     1      -0.830   1.468   0.491  1.00  0.00     0.004 A 
HETATM    5  C7  UNL     1      -0.418   0.273  -0.387  1.00  0.00     0.087 C 
ENDROOT
BRANCH   5   6
HETATM    6  C8  UNL     1      -1.586  -0.569  -0.702  1.00  0.00     0.236 C 
HETATM    7  N1  UNL     1      -1.528  -1.962  -0.845  1.00  0.00    -0.062 NA
HETATM    8  O1  UNL     1      -2.713  -0.005  -0.854  1.00  0.00    -0.276 OA
ENDBRANCH   5   6
BRANCH   1   9
HETATM    9  C2  UNL     1       1.436  -0.983   0.817  1.00  0.00    -0.031 C 
HETATM   10  C1  UNL     1       1.887  -1.489  -0.318  1.00  0.00     0.007 C 
ENDBRANCH   1   9
TORSDOF 2
