REMARK  2 active torsions:
REMARK  status: ('A' for Active; 'I' for Inactive)
REMARK    1  A    between atoms: C1_2  and  C2_4 
REMARK    2  A    between atoms: N2_6  and  C4_7 
ROOT
HETATM    1  C2  UNL     1       1.419   0.435  -0.063  1.00  0.00     0.131 C 
HETATM    2  C3  UNL     1       0.346  -0.007   0.946  1.00  0.00     0.288 C 
HETATM    3  N2  UNL     1      -0.599   0.402  -0.111  1.00  0.00     0.094 N 
HETATM    4  C7  UNL     1       0.395  -0.200  -1.020  1.00  0.00     0.288 C 
ENDROOT
BRANCH   1   5
HETATM    5  C1  UNL     1       2.690  -0.245   0.053  1.00  0.00     0.238 C 
HETATM    6  N1  UNL     1       3.768   0.085  -0.799  1.00  0.00    -0.062 NA
HETATM    7  O1  UNL     1       2.864  -1.141   0.908  1.00  0.00    -0.276 OA
ENDBRANCH   1   5
BRANCH   3   8
HETATM    8  C4  UNL     1      -1.857  -0.309  -0.055  1.00  0.00     0.223 A 
HETATM    9  C5  UNL     1      -2.757  -0.198   1.109  1.00  0.00     0.038 A 
HETATM   10  C6  UNL     1      -3.062   0.651  -0.102  1.00  0.00     0.038 A 
ENDBRANCH   3   8
TORSDOF 2
