REMARK  11 active torsions:
REMARK  status: ('A' for Active; 'I' for Inactive)
REMARK    1  A    between atoms: C2_2  and  C3_3 
REMARK    2  A    between atoms: C3_3  and  C4_4 
REMARK    3  A    between atoms: C4_4  and  C5_5 
REMARK    4  A    between atoms: C6_7  and  C7_8 
REMARK    5  A    between atoms: C7_8  and  C8_9 
REMARK    6  A    between atoms: C8_9  and  C9_10 
REMARK    7  A    between atoms: C9_10  and  C10_11 
REMARK    8  A    between atoms: C13_14  and  N1_15 
REMARK    9  A    between atoms: C17_23  and  O3_24 
REMARK   10  A    between atoms: C20_29  and  O5_30 
REMARK   11  A    between atoms: O5_30  and  C21_31 
ROOT
HETATM    1  C5  UNL     1       1.827   0.018  -1.025  1.00  0.00     0.171 C 
HETATM    2  O1  UNL     1       0.491  -0.392  -1.085  1.00  0.00    -0.362 OA
HETATM    3  C6  UNL     1      -0.248   0.605  -0.334  1.00  0.00     0.139 C 
HETATM    4  C13 UNL     1      -0.886   1.419  -1.428  1.00  0.00     0.258 C 
HETATM    5  C14 UNL     1      -0.769   2.864  -1.382  1.00  0.00     0.023 A 
HETATM    6  C15 UNL     1      -1.482   3.921  -1.961  1.00  0.00     0.061 A 
HETATM    7  C16 UNL     1      -2.659   3.686  -2.837  1.00  0.00     0.077 C 
HETATM    8  O2  UNL     1      -0.923   5.023  -1.584  1.00  0.00    -0.292 OA
HETATM    9  C17 UNL     1       0.105   4.831  -0.802  1.00  0.00     0.198 A 
HETATM   10  C18 UNL     1       0.229   3.447  -0.654  1.00  0.00     0.083 A 
HETATM   11  C19 UNL     1       1.147   2.595   0.086  1.00  0.00     0.209 C 
HETATM   12  O4  UNL     1       2.298   2.944   0.316  1.00  0.00    -0.288 OA
HETATM   13  C20 UNL     1       0.672   1.246   0.584  1.00  0.00     0.209 C 
HETATM   14  C23 UNL     1       1.936   0.396   0.419  1.00  0.00     0.056 C 
HETATM   15  N2  UNL     1       2.728   0.176   1.336  1.00  0.00    -0.401 N 
ATOM     16  H21 UNL     1       2.802   0.434   2.320  1.00  0.00     0.155 HD
ATOM     17  H22 UNL     1       3.569  -0.390   1.226  1.00  0.00     0.155 HD
ENDROOT
BRANCH   3  18
HETATM   18  C7  UNL     1      -1.327  -0.317   0.299  1.00  0.00     0.045 C 
BRANCH  18  19
HETATM   19  C8  UNL     1      -0.685  -1.389   1.103  1.00  0.00     0.004 C 
BRANCH  19  20
HETATM   20  C9  UNL     1      -1.606  -2.311   1.815  1.00  0.00     0.004 C 
BRANCH  20  21
HETATM   21  C10 UNL     1      -2.571  -3.142   1.072  1.00  0.00    -0.023 C 
HETATM   22  C11 UNL     1      -3.623  -2.468   0.260  1.00  0.00     0.009 C 
HETATM   23  C12 UNL     1      -3.298  -3.995   2.143  1.00  0.00     0.009 C 
ENDBRANCH  20  21
ENDBRANCH  19  20
ENDBRANCH  18  19
ENDBRANCH   3  18
BRANCH   4  24
HETATM   24  N1  UNL     1      -2.239   0.945  -1.656  1.00  0.00    -0.068 N 
ATOM     25  H13 UNL     1      -2.269  -0.056  -1.852  1.00  0.00     0.275 HD
ATOM     26  H12 UNL     1      -2.796   0.943  -0.802  1.00  0.00     0.275 HD
ATOM     27  H11 UNL     1      -2.671   1.497  -2.397  1.00  0.00     0.275 HD
ENDBRANCH   4  24
BRANCH  13  28
HETATM   28  O5  UNL     1       0.403   1.305   1.937  1.00  0.00    -0.292 OA
BRANCH  28  29
HETATM   29  C21 UNL     1      -0.565   1.906   2.653  1.00  0.00     0.256 C 
HETATM   30  C22 UNL     1      -0.676   1.821   4.154  1.00  0.00     0.126 C 
HETATM   31  O6  UNL     1      -1.430   2.574   2.093  1.00  0.00    -0.266 OA
ENDBRANCH  28  29
ENDBRANCH  13  28
BRANCH   1  32
HETATM   32  C4  UNL     1       2.642  -1.183  -1.406  1.00  0.00     0.038 C 
BRANCH  32  33
HETATM   33  C3  UNL     1       4.112  -0.982  -1.451  1.00  0.00     0.002 C 
BRANCH  33  34
HETATM   34  C2  UNL     1       4.748  -2.314  -1.849  1.00  0.00    -0.004 C 
HETATM   35  C1  UNL     1       4.414  -3.392  -0.852  1.00  0.00     0.005 C 
ENDBRANCH  33  34
ENDBRANCH  32  33
ENDBRANCH   1  32
BRANCH   9  36
HETATM   36  O3  UNL     1       0.975   5.716  -0.183  1.00  0.00    -0.340 OA
ATOM     37  H3  UNL     1       1.723   5.576   0.386  1.00  0.00     0.220 HD
ENDBRANCH   9  36
TORSDOF 11
