REMARK  12 active torsions:
REMARK  status: ('A' for Active; 'I' for Inactive)
REMARK    1  A    between atoms: O1_2  and  C2_3 
REMARK    2  A    between atoms: C2_3  and  C3_4 
REMARK    3  A    between atoms: C3_4  and  O2_5 
REMARK    4  A    between atoms: C3_4  and  C4_7 
REMARK    5  A    between atoms: C3_4  and  C21_31 
REMARK    6  A    between atoms: C4_7  and  C5_8 
REMARK    7  A    between atoms: C5_8  and  C7_10 
REMARK    8  A    between atoms: C7_10  and  C8_11 
REMARK    9  A    between atoms: C8_11  and  C9_13 
REMARK   10  A    between atoms: C10_14  and  O4_15 
REMARK   11  A    between atoms: C13_19  and  O5_20 
REMARK   12  A    between atoms: C15_22  and  O6_23 
ROOT
HETATM    1  C21 UNL     1      -5.185   0.439   1.556  1.00  0.00     0.125 C 
HETATM    2  C22 UNL     1      -5.426  -0.915   2.129  1.00  0.00     0.028 C 
HETATM    3  C23 UNL     1      -4.392   1.211   2.534  1.00  0.00     0.066 C 
HETATM    4  N1  UNL     1      -3.759   1.822   3.287  1.00  0.00    -0.197 NA
ENDROOT
BRANCH   1   5
HETATM    5  C3  UNL     1      -4.473   0.416   0.203  1.00  0.00     0.095 C 
BRANCH   5   6
HETATM    6  C2  UNL     1      -5.335  -0.350  -0.748  1.00  0.00     0.206 C 
BRANCH   6   7
HETATM    7  O1  UNL     1      -6.630   0.007  -0.846  1.00  0.00    -0.393 OA
HETATM    8  C1  UNL     1      -6.972   1.245  -1.265  1.00  0.00     0.201 C 
ENDBRANCH   6   7
ENDBRANCH   5   6
BRANCH   5   9
HETATM    9  O2  UNL     1      -4.371   1.737  -0.176  1.00  0.00    -0.386 OA
ATOM     10  H2  UNL     1      -3.823   2.224   0.428  1.00  0.00     0.210 HD
ENDBRANCH   5   9
BRANCH   5  11
HETATM   11  C4  UNL     1      -3.141  -0.290   0.352  1.00  0.00     0.046 C 
BRANCH  11  12
HETATM   12  C5  UNL     1      -2.349  -0.447  -0.885  1.00  0.00    -0.008 C 
HETATM   13  C6  UNL     1      -1.980   0.857  -1.499  1.00  0.00     0.010 C 
BRANCH  12  14
HETATM   14  C7  UNL     1      -1.162  -1.398  -0.772  1.00  0.00     0.088 C 
BRANCH  14  15
HETATM   15  C8  UNL     1      -0.161  -1.046   0.199  1.00  0.00     0.165 C 
HETATM   16  O3  UNL     1      -0.574  -1.001   1.420  1.00  0.00    -0.292 OA
BRANCH  15  17
HETATM   17  C9  UNL     1       1.231  -0.738   0.004  1.00  0.00     0.080 A 
HETATM   18  C10 UNL     1       2.024  -0.411   1.135  1.00  0.00     0.095 A 
HETATM   19  C11 UNL     1       3.351  -0.107   1.071  1.00  0.00     0.034 A 
HETATM   20  C12 UNL     1       3.941  -0.124  -0.183  1.00  0.00     0.119 A 
HETATM   21  C20 UNL     1       4.181   0.229   2.213  1.00  0.00     0.016 A 
HETATM   22  C13 UNL     1       3.191  -0.438  -1.294  1.00  0.00     0.137 A 
HETATM   23  O7  UNL     1       5.285   0.184  -0.253  1.00  0.00    -0.333 OA
HETATM   24  C15 UNL     1       1.838  -0.747  -1.223  1.00  0.00     0.118 A 
HETATM   25  C16 UNL     1       6.127   0.511   0.801  1.00  0.00     0.078 A 
HETATM   26  C17 UNL     1       6.677   1.917   0.528  1.00  0.00     0.051 C 
HETATM   27  C18 UNL     1       7.311  -0.456   0.912  1.00  0.00     0.051 C 
HETATM   28  C19 UNL     1       5.467   0.519   2.118  1.00  0.00     0.012 A 
BRANCH  18  29
HETATM   29  O4  UNL     1       1.412  -0.402   2.376  1.00  0.00    -0.359 OA
ATOM     30  H4  UNL     1       1.943  -0.183   3.133  1.00  0.00     0.217 HD
ENDBRANCH  18  29
BRANCH  22  31
HETATM   31  O5  UNL     1       3.781  -0.454  -2.549  1.00  0.00    -0.351 OA
HETATM   32  C14 UNL     1       4.382  -1.564  -3.141  1.00  0.00     0.210 C 
ENDBRANCH  22  31
BRANCH  24  33
HETATM   33  O6  UNL     1       1.161  -1.054  -2.405  1.00  0.00    -0.357 OA
ATOM     34  H6  UNL     1       1.582  -1.060  -3.256  1.00  0.00     0.217 HD
ENDBRANCH  24  33
ENDBRANCH  15  17
ENDBRANCH  14  15
ENDBRANCH  12  14
ENDBRANCH  11  12
ENDBRANCH   5  11
ENDBRANCH   1   5
TORSDOF 12
