REMARK  15 active torsions:
REMARK  status: ('A' for Active; 'I' for Inactive)
REMARK    1  A    between atoms: O1_2  and  C2_3 
REMARK    2  A    between atoms: C2_3  and  O2_5 
REMARK    3  A    between atoms: C2_3  and  C4_7 
REMARK    4  A    between atoms: C4_7  and  O4_9 
REMARK    5  A    between atoms: O4_9  and  C5_10 
REMARK    6  A    between atoms: C7_12  and  O5_13 
REMARK    7  A    between atoms: C8_15  and  O6_16 
REMARK    8  A    between atoms: C10_19  and  C11_20 
REMARK    9  A    between atoms: C12_21  and  C13_22 
REMARK   10  A    between atoms: C13_22  and  O8_24 
REMARK   11  A    between atoms: O8_24  and  C14_25 
REMARK   12  A    between atoms: C14_25  and  C15_26 
REMARK   13  A    between atoms: C16_27  and  C18_29 
REMARK   14  A    between atoms: C18_29  and  C19_30 
REMARK   15  A    between atoms: C19_30  and  C20_31 
ROOT
HETATM    1  C5  UNL     1      -4.200  -0.650  -1.237  1.00  0.00     0.092 A 
HETATM    2  C6  UNL     1      -4.493  -1.787  -1.923  1.00  0.00     0.077 A 
HETATM    3  C7  UNL     1      -3.533  -2.714  -2.279  1.00  0.00     0.101 A 
HETATM    4  C8  UNL     1      -2.230  -2.480  -1.928  1.00  0.00     0.099 A 
HETATM    5  C9  UNL     1      -1.904  -1.309  -1.216  1.00  0.00     0.053 A 
HETATM    6  C10 UNL     1      -2.852  -0.387  -0.863  1.00  0.00     0.001 A 
ENDROOT
BRANCH   6   7
HETATM    7  C11 UNL     1      -2.581   0.780  -0.069  1.00  0.00     0.020 C 
HETATM    8  C12 UNL     1      -1.550   1.471   0.161  1.00  0.00     0.083 C 
BRANCH   8   9
HETATM    9  C13 UNL     1      -0.158   1.515  -0.203  1.00  0.00     0.283 C 
HETATM   10  O7  UNL     1       0.446   0.758  -0.992  1.00  0.00    -0.260 OA
BRANCH   9  11
HETATM   11  O8  UNL     1       0.689   2.494   0.353  1.00  0.00    -0.314 OA
BRANCH  11  12
HETATM   12  C14 UNL     1       2.033   2.691   0.120  1.00  0.00     0.206 C 
BRANCH  12  13
HETATM   13  C15 UNL     1       2.952   1.587   0.385  1.00  0.00     0.002 C 
HETATM   14  C16 UNL     1       3.738   1.062  -0.516  1.00  0.00    -0.085 C 
HETATM   15  C17 UNL     1       3.744   1.585  -1.905  1.00  0.00     0.043 C 
BRANCH  14  16
HETATM   16  C18 UNL     1       4.626  -0.074  -0.113  1.00  0.00     0.037 C 
BRANCH  16  17
HETATM   17  C19 UNL     1       6.078   0.242  -0.306  1.00  0.00     0.031 C 
BRANCH  17  18
HETATM   18  C20 UNL     1       6.858  -0.951   0.125  1.00  0.00    -0.024 C 
HETATM   19  C21 UNL     1       7.750  -0.884   1.112  1.00  0.00    -0.091 C 
HETATM   20  C22 UNL     1       8.538  -2.050   1.560  1.00  0.00     0.042 C 
HETATM   21  C23 UNL     1       7.959   0.437   1.793  1.00  0.00     0.042 C 
ENDBRANCH  17  18
ENDBRANCH  16  17
ENDBRANCH  14  16
ENDBRANCH  12  13
ENDBRANCH  11  12
ENDBRANCH   9  11
ENDBRANCH   8   9
ENDBRANCH   6   7
BRANCH   1  22
HETATM   22  O4  UNL     1      -5.197   0.246  -0.905  1.00  0.00    -0.274 OA
BRANCH  22  23
HETATM   23  C4  UNL     1      -5.969   0.087   0.265  1.00  0.00     0.327 C 
HETATM   24  O3  UNL     1      -5.672  -0.917   0.956  1.00  0.00    -0.259 OA
BRANCH  23  25
HETATM   25  C2  UNL     1      -7.019   1.049   0.596  1.00  0.00     0.249 C 
HETATM   26  C3  UNL     1      -8.351   0.335   0.647  1.00  0.00     0.090 C 
BRANCH  25  27
HETATM   27  O1  UNL     1      -6.762   1.775   1.715  1.00  0.00    -0.352 OA
HETATM   28  C1  UNL     1      -6.609   1.137   2.902  1.00  0.00     0.206 C 
ENDBRANCH  25  27
BRANCH  25  29
HETATM   29  O2  UNL     1      -7.134   1.979  -0.481  1.00  0.00    -0.358 OA
ATOM     30  H2  UNL     1      -7.314   1.471  -1.264  1.00  0.00     0.213 HD
ENDBRANCH  25  29
ENDBRANCH  23  25
ENDBRANCH  22  23
ENDBRANCH   1  22
BRANCH   4  31
HETATM   31  O6  UNL     1      -1.240  -3.391  -2.270  1.00  0.00    -0.358 OA
ATOM     32  H6  UNL     1      -0.336  -3.229  -2.027  1.00  0.00     0.217 HD
ENDBRANCH   4  31
BRANCH   3  33
HETATM   33  O5  UNL     1      -3.861  -3.863  -2.979  1.00  0.00    -0.358 OA
ATOM     34  H5  UNL     1      -3.201  -4.501  -3.224  1.00  0.00     0.217 HD
ENDBRANCH   3  33
TORSDOF 15
