REMARK  7 active torsions:
REMARK  status: ('A' for Active; 'I' for Inactive)
REMARK    1  A    between atoms: C1_4  and  S1_6 
REMARK    2  A    between atoms: S1_6  and  C2_7 
REMARK    3  A    between atoms: C2_7  and  C3_8 
REMARK    4  A    between atoms: C3_8  and  N3_9 
REMARK    5  A    between atoms: C4_10  and  N4_11 
REMARK    6  A    between atoms: C8_23  and  N9_24 
REMARK    7  A    between atoms: N10_27  and  O2_28 
ROOT
HETATM    1  N3  UNL     1      -0.049   0.463  -0.044  1.00  0.00    -0.178 N 
HETATM    2  C4  UNL     1      -0.972   1.469  -0.138  1.00  0.00     0.688 A 
HETATM    3  N7  UNL     1      -2.161   0.887  -0.362  1.00  0.00    -0.183 N 
ATOM      4  H7  UNL     1      -3.036   1.398  -0.476  1.00  0.00     0.184 HD
HETATM    5  C6  UNL     1      -2.056  -0.452  -0.418  1.00  0.00     0.146 A 
HETATM    6  C7  UNL     1      -3.078  -1.346  -0.630  1.00  0.00     0.289 C 
HETATM    7  O1  UNL     1      -4.133  -0.866  -1.101  1.00  0.00    -0.265 OA
HETATM    8  N8  UNL     1      -3.117  -2.665  -0.408  1.00  0.00    -0.152 N 
ATOM      9  H8  UNL     1      -4.014  -3.133  -0.536  1.00  0.00     0.187 HD
HETATM   10  C8  UNL     1      -2.066  -3.434  -0.027  1.00  0.00     0.705 C 
HETATM   11  N10 UNL     1      -0.747  -3.148  -0.013  1.00  0.00    -0.062 N 
HETATM   12  C9  UNL     1      -0.138  -1.961  -0.190  1.00  0.00     0.174 C 
HETATM   13  C10 UNL     1      -0.701  -0.698  -0.212  1.00  0.00     0.103 A 
ENDROOT
BRANCH   1  14
HETATM   14  C3  UNL     1       1.372   0.611   0.197  1.00  0.00     0.158 C 
BRANCH  14  15
HETATM   15  C2  UNL     1       2.175   0.751  -1.079  1.00  0.00     0.103 C 
BRANCH  15  16
HETATM   16  S1  UNL     1       3.909   0.929  -0.660  1.00  0.00    -0.096 SA
BRANCH  16  17
HETATM   17  C1  UNL     1       4.614  -0.515   0.076  1.00  0.00     0.147 C 
HETATM   18  N1  UNL     1       5.857  -0.480   0.419  1.00  0.00    -0.382 N 
ATOM     19  H12 UNL     1       6.264  -1.313   0.844  1.00  0.00     0.157 HD
ATOM     20  H11 UNL     1       6.372   0.384   0.247  1.00  0.00     0.157 HD
HETATM   21  N2  UNL     1       3.899  -1.715   0.315  1.00  0.00    -0.075 NA
ENDBRANCH  16  17
ENDBRANCH  15  16
ENDBRANCH  14  15
ENDBRANCH   1  14
BRANCH   2  22
HETATM   22  N4  UNL     1      -0.725   2.860  -0.022  1.00  0.00    -0.165 N 
HETATM   23  C5  UNL     1      -1.682   3.692  -0.130  1.00  0.00     0.215 C 
HETATM   24  N5  UNL     1      -1.412   5.082  -0.011  1.00  0.00    -0.066 NA
HETATM   25  N6  UNL     1      -3.012   3.282  -0.367  1.00  0.00    -0.066 NA
ATOM     26  H4  UNL     1       0.223   3.195   0.149  1.00  0.00     0.186 HD
ENDBRANCH   2  22
BRANCH  11  27
HETATM   27  O2  UNL     1       0.127  -4.189   0.213  1.00  0.00    -0.270 OA
ATOM     28  H2  UNL     1       1.055  -3.988   0.223  1.00  0.00     0.245 HD
ENDBRANCH  11  27
BRANCH  10  29
HETATM   29  N9  UNL     1      -2.365  -4.618   0.385  1.00  0.00    -0.232 N 
ATOM     30  H92 UNL     1      -3.362  -4.834   0.374  1.00  0.00     0.174 HD
ATOM     31  H91 UNL     1      -1.575  -5.196   0.671  1.00  0.00     0.174 HD
ENDBRANCH  10  29
TORSDOF 7
