REMARK  5 active torsions:
REMARK  status: ('A' for Active; 'I' for Inactive)
REMARK    1  A    between atoms: C4_6  and  N2_7 
REMARK    2  A    between atoms: C7_14  and  C8_15 
REMARK    3  A    between atoms: C10_17  and  C11_18 
REMARK    4  A    between atoms: C11_18  and  N4_19 
REMARK    5  A    between atoms: C11_18  and  N5_23 
ROOT
HETATM    1  C8  UNL     1      -0.045   0.292   0.689  1.00  0.00     0.035 C 
HETATM    2  C9  UNL     1      -1.315   0.895   0.423  1.00  0.00     0.060 A 
HETATM    3  C10 UNL     1      -2.251   0.111  -0.272  1.00  0.00     0.085 A 
HETATM    4  N6  UNL     1      -3.463   0.620  -0.487  1.00  0.00    -0.307 N 
ATOM      5  H6  UNL     1      -4.149   0.057  -0.990  1.00  0.00     0.170 HD
HETATM    6  C12 UNL     1      -3.818   1.845  -0.068  1.00  0.00     0.327 A 
HETATM    7  O3  UNL     1      -4.986   2.267  -0.306  1.00  0.00    -0.247 OA
HETATM    8  N7  UNL     1      -2.914   2.585   0.596  1.00  0.00    -0.275 N 
ATOM      9  H7  UNL     1      -3.181   3.516   0.916  1.00  0.00     0.173 HD
HETATM   10  C13 UNL     1      -1.672   2.143   0.853  1.00  0.00     0.261 A 
HETATM   11  O4  UNL     1      -0.846   2.888   1.493  1.00  0.00    -0.267 OA
ENDROOT
BRANCH   1  12
HETATM   12  C7  UNL     1       1.128   0.316   0.173  1.00  0.00     0.015 A 
HETATM   13  C3  UNL     1       2.181  -0.436   0.722  1.00  0.00     0.057 A 
HETATM   14  C2  UNL     1       1.973  -1.183   1.785  1.00  0.00    -0.000 C 
HETATM   15  N1  UNL     1       3.435  -0.417   0.180  1.00  0.00    -0.192 N 
HETATM   16  C1  UNL     1       3.146  -1.974   2.336  1.00  0.00     0.038 C 
HETATM   17  C4  UNL     1       3.699   0.317  -0.890  1.00  0.00     0.676 A 
ATOM     18  H1  UNL     1       4.176  -0.975   0.604  1.00  0.00     0.184 HD
HETATM   19  N3  UNL     1       2.738   1.047  -1.449  1.00  0.00    -0.195 N 
HETATM   20  C5  UNL     1       1.461   1.052  -0.928  1.00  0.00     0.035 A 
ATOM     21  H3  UNL     1       2.948   1.610  -2.273  1.00  0.00     0.184 HD
HETATM   22  C6  UNL     1       0.529   1.910  -1.647  1.00  0.00     0.070 C 
BRANCH  17  23
HETATM   23  N2  UNL     1       4.899   0.350  -1.428  1.00  0.00    -0.234 N 
ATOM     24  H22 UNL     1       5.636  -0.210  -0.999  1.00  0.00     0.174 HD
ATOM     25  H21 UNL     1       5.102   0.915  -2.252  1.00  0.00     0.174 HD
ENDBRANCH  17  23
ENDBRANCH   1  12
BRANCH   3  26
HETATM   26  C11 UNL     1      -1.889  -1.265  -0.756  1.00  0.00     0.401 C 
BRANCH  26  27
HETATM   27  N4  UNL     1      -2.340  -1.465  -2.117  1.00  0.00    -0.047 N 
ATOM     28  H43 UNL     1      -3.338  -1.281  -2.215  1.00  0.00     0.277 HD
ATOM     29  H42 UNL     1      -1.988  -0.740  -2.742  1.00  0.00     0.277 HD
ATOM     30  H41 UNL     1      -2.094  -2.399  -2.445  1.00  0.00     0.277 HD
ENDBRANCH  26  27
BRANCH  26  31
HETATM   31  N5  UNL     1      -2.512  -2.193   0.146  1.00  0.00    -0.117 N 
HETATM   32  O1  UNL     1      -1.835  -2.996   0.797  1.00  0.00    -0.534 OA
HETATM   33  O2  UNL     1      -3.867  -2.196   0.294  1.00  0.00    -0.534 OA
ENDBRANCH  26  31
ENDBRANCH   3  26
TORSDOF 5
