REMARK  11 active torsions:
REMARK  status: ('A' for Active; 'I' for Inactive)
REMARK    1  A    between atoms: N1_1  and  C1_4 
REMARK    2  A    between atoms: C1_4  and  C2_6 
REMARK    3  A    between atoms: C2_6  and  O1_7 
REMARK    4  A    between atoms: O1_7  and  C3_8 
REMARK    5  A    between atoms: C3_8  and  C4_10 
REMARK    6  A    between atoms: C4_10  and  N3_11 
REMARK    7  A    between atoms: C5_15  and  C6_16 
REMARK    8  A    between atoms: C6_16  and  C7_17 
REMARK    9  A    between atoms: C9_23  and  N8_24 
REMARK   10  A    between atoms: C10_29  and  N10_30 
REMARK   11  A    between atoms: C12_36  and  C13_37 
ROOT
HETATM    1  C7  UNL     1      -2.585   0.231  -1.701  1.00  0.00     0.051 A 
HETATM    2  N6  UNL     1      -2.042  -1.019  -1.553  1.00  0.00    -0.341 N 
ATOM      3  H6  UNL     1      -1.338  -1.358  -2.208  1.00  0.00     0.167 HD
HETATM    4  C8  UNL     1      -2.449  -1.785  -0.539  1.00  0.00     0.152 A 
HETATM    5  N7  UNL     1      -1.960  -3.021  -0.321  1.00  0.00    -0.174 N 
ATOM      6  H7  UNL     1      -1.255  -3.404  -0.950  1.00  0.00     0.186 HD
HETATM    7  C9  UNL     1      -2.393  -3.752   0.717  1.00  0.00     0.679 A 
HETATM    8  N9  UNL     1      -3.328  -3.293   1.583  1.00  0.00    -0.175 N 
ATOM      9  H9  UNL     1      -3.639  -3.870   2.364  1.00  0.00     0.186 HD
HETATM   10  C10 UNL     1      -3.834  -2.077   1.398  1.00  0.00     0.145 A 
HETATM   11  C11 UNL     1      -3.406  -1.293   0.330  1.00  0.00     0.122 A 
HETATM   12  N11 UNL     1      -3.931  -0.083   0.183  1.00  0.00    -0.343 N 
ATOM     13  H11 UNL     1      -4.635   0.247   0.843  1.00  0.00     0.166 HD
HETATM   14  C12 UNL     1      -3.532   0.731  -0.855  1.00  0.00     0.133 A 
ENDROOT
BRANCH   1  15
HETATM   15  C6  UNL     1      -2.010   1.074  -2.794  1.00  0.00     0.138 C 
BRANCH  15  16
HETATM   16  C5  UNL     1      -0.892   1.916  -2.313  1.00  0.00     0.115 A 
HETATM   17  N5  UNL     1      -0.800   3.136  -1.799  1.00  0.00    -0.270 N 
HETATM   18  N4  UNL     1       0.459   3.416  -1.517  1.00  0.00    -0.003 NA
ATOM     19  H5  UNL     1      -1.587   3.766  -1.644  1.00  0.00     0.185 HD
HETATM   20  N3  UNL     1       1.220   2.354  -1.854  1.00  0.00    -0.207 N 
HETATM   21  N12 UNL     1       0.397   1.474  -2.325  1.00  0.00    -0.272 N 
ATOM     22  H12 UNL     1       0.680   0.555  -2.666  1.00  0.00     0.189 HD
BRANCH  20  23
HETATM   23  C4  UNL     1       2.644   2.215  -1.709  1.00  0.00     0.278 C 
BRANCH  23  24
HETATM   24  C3  UNL     1       3.018   1.613  -0.418  1.00  0.00     0.283 C 
HETATM   25  O2  UNL     1       2.064   1.197   0.325  1.00  0.00    -0.263 OA
BRANCH  24  26
HETATM   26  O1  UNL     1       4.295   1.460   0.061  1.00  0.00    -0.263 OA
BRANCH  26  27
HETATM   27  C2  UNL     1       4.697   0.881   1.271  1.00  0.00     0.310 A 
HETATM   28  N13 UNL     1       4.456   1.687   2.434  1.00  0.00    -0.268 N 
HETATM   29  N14 UNL     1       5.649   1.888   2.674  1.00  0.00    -0.242 N 
ATOM     30  H13 UNL     1       3.599   1.988   2.899  1.00  0.00     0.186 HD
HETATM   31  N15 UNL     1       6.056   1.150   1.602  1.00  0.00    -0.055 NA
ATOM     32  H14 UNL     1       6.143   2.408   3.399  1.00  0.00     0.203 HD
BRANCH  27  33
HETATM   33  C1  UNL     1       4.374  -0.558   1.454  1.00  0.00     0.164 C 
HETATM   34  N2  UNL     1       4.810  -1.214   2.629  1.00  0.00    -0.081 NA
BRANCH  33  35
HETATM   35  N1  UNL     1       3.734  -1.196   0.564  1.00  0.00    -0.386 N 
ATOM     36  H12 UNL     1       3.512  -2.184   0.690  1.00  0.00     0.157 HD
ATOM     37  H11 UNL     1       3.420  -0.723  -0.283  1.00  0.00     0.157 HD
ENDBRANCH  33  35
ENDBRANCH  27  33
ENDBRANCH  26  27
ENDBRANCH  24  26
ENDBRANCH  23  24
ENDBRANCH  20  23
ENDBRANCH  15  16
ENDBRANCH   1  15
BRANCH  14  38
HETATM   38  C13 UNL     1      -4.220   2.012  -1.001  1.00  0.00     0.228 C 
HETATM   39  O3  UNL     1      -5.038   2.327  -0.068  1.00  0.00    -0.643 OA
HETATM   40  O4  UNL     1      -4.106   2.920  -2.017  1.00  0.00    -0.643 OA
ENDBRANCH  14  38
BRANCH   7  41
HETATM   41  N8  UNL     1      -1.906  -4.934   0.905  1.00  0.00    -0.234 N 
ATOM     42  H82 UNL     1      -1.202  -5.280   0.253  1.00  0.00     0.174 HD
ATOM     43  H81 UNL     1      -2.235  -5.490   1.694  1.00  0.00     0.174 HD
ENDBRANCH   7  41
BRANCH  10  44
HETATM   44  N10 UNL     1      -4.723  -1.647   2.231  1.00  0.00    -0.383 N 
ATOM     45 2H10 UNL     1      -5.037  -2.221   3.013  1.00  0.00     0.157 HD
ATOM     46 1H10 UNL     1      -5.111  -0.714   2.089  1.00  0.00     0.157 HD
ENDBRANCH  10  44
TORSDOF 11
