REMARK  12 active torsions:
REMARK  status: ('A' for Active; 'I' for Inactive)
REMARK    1  A    between atoms: O1_2  and  C2_3 
REMARK    2  A    between atoms: C2_3  and  C3_5 
REMARK    3  A    between atoms: C4_6  and  N1_7 
REMARK    4  A    between atoms: N1_7  and  C5_9 
REMARK    5  A    between atoms: C7_16  and  C8_17 
REMARK    6  A    between atoms: C8_17  and  N4_18 
REMARK    7  A    between atoms: C8_17  and  O3_22 
REMARK    8  A    between atoms: C9_24  and  C10_25 
REMARK    9  A    between atoms: C10_25  and  O4_26 
REMARK   10  A    between atoms: C10_25  and  C11_28 
REMARK   11  A    between atoms: N5_33  and  N6_35 
REMARK   12  A    between atoms: C14_42  and  O8_43 
ROOT
HETATM    1  C5  UNL     1      -0.253  -0.299   1.151  1.00  0.00     0.230 A 
HETATM    2  N2  UNL     1      -1.177  -0.146   2.098  1.00  0.00    -0.308 N 
ATOM      3  H2  UNL     1      -0.876  -0.028   3.065  1.00  0.00     0.171 HD
HETATM    4  C6  UNL     1      -2.473  -0.142   1.827  1.00  0.00     0.115 A 
HETATM    5  N3  UNL     1      -3.327   0.008   2.767  1.00  0.00    -0.385 N 
ATOM      6  H31 UNL     1      -4.325   0.011   2.558  1.00  0.00     0.157 HD
ATOM      7  H32 UNL     1      -3.051   0.128   3.742  1.00  0.00     0.157 HD
HETATM    8  C7  UNL     1      -2.857  -0.309   0.470  1.00  0.00     0.074 A 
HETATM    9  C9  UNL     1      -1.908  -0.466  -0.490  1.00  0.00     0.110 A 
HETATM   10  O7  UNL     1      -0.636  -0.447  -0.063  1.00  0.00    -0.280 OA
ENDROOT
BRANCH   1  11
HETATM   11  N1  UNL     1       1.136  -0.291   1.527  1.00  0.00    -0.319 N 
ATOM     12  H1  UNL     1       1.373  -0.169   2.511  1.00  0.00     0.169 HD
BRANCH  11  13
HETATM   13  C4  UNL     1       2.178  -0.444   0.601  1.00  0.00     0.086 C 
HETATM   14  C3  UNL     1       2.883   0.595   0.228  1.00  0.00     0.117 C 
HETATM   15  C15 UNL     1       3.971   0.497  -0.762  1.00  0.00     0.202 C 
HETATM   16  C14 UNL     1       3.893  -0.628  -1.764  1.00  0.00     0.244 C 
HETATM   17  O9  UNL     1       4.936   1.291  -0.802  1.00  0.00    -0.289 OA
HETATM   18  C13 UNL     1       3.655  -1.858  -0.913  1.00  0.00     0.070 C 
HETATM   19  C12 UNL     1       2.544  -1.766   0.025  1.00  0.00     0.100 C 
HETATM   20  N7  UNL     1       4.384  -2.874  -0.995  1.00  0.00    -0.398 N 
HETATM   21  N5  UNL     1       1.865  -2.766   0.360  1.00  0.00    -0.303 N 
ATOM     22  H5  UNL     1       1.118  -2.532   1.014  1.00  0.00     0.186 HD
ATOM     23  H72 UNL     1       4.224  -3.702  -0.422  1.00  0.00     0.156 HD
ATOM     24  H71 UNL     1       5.162  -2.938  -1.652  1.00  0.00     0.156 HD
BRANCH  14  25
HETATM   25  C2  UNL     1       2.602   1.939   0.772  1.00  0.00     0.299 C 
HETATM   26  O2  UNL     1       3.273   2.938   0.420  1.00  0.00    -0.259 OA
BRANCH  25  27
HETATM   27  O1  UNL     1       1.590   2.136   1.686  1.00  0.00    -0.322 OA
HETATM   28  C1  UNL     1       1.292   3.408   2.228  1.00  0.00     0.213 C 
ENDBRANCH  25  27
ENDBRANCH  14  25
BRANCH  16  29
HETATM   29  O8  UNL     1       5.117  -0.760  -2.375  1.00  0.00    -0.381 OA
ATOM     30  H8  UNL     1       5.266   0.012  -2.909  1.00  0.00     0.211 HD
ENDBRANCH  16  29
BRANCH  21  31
HETATM   31  N6  UNL     1       1.895  -4.081   0.055  1.00  0.00    -0.345 N 
ATOM     32  H62 UNL     1       2.649  -4.292  -0.599  1.00  0.00     0.176 HD
ATOM     33  H61 UNL     1       1.343  -4.894   0.327  1.00  0.00     0.176 HD
ENDBRANCH  21  31
ENDBRANCH  11  13
ENDBRANCH   1  11
BRANCH   9  34
HETATM   34  C10 UNL     1      -2.172  -0.650  -1.909  1.00  0.00     0.276 C 
BRANCH  34  35
HETATM   35  O4  UNL     1      -3.450  -0.694  -2.354  1.00  0.00    -0.378 OA
ATOM     36  H4  UNL     1      -3.622  -0.814  -3.280  1.00  0.00     0.211 HD
ENDBRANCH  34  35
BRANCH  34  37
HETATM   37  C11 UNL     1      -1.312   0.224  -2.766  1.00  0.00     0.209 C 
HETATM   38  O5  UNL     1      -1.831   0.790  -3.744  1.00  0.00    -0.646 OA
HETATM   39  O6  UNL     1       0.019   0.406  -2.489  1.00  0.00    -0.646 OA
ENDBRANCH  34  37
ENDBRANCH   9  34
BRANCH   8  40
HETATM   40  C8  UNL     1      -4.301  -0.291   0.277  1.00  0.00     0.357 C 
BRANCH  40  41
HETATM   41  N4  UNL     1      -4.825   0.829   1.116  1.00  0.00    -0.049 N 
ATOM     42  H43 UNL     1      -4.549   0.764   2.096  1.00  0.00     0.277 HD
ATOM     43  H42 UNL     1      -4.379   1.725   0.918  1.00  0.00     0.277 HD
ATOM     44  H41 UNL     1      -5.836   0.842   0.981  1.00  0.00     0.277 HD
ENDBRANCH  40  41
BRANCH  40  45
HETATM   45  O3  UNL     1      -4.867  -1.467   0.798  1.00  0.00    -0.366 OA
ATOM     46  H3  UNL     1      -5.809  -1.455   0.672  1.00  0.00     0.212 HD
ENDBRANCH  40  45
ENDBRANCH   8  40
TORSDOF 12
