REMARK  3 active torsions:
REMARK  status: ('A' for Active; 'I' for Inactive)
REMARK    1  A    between atoms: O1_1  and  C1_3 
REMARK    2  A    between atoms: C1_3  and  C2_4 
REMARK    3  A    between atoms: C7_12  and  O5_13 
ROOT
HETATM    1  C2  UNL     1       1.288   0.047  -0.146  1.00  0.00     0.176 C 
HETATM    2  O2  UNL     1       1.015   1.349   0.184  1.00  0.00    -0.378 OA
HETATM    3  C3  UNL     1      -0.300   1.714  -0.149  1.00  0.00     0.203 C 
HETATM    4  C4  UNL     1      -1.210   0.863   0.648  1.00  0.00     0.179 C 
HETATM    5  O3  UNL     1      -2.548   0.980   0.419  1.00  0.00    -0.357 OA
HETATM    6  C5  UNL     1      -3.102  -0.319   0.489  1.00  0.00     0.339 C 
HETATM    7  O4  UNL     1      -2.032  -1.175   0.841  1.00  0.00    -0.356 OA
HETATM    8  C6  UNL     1      -0.997  -0.587   0.170  1.00  0.00     0.186 C 
HETATM    9  C7  UNL     1       0.378  -0.955   0.584  1.00  0.00     0.180 C 
ENDROOT
BRANCH   1  10
HETATM   10  C1  UNL     1       2.719  -0.296   0.043  1.00  0.00     0.198 C 
BRANCH  10  11
HETATM   11  O1  UNL     1       3.484   0.535  -0.770  1.00  0.00    -0.398 OA
ATOM     12  H1  UNL     1       4.400   0.315  -0.649  1.00  0.00     0.209 HD
ENDBRANCH  10  11
ENDBRANCH   1  10
BRANCH   9  13
HETATM   13  O5  UNL     1       0.778  -2.214   0.189  1.00  0.00    -0.390 OA
ATOM     14  H5  UNL     1       0.216  -2.833   0.640  1.00  0.00     0.210 HD
ENDBRANCH   9  13
TORSDOF 3
