REMARK  3 active torsions:
REMARK  status: ('A' for Active; 'I' for Inactive)
REMARK    1  A    between atoms: O1_2  and  C2_3 
REMARK    2  A    between atoms: C5_7  and  O3_8 
REMARK    3  A    between atoms: C6_11  and  O5_12 
ROOT
HETATM    1  C2  UNL     1       0.944  -0.046   0.697  1.00  0.00     0.156 C 
HETATM    2  C3  UNL     1       0.384   0.923   1.685  1.00  0.00     0.200 C 
HETATM    3  O2  UNL     1      -0.974   0.772   1.743  1.00  0.00    -0.378 OA
HETATM    4  C4  UNL     1      -1.401  -0.047   0.749  1.00  0.00     0.188 C 
HETATM    5  C5  UNL     1      -1.675   0.630  -0.558  1.00  0.00     0.289 C 
HETATM    6  O4  UNL     1      -0.709   0.193  -1.462  1.00  0.00    -0.329 OA
HETATM    7  C6  UNL     1      -0.480  -1.127  -1.063  1.00  0.00     0.269 C 
HETATM    8  C7  UNL     1      -0.226  -0.951   0.408  1.00  0.00     0.106 C 
ENDROOT
BRANCH   1   9
HETATM    9  O1  UNL     1       1.436   0.578  -0.422  1.00  0.00    -0.388 OA
HETATM   10  C1  UNL     1       2.762   0.200  -0.652  1.00  0.00     0.202 C 
ENDBRANCH   1   9
BRANCH   7  11
HETATM   11  O5  UNL     1      -1.678  -1.831  -1.197  1.00  0.00    -0.371 OA
ATOM     12  H5  UNL     1      -1.522  -2.728  -0.926  1.00  0.00     0.212 HD
ENDBRANCH   7  11
BRANCH   5  13
HETATM   13  O3  UNL     1      -1.682   2.018  -0.471  1.00  0.00    -0.368 OA
ATOM     14  H3  UNL     1      -1.856   2.448  -1.300  1.00  0.00     0.212 HD
ENDBRANCH   5  13
TORSDOF 3
