REMARK  3 active torsions:
REMARK  status: ('A' for Active; 'I' for Inactive)
REMARK    1  A    between atoms: C2_3  and  O1_4 
REMARK    2  A    between atoms: C3_6  and  C4_7 
REMARK    3  A    between atoms: C4_7  and  O2_8 
ROOT
HETATM    1  C1  UNL     1       0.398   2.375   0.520  1.00  0.00     0.320 C 
HETATM    2  N1  UNL     1       0.772   1.001   0.370  1.00  0.00     0.177 N 
HETATM    3  C2  UNL     1       1.223   0.627  -0.979  1.00  0.00     0.376 C 
HETATM    4  C3  UNL     1       0.623  -0.753  -0.675  1.00  0.00     0.165 C 
HETATM    5  C5  UNL     1      -0.347   0.087   0.139  1.00  0.00     0.386 C 
HETATM    6  O3  UNL     1      -1.352   0.693  -0.565  1.00  0.00    -0.328 OA
HETATM    7  C6  UNL     1      -2.504  -0.056  -0.352  1.00  0.00     0.199 C 
HETATM    8  C7  UNL     1      -2.115  -0.971   0.773  1.00  0.00     0.199 C 
HETATM    9  O4  UNL     1      -0.870  -0.509   1.249  1.00  0.00    -0.328 OA
ENDROOT
BRANCH   4  10
HETATM   10  C4  UNL     1       1.519  -1.604   0.159  1.00  0.00     0.180 C 
BRANCH  10  11
HETATM   11  O2  UNL     1       1.816  -1.053   1.387  1.00  0.00    -0.400 OA
ATOM     12  H2  UNL     1       2.387  -1.595   1.918  1.00  0.00     0.209 HD
ENDBRANCH  10  11
ENDBRANCH   4  10
BRANCH   3  13
HETATM   13  O1  UNL     1       2.584   0.640  -1.151  1.00  0.00    -0.367 OA
ATOM     14  H1  UNL     1       2.875   0.398  -2.022  1.00  0.00     0.212 HD
ENDBRANCH   3  13
TORSDOF 3
