REMARK  3 active torsions:
REMARK  status: ('A' for Active; 'I' for Inactive)
REMARK    1  A    between atoms: O1_1  and  C1_3 
REMARK    2  A    between atoms: C1_3  and  C2_4 
REMARK    3  A    between atoms: C7_12  and  O4_13 
ROOT
HETATM    1  C2  UNL     1      -1.173   0.075   0.599  1.00  0.00     0.058 C 
HETATM    2  C3  UNL     1      -0.127   1.164   0.355  1.00  0.00     0.130 C 
HETATM    3  N1  UNL     1       1.209   0.813   0.689  1.00  0.00    -0.192 NA
HETATM    4  C4  UNL     1       2.203   0.748  -0.370  1.00  0.00     0.147 C 
HETATM    5  C5  UNL     1       2.712  -0.649  -0.671  1.00  0.00     0.188 C 
HETATM    6  O2  UNL     1       1.701  -1.657  -0.673  1.00  0.00    -0.356 OA
HETATM    7  C6  UNL     1       0.642  -1.013  -0.271  1.00  0.00     0.310 C 
HETATM    8  O3  UNL     1       1.106  -0.506   0.979  1.00  0.00    -0.268 OA
HETATM    9  C7  UNL     1      -0.718  -1.311   0.071  1.00  0.00     0.182 C 
ENDROOT
BRANCH   1  10
HETATM   10  C1  UNL     1      -2.503   0.454   0.068  1.00  0.00     0.172 C 
BRANCH  10  11
HETATM   11  O1  UNL     1      -2.546   0.694  -1.281  1.00  0.00    -0.400 OA
ATOM     12  H1  UNL     1      -3.399   0.937  -1.622  1.00  0.00     0.209 HD
ENDBRANCH  10  11
ENDBRANCH   1  10
BRANCH   9  13
HETATM   13  O4  UNL     1      -0.962  -2.296   0.997  1.00  0.00    -0.390 OA
ATOM     14  H4  UNL     1      -0.683  -3.145   0.674  1.00  0.00     0.210 HD
ENDBRANCH   9  13
TORSDOF 3
