REMARK  9 active torsions:
REMARK  status: ('A' for Active; 'I' for Inactive)
REMARK    1  A    between atoms: C2_2  and  O2_4 
REMARK    2  A    between atoms: O2_4  and  C3_5 
REMARK    3  A    between atoms: C7_9  and  C8_10 
REMARK    4  A    between atoms: C8_10  and  O4_12 
REMARK    5  A    between atoms: O4_12  and  C9_13 
REMARK    6  A    between atoms: C11_16  and  C12_17 
REMARK    7  A    between atoms: C13_20  and  O5_21 
REMARK    8  A    between atoms: C14_23  and  O6_24 
REMARK    9  A    between atoms: C15_26  and  O7_27 
ROOT
HETATM    1  C9  UNL     1      -0.730  -0.365  -0.161  1.00  0.00     0.172 C 
HETATM    2  C10 UNL     1      -0.730  -0.921  -1.553  1.00  0.00     0.109 C 
HETATM    3  S1  UNL     1      -2.446  -1.200  -2.073  1.00  0.00    -0.153 SA
HETATM    4  C11 UNL     1      -3.594  -0.248  -1.037  1.00  0.00     0.143 C 
HETATM    5  C13 UNL     1      -3.863  -0.957   0.265  1.00  0.00     0.168 C 
HETATM    6  C14 UNL     1      -2.730  -0.789   1.255  1.00  0.00     0.179 C 
HETATM    7  C15 UNL     1      -1.425  -1.316   0.756  1.00  0.00     0.179 C 
ENDROOT
BRANCH   1   8
HETATM    8  O4  UNL     1       0.540   0.035   0.297  1.00  0.00    -0.312 OA
BRANCH   8   9
HETATM    9  C8  UNL     1       0.902   1.313   0.613  1.00  0.00     0.266 C 
HETATM   10  O3  UNL     1       0.056   2.223   0.495  1.00  0.00    -0.265 OA
BRANCH   9  11
HETATM   11  C7  UNL     1       2.273   1.592   1.084  1.00  0.00     0.115 C 
HETATM   12  C3  UNL     1       3.356   1.243   0.127  1.00  0.00     0.145 C 
HETATM   13  C4  UNL     1       4.533   0.813   0.970  1.00  0.00     0.033 C 
HETATM   14  C5  UNL     1       3.982   0.394   2.315  1.00  0.00     0.004 C 
HETATM   15  C6  UNL     1       2.549   0.829   2.364  1.00  0.00     0.017 C 
BRANCH  12  16
HETATM   16  O2  UNL     1       3.032   0.347  -0.881  1.00  0.00    -0.315 OA
BRANCH  16  17
HETATM   17  C2  UNL     1       3.113   0.615  -2.238  1.00  0.00     0.255 C 
HETATM   18  C1  UNL     1       2.766  -0.349  -3.301  1.00  0.00     0.126 C 
HETATM   19  O1  UNL     1       3.512   1.764  -2.565  1.00  0.00    -0.266 OA
ENDBRANCH  16  17
ENDBRANCH  12  16
ENDBRANCH   9  11
ENDBRANCH   8   9
ENDBRANCH   1   8
BRANCH   7  20
HETATM   20  O7  UNL     1      -0.589  -1.505   1.874  1.00  0.00    -0.390 OA
ATOM     21  H7  UNL     1      -1.031  -2.110   2.458  1.00  0.00     0.210 HD
ENDBRANCH   7  20
BRANCH   6  22
HETATM   22  O6  UNL     1      -2.695   0.560   1.599  1.00  0.00    -0.390 OA
ATOM     23  H6  UNL     1      -1.984   0.665   2.220  1.00  0.00     0.210 HD
ENDBRANCH   6  22
BRANCH   4  24
HETATM   24  C12 UNL     1      -4.916  -0.163  -1.807  1.00  0.00     0.369 C 
HETATM   25  F1  UNL     1      -5.387  -1.437  -2.025  1.00  0.00    -0.213 F 
HETATM   26  F2  UNL     1      -5.812   0.654  -1.152  1.00  0.00    -0.213 F 
ENDBRANCH   4  24
BRANCH   5  27
HETATM   27  O5  UNL     1      -4.988  -0.374   0.843  1.00  0.00    -0.392 OA
ATOM     28  H5  UNL     1      -5.158  -0.821   1.664  1.00  0.00     0.210 HD
ENDBRANCH   5  27
TORSDOF 9
