REMARK  5 active torsions:
REMARK  status: ('A' for Active; 'I' for Inactive)
REMARK    1  A    between atoms: O1_1  and  C1_3 
REMARK    2  A    between atoms: C5_7  and  N1_8 
REMARK    3  A    between atoms: C7_13  and  N3_14 
REMARK    4  A    between atoms: C12_19  and  C13_20 
REMARK    5  A    between atoms: C16_32  and  O2_33 
ROOT
HETATM    1  N1  UNL     1       1.686  -0.012  -0.308  1.00  0.00    -0.216 N 
ATOM      2  H1  UNL     1       1.491  -1.006  -0.185  1.00  0.00     0.178 HD
HETATM    3  C6  UNL     1       0.637   0.660  -0.290  1.00  0.00     0.729 A 
HETATM    4  N2  UNL     1      -0.511  -0.076  -0.114  1.00  0.00    -0.020 N 
ATOM      5  H2  UNL     1      -0.420  -1.087  -0.015  1.00  0.00     0.203 HD
HETATM    6  C7  UNL     1      -1.728   0.445  -0.065  1.00  0.00     0.710 A 
HETATM    7  N4  UNL     1      -1.812   1.798  -0.200  1.00  0.00    -0.019 N 
ATOM      8  H4  UNL     1      -2.722   2.258  -0.170  1.00  0.00     0.203 HD
HETATM    9  C14 UNL     1      -0.675   2.541  -0.376  1.00  0.00     0.734 A 
HETATM   10  N5  UNL     1      -0.525   3.875  -0.534  1.00  0.00    -0.184 N 
ATOM     11  H5  UNL     1      -1.272   4.570  -0.545  1.00  0.00     0.185 HD
HETATM   12  C15 UNL     1       0.784   4.117  -0.674  1.00  0.00     0.216 A 
HETATM   13  N6  UNL     1       1.445   2.960  -0.606  1.00  0.00    -0.260 N 
ATOM     14  H6  UNL     1       2.455   2.838  -0.681  1.00  0.00     0.189 HD
HETATM   15  N7  UNL     1       0.546   1.993  -0.423  1.00  0.00     0.092 N 
ENDROOT
BRANCH   1  16
HETATM   16  C5  UNL     1       3.068   0.225  -0.452  1.00  0.00     0.130 C 
HETATM   17  C4  UNL     1       3.648  -0.685  -1.491  1.00  0.00     0.028 C 
HETATM   18  C3  UNL     1       5.049  -1.110  -1.345  1.00  0.00     0.005 C 
HETATM   19  C2  UNL     1       5.764  -0.546  -0.136  1.00  0.00     0.034 C 
HETATM   20  C1  UNL     1       4.811  -0.854   1.027  1.00  0.00     0.148 C 
HETATM   21  C16 UNL     1       3.710   0.149   0.895  1.00  0.00     0.170 C 
BRANCH  20  22
HETATM   22  O1  UNL     1       4.415  -2.162   0.894  1.00  0.00    -0.393 OA
ATOM     23  H1  UNL     1       3.825  -2.353   1.614  1.00  0.00     0.210 HD
ENDBRANCH  20  22
BRANCH  21  24
HETATM   24  O2  UNL     1       4.293   1.392   1.243  1.00  0.00    -0.391 OA
ATOM     25  H2  UNL     1       3.593   2.029   1.159  1.00  0.00     0.210 HD
ENDBRANCH  21  24
ENDBRANCH   1  16
BRANCH   6  26
HETATM   26  N3  UNL     1      -2.922  -0.282   0.082  1.00  0.00    -0.207 N 
HETATM   27  C8  UNL     1      -3.219  -0.949   1.315  1.00  0.00     0.142 C 
HETATM   28  C9  UNL     1      -4.560  -0.523   1.803  1.00  0.00     0.020 C 
HETATM   29  C10 UNL     1      -5.631  -0.365   0.787  1.00  0.00     0.004 C 
HETATM   30  C11 UNL     1      -5.226   0.149  -0.547  1.00  0.00     0.031 C 
HETATM   31  C12 UNL     1      -3.858  -0.331  -1.005  1.00  0.00     0.167 C 
BRANCH  31  32
HETATM   32  C13 UNL     1      -4.037  -1.714  -1.600  1.00  0.00     0.376 C 
HETATM   33  F1  UNL     1      -2.871  -2.233  -2.105  1.00  0.00    -0.212 F 
HETATM   34  F2  UNL     1      -4.702  -2.573  -0.745  1.00  0.00    -0.212 F 
ENDBRANCH  31  32
ENDBRANCH   6  26
TORSDOF 5
