REMARK  12 active torsions:
REMARK  status: ('A' for Active; 'I' for Inactive)
REMARK    1  A    between atoms: C3_3  and  O1_6 
REMARK    2  A    between atoms: O1_6  and  C4_7 
REMARK       I    between atoms: C4_7  and  N1_9 
REMARK    3  A    between atoms: C5_11  and  O3_12 
REMARK    4  A    between atoms: C5_11  and  C6_14 
REMARK    5  A    between atoms: C8_17  and  O5_18 
REMARK    6  A    between atoms: O5_18  and  C9_19 
REMARK    7  A    between atoms: C9_19  and  C10_21 
REMARK    8  A    between atoms: C10_21  and  N2_23 
REMARK    9  A    between atoms: C12_27  and  O7_28 
REMARK   10  A    between atoms: C13_30  and  N3_31 
REMARK   11  A    between atoms: N3_31  and  N4_33 
REMARK   12  A    between atoms: N4_33  and  N5_34 
ROOT
HETATM    1  C1  UNL     1       7.962   0.026  -0.344  1.00  0.00     0.021 C 
HETATM    2  C2  UNL     1       7.318  -0.981  -0.513  1.00  0.00    -0.007 C 
HETATM    3  C3  UNL     1       6.513  -2.205  -0.736  1.00  0.00     0.432 C 
HETATM    4  F1  UNL     1       6.943  -2.772  -1.917  1.00  0.00    -0.162 F 
HETATM    5  F2  UNL     1       6.723  -3.014   0.342  1.00  0.00    -0.162 F 
ENDROOT
BRANCH   3   6
HETATM    6  O1  UNL     1       5.151  -1.856  -0.893  1.00  0.00    -0.222 OA
BRANCH   6   7
HETATM    7  C4  UNL     1       4.413  -1.199   0.082  1.00  0.00     0.372 C 
HETATM    8  O2  UNL     1       5.017  -0.909   1.159  1.00  0.00    -0.238 OA
HETATM    9  N1  UNL     1       3.048  -0.864  -0.105  1.00  0.00    -0.282 N 
HETATM   10  C5  UNL     1       2.453   0.084   0.508  1.00  0.00     0.154 C 
ATOM     11  H1  UNL     1       2.508  -1.415  -0.771  1.00  0.00     0.173 HD
BRANCH  10  12
HETATM   12  O3  UNL     1       3.150   0.849   1.414  1.00  0.00    -0.345 OA
ATOM     13  H3  UNL     1       2.707   1.555   1.870  1.00  0.00     0.219 HD
ENDBRANCH  10  12
BRANCH  10  14
HETATM   14  C6  UNL     1       1.061   0.352   0.252  1.00  0.00     0.043 C 
HETATM   15  C7  UNL     1       0.384   1.330   0.862  1.00  0.00     0.151 C 
HETATM   16  O4  UNL     1      -0.957   1.548   0.581  1.00  0.00    -0.328 OA
HETATM   17  C8  UNL     1      -1.759   0.657  -0.140  1.00  0.00     0.305 C 
HETATM   18  C12 UNL     1      -1.078  -0.696  -0.135  1.00  0.00     0.204 C 
HETATM   19  C13 UNL     1       0.299  -0.486  -0.741  1.00  0.00     0.187 C 
BRANCH  17  20
HETATM   20  O5  UNL     1      -3.070   0.580   0.345  1.00  0.00    -0.285 OA
BRANCH  20  21
HETATM   21  C9  UNL     1      -4.126   0.912  -0.488  1.00  0.00     0.291 C 
HETATM   22  O6  UNL     1      -3.863   1.273  -1.660  1.00  0.00    -0.263 OA
BRANCH  21  23
HETATM   23  C10 UNL     1      -5.545   0.865  -0.076  1.00  0.00     0.278 C 
HETATM   24  C11 UNL     1      -6.400   0.068  -1.006  1.00  0.00     0.050 C 
BRANCH  23  25
HETATM   25  N2  UNL     1      -5.674   0.429   1.301  1.00  0.00    -0.066 N 
ATOM     26  H23 UNL     1      -5.207  -0.464   1.458  1.00  0.00     0.275 HD
ATOM     27  H22 UNL     1      -5.119   1.007   1.932  1.00  0.00     0.275 HD
ATOM     28  H21 UNL     1      -6.653   0.397   1.585  1.00  0.00     0.275 HD
ENDBRANCH  23  25
ENDBRANCH  21  23
ENDBRANCH  20  21
ENDBRANCH  17  20
BRANCH  18  29
HETATM   29  O7  UNL     1      -0.887  -1.152   1.171  1.00  0.00    -0.388 OA
ATOM     30  H7  UNL     1      -0.460  -2.001   1.174  1.00  0.00     0.210 HD
ENDBRANCH  18  29
BRANCH  19  31
HETATM   31  N3  UNL     1       0.185   0.217  -1.987  1.00  0.00    -0.240 N 
ATOM     32  H3  UNL     1      -0.444  -0.162  -2.695  1.00  0.00     0.198 HD
BRANCH  31  33
HETATM   33  N4  UNL     1       0.794   1.240  -2.252  1.00  0.00    -0.248 NA
BRANCH  33  34
HETATM   34  N5  UNL     1       1.364   2.318  -2.400  1.00  0.00    -0.261 N 
ATOM     35  H52 UNL     1       0.955   2.517  -1.487  1.00  0.00     0.193 HD
ATOM     36  H51 UNL     1       1.873   3.174  -2.622  1.00  0.00     0.193 HD
ENDBRANCH  33  34
ENDBRANCH  31  33
ENDBRANCH  19  31
ENDBRANCH  10  14
ENDBRANCH   6   7
ENDBRANCH   3   6
TORSDOF 12
