REMARK  10 active torsions:
REMARK  status: ('A' for Active; 'I' for Inactive)
REMARK    1  A    between atoms: C3_4  and  S1_5 
REMARK    2  A    between atoms: S1_5  and  O2_8 
REMARK    3  A    between atoms: O2_8  and  C4_9 
REMARK    4  A    between atoms: C5_11  and  C6_12 
REMARK    5  A    between atoms: C6_12  and  O4_13 
REMARK    6  A    between atoms: C7_15  and  O5_16 
REMARK    7  A    between atoms: C8_18  and  O6_19 
REMARK    8  A    between atoms: C9_21  and  N1_22 
REMARK    9  A    between atoms: N1_22  and  N2_24 
REMARK   10  A    between atoms: N2_24  and  N3_25 
ROOT
HETATM    1  C4  UNL     1      -0.148  -0.251   0.239  1.00  0.00     0.305 C 
HETATM    2  O3  UNL     1      -0.969  -1.260  -0.226  1.00  0.00    -0.348 OA
HETATM    3  C5  UNL     1      -2.298  -1.080   0.009  1.00  0.00     0.179 C 
HETATM    4  C7  UNL     1      -2.805   0.299  -0.329  1.00  0.00     0.180 C 
HETATM    5  C8  UNL     1      -1.758   0.978  -1.183  1.00  0.00     0.179 C 
HETATM    6  C9  UNL     1      -0.512   1.104  -0.309  1.00  0.00     0.202 C 
ENDROOT
BRANCH   1   7
HETATM    7  O2  UNL     1       1.148  -0.540  -0.196  1.00  0.00    -0.259 OA
BRANCH   7   8
HETATM    8  S1  UNL     1       2.241  -0.663   1.048  1.00  0.00     0.150 S 
HETATM    9  O1  UNL     1       2.144  -2.064   1.631  1.00  0.00    -0.227 OA
HETATM   10  S2  UNL     1       1.805   0.425   2.312  1.00  0.00     0.041 SA
BRANCH   8  11
HETATM   11  C3  UNL     1       3.859  -0.285   0.559  1.00  0.00     0.124 C 
HETATM   12  C2  UNL     1       4.218  -0.229  -0.717  1.00  0.00     0.018 C 
HETATM   13  C1  UNL     1       5.606   0.095  -1.125  1.00  0.00     0.062 C 
HETATM   14 CL1  UNL     1       3.044  -0.541  -1.979  1.00  0.00    -0.089 Cl
ENDBRANCH   8  11
ENDBRANCH   7   8
ENDBRANCH   1   7
BRANCH   6  15
HETATM   15  N1  UNL     1      -0.831   2.036   0.762  1.00  0.00    -0.240 N 
ATOM     16  H1  UNL     1      -0.485   1.838   1.701  1.00  0.00     0.197 HD
BRANCH  15  17
HETATM   17  N2  UNL     1      -1.497   3.048   0.583  1.00  0.00    -0.248 NA
BRANCH  17  18
HETATM   18  N3  UNL     1      -1.900   4.181   0.308  1.00  0.00    -0.261 N 
ATOM     19  H32 UNL     1      -0.975   4.488   0.008  1.00  0.00     0.193 HD
ATOM     20  H31 UNL     1      -2.455   5.024   0.159  1.00  0.00     0.193 HD
ENDBRANCH  17  18
ENDBRANCH  15  17
ENDBRANCH   6  15
BRANCH   3  21
HETATM   21  C6  UNL     1      -2.708  -1.366   1.437  1.00  0.00     0.198 C 
BRANCH  21  22
HETATM   22  O4  UNL     1      -2.430  -2.668   1.795  1.00  0.00    -0.398 OA
ATOM     23  H4  UNL     1      -2.687  -2.848   2.692  1.00  0.00     0.209 HD
ENDBRANCH  21  22
ENDBRANCH   3  21
BRANCH   5  24
HETATM   24  O6  UNL     1      -1.412   0.191  -2.279  1.00  0.00    -0.391 OA
ATOM     25  H6  UNL     1      -0.754   0.618  -2.816  1.00  0.00     0.210 HD
ENDBRANCH   5  24
BRANCH   4  26
HETATM   26  O5  UNL     1      -4.042   0.237  -0.950  1.00  0.00    -0.390 OA
ATOM     27  H5  UNL     1      -4.361   1.106  -1.163  1.00  0.00     0.210 HD
ENDBRANCH   4  26
TORSDOF 10
