REMARK  13 active torsions:
REMARK  status: ('A' for Active; 'I' for Inactive)
REMARK    1  A    between atoms: C2_2  and  C3_3 
REMARK    2  A    between atoms: C3_3  and  C4_4 
REMARK    3  A    between atoms: C5_7  and  C6_8 
REMARK       I    between atoms: C6_8  and  N2_10 
REMARK    4  A    between atoms: N2_10  and  C7_12 
REMARK    5  A    between atoms: C7_12  and  C9_14 
REMARK    6  A    between atoms: C9_14  and  C10_15 
REMARK       I    between atoms: C10_15  and  N3_17 
REMARK    7  A    between atoms: N3_17  and  C11_19 
REMARK    8  A    between atoms: C14_27  and  N6_28 
REMARK    9  A    between atoms: N6_28  and  C15_30 
REMARK   10  A    between atoms: C15_30  and  C16_31 
REMARK   11  A    between atoms: C16_31  and  C17_32 
REMARK   12  A    between atoms: C17_32  and  N7_33 
REMARK   13  A    between atoms: C25_43  and  C26_44 
ROOT
HETATM    1  C4  UNL     1      -0.169   4.039  -0.364  1.00  0.00     0.032 A 
HETATM    2  N1  UNL     1       0.989   3.354  -0.107  1.00  0.00    -0.350 N 
ATOM      3  H1  UNL     1       1.877   3.806  -0.325  1.00  0.00     0.166 HD
HETATM    4  C5  UNL     1       1.015   2.122   0.415  1.00  0.00     0.145 A 
HETATM    5  C14 UNL     1      -0.155   1.472   0.724  1.00  0.00     0.134 A 
HETATM    6  N8  UNL     1      -1.287   2.119   0.482  1.00  0.00    -0.342 N 
ATOM      7  H8  UNL     1      -2.164   1.650   0.706  1.00  0.00     0.167 HD
HETATM    8  C25 UNL     1      -1.349   3.379  -0.051  1.00  0.00     0.033 A 
ENDROOT
BRANCH   4   9
HETATM    9  C6  UNL     1       2.281   1.443   0.663  1.00  0.00     0.272 C 
HETATM   10  O1  UNL     1       2.322   0.313   1.190  1.00  0.00    -0.266 OA
HETATM   11  N2  UNL     1       3.482   2.090   0.294  1.00  0.00    -0.351 N 
ATOM     12  H2  UNL     1       3.430   3.011  -0.141  1.00  0.00     0.163 HD
BRANCH  11  13
HETATM   13  C7  UNL     1       4.795   1.490   0.512  1.00  0.00     0.089 C 
HETATM   14  C8  UNL     1       4.774   0.873   1.904  1.00  0.00     0.032 C 
BRANCH  13  15
HETATM   15  C9  UNL     1       5.043   0.484  -0.561  1.00  0.00     0.128 C 
BRANCH  15  16
HETATM   16  C10 UNL     1       6.356  -0.186  -0.434  1.00  0.00     0.225 C 
HETATM   17  O2  UNL     1       7.144   0.169   0.468  1.00  0.00    -0.273 OA
HETATM   18  N3  UNL     1       6.721  -1.213  -1.312  1.00  0.00    -0.306 N 
ATOM     19  H3  UNL     1       6.875  -1.039  -2.305  1.00  0.00     0.171 HD
BRANCH  18  20
HETATM   20  C11 UNL     1       6.855  -2.415  -0.792  1.00  0.00     0.167 A 
HETATM   21  N4  UNL     1       6.691  -2.798   0.477  1.00  0.00    -0.279 N 
HETATM   22  N5  UNL     1       6.864  -4.018   0.774  1.00  0.00    -0.296 N 
ATOM     23  H4  UNL     1       6.431  -2.121   1.194  1.00  0.00     0.189 HD
HETATM   24  C12 UNL     1       7.202  -4.895  -0.157  1.00  0.00     0.066 A 
ATOM     25  H5  UNL     1       6.742  -4.326   1.739  1.00  0.00     0.187 HD
HETATM   26  C13 UNL     1       7.450  -6.375  -0.006  1.00  0.00     0.078 C 
HETATM   27  S1  UNL     1       7.274  -3.896  -1.546  1.00  0.00    -0.038 SA
ENDBRANCH  18  20
ENDBRANCH  15  16
ENDBRANCH  13  15
ENDBRANCH  11  13
ENDBRANCH   4   9
BRANCH   5  28
HETATM   28  N6  UNL     1      -0.198   0.291   1.222  1.00  0.00    -0.374 N 
ATOM     29  H6  UNL     1       0.696  -0.171   1.390  1.00  0.00     0.161 HD
BRANCH  28  30
HETATM   30  C15 UNL     1      -1.374  -0.438   1.564  1.00  0.00     0.123 C 
BRANCH  30  31
HETATM   31  C16 UNL     1      -1.945  -1.220   0.388  1.00  0.00     0.050 C 
BRANCH  31  32
HETATM   32  C17 UNL     1      -3.185  -1.945   0.868  1.00  0.00     0.275 C 
BRANCH  32  33
HETATM   33  N7  UNL     1      -3.819  -2.706  -0.147  1.00  0.00     0.098 N 
HETATM   34  C18 UNL     1      -4.413  -1.905  -1.181  1.00  0.00     0.273 C 
HETATM   35  C19 UNL     1      -5.487  -2.719  -1.821  1.00  0.00     0.033 C 
HETATM   36  C20 UNL     1      -5.792  -3.813  -0.832  1.00  0.00     0.043 C 
HETATM   37  C21 UNL     1      -4.725  -3.717   0.239  1.00  0.00     0.160 A 
HETATM   38  C22 UNL     1      -4.204  -5.002   0.750  1.00  0.00     0.042 A 
HETATM   39  C24 UNL     1      -5.361  -3.446   1.581  1.00  0.00     0.042 A 
HETATM   40  C23 UNL     1      -4.717  -4.702   2.112  1.00  0.00     0.005 A 
ENDBRANCH  32  33
ENDBRANCH  31  32
ENDBRANCH  30  31
ENDBRANCH  28  30
ENDBRANCH   5  28
BRANCH   1  41
HETATM   41  C3  UNL     1      -0.123   5.402  -0.914  1.00  0.00     0.059 C 
BRANCH  41  42
HETATM   42  C2  UNL     1      -0.236   6.509   0.070  1.00  0.00     0.002 C 
HETATM   43  C1  UNL     1      -0.186   7.878  -0.588  1.00  0.00     0.005 C 
ENDBRANCH  41  42
ENDBRANCH   1  41
BRANCH   8  44
HETATM   44  C26 UNL     1      -2.661   3.979  -0.298  1.00  0.00     0.054 C 
HETATM   45  C27 UNL     1      -3.026   3.950  -1.784  1.00  0.00     0.011 C 
ENDBRANCH   8  44
TORSDOF 13
