REMARK  16 active torsions:
REMARK  status: ('A' for Active; 'I' for Inactive)
REMARK    1  A    between atoms: C2_2  and  C3_3 
REMARK    2  A    between atoms: C6_6  and  C7_7 
REMARK       I    between atoms: C7_7  and  N1_9 
REMARK    3  A    between atoms: C8_11  and  C9_12 
REMARK       I    between atoms: C9_12  and  N2_14 
REMARK    4  A    between atoms: N2_14  and  C10_16 
REMARK    5  A    between atoms: C10_16  and  C11_17 
REMARK    6  A    between atoms: C10_16  and  C18_26 
REMARK    7  A    between atoms: C11_17  and  C12_18 
REMARK    8  A    between atoms: C12_18  and  C13_19 
REMARK    9  A    between atoms: C13_19  and  O4_21 
REMARK   10  A    between atoms: O4_21  and  C14_22 
REMARK       I    between atoms: C18_26  and  N3_28 
REMARK   11  A    between atoms: N4_33  and  C22_34 
REMARK   12  A    between atoms: C22_34  and  C23_35 
REMARK   13  A    between atoms: C23_35  and  C24_36 
REMARK   14  A    between atoms: C23_35  and  O7_39 
REMARK   15  A    between atoms: C24_36  and  O6_37 
REMARK   16  A    between atoms: O7_39  and  C25_40 
ROOT
HETATM    1  C7  UNL     1      -1.082   0.562   1.232  1.00  0.00     0.254 C 
HETATM    2  O1  UNL     1      -0.791   1.637   1.842  1.00  0.00    -0.268 OA
HETATM    3  N1  UNL     1      -0.008  -0.273   0.897  1.00  0.00    -0.328 N 
ATOM      4  H1  UNL     1      -0.121  -1.262   1.121  1.00  0.00     0.168 HD
HETATM    5  C8  UNL     1       1.088   0.053   0.348  1.00  0.00     0.165 C 
ENDROOT
BRANCH   1   6
HETATM    6  C6  UNL     1      -2.481   0.309   0.947  1.00  0.00     0.036 C 
HETATM    7  C4  UNL     1      -2.884  -0.791   0.296  1.00  0.00    -0.044 C 
HETATM    8  C3  UNL     1      -4.369  -0.749   0.162  1.00  0.00     0.136 C 
HETATM    9  C5  UNL     1      -2.025  -1.889  -0.223  1.00  0.00     0.046 C 
HETATM   10  N4  UNL     1      -4.762   0.377   0.900  1.00  0.00    -0.371 N 
HETATM   11  C20 UNL     1      -3.657   1.141   1.312  1.00  0.00     0.119 C 
HETATM   12  C21 UNL     1      -3.686   1.251   2.828  1.00  0.00     0.037 C 
BRANCH   8  13
HETATM   13  C2  UNL     1      -4.917  -1.969   0.807  1.00  0.00    -0.008 C 
HETATM   14  C1  UNL     1      -5.502  -2.924   0.124  1.00  0.00     0.009 C 
ENDBRANCH   8  13
BRANCH  10  15
HETATM   15  C22 UNL     1      -5.982   0.439   1.547  1.00  0.00     0.094 C 
BRANCH  15  16
HETATM   16  C23 UNL     1      -7.252   0.565   0.746  1.00  0.00     0.184 C 
BRANCH  16  17
HETATM   17  C24 UNL     1      -8.379   0.383   1.768  1.00  0.00     0.201 C 
BRANCH  17  18
HETATM   18  O6  UNL     1      -8.132  -0.864   2.370  1.00  0.00    -0.398 OA
ATOM     19  H6  UNL     1      -8.831  -0.977   3.004  1.00  0.00     0.209 HD
ENDBRANCH  17  18
ENDBRANCH  16  17
BRANCH  16  20
HETATM   20  O7  UNL     1      -7.287   1.674   0.045  1.00  0.00    -0.369 OA
BRANCH  20  21
HETATM   21  C25 UNL     1      -7.508   1.865  -1.240  1.00  0.00     0.051 C 
HETATM   22  C26 UNL     1      -6.587   1.226  -2.251  1.00  0.00     0.045 C 
HETATM   23  C27 UNL     1      -8.959   1.678  -1.680  1.00  0.00     0.045 C 
HETATM   24  C28 UNL     1      -7.284   3.383  -1.482  1.00  0.00     0.045 C 
ENDBRANCH  20  21
ENDBRANCH  16  20
ENDBRANCH  15  16
ENDBRANCH  10  15
ENDBRANCH   1   6
BRANCH   5  25
HETATM   25  C9  UNL     1       2.095  -0.953   0.075  1.00  0.00     0.257 C 
HETATM   26  O2  UNL     1       1.834  -2.147   0.405  1.00  0.00    -0.267 OA
HETATM   27  N2  UNL     1       3.331  -0.621  -0.540  1.00  0.00    -0.343 N 
ATOM     28  H2  UNL     1       3.495   0.354  -0.791  1.00  0.00     0.163 HD
BRANCH  27  29
HETATM   29  C10 UNL     1       4.359  -1.570  -0.828  1.00  0.00     0.177 C 
BRANCH  29  30
HETATM   30  C11 UNL     1       5.537  -1.273   0.103  1.00  0.00     0.044 C 
BRANCH  30  31
HETATM   31  C12 UNL     1       6.054   0.128  -0.127  1.00  0.00     0.113 C 
BRANCH  31  32
HETATM   32  C13 UNL     1       7.208   0.393   0.791  1.00  0.00     0.259 C 
HETATM   33  O3  UNL     1       7.088   0.561   2.016  1.00  0.00    -0.265 OA
BRANCH  32  34
HETATM   34  O4  UNL     1       8.487   0.455   0.240  1.00  0.00    -0.311 OA
BRANCH  34  35
HETATM   35  C14 UNL     1       9.661   0.694   0.948  1.00  0.00     0.060 C 
HETATM   36  C15 UNL     1       9.962  -0.321   2.028  1.00  0.00     0.045 C 
HETATM   37  C16 UNL     1       9.721   2.078   1.544  1.00  0.00     0.045 C 
HETATM   38  C17 UNL     1      10.814   0.617  -0.060  1.00  0.00     0.045 C 
ENDBRANCH  34  35
ENDBRANCH  32  34
ENDBRANCH  31  32
ENDBRANCH  30  31
ENDBRANCH  29  30
BRANCH  29  39
HETATM   39  C18 UNL     1       4.768  -1.625  -2.227  1.00  0.00     0.240 C 
HETATM   40  O5  UNL     1       4.217  -0.882  -3.078  1.00  0.00    -0.271 OA
HETATM   41  N3  UNL     1       5.783  -2.503  -2.657  1.00  0.00    -0.364 N 
HETATM   42  C19 UNL     1       6.224  -2.591  -4.038  1.00  0.00     0.149 C 
ATOM     43  H3  UNL     1       6.229  -3.105  -1.965  1.00  0.00     0.161 HD
ENDBRANCH  29  39
ENDBRANCH  27  29
ENDBRANCH   5  25
TORSDOF 16
