REMARK  14 active torsions:
REMARK  status: ('A' for Active; 'I' for Inactive)
REMARK    1  A    between atoms: C2_2  and  C3_3 
REMARK    2  A    between atoms: C4_4  and  O1_5 
REMARK    3  A    between atoms: O1_5  and  C5_6 
REMARK    4  A    between atoms: C5_6  and  C6_7 
REMARK    5  A    between atoms: C6_7  and  O2_8 
REMARK    6  A    between atoms: C8_11  and  O3_12 
REMARK    7  A    between atoms: O3_12  and  C9_13 
REMARK    8  A    between atoms: C9_13  and  C10_15 
REMARK    9  A    between atoms: C10_15  and  C11_16 
REMARK   10  A    between atoms: C10_15  and  C18_23 
REMARK   11  A    between atoms: C11_16  and  C12_17 
REMARK   12  A    between atoms: C25_33  and  C26_34 
REMARK   13  A    between atoms: C27_36  and  O7_37 
REMARK   14  A    between atoms: O7_37  and  C28_38 
ROOT
HETATM    1  C3  UNL     1      -3.863   0.305   0.719  1.00  0.00     0.060 C 
HETATM    2  C4  UNL     1      -3.077  -0.764   0.052  1.00  0.00     0.073 C 
HETATM    3  C7  UNL     1      -1.813  -1.101   0.866  1.00  0.00     0.071 C 
HETATM    4  C8  UNL     1      -1.095   0.049   1.433  1.00  0.00     0.136 C 
HETATM    5  C24 UNL     1      -1.631   1.409   1.171  1.00  0.00     0.053 C 
HETATM    6  C25 UNL     1      -2.952   1.518   0.541  1.00  0.00     0.052 C 
HETATM    7  C27 UNL     1      -2.803   1.451  -0.967  1.00  0.00     0.152 C 
HETATM    8  C29 UNL     1      -2.484   0.012  -1.169  1.00  0.00     0.072 C 
ENDROOT
BRANCH   4   9
HETATM    9  O3  UNL     1       0.307  -0.001   1.130  1.00  0.00    -0.316 OA
BRANCH   9  10
HETATM   10  C9  UNL     1       1.281  -0.171   2.037  1.00  0.00     0.264 C 
HETATM   11  O4  UNL     1       1.038  -0.301   3.235  1.00  0.00    -0.265 OA
BRANCH  10  12
HETATM   12  C10 UNL     1       2.797  -0.219   1.634  1.00  0.00     0.099 C 
BRANCH  12  13
HETATM   13  C11 UNL     1       2.817  -1.525   0.946  1.00  0.00     0.020 C 
BRANCH  13  14
HETATM   14  C12 UNL     1       3.957  -2.164   0.301  1.00  0.00    -0.014 C 
HETATM   15  C13 UNL     1       3.508  -3.615  -0.142  1.00  0.00     0.005 C 
HETATM   16  C14 UNL     1       4.715  -4.354  -0.640  1.00  0.00     0.000 C 
HETATM   17  C15 UNL     1       5.191  -3.698  -1.905  1.00  0.00     0.000 C 
HETATM   18  C16 UNL     1       4.288  -2.521  -2.195  1.00  0.00     0.000 C 
HETATM   19  C17 UNL     1       4.240  -1.517  -1.064  1.00  0.00     0.005 C 
ENDBRANCH  13  14
ENDBRANCH  12  13
BRANCH  12  20
HETATM   20  C18 UNL     1       3.012   1.047   0.952  1.00  0.00     0.091 C 
HETATM   21  C19 UNL     1       4.355   1.485   0.506  1.00  0.00     0.015 C 
HETATM   22  C20 UNL     1       4.266   2.292  -0.793  1.00  0.00     0.002 C 
HETATM   23  C21 UNL     1       3.926   3.736  -0.538  1.00  0.00     0.020 C 
HETATM   24  C22 UNL     1       2.414   3.922  -0.355  1.00  0.00     0.122 C 
HETATM   25  N1  UNL     1       2.036   3.436   0.989  1.00  0.00    -0.361 N 
HETATM   26  C23 UNL     1       2.421   2.248   1.647  1.00  0.00     0.222 C 
ATOM     27  H1  UNL     1       1.409   4.045   1.515  1.00  0.00     0.162 HD
HETATM   28  O5  UNL     1       2.270   2.183   2.861  1.00  0.00    -0.273 OA
ENDBRANCH  12  20
ENDBRANCH  10  12
ENDBRANCH   9  10
ENDBRANCH   4   9
BRANCH   2  29
HETATM   29  O1  UNL     1      -3.619  -1.808  -0.482  1.00  0.00    -0.377 OA
BRANCH  29  30
HETATM   30  C5  UNL     1      -4.291  -2.854  -0.432  1.00  0.00     0.194 C 
BRANCH  30  31
HETATM   31  C6  UNL     1      -5.749  -2.697   0.015  1.00  0.00     0.190 C 
BRANCH  31  32
HETATM   32  O2  UNL     1      -6.450  -1.847  -0.831  1.00  0.00    -0.399 OA
ATOM     33  H2  UNL     1      -7.353  -1.750  -0.554  1.00  0.00     0.209 HD
ENDBRANCH  31  32
ENDBRANCH  30  31
ENDBRANCH  29  30
ENDBRANCH   2  29
BRANCH   6  34
HETATM   34  C26 UNL     1      -3.719   2.728   0.886  1.00  0.00     0.244 C 
HETATM   35  O6  UNL     1      -3.214   3.703   1.405  1.00  0.00    -0.306 OA
ENDBRANCH   6  34
BRANCH   1  36
HETATM   36  C2  UNL     1      -4.188   0.130   2.143  1.00  0.00    -0.028 C 
HETATM   37  C1  UNL     1      -5.443   0.236   2.536  1.00  0.00     0.007 C 
ENDBRANCH   1  36
BRANCH   7  38
HETATM   38  O7  UNL     1      -4.108   1.725  -1.504  1.00  0.00    -0.300 OA
BRANCH  38  39
HETATM   39  C28 UNL     1      -4.313   2.771  -2.393  1.00  0.00     0.373 C 
HETATM   40  N2  UNL     1      -5.607   3.060  -2.939  1.00  0.00    -0.032 NA
HETATM   41  O8  UNL     1      -3.302   3.457  -2.697  1.00  0.00    -0.242 OA
ENDBRANCH  38  39
ENDBRANCH   7  38
TORSDOF 14
