REMARK  6 active torsions:
REMARK  status: ('A' for Active; 'I' for Inactive)
REMARK    1  A    between atoms: C2_2  and  N1_3 
REMARK    2  A    between atoms: N1_3  and  C3_6 
REMARK    3  A    between atoms: C3_6  and  C4_7 
REMARK    4  A    between atoms: N2_9  and  C5_11 
REMARK    5  A    between atoms: C6_14  and  N4_15 
REMARK    6  A    between atoms: C11_24  and  N6_25 
ROOT
HETATM    1  C5  UNL     1       0.156   1.013  -0.449  1.00  0.00     0.137 A 
HETATM    2  N3  UNL     1       0.955   2.017  -0.840  1.00  0.00    -0.176 N 
ATOM      3  H3  UNL     1       1.812   1.752  -1.325  1.00  0.00     0.186 HD
HETATM    4  C6  UNL     1       0.752   3.325  -0.664  1.00  0.00     0.680 A 
HETATM    5  N5  UNL     1      -0.371   3.665  -0.028  1.00  0.00    -0.184 N 
ATOM      6  H5  UNL     1      -0.581   4.649   0.137  1.00  0.00     0.185 HD
HETATM    7  C8  UNL     1      -1.239   2.707   0.403  1.00  0.00     0.107 A 
HETATM    8  S2  UNL     1      -2.732   2.808   1.228  1.00  0.00    -0.073 SA
HETATM    9  C9  UNL     1      -3.098   1.162   1.346  1.00  0.00     0.008 A 
HETATM   10  C10 UNL     1      -4.297   0.482   1.965  1.00  0.00     0.059 C 
HETATM   11  C11 UNL     1      -2.019   0.546   0.723  1.00  0.00     0.060 A 
HETATM   12  C16 UNL     1      -1.060   1.363   0.238  1.00  0.00     0.070 A 
ENDROOT
BRANCH   1  13
HETATM   13  N2  UNL     1       0.405  -0.190  -0.642  1.00  0.00    -0.334 N 
HETATM   14  C4  UNL     1       1.320  -1.023  -1.182  1.00  0.00     0.104 C 
HETATM   15  S1  UNL     1       0.975  -2.658  -1.418  1.00  0.00    -0.064 SA
ATOM     16  H2  UNL     1      -0.355  -0.748  -0.252  1.00  0.00     0.168 HD
BRANCH  14  17
HETATM   17  C3  UNL     1       2.664  -0.638  -1.657  1.00  0.00     0.301 C 
BRANCH  17  18
HETATM   18  N1  UNL     1       3.518  -1.766  -1.974  1.00  0.00    -0.070 N 
ATOM     19  H12 UNL     1       4.296  -1.475  -2.566  1.00  0.00     0.277 HD
ATOM     20  H11 UNL     1       3.048  -2.407  -2.614  1.00  0.00     0.277 HD
BRANCH  18  21
HETATM   21  C2  UNL     1       3.999  -2.470  -0.804  1.00  0.00     0.228 C 
HETATM   22  C1  UNL     1       5.016  -1.560  -0.072  1.00  0.00     0.034 C 
ENDBRANCH  18  21
ENDBRANCH  17  18
ENDBRANCH  14  17
ENDBRANCH   1  13
BRANCH   4  23
HETATM   23  N4  UNL     1       1.603   4.198  -1.088  1.00  0.00    -0.230 N 
HETATM   24  C7  UNL     1       1.312   5.598  -0.860  1.00  0.00     0.165 C 
ATOM     25  H4  UNL     1       2.455   3.910  -1.569  1.00  0.00     0.177 HD
ENDBRANCH   4  23
BRANCH  11  26
HETATM   26  N6  UNL     1      -2.010  -0.928   0.652  1.00  0.00    -0.375 N 
HETATM   27  C12 UNL     1      -1.389  -1.692   1.684  1.00  0.00     0.149 C 
HETATM   28  C13 UNL     1      -2.320  -2.895   1.944  1.00  0.00     0.187 C 
HETATM   29  O1  UNL     1      -2.281  -3.646   0.799  1.00  0.00    -0.388 OA
HETATM   30  C14 UNL     1      -2.775  -3.039  -0.316  1.00  0.00     0.187 C 
HETATM   31  C15 UNL     1      -2.687  -1.573  -0.436  1.00  0.00     0.149 C 
ENDBRANCH  11  26
TORSDOF 6
