REMARK  6 active torsions:
REMARK  status: ('A' for Active; 'I' for Inactive)
REMARK    1  A    between atoms: C7_7  and  C8_8 
REMARK    2  A    between atoms: C8_8  and  C9_9 
REMARK    3  A    between atoms: C9_9  and  N1_10 
REMARK    4  A    between atoms: N1_10  and  C11_13 
REMARK    5  A    between atoms: C11_13  and  N3_15 
REMARK    6  A    between atoms: N3_15  and  C12_17 
ROOT
HETATM    1  N1  UNL     1      -0.233  -0.639   0.113  1.00  0.00    -0.238 N 
HETATM    2  C10 UNL     1      -0.497   0.637  -0.424  1.00  0.00     0.190 C 
HETATM    3  N2  UNL     1      -0.695   1.704  -0.880  1.00  0.00    -0.171 NA
ENDROOT
BRANCH   1   4
HETATM    4  C9  UNL     1      -0.998  -1.752  -0.294  1.00  0.00     0.089 C 
BRANCH   4   5
HETATM    5  C8  UNL     1      -2.384  -1.955   0.121  1.00  0.00     0.089 C 
BRANCH   5   6
HETATM    6  C7  UNL     1      -3.401  -0.934  -0.144  1.00  0.00    -0.001 A 
HETATM    7  C5  UNL     1      -4.109  -1.037  -1.257  1.00  0.00    -0.070 A 
HETATM    8  C4  UNL     1      -5.148  -0.073  -1.615  1.00  0.00     0.062 A 
HETATM    9  C6  UNL     1      -3.851  -2.183  -2.206  1.00  0.00     0.044 C 
HETATM   10  C3  UNL     1      -5.399   0.967  -0.607  1.00  0.00    -0.012 A 
HETATM   11  C2  UNL     1      -4.731   1.107   0.524  1.00  0.00    -0.015 A 
HETATM   12  C1  UNL     1      -5.064   2.209   1.490  1.00  0.00     0.052 C 
HETATM   13  C18 UNL     1      -3.683   0.139   0.798  1.00  0.00     0.184 A 
HETATM   14  O2  UNL     1      -3.029   0.263   1.892  1.00  0.00    -0.287 OA
ENDBRANCH   5   6
ENDBRANCH   4   5
ENDBRANCH   1   4
BRANCH   1  15
HETATM   15  C11 UNL     1       0.827  -0.716   1.061  1.00  0.00     0.205 C 
HETATM   16  S1  UNL     1       1.158  -2.174   1.697  1.00  0.00    -0.039 SA
BRANCH  15  17
HETATM   17  N3  UNL     1       1.600   0.393   1.475  1.00  0.00    -0.165 N 
ATOM     18  H3  UNL     1       1.142   1.095   2.057  1.00  0.00     0.186 HD
BRANCH  17  19
HETATM   19  C12 UNL     1       2.822   0.583   1.178  1.00  0.00     0.689 A 
HETATM   20  N4  UNL     1       3.578  -0.228   0.430  1.00  0.00    -0.176 N 
HETATM   21  C13 UNL     1       4.867  -0.003   0.127  1.00  0.00     0.128 A 
ATOM     22  H4  UNL     1       3.146  -1.076   0.064  1.00  0.00     0.186 HD
HETATM   23  C14 UNL     1       5.460   1.141   0.617  1.00  0.00     0.056 A 
HETATM   24  N6  UNL     1       5.838  -0.740  -0.646  1.00  0.00    -0.375 N 
HETATM   25  C15 UNL     1       4.699   1.997   1.393  1.00  0.00     0.269 A 
HETATM   26  C16 UNL     1       6.871   1.151   0.139  1.00  0.00     0.068 C 
HETATM   27  O1  UNL     1       5.229   3.057   1.854  1.00  0.00    -0.267 OA
HETATM   28  N5  UNL     1       3.421   1.695   1.647  1.00  0.00    -0.155 N 
ATOM     29  H5  UNL     1       2.875   2.336   2.222  1.00  0.00     0.187 HD
HETATM   30  C17 UNL     1       6.807   0.237  -1.062  1.00  0.00     0.126 C 
ATOM     31  H6  UNL     1       5.837  -1.739  -0.853  1.00  0.00     0.161 HD
ENDBRANCH  17  19
ENDBRANCH  15  17
ENDBRANCH   1  15
TORSDOF 6
