REMARK  6 active torsions:
REMARK  status: ('A' for Active; 'I' for Inactive)
REMARK    1  A    between atoms: O1_2  and  C2_3 
REMARK    2  A    between atoms: C4_5  and  N1_6 
REMARK    3  A    between atoms: N1_6  and  C5_8 
REMARK    4  A    between atoms: C11_18  and  N4_19 
REMARK       I    between atoms: N4_19  and  C12_21 
REMARK    5  A    between atoms: C16_27  and  O3_28 
REMARK    6  A    between atoms: C18_30  and  O4_31 
ROOT
HETATM    1  C5  UNL     1      -0.888  -0.437   0.110  1.00  0.00     0.047 A 
HETATM    2  C6  UNL     1      -0.389  -1.720   0.186  1.00  0.00     0.055 A 
HETATM    3  C7  UNL     1      -1.267  -2.806   0.301  1.00  0.00     0.008 A 
HETATM    4  C8  UNL     1      -0.754  -4.202   0.385  1.00  0.00     0.068 C 
HETATM    5  N2  UNL     1      -2.593  -2.602   0.337  1.00  0.00    -0.358 N 
ATOM      6  H2  UNL     1      -3.215  -3.406   0.421  1.00  0.00     0.166 HD
HETATM    7  C9  UNL     1      -3.125  -1.370   0.266  1.00  0.00     0.060 A 
HETATM    8  C10 UNL     1      -4.490  -1.198   0.306  1.00  0.00     0.120 A 
HETATM    9  N3  UNL     1      -4.973   0.052   0.232  1.00  0.00    -0.350 N 
ATOM     10  H3  UNL     1      -5.982   0.200   0.260  1.00  0.00     0.166 HD
HETATM   11  C11 UNL     1      -4.145   1.128   0.120  1.00  0.00     0.109 A 
HETATM   12  C13 UNL     1      -2.776   0.975   0.078  1.00  0.00     0.064 A 
HETATM   13  C14 UNL     1      -2.257  -0.281   0.151  1.00  0.00     0.022 A 
ENDROOT
BRANCH   1  14
HETATM   14  N1  UNL     1      -0.125   0.597   0.004  1.00  0.00    -0.355 N 
ATOM     15  H1  UNL     1      -0.573   1.512  -0.046  1.00  0.00     0.166 HD
BRANCH  14  16
HETATM   16  C4  UNL     1       1.274   0.554  -0.047  1.00  0.00     0.038 A 
HETATM   17  C3  UNL     1       2.089   0.982   0.981  1.00  0.00     0.069 A 
HETATM   18  C2  UNL     1       3.466   0.932   0.913  1.00  0.00     0.106 A 
HETATM   19  C18 UNL     1       4.091   0.439  -0.216  1.00  0.00     0.135 A 
HETATM   20  C16 UNL     1       3.294   0.007  -1.254  1.00  0.00     0.106 A 
HETATM   21  C15 UNL     1       1.917   0.066  -1.165  1.00  0.00     0.069 A 
BRANCH  18  22
HETATM   22  O1  UNL     1       4.225   1.374   1.974  1.00  0.00    -0.353 OA
HETATM   23  C1  UNL     1       3.578   1.874   3.118  1.00  0.00     0.210 C 
ENDBRANCH  18  22
BRANCH  19  24
HETATM   24  O4  UNL     1       5.480   0.400  -0.258  1.00  0.00    -0.351 OA
HETATM   25  C19 UNL     1       6.251   1.482  -0.753  1.00  0.00     0.210 C 
ENDBRANCH  19  24
BRANCH  20  26
HETATM   26  O3  UNL     1       3.915  -0.495  -2.405  1.00  0.00    -0.353 OA
HETATM   27  C17 UNL     1       3.082  -0.934  -3.460  1.00  0.00     0.210 C 
ENDBRANCH  20  26
ENDBRANCH  14  16
ENDBRANCH   1  14
BRANCH  11  28
HETATM   28  N4  UNL     1      -4.639   2.315   0.050  1.00  0.00    -0.297 N 
HETATM   29  C12 UNL     1      -6.041   2.485   0.092  1.00  0.00     0.334 C 
HETATM   30  N5  UNL     1      -6.773   2.493  -1.120  1.00  0.00    -0.040 NA
HETATM   31  O2  UNL     1      -6.647   2.629   1.177  1.00  0.00    -0.251 OA
ATOM     32  H4  UNL     1      -4.024   3.125  -0.035  1.00  0.00     0.171 HD
ENDBRANCH  11  28
TORSDOF 6
