REMARK  7 active torsions:
REMARK  status: ('A' for Active; 'I' for Inactive)
REMARK    1  A    between atoms: C4_4  and  N1_5 
REMARK    2  A    between atoms: N1_5  and  C5_7 
REMARK    3  A    between atoms: N3_16  and  O1_17 
REMARK    4  A    between atoms: C12_20  and  N4_21 
REMARK    5  A    between atoms: N4_21  and  C14_23 
REMARK    6  A    between atoms: C14_23  and  C15_24 
REMARK    7  A    between atoms: C15_24  and  O2_25 
ROOT
HETATM    1  C5  UNL     1       1.969  -1.111   0.817  1.00  0.00     0.144 A 
HETATM    2  C6  UNL     1       0.716  -1.800   0.689  1.00  0.00     0.051 A 
HETATM    3  C7  UNL     1      -0.250  -1.619  -0.258  1.00  0.00    -0.028 A 
HETATM    4  C8  UNL     1      -1.368  -2.425  -0.152  1.00  0.00    -0.006 A 
HETATM    5  S1  UNL     1      -1.054  -3.373   1.211  1.00  0.00    -0.075 SA
HETATM    6  C9  UNL     1       0.479  -2.749   1.635  1.00  0.00     0.090 A 
HETATM    7  N2  UNL     1       1.371  -3.025   2.634  1.00  0.00    -0.344 N 
ATOM      8  H2  UNL     1       1.148  -3.746   3.320  1.00  0.00     0.167 HD
HETATM    9  C10 UNL     1       2.528  -2.368   2.728  1.00  0.00     0.216 A 
HETATM   10  N3  UNL     1       2.805  -1.425   1.819  1.00  0.00    -0.203 N 
HETATM   11  C11 UNL     1      -2.477  -2.286  -1.170  1.00  0.00     0.082 C 
HETATM   12  C12 UNL     1      -2.888  -0.824  -1.291  1.00  0.00     0.227 C 
HETATM   13  C16 UNL     1      -1.697   0.084  -1.145  1.00  0.00     0.041 C 
HETATM   14  C17 UNL     1      -0.410  -0.694  -1.461  1.00  0.00     0.043 C 
ENDROOT
BRANCH   1  15
HETATM   15  N1  UNL     1       2.271  -0.249   0.015  1.00  0.00    -0.367 N 
ATOM     16  H1  UNL     1       1.458  -0.250  -0.602  1.00  0.00     0.161 HD
BRANCH  15  17
HETATM   17  C4  UNL     1       3.041   0.713  -0.551  1.00  0.00     0.111 C 
HETATM   18  C3  UNL     1       3.355   1.984   0.177  1.00  0.00     0.059 C 
HETATM   19  C2  UNL     1       4.579   2.500  -0.562  1.00  0.00     0.184 C 
HETATM   20  C1  UNL     1       4.406   3.914  -1.063  1.00  0.00     0.040 C 
HETATM   21  N5  UNL     1       4.745   1.636  -1.735  1.00  0.00    -0.069 N 
HETATM   22  C18 UNL     1       4.410   0.325  -1.113  1.00  0.00     0.257 C 
ATOM     23  H52 UNL     1       4.207   1.892  -2.563  1.00  0.00     0.277 HD
ATOM     24  H51 UNL     1       5.645   1.691  -2.211  1.00  0.00     0.277 HD
ENDBRANCH  15  17
ENDBRANCH   1  15
BRANCH  10  25
HETATM   25  O1  UNL     1       4.034  -0.775   1.972  1.00  0.00    -0.280 OA
ATOM     26  H1  UNL     1       4.626  -0.997   2.681  1.00  0.00     0.245 HD
ENDBRANCH  10  25
BRANCH  12  27
HETATM   27  N4  UNL     1      -3.936  -0.604  -0.344  1.00  0.00     0.091 N 
HETATM   28  C13 UNL     1      -5.046  -1.444  -0.717  1.00  0.00     0.310 C 
BRANCH  27  29
HETATM   29  C14 UNL     1      -4.288   0.775  -0.169  1.00  0.00     0.298 C 
BRANCH  29  30
HETATM   30  C15 UNL     1      -5.376   1.009   0.819  1.00  0.00     0.194 C 
BRANCH  30  31
HETATM   31  O2  UNL     1      -5.627   2.384   0.901  1.00  0.00    -0.399 OA
ATOM     32  H2  UNL     1      -6.322   2.533   1.532  1.00  0.00     0.209 HD
ENDBRANCH  30  31
ENDBRANCH  29  30
ENDBRANCH  27  29
ENDBRANCH  12  27
TORSDOF 7
