REMARK  11 active torsions:
REMARK  status: ('A' for Active; 'I' for Inactive)
REMARK    1  A    between atoms: N1_2  and  O3_4 
REMARK    2  A    between atoms: O3_4  and  C1_5 
REMARK    3  A    between atoms: C1_5  and  C2_6 
REMARK    4  A    between atoms: C2_6  and  N2_7 
REMARK    5  A    between atoms: C5_10  and  O4_11 
REMARK    6  A    between atoms: C12_19  and  C13_20 
REMARK    7  A    between atoms: C13_20  and  O5_21 
REMARK    8  A    between atoms: C13_20  and  C14_23 
REMARK    9  A    between atoms: C14_23  and  C15_24 
REMARK   10  A    between atoms: C15_24  and  C16_25 
REMARK   11  A    between atoms: C16_25  and  O6_26 
ROOT
HETATM    1  C1  UNL     1       0.448  -1.423  -0.779  1.00  0.00     0.127 C 
HETATM    2  C10 UNL     1       0.886  -1.856  -2.284  1.00  0.00     0.044 C 
HETATM    3  C11 UNL     1       2.011  -2.545  -1.555  1.00  0.00     0.013 C 
HETATM    4  C12 UNL     1       1.879  -1.373  -0.546  1.00  0.00     0.054 C 
ENDROOT
BRANCH   1   5
HETATM    5  O3  UNL     1      -0.089  -2.685  -0.321  1.00  0.00    -0.208 OA
BRANCH   5   6
HETATM    6  N1  UNL     1      -1.020  -3.427  -0.961  1.00  0.00     0.005 N 
HETATM    7  O1  UNL     1      -0.954  -4.699  -0.842  1.00  0.00    -0.511 OA
HETATM    8  O2  UNL     1      -2.048  -2.981  -1.740  1.00  0.00    -0.511 OA
ENDBRANCH   5   6
ENDBRANCH   1   5
BRANCH   1   9
HETATM    9  C2  UNL     1      -0.532  -0.345  -0.914  1.00  0.00     0.314 C 
BRANCH   9  10
HETATM   10  N2  UNL     1      -1.350   0.019   0.168  1.00  0.00     0.099 N 
HETATM   11  C3  UNL     1      -0.830   0.639   1.313  1.00  0.00     0.276 C 
HETATM   12  C4  UNL     1      -2.032   1.288   2.026  1.00  0.00     0.070 C 
HETATM   13  C5  UNL     1      -2.837   1.770   0.835  1.00  0.00     0.090 C 
HETATM   14  C6  UNL     1      -4.314   1.761   1.066  1.00  0.00     0.040 C 
HETATM   15  C9  UNL     1      -2.533   0.753  -0.242  1.00  0.00     0.257 C 
HETATM   16  C7  UNL     1      -4.899   0.636   0.237  1.00  0.00     0.005 C 
HETATM   17  C8  UNL     1      -3.708  -0.197  -0.187  1.00  0.00     0.039 C 
BRANCH  13  18
HETATM   18  O4  UNL     1      -2.448   3.058   0.485  1.00  0.00    -0.388 OA
ATOM     19  H4  UNL     1      -2.952   3.360  -0.261  1.00  0.00     0.210 HD
ENDBRANCH  13  18
ENDBRANCH   9  10
ENDBRANCH   1   9
BRANCH   4  20
HETATM   20  C13 UNL     1       2.795  -0.304  -0.995  1.00  0.00     0.125 C 
BRANCH  20  21
HETATM   21  O5  UNL     1       4.114  -0.816  -0.619  1.00  0.00    -0.395 OA
ATOM     22  H5  UNL     1       4.703  -0.129  -0.908  1.00  0.00     0.210 HD
ENDBRANCH  20  21
BRANCH  20  23
HETATM   23  C14 UNL     1       2.700   1.037  -0.326  1.00  0.00     0.034 C 
BRANCH  23  24
HETATM   24  C15 UNL     1       2.984   1.102   1.123  1.00  0.00     0.028 C 
BRANCH  24  25
HETATM   25  C16 UNL     1       4.340   0.710   1.598  1.00  0.00     0.164 C 
BRANCH  25  26
HETATM   26  O6  UNL     1       5.337   1.487   0.998  1.00  0.00    -0.401 OA
ATOM     27  H6  UNL     1       6.202   1.237   1.301  1.00  0.00     0.209 HD
ENDBRANCH  25  26
ENDBRANCH  24  25
ENDBRANCH  23  24
ENDBRANCH  20  23
ENDBRANCH   4  20
TORSDOF 11
