REMARK  10 active torsions:
REMARK  status: ('A' for Active; 'I' for Inactive)
REMARK    1  A    between atoms: C2_9  and  S1_10 
REMARK    2  A    between atoms: S1_10  and  C3_11 
REMARK    3  A    between atoms: C3_11  and  C4_12 
REMARK       I    between atoms: C4_12  and  N5_14 
REMARK    4  A    between atoms: N5_14  and  N6_16 
REMARK    5  A    between atoms: N6_16  and  C5_18 
REMARK    6  A    between atoms: C5_18  and  N7_20 
REMARK    7  A    between atoms: N7_20  and  C6_22 
REMARK    8  A    between atoms: C6_22  and  C7_23 
REMARK    9  A    between atoms: C7_23  and  C8_24 
REMARK   10  A    between atoms: C8_24  and  C9_25 
ROOT
HETATM    1  C4  UNL     1       3.229  -1.339   0.497  1.00  0.00     0.245 C 
HETATM    2  O1  UNL     1       2.639  -2.023   1.368  1.00  0.00    -0.271 OA
HETATM    3  N5  UNL     1       2.535  -0.509  -0.379  1.00  0.00    -0.267 N 
ATOM      4  H5  UNL     1       3.061   0.027  -1.069  1.00  0.00     0.190 HD
ENDROOT
BRANCH   3   5
HETATM    5  N6  UNL     1       1.134  -0.383  -0.346  1.00  0.00    -0.274 N 
ATOM      6  H6  UNL     1       0.672   0.011   0.473  1.00  0.00     0.189 HD
BRANCH   5   7
HETATM    7  C5  UNL     1       0.362  -0.814  -1.476  1.00  0.00     0.186 C 
HETATM    8  S2  UNL     1       1.199  -1.433  -2.744  1.00  0.00    -0.040 SA
BRANCH   7   9
HETATM    9  N7  UNL     1      -1.014  -0.721  -1.540  1.00  0.00    -0.366 N 
ATOM     10  H7  UNL     1      -1.507  -1.035  -2.376  1.00  0.00     0.161 HD
BRANCH   9  11
HETATM   11  C6  UNL     1      -1.774  -0.168  -0.402  1.00  0.00     0.122 C 
BRANCH  11  12
HETATM   12  C7  UNL     1      -3.238  -0.066  -0.863  1.00  0.00     0.020 C 
BRANCH  12  13
HETATM   13  C8  UNL     1      -4.073   0.471   0.235  1.00  0.00     0.006 C 
BRANCH  13  14
HETATM   14  C9  UNL     1      -5.531   0.624  -0.164  1.00  0.00    -0.014 C 
HETATM   15  C10 UNL     1      -6.335   1.186   0.969  1.00  0.00     0.005 C 
HETATM   16  C11 UNL     1      -6.743  -0.225   1.327  1.00  0.00     0.001 C 
HETATM   17  C12 UNL     1      -6.334  -0.655  -0.060  1.00  0.00     0.005 C 
ENDBRANCH  13  14
ENDBRANCH  12  13
ENDBRANCH  11  12
ENDBRANCH   9  11
ENDBRANCH   7   9
ENDBRANCH   5   7
ENDBRANCH   3   5
BRANCH   1  18
HETATM   18  C3  UNL     1       4.735  -1.420   0.387  1.00  0.00     0.186 C 
BRANCH  18  19
HETATM   19  S1  UNL     1       5.565  -0.456   1.580  1.00  0.00    -0.082 SA
BRANCH  19  20
HETATM   20  C2  UNL     1       6.678   0.806   1.071  1.00  0.00     0.178 A 
HETATM   21  N1  UNL     1       7.161   1.190  -0.112  1.00  0.00    -0.259 N 
HETATM   22  C1  UNL     1       6.896   0.570  -1.388  1.00  0.00     0.181 C 
HETATM   23  N2  UNL     1       7.977   2.244   0.087  1.00  0.00    -0.224 N 
HETATM   24  N3  UNL     1       8.018   2.522   1.362  1.00  0.00    -0.226 N 
ATOM     25  H2  UNL     1       8.483   2.745  -0.643  1.00  0.00     0.210 HD
HETATM   26  N4  UNL     1       7.243   1.669   1.974  1.00  0.00    -0.263 N 
ATOM     27  H3  UNL     1       8.557   3.269   1.800  1.00  0.00     0.210 HD
ATOM     28  H4  UNL     1       7.081   1.647   2.981  1.00  0.00     0.190 HD
ENDBRANCH  19  20
ENDBRANCH  18  19
ENDBRANCH   1  18
TORSDOF 10
