REMARK  10 active torsions:
REMARK  status: ('A' for Active; 'I' for Inactive)
REMARK    1  A    between atoms: C3_3  and  O1_4 
REMARK    2  A    between atoms: O1_4  and  C4_5 
REMARK    3  A    between atoms: C5_6  and  O2_7 
REMARK    4  A    between atoms: C7_10  and  N1_11 
REMARK    5  A    between atoms: C9_13  and  C10_14 
REMARK    6  A    between atoms: C10_14  and  C11_15 
REMARK    7  A    between atoms: C11_15  and  C12_16 
REMARK    8  A    between atoms: C12_16  and  C13_17 
REMARK    9  A    between atoms: C13_17  and  C14_18 
REMARK   10  A    between atoms: C18_26  and  O3_27 
ROOT
HETATM    1  C1  UNL     1      -7.601   1.893  -0.447  1.00  0.00     0.014 C 
HETATM    2  C2  UNL     1      -6.498   2.363  -0.554  1.00  0.00    -0.091 C 
HETATM    3  C3  UNL     1      -5.177   2.955  -0.686  1.00  0.00     0.261 C 
ENDROOT
BRANCH   3   4
HETATM    4  O1  UNL     1      -4.176   2.052  -1.000  1.00  0.00    -0.369 OA
BRANCH   4   5
HETATM    5  C4  UNL     1      -4.016   1.045  -0.045  1.00  0.00     0.185 C 
HETATM    6  C5  UNL     1      -2.700   0.845   0.431  1.00  0.00     0.152 C 
HETATM    7  C6  UNL     1      -1.462   0.416   0.930  1.00  0.00     0.065 C 
HETATM    8  C7  UNL     1      -1.268  -1.075   0.531  1.00  0.00     0.132 C 
HETATM    9  C16 UNL     1      -2.311  -1.703  -0.271  1.00  0.00     0.025 C 
HETATM   10  C17 UNL     1      -3.736  -1.507  -0.297  1.00  0.00     0.053 C 
HETATM   11  N4  UNL     1      -4.435  -2.152   0.844  1.00  0.00    -0.104 NA
HETATM   12  C18 UNL     1      -4.449  -0.276  -0.757  1.00  0.00     0.196 C 
BRANCH   6  13
HETATM   13  O2  UNL     1      -2.265   0.646  -0.916  1.00  0.00    -0.393 OA
ATOM     14  H2  UNL     1      -1.381   0.512  -0.596  1.00  0.00     0.210 HD
ENDBRANCH   6  13
BRANCH   8  15
HETATM   15  N1  UNL     1       0.019  -1.253  -0.112  1.00  0.00    -0.277 N 
HETATM   16  C8  UNL     1       1.148  -0.582   0.130  1.00  0.00     0.134 A 
HETATM   17  C9  UNL     1       2.088  -1.105  -0.722  1.00  0.00     0.040 A 
HETATM   18  N2  UNL     1       1.542  -2.070  -1.461  1.00  0.00    -0.287 N 
HETATM   19  N3  UNL     1       0.261  -2.150  -1.072  1.00  0.00    -0.020 NA
ATOM     20  H2  UNL     1       2.004  -2.632  -2.176  1.00  0.00     0.184 HD
BRANCH  17  21
HETATM   21  C10 UNL     1       3.526  -0.607  -0.761  1.00  0.00     0.059 C 
BRANCH  21  22
HETATM   22  C11 UNL     1       4.306  -1.421   0.215  1.00  0.00     0.006 C 
BRANCH  22  23
HETATM   23  C12 UNL     1       5.740  -1.211   0.379  1.00  0.00     0.000 C 
BRANCH  23  24
HETATM   24  C13 UNL     1       6.322   0.028   0.901  1.00  0.00    -0.000 C 
BRANCH  24  25
HETATM   25  C14 UNL     1       6.057   1.261   0.134  1.00  0.00    -0.005 C 
HETATM   26  C15 UNL     1       6.895   2.378   0.853  1.00  0.00     0.005 C 
ENDBRANCH  24  25
ENDBRANCH  23  24
ENDBRANCH  22  23
ENDBRANCH  21  22
ENDBRANCH  17  21
ENDBRANCH   8  15
BRANCH  12  27
HETATM   27  O3  UNL     1      -4.266  -0.102  -2.139  1.00  0.00    -0.387 OA
ATOM     28  H3  UNL     1      -4.529  -0.905  -2.572  1.00  0.00     0.210 HD
ENDBRANCH  12  27
ENDBRANCH   4   5
ENDBRANCH   3   4
TORSDOF 10
