REMARK  9 active torsions:
REMARK  status: ('A' for Active; 'I' for Inactive)
REMARK    1  A    between atoms: O1_2  and  C2_3 
REMARK    2  A    between atoms: C3_5  and  C4_6 
REMARK    3  A    between atoms: C4_6  and  O3_7 
REMARK    4  A    between atoms: C6_11  and  N1_12 
REMARK    5  A    between atoms: N1_12  and  C7_15 
REMARK    6  A    between atoms: C7_15  and  C8_16 
REMARK    7  A    between atoms: C8_16  and  N2_17 
REMARK    8  A    between atoms: N2_17  and  C9_19 
REMARK    9  A    between atoms: C15_25  and  O5_27 
ROOT
HETATM    1  N1  UNL     1       1.780   0.809   0.618  1.00  0.00    -0.043 N 
ATOM      2  H11 UNL     1       1.216   1.059  -0.195  1.00  0.00     0.280 HD
ATOM      3  H12 UNL     1       2.396   1.622   0.628  1.00  0.00     0.280 HD
ENDROOT
BRANCH   1   4
HETATM    4  C6  UNL     1       2.519  -0.436   0.410  1.00  0.00     0.376 C 
HETATM    5  C2  UNL     1       3.143  -0.442  -0.942  1.00  0.00     0.316 C 
HETATM    6  O2  UNL     1       4.055   0.588  -1.133  1.00  0.00    -0.347 OA
HETATM    7  C3  UNL     1       4.845   0.833  -0.035  1.00  0.00     0.172 C 
HETATM    8  C5  UNL     1       4.164   0.765   1.290  1.00  0.00     0.205 C 
HETATM    9  O4  UNL     1       3.522  -0.470   1.401  1.00  0.00    -0.353 OA
BRANCH   5  10
HETATM   10  O1  UNL     1       3.732  -1.699  -1.113  1.00  0.00    -0.362 OA
HETATM   11  C1  UNL     1       3.183  -2.439  -2.132  1.00  0.00     0.205 C 
ENDBRANCH   5  10
BRANCH   7  12
HETATM   12  C4  UNL     1       5.433   2.233  -0.232  1.00  0.00     0.198 C 
BRANCH  12  13
HETATM   13  O3  UNL     1       4.383   3.126  -0.333  1.00  0.00    -0.398 OA
ATOM     14  H3  UNL     1       4.748   3.995  -0.455  1.00  0.00     0.209 HD
ENDBRANCH  12  13
ENDBRANCH   7  12
ENDBRANCH   1   4
BRANCH   1  15
HETATM   15  C7  UNL     1       0.983   0.719   1.823  1.00  0.00     0.254 C 
BRANCH  15  16
HETATM   16  C8  UNL     1      -0.238  -0.169   1.703  1.00  0.00     0.142 C 
BRANCH  16  17
HETATM   17  N2  UNL     1      -1.166   0.399   0.797  1.00  0.00    -0.412 N 
ATOM     18  H2  UNL     1      -0.952   1.294   0.358  1.00  0.00     0.153 HD
BRANCH  17  19
HETATM   19  C9  UNL     1      -2.367  -0.241   0.493  1.00  0.00     0.118 C 
HETATM   20  C10 UNL     1      -2.288  -1.410  -0.413  1.00  0.00    -0.025 C 
HETATM   21  C11 UNL     1      -3.264  -2.520   0.007  1.00  0.00     0.017 C 
HETATM   22  C12 UNL     1      -0.956  -2.075  -0.572  1.00  0.00     0.017 C 
HETATM   23  C13 UNL     1      -2.729  -0.867  -1.782  1.00  0.00     0.014 C 
HETATM   24  C14 UNL     1      -3.100   0.571  -1.588  1.00  0.00     0.040 C 
HETATM   25  C15 UNL     1      -3.383   0.685  -0.134  1.00  0.00     0.077 C 
HETATM   26  C16 UNL     1      -3.256   2.097   0.396  1.00  0.00     0.048 C 
BRANCH  25  27
HETATM   27  O5  UNL     1      -4.642   0.197   0.228  1.00  0.00    -0.383 OA
HETATM   28  C17 UNL     1      -5.707   0.904  -0.258  1.00  0.00     0.202 C 
ENDBRANCH  25  27
ENDBRANCH  17  19
ENDBRANCH  16  17
ENDBRANCH  15  16
ENDBRANCH   1  15
TORSDOF 9
