REMARK  6 active torsions:
REMARK  status: ('A' for Active; 'I' for Inactive)
REMARK    1  A    between atoms: C2_2  and  C3_3 
REMARK    2  A    between atoms: C6_6  and  O1_7 
REMARK    3  A    between atoms: C13_15  and  C14_16 
REMARK    4  A    between atoms: C21_23  and  C22_24 
REMARK    5  A    between atoms: C24_26  and  C25_27 
REMARK    6  A    between atoms: C26_30  and  O4_31 
ROOT
HETATM    1  C3  UNL     1      -2.503  -2.015   1.127  1.00  0.00    -0.022 C 
HETATM    2  C4  UNL     1      -3.182  -2.030   2.482  1.00  0.00     0.019 C 
HETATM    3  C5  UNL     1      -1.245  -2.823   1.188  1.00  0.00     0.045 C 
HETATM    4  C6  UNL     1      -0.321  -2.362   0.100  1.00  0.00     0.130 C 
HETATM    5  C7  UNL     1       0.315  -0.981   0.396  1.00  0.00     0.019 C 
HETATM    6  C8  UNL     1       1.521  -1.331   1.206  1.00  0.00     0.021 C 
HETATM    7  C9  UNL     1       0.620  -0.477  -0.982  1.00  0.00     0.012 C 
HETATM    8  C10 UNL     1       1.271  -1.429  -1.906  1.00  0.00     0.011 C 
HETATM    9  C11 UNL     1       2.635  -0.967  -2.309  1.00  0.00    -0.009 C 
HETATM   10  C12 UNL     1       2.831  -0.907  -3.795  1.00  0.00     0.011 C 
HETATM   11  C13 UNL     1       2.825   0.304  -1.557  1.00  0.00     0.029 C 
HETATM   12  C17 UNL     1       1.439   0.756  -1.143  1.00  0.00    -0.014 C 
HETATM   13  C18 UNL     1       0.819   1.628  -2.213  1.00  0.00     0.021 C 
HETATM   14  C19 UNL     1       1.518   1.606   0.072  1.00  0.00    -0.020 C 
HETATM   15  C20 UNL     1       0.628   1.838   1.017  1.00  0.00    -0.018 C 
HETATM   16  C21 UNL     1      -0.729   1.243   1.042  1.00  0.00     0.072 C 
HETATM   17  C26 UNL     1      -0.699  -0.243   1.169  1.00  0.00     0.079 C 
HETATM   18  C27 UNL     1      -2.140  -0.639   0.710  1.00  0.00     0.053 C 
ENDROOT
BRANCH  16  19
HETATM   19  C22 UNL     1      -1.435   1.936   2.193  1.00  0.00    -0.067 C 
HETATM   20  C23 UNL     1      -0.885   1.926   3.556  1.00  0.00     0.044 C 
HETATM   21  C24 UNL     1      -2.532   2.612   1.946  1.00  0.00     0.087 C 
BRANCH  21  22
HETATM   22  C25 UNL     1      -3.289   3.304   2.944  1.00  0.00     0.198 C 
HETATM   23  O2  UNL     1      -2.940   3.293   4.145  1.00  0.00    -0.644 OA
HETATM   24  O3  UNL     1      -4.459   4.027   2.620  1.00  0.00    -0.644 OA
ENDBRANCH  21  22
ENDBRANCH  16  19
BRANCH  17  25
HETATM   25  O4  UNL     1      -0.642  -0.539   2.519  1.00  0.00    -0.388 OA
ATOM     26  H4  UNL     1      -1.296  -0.063   3.017  1.00  0.00     0.210 HD
ENDBRANCH  17  25
BRANCH   4  27
HETATM   27  O1  UNL     1      -1.043  -2.351  -1.082  1.00  0.00    -0.395 OA
ATOM     28  H1  UNL     1      -0.458  -2.059  -1.771  1.00  0.00     0.210 HD
ENDBRANCH   4  27
BRANCH   1  29
HETATM   29  C2  UNL     1      -3.465  -2.564   0.135  1.00  0.00    -0.027 C 
HETATM   30  C1  UNL     1      -4.416  -1.831  -0.427  1.00  0.00     0.007 C 
ENDBRANCH   1  29
BRANCH  11  31
HETATM   31  C14 UNL     1       3.740   1.298  -2.065  1.00  0.00    -0.088 C 
HETATM   32  C15 UNL     1       4.894   1.519  -1.421  1.00  0.00     0.014 C 
HETATM   33  C16 UNL     1       3.597   2.157  -3.273  1.00  0.00     0.043 C 
ENDBRANCH  11  31
TORSDOF 6
