REMARK  8 active torsions:
REMARK  status: ('A' for Active; 'I' for Inactive)
REMARK    1  A    between atoms: C2_2  and  C4_4 
REMARK    2  A    between atoms: C4_4  and  C6_6 
REMARK    3  A    between atoms: C6_6  and  C7_7 
REMARK    4  A    between atoms: C7_7  and  C8_8 
REMARK    5  A    between atoms: C8_8  and  C10_10 
REMARK    6  A    between atoms: C16_16  and  O1_17 
REMARK    7  A    between atoms: C19_21  and  O2_22 
REMARK    8  A    between atoms: C20_24  and  O3_25 
ROOT
HETATM    1  C10 UNL     1       1.464   0.882  -0.065  1.00  0.00    -0.002 C 
HETATM    2  C11 UNL     1       1.538  -0.105   1.077  1.00  0.00     0.006 C 
HETATM    3  C12 UNL     1       0.051  -0.487   1.216  1.00  0.00     0.006 C 
HETATM    4  C13 UNL     1      -0.564   0.866   1.169  1.00  0.00    -0.002 C 
HETATM    5  C14 UNL     1      -2.050   0.942   1.240  1.00  0.00    -0.003 C 
HETATM    6  C15 UNL     1      -2.567   0.130   2.372  1.00  0.00     0.038 C 
HETATM    7  C16 UNL     1      -3.332  -1.088   2.059  1.00  0.00     0.129 C 
HETATM    8  C17 UNL     1      -4.212  -0.945   0.854  1.00  0.00     0.014 C 
HETATM    9  C18 UNL     1      -5.264   0.094   1.006  1.00  0.00     0.021 C 
HETATM   10  C19 UNL     1      -4.826  -2.216   0.376  1.00  0.00     0.158 C 
HETATM   11  C20 UNL     1      -5.078  -1.917  -1.103  1.00  0.00     0.148 C 
HETATM   12  C21 UNL     1      -4.136  -0.777  -1.469  1.00  0.00     0.040 C 
HETATM   13  C22 UNL     1      -3.239  -0.650  -0.299  1.00  0.00     0.006 C 
HETATM   14  C23 UNL     1      -2.785   0.774  -0.049  1.00  0.00    -0.005 C 
HETATM   15  C24 UNL     1      -2.096   1.272  -1.253  1.00  0.00     0.006 C 
HETATM   16  C25 UNL     1      -0.632   1.098  -1.321  1.00  0.00     0.010 C 
HETATM   17  C26 UNL     1       0.070   1.475  -0.034  1.00  0.00    -0.036 C 
HETATM   18  C27 UNL     1       0.025   2.960   0.078  1.00  0.00     0.016 C 
ENDROOT
BRANCH   1  19
HETATM   19  C8  UNL     1       2.550   1.884  -0.060  1.00  0.00    -0.014 C 
HETATM   20  C9  UNL     1       2.662   2.695   1.200  1.00  0.00     0.010 C 
BRANCH  19  21
HETATM   21  C7  UNL     1       3.899   1.134  -0.157  1.00  0.00     0.005 C 
BRANCH  21  22
HETATM   22  C6  UNL     1       4.017   0.268  -1.338  1.00  0.00     0.009 C 
BRANCH  22  23
HETATM   23  C4  UNL     1       5.336  -0.404  -1.528  1.00  0.00     0.009 C 
HETATM   24  C5  UNL     1       5.274  -1.215  -2.846  1.00  0.00     0.015 C 
BRANCH  23  25
HETATM   25  C2  UNL     1       5.736  -1.289  -0.450  1.00  0.00    -0.089 C 
HETATM   26  C1  UNL     1       5.882  -2.604  -0.694  1.00  0.00     0.014 C 
HETATM   27  C3  UNL     1       6.060  -0.832   0.907  1.00  0.00     0.043 C 
ENDBRANCH  23  25
ENDBRANCH  22  23
ENDBRANCH  21  22
ENDBRANCH  19  21
ENDBRANCH   1  19
BRANCH   7  28
HETATM   28  O1  UNL     1      -2.573  -2.242   1.881  1.00  0.00    -0.395 OA
ATOM     29  H1  UNL     1      -3.067  -3.028   1.679  1.00  0.00     0.210 HD
ENDBRANCH   7  28
BRANCH  10  30
HETATM   30  O2  UNL     1      -6.054  -2.395   1.038  1.00  0.00    -0.392 OA
ATOM     31  H2  UNL     1      -6.445  -3.205   0.733  1.00  0.00     0.210 HD
ENDBRANCH  10  30
BRANCH  11  32
HETATM   32  O3  UNL     1      -6.382  -1.570  -1.354  1.00  0.00    -0.393 OA
ATOM     33  H3  UNL     1      -6.538  -1.384  -2.272  1.00  0.00     0.210 HD
ENDBRANCH  11  32
TORSDOF 8
