REMARK  7 active torsions:
REMARK  status: ('A' for Active; 'I' for Inactive)
REMARK    1  A    between atoms: C5_5  and  C6_6 
REMARK    2  A    between atoms: C6_6  and  C8_8 
REMARK    3  A    between atoms: C8_8  and  C9_9 
REMARK    4  A    between atoms: C9_9  and  O1_10 
REMARK    5  A    between atoms: C9_9  and  C10_12 
REMARK    6  A    between atoms: C16_18  and  O2_19 
REMARK    7  A    between atoms: C23_27  and  O3_28 
ROOT
HETATM    1  C1  UNL     1       0.522  -3.747   2.133  1.00  0.00     0.012 C 
HETATM    2  C2  UNL     1       0.536  -2.553   2.004  1.00  0.00    -0.112 C 
HETATM    3  C3  UNL     1       0.558  -1.131   1.880  1.00  0.00     0.073 C 
HETATM    4  C4  UNL     1       2.008  -0.746   1.484  1.00  0.00     0.053 C 
HETATM    5  C5  UNL     1       1.957  -1.237   0.048  1.00  0.00    -0.064 C 
HETATM    6  C13 UNL     1       0.644  -0.854  -0.507  1.00  0.00    -0.013 C 
HETATM    7  C14 UNL     1       0.114  -2.005  -1.311  1.00  0.00     0.021 C 
HETATM    8  C15 UNL     1       0.524   0.359  -1.370  1.00  0.00     0.046 C 
HETATM    9  C16 UNL     1      -0.847   1.008  -1.314  1.00  0.00     0.124 C 
HETATM   10  C17 UNL     1      -1.923   0.168  -0.734  1.00  0.00     0.027 C 
HETATM   11  C18 UNL     1      -1.575  -0.393   0.653  1.00  0.00    -0.001 C 
HETATM   12  C19 UNL     1      -2.466  -1.504   1.031  1.00  0.00     0.006 C 
HETATM   13  C20 UNL     1      -3.670  -1.500   0.079  1.00  0.00     0.006 C 
HETATM   14  C21 UNL     1      -4.241  -0.117  -0.095  1.00  0.00    -0.004 C 
HETATM   15  C22 UNL     1      -4.815   0.302   1.221  1.00  0.00     0.037 C 
HETATM   16  C23 UNL     1      -5.369   1.691   1.228  1.00  0.00     0.118 C 
HETATM   17  C24 UNL     1      -4.717   2.609   0.262  1.00  0.00     0.032 C 
HETATM   18  C25 UNL     1      -3.293   2.211  -0.115  1.00  0.00     0.012 C 
HETATM   19  C26 UNL     1      -3.268   0.856  -0.710  1.00  0.00    -0.034 C 
HETATM   20  C27 UNL     1      -3.664   1.021  -2.190  1.00  0.00     0.016 C 
HETATM   21  C28 UNL     1      -0.129  -0.504   0.747  1.00  0.00     0.018 C 
ENDROOT
BRANCH   5  22
HETATM   22  C6  UNL     1       3.183  -1.212  -0.735  1.00  0.00    -0.060 C 
HETATM   23  C7  UNL     1       4.244  -2.119  -0.034  1.00  0.00     0.048 C 
BRANCH  22  24
HETATM   24  C8  UNL     1       3.782  -0.011  -1.279  1.00  0.00     0.016 C 
BRANCH  24  25
HETATM   25  C9  UNL     1       4.251   1.126  -0.485  1.00  0.00     0.169 C 
BRANCH  25  26
HETATM   26  O1  UNL     1       4.733   2.052  -1.476  1.00  0.00    -0.387 OA
ATOM     27  H1  UNL     1       5.037   2.790  -0.961  1.00  0.00     0.210 HD
ENDBRANCH  25  26
BRANCH  25  28
HETATM   28  C10 UNL     1       5.405   0.937   0.392  1.00  0.00    -0.061 C 
HETATM   29  C11 UNL     1       5.315   1.181   1.682  1.00  0.00     0.017 C 
HETATM   30  C12 UNL     1       6.709   0.486  -0.137  1.00  0.00     0.045 C 
ENDBRANCH  25  28
ENDBRANCH  24  25
ENDBRANCH  22  24
ENDBRANCH   5  22
BRANCH   9  31
HETATM   31  O2  UNL     1      -0.748   2.268  -0.686  1.00  0.00    -0.395 OA
ATOM     32  H2  UNL     1      -1.606   2.674  -0.651  1.00  0.00     0.210 HD
ENDBRANCH   9  31
BRANCH  16  33
HETATM   33  O3  UNL     1      -5.307   2.212   2.538  1.00  0.00    -0.396 OA
ATOM     34  H3  UNL     1      -5.659   3.094   2.542  1.00  0.00     0.210 HD
ENDBRANCH  16  33
TORSDOF 7
