REMARK  13 active torsions:
REMARK  status: ('A' for Active; 'I' for Inactive)
REMARK    1  A    between atoms: N1_1  and  C1_5 
REMARK    2  A    between atoms: C1_5  and  C2_6 
REMARK    3  A    between atoms: C2_6  and  C3_7 
REMARK    4  A    between atoms: C4_8  and  C5_9 
REMARK    5  A    between atoms: C5_9  and  O1_10 
REMARK    6  A    between atoms: C6_12  and  O2_13 
REMARK    7  A    between atoms: C6_12  and  O3_15 
REMARK    8  A    between atoms: O3_15  and  C7_16 
REMARK       I    between atoms: C7_16  and  N2_18 
REMARK    9  A    between atoms: N2_18  and  N3_20 
REMARK   10  A    between atoms: C9_25  and  O6_26 
REMARK   11  A    between atoms: C9_25  and  C10_28 
REMARK   12  A    between atoms: C10_28  and  O7_29 
REMARK   13  A    between atoms: C10_28  and  O8_31 
ROOT
HETATM    1  C5  UNL     1      -0.246  -0.357  -0.966  1.00  0.00     0.223 C 
HETATM    2  C6  UNL     1      -1.506   0.413  -0.678  1.00  0.00     0.284 C 
HETATM    3  C8  UNL     1      -2.357  -0.565   0.039  1.00  0.00     0.235 C 
HETATM    4  O5  UNL     1      -3.123  -0.380   0.938  1.00  0.00    -0.288 OA
HETATM    5  C9  UNL     1      -2.042  -1.853  -0.616  1.00  0.00     0.210 C 
HETATM    6  C11 UNL     1      -0.556  -1.827  -0.707  1.00  0.00     0.173 A 
HETATM    7  C12 UNL     1       0.343  -2.634  -0.059  1.00  0.00     0.215 A 
HETATM    8  O9  UNL     1       0.109  -2.744  -1.515  1.00  0.00    -0.366 OA
ENDROOT
BRANCH   1   9
HETATM    9  C4  UNL     1       0.776   0.121  -0.029  1.00  0.00    -0.059 C 
HETATM   10  C3  UNL     1       1.633   0.498   0.761  1.00  0.00    -0.102 C 
BRANCH  10  11
HETATM   11  C2  UNL     1       2.674   0.935   1.692  1.00  0.00     0.121 C 
BRANCH  11  12
HETATM   12  C1  UNL     1       4.030   0.331   1.304  1.00  0.00     0.241 C 
BRANCH  12  13
HETATM   13  N1  UNL     1       4.396   0.747  -0.023  1.00  0.00    -0.079 N 
ATOM     14  H13 UNL     1       3.671   0.526  -0.706  1.00  0.00     0.274 HD
ATOM     15  H12 UNL     1       4.389   1.762  -0.120  1.00  0.00     0.274 HD
ATOM     16  H11 UNL     1       5.297   0.345  -0.281  1.00  0.00     0.274 HD
ENDBRANCH  12  13
ENDBRANCH  11  12
ENDBRANCH  10  11
ENDBRANCH   1   9
BRANCH   1  17
HETATM   17  O1  UNL     1       0.175  -0.246  -2.289  1.00  0.00    -0.369 OA
ATOM     18  H1  UNL     1      -0.487  -0.556  -2.896  1.00  0.00     0.212 HD
ENDBRANCH   1  17
BRANCH   2  19
HETATM   19  O2  UNL     1      -2.128   0.574  -1.949  1.00  0.00    -0.356 OA
ATOM     20  H2  UNL     1      -2.924   1.060  -1.767  1.00  0.00     0.213 HD
ENDBRANCH   2  19
BRANCH   2  21
HETATM   21  O3  UNL     1      -1.351   1.621  -0.027  1.00  0.00    -0.253 OA
BRANCH  21  22
HETATM   22  C7  UNL     1      -0.658   2.728  -0.461  1.00  0.00     0.382 C 
HETATM   23  O4  UNL     1      -0.097   2.628  -1.604  1.00  0.00    -0.237 OA
HETATM   24  N2  UNL     1      -0.558   3.927   0.301  1.00  0.00    -0.252 N 
ATOM     25  H2  UNL     1      -1.021   3.966   1.209  1.00  0.00     0.191 HD
BRANCH  24  26
HETATM   26  N3  UNL     1       0.138   5.042  -0.134  1.00  0.00    -0.341 N 
ATOM     27  H32 UNL     1       0.594   4.985  -1.044  1.00  0.00     0.177 HD
ATOM     28  H31 UNL     1       0.210   5.901   0.412  1.00  0.00     0.177 HD
ENDBRANCH  24  26
ENDBRANCH  21  22
ENDBRANCH   2  21
BRANCH   5  29
HETATM   29  O6  UNL     1      -2.525  -1.781  -1.921  1.00  0.00    -0.374 OA
ATOM     30  H6  UNL     1      -2.323  -2.608  -2.342  1.00  0.00     0.211 HD
ENDBRANCH   5  29
BRANCH   5  31
HETATM   31  C10 UNL     1      -2.599  -3.036   0.129  1.00  0.00     0.299 C 
BRANCH  31  32
HETATM   32  O7  UNL     1      -2.092  -3.048   1.404  1.00  0.00    -0.368 OA
ATOM     33  H7  UNL     1      -2.444  -3.795   1.874  1.00  0.00     0.212 HD
ENDBRANCH  31  32
BRANCH  31  34
HETATM   34  O8  UNL     1      -2.258  -4.179  -0.588  1.00  0.00    -0.368 OA
ATOM     35  H8  UNL     1      -2.610  -4.926  -0.118  1.00  0.00     0.212 HD
ENDBRANCH  31  34
ENDBRANCH   5  31
TORSDOF 13
