REMARK  6 active torsions:
REMARK  status: ('A' for Active; 'I' for Inactive)
REMARK    1  A    between atoms: N1_2  and  N2_3 
REMARK    2  A    between atoms: N1_2  and  O3_28 
REMARK       I    between atoms: N2_3  and  C2_5 
REMARK    3  A    between atoms: C2_5  and  C3_7 
REMARK    4  A    between atoms: N4_14  and  C7_15 
REMARK    5  A    between atoms: C9_22  and  N7_23 
REMARK    6  A    between atoms: O3_28  and  C10_29 
ROOT
HETATM    1  C3  UNL     1      -0.567  -0.888  -0.665  1.00  0.00     0.221 C 
HETATM    2  C4  UNL     1      -0.293  -2.370  -0.866  1.00  0.00     0.267 C 
HETATM    3  N3  UNL     1      -0.698  -3.087   0.343  1.00  0.00    -0.071 N 
ATOM      4  H31 UNL     1      -0.257  -2.724   1.188  1.00  0.00     0.277 HD
ATOM      5  H32 UNL     1      -0.319  -4.033   0.392  1.00  0.00     0.277 HD
HETATM    6  C5  UNL     1      -2.139  -3.053   0.399  1.00  0.00     0.252 C 
HETATM    7  C6  UNL     1      -2.727  -1.683   0.470  1.00  0.00     0.170 C 
HETATM    8  N4  UNL     1      -1.919  -0.672  -0.181  1.00  0.00    -0.200 N 
ENDROOT
BRANCH   8   9
HETATM    9  C7  UNL     1      -2.496   0.586  -0.368  1.00  0.00     0.699 A 
HETATM   10  N5  UNL     1      -2.242   1.306  -1.461  1.00  0.00    -0.140 N 
HETATM   11  C8  UNL     1      -2.773   2.541  -1.647  1.00  0.00     0.352 A 
ATOM     12  H5  UNL     1      -1.630   0.917  -2.179  1.00  0.00     0.189 HD
HETATM   13  O2  UNL     1      -2.564   3.249  -2.653  1.00  0.00    -0.246 OA
HETATM   14  N6  UNL     1      -3.589   3.056  -0.681  1.00  0.00    -0.141 N 
HETATM   15  C9  UNL     1      -3.840   2.330   0.414  1.00  0.00     0.694 A 
ATOM     16  H6  UNL     1      -4.002   3.982  -0.793  1.00  0.00     0.189 HD
HETATM   17  N8  UNL     1      -3.302   1.107   0.572  1.00  0.00    -0.022 N 
ATOM     18  H8  UNL     1      -3.508   0.570   1.414  1.00  0.00     0.203 HD
BRANCH  15  19
HETATM   19  N7  UNL     1      -4.622   2.866   1.331  1.00  0.00    -0.234 N 
ATOM     20  H72 UNL     1      -5.030   3.793   1.211  1.00  0.00     0.174 HD
ATOM     21  H71 UNL     1      -4.813   2.312   2.166  1.00  0.00     0.174 HD
ENDBRANCH  15  19
ENDBRANCH   8   9
BRANCH   1  22
HETATM   22  C2  UNL     1       0.404  -0.369   0.349  1.00  0.00     0.259 C 
HETATM   23  N2  UNL     1       1.787  -0.117   0.029  1.00  0.00    -0.265 N 
ATOM     24  H2  UNL     1       2.123  -0.295  -0.917  1.00  0.00     0.186 HD
HETATM   25  O1  UNL     1      -0.050  -0.159   1.509  1.00  0.00    -0.270 OA
BRANCH  23  26
HETATM   26  N1  UNL     1       2.663   0.361   0.982  1.00  0.00    -0.102 NA
HETATM   27  C1  UNL     1       3.134  -0.733   1.790  1.00  0.00     0.171 C 
BRANCH  26  28
HETATM   28  O3  UNL     1       3.624   1.089   0.542  1.00  0.00    -0.232 OA
BRANCH  28  29
HETATM   29  C10 UNL     1       4.222   0.886  -0.656  1.00  0.00     0.423 C 
HETATM   30  N9  UNL     1       5.700   0.692  -0.544  1.00  0.00    -0.057 NA
HETATM   31  N10 UNL     1       5.676   2.072  -0.327  1.00  0.00     0.020 NA
HETATM   32  O4  UNL     1       4.625   2.121  -1.216  1.00  0.00    -0.217 OA
ENDBRANCH  28  29
ENDBRANCH  26  28
ENDBRANCH  23  26
ENDBRANCH   1  22
TORSDOF 6
