REMARK  8 active torsions:
REMARK  status: ('A' for Active; 'I' for Inactive)
REMARK    1  A    between atoms: N1_1  and  N2_4 
REMARK    2  A    between atoms: N2_4  and  C1_6 
REMARK    3  A    between atoms: C3_11  and  O1_12 
REMARK    4  A    between atoms: O1_12  and  C4_13 
REMARK    5  A    between atoms: C4_13  and  O2_14 
REMARK    6  A    between atoms: C4_13  and  C5_16 
REMARK    7  A    between atoms: C7_18  and  C8_19 
REMARK    8  A    between atoms: C10_24  and  N6_25 
ROOT
HETATM    1  C5  UNL     1       0.567   0.020  -0.634  1.00  0.00     0.067 A 
HETATM    2  C6  UNL     1      -0.681   0.341  -0.140  1.00  0.00     0.059 A 
HETATM    3  C7  UNL     1      -1.840   0.007  -0.794  1.00  0.00     0.054 A 
HETATM    4  N8  UNL     1      -1.686  -0.660  -1.959  1.00  0.00    -0.352 N 
ATOM      5  H8  UNL     1      -2.515  -0.934  -2.487  1.00  0.00     0.166 HD
HETATM    6  C12 UNL     1      -0.468  -0.974  -2.443  1.00  0.00     0.181 A 
HETATM    7  N9  UNL     1       0.651  -0.639  -1.790  1.00  0.00    -0.352 N 
ATOM      8  H9  UNL     1       1.563  -0.886  -2.174  1.00  0.00     0.166 HD
ENDROOT
BRANCH   1   9
HETATM    9  C4  UNL     1       1.773   0.425   0.149  1.00  0.00     0.309 C 
BRANCH   9  10
HETATM   10  O1  UNL     1       2.702  -0.587   0.240  1.00  0.00    -0.342 OA
BRANCH  10  11
HETATM   11  C3  UNL     1       3.909  -0.311  -0.364  1.00  0.00     0.211 C 
HETATM   12  C1  UNL     1       4.952  -0.331   0.685  1.00  0.00     0.138 C 
HETATM   13  N3  UNL     1       5.983  -0.915   0.216  1.00  0.00    -0.290 N 
HETATM   14  N4  UNL     1       5.790  -1.338  -1.099  1.00  0.00    -0.137 NA
ATOM     15  H3  UNL     1       6.847  -1.056   0.740  1.00  0.00     0.183 HD
HETATM   16  C2  UNL     1       4.362  -1.322  -1.350  1.00  0.00     0.175 C 
BRANCH  12  17
HETATM   17  N2  UNL     1       4.837   0.222   2.022  1.00  0.00    -0.293 N 
ATOM     18  H2  UNL     1       4.462  -0.350   2.779  1.00  0.00     0.187 HD
BRANCH  17  19
HETATM   19  N1  UNL     1       5.239   1.537   2.273  1.00  0.00    -0.344 N 
ATOM     20  H12 UNL     1       5.611   2.095   1.505  1.00  0.00     0.176 HD
ATOM     21  H11 UNL     1       5.158   1.926   3.213  1.00  0.00     0.176 HD
ENDBRANCH  17  19
ENDBRANCH  12  17
ENDBRANCH  10  11
ENDBRANCH   9  10
BRANCH   9  22
HETATM   22  O2  UNL     1       1.413   0.940   1.391  1.00  0.00    -0.366 OA
ATOM     23  H2  UNL     1       0.772   1.638   1.328  1.00  0.00     0.213 HD
ENDBRANCH   9  22
ENDBRANCH   1   9
BRANCH   3  24
HETATM   24  C8  UNL     1      -3.213   0.306  -0.343  1.00  0.00     0.237 C 
HETATM   25  N5  UNL     1      -4.009  -0.906  -0.553  1.00  0.00    -0.332 N 
HETATM   26  C9  UNL     1      -5.396  -0.805  -0.213  1.00  0.00     0.259 C 
ATOM     27  H5  UNL     1      -3.601  -1.767  -0.918  1.00  0.00     0.165 HD
HETATM   28  O3  UNL     1      -6.204  -1.611  -0.732  1.00  0.00    -0.271 OA
HETATM   29  C10 UNL     1      -5.837   0.262   0.753  1.00  0.00     0.365 C 
HETATM   30  C11 UNL     1      -4.679   0.682   1.567  1.00  0.00     0.259 C 
HETATM   31  O4  UNL     1      -4.887   1.089   2.739  1.00  0.00    -0.271 OA
HETATM   32  N7  UNL     1      -3.342   0.631   1.041  1.00  0.00    -0.332 N 
ATOM     33  H7  UNL     1      -2.528   0.817   1.626  1.00  0.00     0.165 HD
BRANCH  29  34
HETATM   34  N6  UNL     1      -6.429   1.327   0.003  1.00  0.00    -0.058 N 
ATOM     35  H63 UNL     1      -5.811   1.686  -0.725  1.00  0.00     0.275 HD
ATOM     36  H62 UNL     1      -7.185   1.008  -0.603  1.00  0.00     0.275 HD
ATOM     37  H61 UNL     1      -6.728   2.050   0.658  1.00  0.00     0.275 HD
ENDBRANCH  29  34
ENDBRANCH   3  24
TORSDOF 8
