REMARK  1 active torsions:
REMARK  status: ('A' for Active; 'I' for Inactive)
REMARK    1  A    between atoms: N1_1  and  C1_5 
ROOT
HETATM    1  C1  UNL     1      -0.624  -0.372  -0.239  1.00  0.00     0.209 C 
HETATM    2  C2  UNL     1       0.580   0.310  -0.907  1.00  0.00     0.061 C 
HETATM    3  C3  UNL     1       1.670  -0.142   0.051  1.00  0.00     0.169 C 
HETATM    4  O1  UNL     1       1.075  -0.439   1.247  1.00  0.00    -0.389 OA
HETATM    5  C4  UNL     1      -0.249  -0.122   1.205  1.00  0.00     0.200 C 
ENDROOT
BRANCH   1   6
HETATM    6  N1  UNL     1      -1.862   0.211  -0.624  1.00  0.00    -0.073 N 
ATOM      7  H13 UNL     1      -1.865   1.216  -0.448  1.00  0.00     0.274 HD
ATOM      8  H12 UNL     1      -1.963   0.222  -1.639  1.00  0.00     0.274 HD
ATOM      9  H11 UNL     1      -2.661  -0.242  -0.181  1.00  0.00     0.274 HD
ENDBRANCH   1   6
TORSDOF 1
