REMARK  1 active torsions:
REMARK  status: ('A' for Active; 'I' for Inactive)
REMARK    1  A    between atoms: C12_14  and  C13_15 
ROOT
HETATM    1  C1  UNL     1      -1.963  -3.239  -2.026  1.00  0.00     0.158 C 
HETATM    2  N1  UNL     1      -1.107  -2.236  -1.408  1.00  0.00    -0.329 N 
HETATM    3  C2  UNL     1      -1.547  -1.217  -0.682  1.00  0.00     0.064 A 
HETATM    4  C3  UNL     1      -2.839  -0.844  -0.372  1.00  0.00     0.044 A 
HETATM    5  C4  UNL     1      -3.063   0.275   0.360  1.00  0.00    -0.024 A 
HETATM    6  C5  UNL     1      -4.377   0.621   0.652  1.00  0.00     0.012 A 
HETATM    7  C6  UNL     1      -4.573   1.766   1.398  1.00  0.00     0.001 A 
HETATM    8  C7  UNL     1      -3.526   2.542   1.840  1.00  0.00     0.001 A 
HETATM    9  C8  UNL     1      -2.245   2.148   1.518  1.00  0.00     0.012 A 
HETATM   10  C9  UNL     1      -2.002   1.024   0.784  1.00  0.00    -0.024 A 
HETATM   11  C10 UNL     1      -0.705   0.634   0.464  1.00  0.00     0.044 A 
HETATM   12  C11 UNL     1      -0.420  -0.505  -0.280  1.00  0.00     0.069 A 
HETATM   13  N2  UNL     1       0.727  -1.095  -0.761  1.00  0.00    -0.288 N 
HETATM   14  C12 UNL     1       2.009  -0.938  -0.786  1.00  0.00     0.059 A 
HETATM   15  C19 UNL     1       2.755  -1.856  -1.521  1.00  0.00     0.084 A 
HETATM   16  S1  UNL     1       1.589  -2.912  -2.138  1.00  0.00    -0.063 SA
HETATM   17  C20 UNL     1       0.229  -2.138  -1.440  1.00  0.00     0.158 A 
ENDROOT
BRANCH  14  18
HETATM   18  C13 UNL     1       2.877   0.106  -0.159  1.00  0.00    -0.008 A 
HETATM   19  C14 UNL     1       3.978   0.611  -0.821  1.00  0.00     0.014 A 
HETATM   20  C15 UNL     1       4.853   1.448  -0.205  1.00  0.00     0.001 A 
HETATM   21  C16 UNL     1       4.693   1.842   1.119  1.00  0.00     0.000 A 
HETATM   22  C17 UNL     1       3.594   1.331   1.766  1.00  0.00     0.001 A 
HETATM   23  C18 UNL     1       2.712   0.486   1.143  1.00  0.00     0.014 A 
ENDBRANCH  14  18
TORSDOF 1
