REMARK  1 active torsions:
REMARK  status: ('A' for Active; 'I' for Inactive)
REMARK    1  A    between atoms: N2_18  and  C16_20 
ROOT
HETATM    1  C1  UNL     1       1.046  -1.606   2.009  1.00  0.00     0.186 A 
HETATM    2  N1  UNL     1       2.307  -1.781   2.226  1.00  0.00    -0.352 N 
ATOM      3  H1  UNL     1       2.619  -2.232   3.086  1.00  0.00     0.166 HD
HETATM    4  C2  UNL     1       3.273  -1.338   1.252  1.00  0.00     0.041 A 
HETATM    5  C3  UNL     1       4.617  -1.507   1.484  1.00  0.00     0.030 A 
HETATM    6  C4  UNL     1       5.596  -1.104   0.601  1.00  0.00     0.002 A 
HETATM    7  C5  UNL     1       5.230  -0.501  -0.577  1.00  0.00     0.001 A 
HETATM    8  C6  UNL     1       3.867  -0.331  -0.811  1.00  0.00     0.012 A 
HETATM    9  C7  UNL     1       2.883  -0.724   0.056  1.00  0.00    -0.004 A 
HETATM   10  C8  UNL     1       1.480  -0.586  -0.247  1.00  0.00     0.161 A 
HETATM   11  C9  UNL     1       0.943   0.723  -0.694  1.00  0.00    -0.016 A 
HETATM   12  C10 UNL     1       1.476   1.813  -1.347  1.00  0.00     0.010 A 
HETATM   13  C11 UNL     1       0.616   2.796  -1.857  1.00  0.00     0.001 A 
HETATM   14  C12 UNL     1      -0.743   2.725  -1.737  1.00  0.00     0.001 A 
HETATM   15  C13 UNL     1      -1.248   1.610  -1.064  1.00  0.00     0.016 A 
HETATM   16  C14 UNL     1      -0.446   0.620  -0.540  1.00  0.00     0.017 A 
HETATM   17  C15 UNL     1      -0.708  -0.473   0.411  1.00  0.00     0.120 C 
HETATM   18  N2  UNL     1      -1.807  -0.937   0.828  1.00  0.00    -0.342 N 
ATOM     19  H2  UNL     1      -1.692  -1.703   1.491  1.00  0.00     0.167 HD
HETATM   20  N3  UNL     1       0.592  -0.963   0.812  1.00  0.00    -0.315 N 
ENDROOT
BRANCH  18  21
HETATM   21  C16 UNL     1      -3.126  -0.630   0.579  1.00  0.00     0.033 A 
HETATM   22  C17 UNL     1      -3.859  -1.134  -0.498  1.00  0.00     0.029 A 
HETATM   23  C18 UNL     1      -5.177  -0.784  -0.664  1.00  0.00     0.002 A 
HETATM   24  C19 UNL     1      -5.794   0.069   0.230  1.00  0.00     0.000 A 
HETATM   25  C20 UNL     1      -5.092   0.572   1.290  1.00  0.00     0.002 A 
HETATM   26  C21 UNL     1      -3.776   0.233   1.470  1.00  0.00     0.029 A 
ENDBRANCH  18  21
TORSDOF 1
