REMARK  1 active torsions:
REMARK  status: ('A' for Active; 'I' for Inactive)
REMARK    1  A    between atoms: C9_9  and  C10_10 
ROOT
HETATM    1  C1  UNL     1      -3.962  -3.051  -1.196  1.00  0.00     0.018 C 
HETATM    2  C2  UNL     1      -3.728  -1.911  -0.855  1.00  0.00    -0.078 C 
HETATM    3  C3  UNL     1      -3.472  -0.562  -0.442  1.00  0.00     0.018 A 
HETATM    4  C4  UNL     1      -4.498   0.341  -0.262  1.00  0.00     0.041 A 
HETATM    5  C5  UNL     1      -4.267   1.650   0.137  1.00  0.00     0.018 A 
HETATM    6  C6  UNL     1      -5.344   2.583   0.321  1.00  0.00    -0.078 C 
HETATM    7  C7  UNL     1      -6.244   3.390   0.475  1.00  0.00     0.018 C 
HETATM    8  C8  UNL     1      -2.941   2.026   0.354  1.00  0.00     0.029 A 
HETATM    9  C9  UNL     1      -1.902   1.152   0.183  1.00  0.00    -0.037 A 
HETATM   10  C21 UNL     1      -2.154  -0.136  -0.211  1.00  0.00     0.029 A 
ENDROOT
BRANCH   9  11
HETATM   11  C10 UNL     1      -0.520   1.591   0.423  1.00  0.00     0.111 A 
HETATM   12  C11 UNL     1       0.311   1.426  -0.771  1.00  0.00     0.011 A 
HETATM   13  C12 UNL     1       1.420   0.788  -0.948  1.00  0.00     0.095 A 
HETATM   14  N1  UNL     1       2.104   0.063   0.064  1.00  0.00    -0.316 N 
HETATM   15  C13 UNL     1       1.684  -0.042   1.304  1.00  0.00     0.078 A 
HETATM   16  C20 UNL     1       3.265  -0.636  -0.014  1.00  0.00     0.050 A 
HETATM   17  C14 UNL     1       2.563  -0.807   2.039  1.00  0.00     0.051 A 
HETATM   18  S1  UNL     1       0.187   0.732   1.839  1.00  0.00    -0.098 SA
HETATM   19  C15 UNL     1       3.577  -1.191   1.203  1.00  0.00    -0.006 A 
HETATM   20  C16 UNL     1       4.721  -1.948   1.355  1.00  0.00     0.014 A 
HETATM   21  C17 UNL     1       5.574  -2.168   0.303  1.00  0.00     0.001 A 
HETATM   22  C18 UNL     1       5.293  -1.627  -0.934  1.00  0.00     0.002 A 
HETATM   23  C19 UNL     1       4.144  -0.878  -1.048  1.00  0.00     0.031 A 
ENDBRANCH   9  11
TORSDOF 1
