REMARK  8 active torsions:
REMARK  status: ('A' for Active; 'I' for Inactive)
REMARK    1  A    between atoms: O1_2  and  C2_3 
REMARK    2  A    between atoms: C2_3  and  C3_4 
REMARK    3  A    between atoms: C2_3  and  C7_11 
REMARK    4  A    between atoms: C7_11  and  O2_12 
REMARK    5  A    between atoms: C7_11  and  N2_14 
REMARK    6  A    between atoms: N2_14  and  C8_16 
REMARK    7  A    between atoms: C8_16  and  C9_17 
REMARK    8  A    between atoms: C9_17  and  C10_18 
ROOT
HETATM    1  C10 UNL     1       3.723   0.172  -0.908  1.00  0.00    -0.011 C 
HETATM    2  C11 UNL     1       4.982   0.545  -0.752  1.00  0.00     0.090 C 
HETATM    3  C12 UNL     1       5.558   0.577   0.578  1.00  0.00     0.087 C 
HETATM    4  N3  UNL     1       6.005   0.618   1.645  1.00  0.00    -0.192 NA
ENDROOT
BRANCH   1   5
HETATM    5  C9  UNL     1       2.884  -0.214   0.239  1.00  0.00     0.072 C 
BRANCH   5   6
HETATM    6  C8  UNL     1       1.648   0.687   0.373  1.00  0.00     0.062 C 
BRANCH   6   7
HETATM    7  N2  UNL     1       0.790   0.687  -0.717  1.00  0.00    -0.374 N 
ATOM      8  H2  UNL     1       0.718   1.536  -1.278  1.00  0.00     0.161 HD
BRANCH   7   9
HETATM    9  C7  UNL     1       0.026  -0.411  -1.080  1.00  0.00     0.246 C 
BRANCH   9  10
HETATM   10  C2  UNL     1      -1.018  -0.931  -0.175  1.00  0.00     0.175 C 
BRANCH  10  11
HETATM   11  O1  UNL     1      -1.654  -2.062  -0.689  1.00  0.00    -0.386 OA
HETATM   12  C1  UNL     1      -1.576  -3.177   0.061  1.00  0.00     0.202 C 
ENDBRANCH  10  11
BRANCH  10  13
HETATM   13  C3  UNL     1      -2.099   0.032   0.188  1.00  0.00     0.046 C 
HETATM   14  C4  UNL     1      -2.990   0.478  -0.929  1.00  0.00     0.036 C 
HETATM   15  C5  UNL     1      -3.669   1.704  -0.311  1.00  0.00     0.232 C 
HETATM   16  N1  UNL     1      -3.039   1.925   0.979  1.00  0.00    -0.075 N 
HETATM   17  C6  UNL     1      -1.698   1.320   0.803  1.00  0.00     0.239 C 
ATOM     18  H12 UNL     1      -3.030   2.897   1.287  1.00  0.00     0.277 HD
ATOM     19  H11 UNL     1      -3.566   1.568   1.777  1.00  0.00     0.277 HD
ENDBRANCH  10  13
ENDBRANCH   9  10
BRANCH   9  20
HETATM   20  O2  UNL     1       0.867  -1.436  -1.525  1.00  0.00    -0.374 OA
ATOM     21  H2  UNL     1       1.539  -1.101  -2.107  1.00  0.00     0.212 HD
ENDBRANCH   9  20
ENDBRANCH   7   9
ENDBRANCH   6   7
ENDBRANCH   5   6
ENDBRANCH   1   5
TORSDOF 8
