REMARK  9 active torsions:
REMARK  status: ('A' for Active; 'I' for Inactive)
REMARK    1  A    between atoms: N1_3  and  C4_5 
REMARK    2  A    between atoms: C4_5  and  C5_6 
REMARK    3  A    between atoms: C5_6  and  N2_7 
REMARK    4  A    between atoms: N2_7  and  C6_10 
REMARK    5  A    between atoms: C6_10  and  C7_11 
REMARK    6  A    between atoms: C7_11  and  C8_12 
REMARK    7  A    between atoms: C8_12  and  N3_13 
REMARK    8  A    between atoms: N3_13  and  C9_15 
REMARK    9  A    between atoms: C10_21  and  N6_22 
ROOT
HETATM    1  C1  UNL     1      -5.231   0.107   1.726  1.00  0.00     0.037 C 
HETATM    2  C2  UNL     1      -4.595  -0.366   0.815  1.00  0.00    -0.004 C 
HETATM    3  N1  UNL     1      -3.870  -0.949  -0.260  1.00  0.00    -0.345 N 
HETATM    4  C3  UNL     1      -3.714  -2.368  -0.285  1.00  0.00     0.160 C 
ENDROOT
BRANCH   3   5
HETATM    5  C4  UNL     1      -3.341  -0.065  -1.276  1.00  0.00     0.159 C 
BRANCH   5   6
HETATM    6  C5  UNL     1      -1.808  -0.049  -1.251  1.00  0.00     0.252 C 
BRANCH   6   7
HETATM    7  N2  UNL     1      -1.409   0.380   0.066  1.00  0.00    -0.073 N 
ATOM      8  H22 UNL     1      -1.903   1.233   0.328  1.00  0.00     0.277 HD
ATOM      9  H21 UNL     1      -1.774  -0.257   0.774  1.00  0.00     0.277 HD
BRANCH   7  10
HETATM   10  C6  UNL     1       0.017   0.552   0.228  1.00  0.00     0.234 C 
BRANCH  10  11
HETATM   11  C7  UNL     1       0.528   1.771  -0.557  1.00  0.00     0.047 C 
BRANCH  11  12
HETATM   12  C8  UNL     1       2.061   1.783  -0.238  1.00  0.00     0.123 C 
BRANCH  12  13
HETATM   13  N3  UNL     1       2.577   0.591  -0.723  1.00  0.00    -0.372 N 
ATOM     14  H3  UNL     1       2.002   0.130  -1.428  1.00  0.00     0.161 HD
BRANCH  13  15
HETATM   15  C9  UNL     1       3.657  -0.021  -0.427  1.00  0.00     0.169 A 
HETATM   16  N4  UNL     1       4.007  -1.219  -1.030  1.00  0.00    -0.222 N 
HETATM   17  O1  UNL     1       5.109  -1.612  -0.539  1.00  0.00    -0.153 OA
ATOM     18  H4  UNL     1       3.469  -1.704  -1.748  1.00  0.00     0.198 HD
HETATM   19  N5  UNL     1       5.572  -0.808   0.347  1.00  0.00    -0.222 N 
HETATM   20  C10 UNL     1       4.673   0.238   0.458  1.00  0.00     0.167 A 
ATOM     21  H5  UNL     1       6.440  -0.919   0.871  1.00  0.00     0.198 HD
BRANCH  20  22
HETATM   22  N6  UNL     1       4.841   1.227   1.248  1.00  0.00    -0.381 N 
ATOM     23  H62 UNL     1       4.178   1.998   1.330  1.00  0.00     0.157 HD
ATOM     24  H61 UNL     1       5.596   1.420   1.906  1.00  0.00     0.157 HD
ENDBRANCH  20  22
ENDBRANCH  13  15
ENDBRANCH  12  13
ENDBRANCH  11  12
ENDBRANCH  10  11
ENDBRANCH   7  10
ENDBRANCH   6   7
ENDBRANCH   5   6
ENDBRANCH   3   5
TORSDOF 9
