REMARK  9 active torsions:
REMARK  status: ('A' for Active; 'I' for Inactive)
REMARK    1  A    between atoms: C2_2  and  N1_3 
REMARK    2  A    between atoms: C2_2  and  N2_7 
REMARK    3  A    between atoms: N2_7  and  C3_10 
REMARK    4  A    between atoms: C5_12  and  C6_13 
REMARK    5  A    between atoms: C6_13  and  N3_14 
REMARK    6  A    between atoms: N4_18  and  O1_19 
REMARK    7  A    between atoms: O1_19  and  C7_20 
REMARK    8  A    between atoms: C7_20  and  C8_21 
REMARK    9  A    between atoms: C11_24  and  O2_25 
ROOT
HETATM    1  C3  UNL     1       1.481   0.515   0.518  1.00  0.00     0.240 C 
HETATM    2  C4  UNL     1       1.341  -0.935   0.124  1.00  0.00     0.067 C 
HETATM    3  C5  UNL     1      -0.121  -1.119  -0.320  1.00  0.00     0.139 C 
HETATM    4  N4  UNL     1      -0.722  -0.018   0.304  1.00  0.00    -0.257 N 
HETATM    5  C11 UNL     1       0.107   1.119   0.295  1.00  0.00     0.272 C 
ENDROOT
BRANCH   1   6
HETATM    6  N2  UNL     1       2.492   1.169  -0.265  1.00  0.00    -0.038 N 
ATOM      7  H22 UNL     1       2.532   2.176  -0.107  1.00  0.00     0.280 HD
ATOM      8  H21 UNL     1       2.270   1.202  -1.260  1.00  0.00     0.280 HD
BRANCH   6   9
HETATM    9  C2  UNL     1       3.747   0.497   0.017  1.00  0.00     0.377 C 
HETATM   10  C1  UNL     1       4.618   0.363  -1.214  1.00  0.00     0.071 C 
BRANCH   9  11
HETATM   11  N1  UNL     1       4.471   1.092   1.116  1.00  0.00    -0.051 N 
ATOM     12  H13 UNL     1       5.328   0.578   1.320  1.00  0.00     0.276 HD
ATOM     13  H12 UNL     1       4.882   1.987   0.851  1.00  0.00     0.276 HD
ATOM     14  H11 UNL     1       3.884   1.182   1.945  1.00  0.00     0.276 HD
ENDBRANCH   9  11
ENDBRANCH   6   9
ENDBRANCH   1   6
BRANCH   5  15
HETATM   15  O2  UNL     1       0.071   1.878  -0.847  1.00  0.00    -0.373 OA
ATOM     16  H2  UNL     1      -0.789   2.256  -0.987  1.00  0.00     0.212 HD
ENDBRANCH   5  15
BRANCH   3  17
HETATM   17  C6  UNL     1      -0.564  -2.463   0.221  1.00  0.00     0.257 C 
BRANCH  17  18
HETATM   18  N3  UNL     1       0.260  -3.549  -0.273  1.00  0.00    -0.077 N 
ATOM     19  H33 UNL     1       0.293  -3.554  -1.292  1.00  0.00     0.274 HD
ATOM     20  H32 UNL     1       1.247  -3.381  -0.080  1.00  0.00     0.274 HD
ATOM     21  H31 UNL     1      -0.038  -4.454   0.091  1.00  0.00     0.274 HD
ENDBRANCH  17  18
ENDBRANCH   3  17
BRANCH   4  22
HETATM   22  O1  UNL     1      -1.969   0.079   0.560  1.00  0.00    -0.279 OA
BRANCH  22  23
HETATM   23  C7  UNL     1      -2.866   0.214  -0.468  1.00  0.00     0.205 C 
BRANCH  23  24
HETATM   24  C8  UNL     1      -4.251   0.338   0.143  1.00  0.00     0.012 A 
HETATM   25  C9  UNL     1      -5.434   0.492  -0.737  1.00  0.00     0.007 A 
HETATM   26  C10 UNL     1      -4.874   1.706  -0.041  1.00  0.00     0.007 A 
ENDBRANCH  23  24
ENDBRANCH  22  23
ENDBRANCH   4  22
TORSDOF 9
