REMARK  19 active torsions:
REMARK  status: ('A' for Active; 'I' for Inactive)
REMARK    1  A    between atoms: C1_2  and  C2_3 
REMARK       I    between atoms: C1_2  and  N3_43 
REMARK    2  A    between atoms: C2_3  and  C3_4 
REMARK    3  A    between atoms: C3_4  and  C4_5 
REMARK    4  A    between atoms: C4_5  and  C5_6 
REMARK    5  A    between atoms: C5_6  and  C6_7 
REMARK    6  A    between atoms: C6_7  and  C7_8 
REMARK    7  A    between atoms: C7_8  and  C8_9 
REMARK    8  A    between atoms: C8_9  and  C9_10 
REMARK    9  A    between atoms: C9_10  and  C10_11 
REMARK   10  A    between atoms: C10_11  and  C11_12 
REMARK   11  A    between atoms: C11_12  and  O2_13 
REMARK   12  A    between atoms: N1_16  and  C13_17 
REMARK   13  A    between atoms: C13_17  and  O3_18 
REMARK   14  A    between atoms: C13_17  and  C14_20 
REMARK   15  A    between atoms: C24_32  and  C25_33 
REMARK   16  A    between atoms: C25_33  and  O6_34 
REMARK   17  A    between atoms: C25_33  and  N2_36 
REMARK   18  A    between atoms: N3_43  and  C31_45 
REMARK   19  A    between atoms: C31_45  and  C32_46 
ROOT
HETATM    1  C11 UNL     1      -2.923  -0.459   1.279  1.00  0.00     0.089 C 
HETATM    2  C12 UNL     1      -3.865   0.494   2.033  1.00  0.00     0.164 C 
HETATM    3  N1  UNL     1      -4.479   1.400   0.996  1.00  0.00    -0.354 N 
HETATM    4  C21 UNL     1      -4.958   0.650  -0.131  1.00  0.00     0.087 C 
HETATM    5  C22 UNL     1      -3.986   0.432  -1.237  1.00  0.00     0.027 C 
HETATM    6  C23 UNL     1      -3.366  -0.968  -1.035  1.00  0.00     0.023 C 
HETATM    7  C24 UNL     1      -3.732  -1.315   0.353  1.00  0.00     0.059 C 
HETATM    8  C30 UNL     1      -5.200  -0.786   0.358  1.00  0.00     0.046 C 
ENDROOT
BRANCH   1   9
HETATM    9  C10 UNL     1      -2.006  -1.099   2.233  1.00  0.00     0.041 C 
BRANCH   9  10
HETATM   10  C9  UNL     1      -0.852  -1.880   1.712  1.00  0.00     0.003 C 
BRANCH  10  11
HETATM   11  C8  UNL     1       0.167  -1.136   0.916  1.00  0.00     0.000 C 
BRANCH  11  12
HETATM   12  C7  UNL     1       1.295  -2.112   0.513  1.00  0.00     0.000 C 
BRANCH  12  13
HETATM   13  C6  UNL     1       2.319  -1.385  -0.291  1.00  0.00     0.000 C 
BRANCH  13  14
HETATM   14  C5  UNL     1       2.981  -0.237   0.394  1.00  0.00     0.000 C 
BRANCH  14  15
HETATM   15  C4  UNL     1       3.716  -0.606   1.654  1.00  0.00     0.000 C 
BRANCH  15  16
HETATM   16  C3  UNL     1       4.800  -1.601   1.439  1.00  0.00     0.009 C 
BRANCH  16  17
HETATM   17  C2  UNL     1       5.884  -1.221   0.501  1.00  0.00     0.103 C 
BRANCH  17  18
HETATM   18  C1  UNL     1       6.647  -0.023   0.895  1.00  0.00     0.217 C 
HETATM   19  O1  UNL     1       6.379   0.557   1.966  1.00  0.00    -0.274 OA
HETATM   20  N3  UNL     1       7.679   0.477   0.075  1.00  0.00    -0.359 N 
ATOM     21  H3  UNL     1       7.907   0.010  -0.803  1.00  0.00     0.162 HD
BRANCH  20  22
HETATM   22  C31 UNL     1       8.407   1.645   0.480  1.00  0.00     0.154 C 
BRANCH  22  23
HETATM   23  C32 UNL     1       9.474   2.081  -0.481  1.00  0.00     0.139 C 
HETATM   24  C33 UNL     1       8.932   2.267  -1.870  1.00  0.00     0.035 C 
HETATM   25  C34 UNL     1      10.182   2.036  -2.726  1.00  0.00     0.029 C 
HETATM   26  C35 UNL     1      11.054   1.226  -1.816  1.00  0.00     0.168 C 
HETATM   27  O8  UNL     1      10.378   1.044  -0.629  1.00  0.00    -0.384 OA
ENDBRANCH  22  23
ENDBRANCH  20  22
ENDBRANCH  17  18
ENDBRANCH  16  17
ENDBRANCH  15  16
ENDBRANCH  14  15
ENDBRANCH  13  14
ENDBRANCH  12  13
ENDBRANCH  11  12
ENDBRANCH  10  11
ENDBRANCH   9  10
ENDBRANCH   1   9
BRANCH   1  28
HETATM   28  O2  UNL     1      -2.118   0.454   0.531  1.00  0.00    -0.387 OA
ATOM     29  H2  UNL     1      -2.711   0.868  -0.086  1.00  0.00     0.210 HD
ENDBRANCH   1  28
BRANCH   7  30
HETATM   30  C25 UNL     1      -3.886  -2.714   0.735  1.00  0.00     0.125 C 
BRANCH  30  31
HETATM   31  O6  UNL     1      -3.898  -2.886   2.035  1.00  0.00    -0.349 OA
ATOM     32  H6  UNL     1      -3.998  -3.797   2.284  1.00  0.00     0.219 HD
ENDBRANCH  30  31
BRANCH  30  33
HETATM   33  N2  UNL     1      -4.026  -3.891   0.036  1.00  0.00    -0.361 N 
HETATM   34  C26 UNL     1      -4.158  -5.153   0.789  1.00  0.00     0.151 C 
HETATM   35  C27 UNL     1      -3.151  -6.103   0.217  1.00  0.00     0.187 C 
HETATM   36  O7  UNL     1      -3.333  -6.357  -1.120  1.00  0.00    -0.388 OA
HETATM   37  C28 UNL     1      -4.250  -5.542  -1.732  1.00  0.00     0.187 C 
HETATM   38  C29 UNL     1      -4.066  -4.064  -1.376  1.00  0.00     0.151 C 
ENDBRANCH  30  33
ENDBRANCH   7  30
BRANCH   3  39
HETATM   39  C13 UNL     1      -4.515   2.757   1.258  1.00  0.00     0.149 C 
BRANCH  39  40
HETATM   40  O3  UNL     1      -4.000   3.072   2.424  1.00  0.00    -0.346 OA
ATOM     41  H3  UNL     1      -4.025   4.004   2.604  1.00  0.00     0.219 HD
ENDBRANCH  39  40
BRANCH  39  42
HETATM   42  C14 UNL     1      -5.001   3.885   0.517  1.00  0.00     0.017 A 
HETATM   43  C15 UNL     1      -4.946   5.172   1.113  1.00  0.00     0.018 A 
HETATM   44  C16 UNL     1      -5.372   6.302   0.486  1.00  0.00     0.041 A 
HETATM   45  C17 UNL     1      -5.885   6.224  -0.787  1.00  0.00     0.105 A 
HETATM   46  C18 UNL     1      -5.958   5.009  -1.403  1.00  0.00     0.105 A 
HETATM   47  O5  UNL     1      -6.380   7.195  -1.639  1.00  0.00    -0.323 OA
HETATM   48  C19 UNL     1      -5.520   3.879  -0.747  1.00  0.00     0.055 A 
HETATM   49  O4  UNL     1      -6.513   5.197  -2.685  1.00  0.00    -0.323 OA
HETATM   50  C20 UNL     1      -6.973   6.546  -2.736  1.00  0.00     0.352 C 
ENDBRANCH  39  42
ENDBRANCH   3  39
TORSDOF 19
