REMARK  19 active torsions:
REMARK  status: ('A' for Active; 'I' for Inactive)
REMARK    1  A    between atoms: C2_2  and  C3_3 
REMARK    2  A    between atoms: C3_3  and  N1_4 
REMARK    3  A    between atoms: C3_3  and  C9_12 
REMARK       I    between atoms: N1_4  and  C4_5 
REMARK    4  A    between atoms: C4_5  and  O2_7 
REMARK    5  A    between atoms: O2_7  and  C5_8 
REMARK    6  A    between atoms: C9_12  and  C10_14 
REMARK    7  A    between atoms: C10_14  and  O4_15 
REMARK    8  A    between atoms: C15_22  and  O5_23 
REMARK    9  A    between atoms: C15_22  and  N3_25 
REMARK   10  A    between atoms: N3_25  and  C16_26 
REMARK   11  A    between atoms: N3_25  and  C28_43 
REMARK   12  A    between atoms: C16_26  and  C17_27 
REMARK   13  A    between atoms: C17_27  and  C18_29 
REMARK   14  A    between atoms: C18_29  and  C19_30 
REMARK   15  A    between atoms: C18_29  and  N4_33 
REMARK   16  A    between atoms: C19_30  and  C20_31 
REMARK       I    between atoms: N4_33  and  C22_35 
REMARK   17  A    between atoms: C22_35  and  O8_37 
REMARK   18  A    between atoms: O8_37  and  C23_38 
REMARK   19  A    between atoms: C28_43  and  C29_44 
ROOT
HETATM    1  N3  UNL     1       1.249   1.704   0.444  1.00  0.00    -0.353 N 
ENDROOT
BRANCH   1   2
HETATM    2  C15 UNL     1      -0.106   1.430   0.669  1.00  0.00     0.162 C 
HETATM    3  C14 UNL     1      -0.774   1.007   1.836  1.00  0.00     0.064 C 
HETATM    4  N2  UNL     1      -2.210   0.757   1.868  1.00  0.00    -0.324 N 
HETATM    5  C13 UNL     1      -0.248   0.081   2.856  1.00  0.00     0.063 C 
HETATM    6  C10 UNL     1      -3.259   0.367   1.142  1.00  0.00     0.193 C 
HETATM    7  C11 UNL     1      -2.378   1.006   3.390  1.00  0.00     0.131 C 
HETATM    8  C12 UNL     1      -1.460  -0.088   3.823  1.00  0.00     0.026 C 
BRANCH   6   9
HETATM    9  C9  UNL     1      -3.992   0.042   0.001  1.00  0.00     0.239 C 
HETATM   10  O3  UNL     1      -3.572   0.334  -1.160  1.00  0.00    -0.285 OA
BRANCH   9  11
HETATM   11  C3  UNL     1      -5.352  -0.699   0.000  1.00  0.00     0.269 C 
BRANCH  11  12
HETATM   12  C2  UNL     1      -6.266   0.073   0.944  1.00  0.00     0.010 C 
HETATM   13  C1  UNL     1      -7.116  -0.535   1.788  1.00  0.00     0.010 C 
ENDBRANCH  11  12
BRANCH  11  14
HETATM   14  N1  UNL     1      -5.964  -0.955  -1.105  1.00  0.00    -0.373 NA
HETATM   15  C4  UNL     1      -6.597  -1.228  -2.399  1.00  0.00     0.436 C 
HETATM   16  O1  UNL     1      -6.067  -1.146  -3.504  1.00  0.00    -0.221 OA
BRANCH  15  17
HETATM   17  O2  UNL     1      -7.861  -1.609  -2.430  1.00  0.00    -0.283 OA
BRANCH  17  18
HETATM   18  C5  UNL     1      -9.066  -1.977  -2.504  1.00  0.00     0.062 C 
HETATM   19  C6  UNL     1      -9.343  -3.404  -3.026  1.00  0.00     0.046 C 
HETATM   20  C7  UNL     1      -9.780  -1.940  -1.110  1.00  0.00     0.046 C 
HETATM   21  C8  UNL     1      -9.999  -1.058  -3.347  1.00  0.00     0.046 C 
ENDBRANCH  17  18
ENDBRANCH  15  17
ENDBRANCH  11  14
ENDBRANCH   9  11
ENDBRANCH   6   9
BRANCH   6  22
HETATM   22  O4  UNL     1      -4.272   0.120   2.182  1.00  0.00    -0.343 OA
ATOM     23  H4  UNL     1      -3.773   0.341   2.959  1.00  0.00     0.219 HD
ENDBRANCH   6  22
BRANCH   2  24
HETATM   24  O5  UNL     1      -0.851   1.640  -0.384  1.00  0.00    -0.345 OA
ATOM     25  H5  UNL     1      -0.401   1.925  -1.170  1.00  0.00     0.219 HD
ENDBRANCH   2  24
ENDBRANCH   1   2
BRANCH   1  26
HETATM   26  C16 UNL     1       2.349   1.115   1.124  1.00  0.00     0.210 C 
BRANCH  26  27
HETATM   27  C17 UNL     1       3.312   0.277   0.325  1.00  0.00     0.189 C 
HETATM   28  O6  UNL     1       3.799   0.794  -0.669  1.00  0.00    -0.289 OA
BRANCH  27  29
HETATM   29  C18 UNL     1       3.771  -1.080   0.580  1.00  0.00     0.061 C 
BRANCH  29  30
HETATM   30  C19 UNL     1       3.033  -2.037   1.394  1.00  0.00     0.061 C 
BRANCH  30  31
HETATM   31  C20 UNL     1       1.693  -2.401   0.720  1.00  0.00     0.002 C 
HETATM   32  C21 UNL     1       1.930  -3.085  -0.592  1.00  0.00     0.005 C 
ENDBRANCH  30  31
ENDBRANCH  29  30
BRANCH  29  33
HETATM   33  N4  UNL     1       5.211  -1.184   0.580  1.00  0.00    -0.303 N 
HETATM   34  C22 UNL     1       6.020  -1.796  -0.364  1.00  0.00     0.365 C 
HETATM   35  O7  UNL     1       5.520  -2.341  -1.383  1.00  0.00    -0.238 OA
ATOM     36  H4  UNL     1       5.691  -0.755   1.371  1.00  0.00     0.171 HD
BRANCH  34  37
HETATM   37  O8  UNL     1       7.394  -1.832  -0.220  1.00  0.00    -0.298 OA
BRANCH  37  38
HETATM   38  C23 UNL     1       8.156  -2.480  -1.220  1.00  0.00     0.133 C 
HETATM   39  C24 UNL     1       8.690  -3.826  -0.628  1.00  0.00     0.032 C 
HETATM   40  C25 UNL     1       9.849  -4.146  -1.540  1.00  0.00     0.002 C 
HETATM   41  C26 UNL     1      10.243  -2.861  -2.172  1.00  0.00     0.002 C 
HETATM   42  C27 UNL     1       9.431  -1.772  -1.485  1.00  0.00     0.032 C 
ENDBRANCH  37  38
ENDBRANCH  34  37
ENDBRANCH  29  33
ENDBRANCH  27  29
ENDBRANCH  26  27
ENDBRANCH   1  26
BRANCH   1  43
HETATM   43  C28 UNL     1       1.537   2.715  -0.598  1.00  0.00     0.130 C 
BRANCH  43  44
HETATM   44  C29 UNL     1       1.537   4.122  -0.186  1.00  0.00     0.004 C 
HETATM   45  C30 UNL     1       0.202   4.710   0.256  1.00  0.00     0.006 C 
HETATM   46  C31 UNL     1       0.364   6.228  -0.018  1.00  0.00     0.000 C 
HETATM   47  C32 UNL     1       1.751   6.710   0.286  1.00  0.00     0.000 C 
HETATM   48  C33 UNL     1       2.364   5.862   1.357  1.00  0.00     0.000 C 
HETATM   49  C34 UNL     1       2.420   4.390   1.041  1.00  0.00     0.006 C 
ENDBRANCH  43  44
ENDBRANCH   1  43
TORSDOF 19
