REMARK  18 active torsions:
REMARK  status: ('A' for Active; 'I' for Inactive)
REMARK    1  A    between atoms: C2_2  and  O1_3 
REMARK    2  A    between atoms: O1_3  and  C3_4 
REMARK    3  A    between atoms: C3_4  and  C4_6 
REMARK    4  A    between atoms: C4_6  and  C5_7 
REMARK    5  A    between atoms: C5_7  and  N1_8 
REMARK    6  A    between atoms: C5_7  and  C30_44 
REMARK       I    between atoms: N1_8  and  C6_10 
REMARK    7  A    between atoms: C6_10  and  C7_12 
REMARK    8  A    between atoms: C7_12  and  C8_13 
REMARK    9  A    between atoms: C7_12  and  N5_37 
REMARK   10  A    between atoms: C8_13  and  N2_14 
REMARK   11  A    between atoms: N2_14  and  C9_16 
REMARK   12  A    between atoms: C9_16  and  C11_18 
REMARK   13  A    between atoms: C9_16  and  C18_27 
REMARK   14  A    between atoms: C11_18  and  C12_19 
REMARK   15  A    between atoms: C12_19  and  C13_20 
REMARK   16  A    between atoms: C13_20  and  N3_21 
REMARK   17  A    between atoms: C18_27  and  O4_28 
REMARK   18  A    between atoms: C18_27  and  N4_30 
ROOT
HETATM    1  C8  UNL     1      -0.304   0.270   1.519  1.00  0.00     0.149 C 
ENDROOT
BRANCH   1   2
HETATM    2  C7  UNL     1       0.721  -0.808   1.831  1.00  0.00     0.190 C 
BRANCH   2   3
HETATM    3  C6  UNL     1       1.389  -1.219   0.627  1.00  0.00     0.245 C 
HETATM    4  N1  UNL     1       2.726  -1.187   0.263  1.00  0.00    -0.331 N 
ATOM      5  H1  UNL     1       3.398  -0.802   0.927  1.00  0.00     0.168 HD
HETATM    6  O3  UNL     1       0.593  -1.702  -0.263  1.00  0.00    -0.271 OA
BRANCH   4   7
HETATM    7  C5  UNL     1       3.215  -1.665  -0.994  1.00  0.00     0.006 C 
BRANCH   7   8
HETATM    8  C4  UNL     1       3.682  -0.633  -1.950  1.00  0.00     0.164 C 
BRANCH   8   9
HETATM    9  C3  UNL     1       4.746   0.260  -1.525  1.00  0.00     0.264 C 
HETATM   10  O2  UNL     1       5.060   0.402  -0.339  1.00  0.00    -0.265 OA
BRANCH   9  11
HETATM   11  O1  UNL     1       5.461   0.998  -2.480  1.00  0.00    -0.322 OA
BRANCH  11  12
HETATM   12  C2  UNL     1       6.472   1.846  -2.020  1.00  0.00     0.174 C 
HETATM   13  C1  UNL     1       7.202   2.437  -3.206  1.00  0.00     0.034 C 
ENDBRANCH  11  12
ENDBRANCH   9  11
ENDBRANCH   8   9
ENDBRANCH   7   8
BRANCH   7  14
HETATM   14  C30 UNL     1       4.049  -2.915  -0.916  1.00  0.00    -0.012 C 
HETATM   15  C31 UNL     1       3.494  -3.900   0.087  1.00  0.00     0.021 C 
HETATM   16  C32 UNL     1       3.921  -3.617  -2.280  1.00  0.00     0.021 C 
HETATM   17  C33 UNL     1       5.502  -2.726  -0.686  1.00  0.00     0.021 C 
ENDBRANCH   7  14
ENDBRANCH   4   7
ENDBRANCH   2   3
BRANCH   2  18
HETATM   18  N5  UNL     1       1.399  -0.466   2.981  1.00  0.00    -0.391 N 
HETATM   19  C25 UNL     1       2.139  -1.527   3.590  1.00  0.00     0.144 C 
HETATM   20  C26 UNL     1       3.497  -1.023   4.010  1.00  0.00     0.187 C 
HETATM   21  O5  UNL     1       3.605   0.343   3.977  1.00  0.00    -0.388 OA
HETATM   22  C27 UNL     1       2.519   1.004   4.494  1.00  0.00     0.192 C 
HETATM   23  C28 UNL     1       1.199   0.606   3.810  1.00  0.00     0.099 C 
HETATM   24  C29 UNL     1       0.255   0.220   4.933  1.00  0.00     0.034 C 
ENDBRANCH   2  18
ENDBRANCH   1   2
BRANCH   1  25
HETATM   25  N2  UNL     1      -1.296  -0.146   0.600  1.00  0.00    -0.404 N 
ATOM     26  H2  UNL     1      -1.229  -1.040   0.114  1.00  0.00     0.154 HD
BRANCH  25  27
HETATM   27  C9  UNL     1      -2.414   0.754   0.378  1.00  0.00     0.087 C 
HETATM   28  C10 UNL     1      -3.161   1.017   1.644  1.00  0.00     0.047 C 
BRANCH  27  29
HETATM   29  C11 UNL     1      -3.376  -0.081  -0.525  1.00  0.00     0.044 C 
BRANCH  29  30
HETATM   30  C12 UNL     1      -2.728  -0.433  -1.802  1.00  0.00     0.047 C 
BRANCH  30  31
HETATM   31  C13 UNL     1      -3.595  -1.184  -2.733  1.00  0.00     0.058 C 
BRANCH  31  32
HETATM   32  N3  UNL     1      -4.141  -2.420  -2.404  1.00  0.00    -0.392 N 
HETATM   33  C14 UNL     1      -5.183  -2.571  -1.478  1.00  0.00     0.132 C 
HETATM   34  C15 UNL     1      -4.867  -3.673  -0.462  1.00  0.00     0.093 C 
HETATM   35  S1  UNL     1      -4.116  -5.018  -1.419  1.00  0.00    -0.166 SA
HETATM   36  C16 UNL     1      -4.574  -4.722  -3.151  1.00  0.00     0.093 C 
HETATM   37  C17 UNL     1      -4.107  -3.330  -3.498  1.00  0.00     0.132 C 
ENDBRANCH  31  32
ENDBRANCH  30  31
ENDBRANCH  29  30
ENDBRANCH  27  29
BRANCH  27  38
HETATM   38  C18 UNL     1      -2.038   1.957  -0.367  1.00  0.00     0.141 C 
BRANCH  38  39
HETATM   39  O4  UNL     1      -0.772   2.051  -0.707  1.00  0.00    -0.348 OA
ATOM     40  H4  UNL     1      -0.528   2.832  -1.190  1.00  0.00     0.219 HD
ENDBRANCH  38  39
BRANCH  38  41
HETATM   41  N4  UNL     1      -2.802   3.044  -0.790  1.00  0.00    -0.363 N 
HETATM   42  C19 UNL     1      -4.197   3.119  -0.578  1.00  0.00     0.124 C 
HETATM   43  C20 UNL     1      -4.675   4.596  -0.518  1.00  0.00     0.020 C 
HETATM   44  C21 UNL     1      -3.811   5.280   0.506  1.00  0.00     0.002 C 
HETATM   45  C22 UNL     1      -2.713   6.101  -0.140  1.00  0.00     0.002 C 
HETATM   46  C23 UNL     1      -1.582   5.176  -0.534  1.00  0.00     0.020 C 
HETATM   47  C24 UNL     1      -2.025   4.105  -1.477  1.00  0.00     0.124 C 
ENDBRANCH  38  41
ENDBRANCH  27  38
ENDBRANCH  25  27
ENDBRANCH   1  25
TORSDOF 18
