REMARK  14 active torsions:
REMARK  status: ('A' for Active; 'I' for Inactive)
REMARK    1  A    between atoms: C2_2  and  C3_3 
REMARK    2  A    between atoms: C3_3  and  C4_4 
REMARK    3  A    between atoms: C4_4  and  C5_5 
REMARK    4  A    between atoms: N2_13  and  C10_14 
REMARK    5  A    between atoms: C10_14  and  C11_15 
REMARK       I    between atoms: C11_15  and  N3_17 
REMARK    6  A    between atoms: N3_17  and  C12_19 
REMARK    7  A    between atoms: C12_19  and  C13_20 
REMARK    8  A    between atoms: C13_20  and  C14_21 
REMARK    9  A    between atoms: C14_21  and  N4_22 
REMARK   10  A    between atoms: N5_25  and  C17_26 
REMARK   11  A    between atoms: C17_26  and  C18_27 
REMARK   12  A    between atoms: C17_26  and  C20_29 
REMARK   13  A    between atoms: C25_35  and  C26_36 
REMARK   14  A    between atoms: N7_41  and  C29_42 
ROOT
HETATM    1  C5  UNL     1      -4.217   2.940  -1.828  1.00  0.00     0.041 A 
HETATM    2  C6  UNL     1      -4.975   1.717  -1.790  1.00  0.00     0.052 A 
HETATM    3  C7  UNL     1      -3.792   1.118  -1.134  1.00  0.00    -0.018 A 
HETATM    4  C8  UNL     1      -3.145   2.233  -1.200  1.00  0.00     0.025 A 
HETATM    5  N1  UNL     1      -1.783   2.486  -0.778  1.00  0.00    -0.311 N 
ATOM      6  H1  UNL     1      -1.298   3.224  -1.289  1.00  0.00     0.170 HD
HETATM    7  C9  UNL     1      -1.028   1.857   0.241  1.00  0.00     0.330 C 
HETATM    8  O1  UNL     1      -0.036   2.494   0.705  1.00  0.00    -0.246 OA
HETATM    9  N2  UNL     1      -1.291   0.564   0.789  1.00  0.00    -0.257 N 
HETATM   10  C24 UNL     1      -2.263  -0.348   0.243  1.00  0.00     0.263 C 
HETATM   11  O3  UNL     1      -2.003  -1.562   0.566  1.00  0.00    -0.267 OA
HETATM   12  C25 UNL     1      -3.425  -0.208  -0.565  1.00  0.00     0.055 C 
ENDROOT
BRANCH   9  13
HETATM   13  C10 UNL     1      -0.533   0.195   1.938  1.00  0.00     0.239 C 
BRANCH  13  14
HETATM   14  C11 UNL     1       0.722  -0.482   1.485  1.00  0.00     0.236 C 
HETATM   15  O2  UNL     1       1.557  -0.908   2.329  1.00  0.00    -0.272 OA
HETATM   16  N3  UNL     1       0.985  -0.652   0.110  1.00  0.00    -0.360 N 
ATOM     17  H3  UNL     1       0.307  -0.311  -0.572  1.00  0.00     0.162 HD
BRANCH  16  18
HETATM   18  C12 UNL     1       2.172  -1.287  -0.349  1.00  0.00     0.124 C 
BRANCH  18  19
HETATM   19  C13 UNL     1       3.437  -0.570   0.042  1.00  0.00     0.050 C 
BRANCH  19  20
HETATM   20  C14 UNL     1       4.579  -1.415  -0.555  1.00  0.00     0.274 C 
BRANCH  20  21
HETATM   21  N4  UNL     1       5.860  -0.853  -0.263  1.00  0.00     0.091 N 
HETATM   22  C15 UNL     1       6.249  -0.894   1.117  1.00  0.00     0.302 C 
HETATM   23  C16 UNL     1       7.512  -0.038   1.234  1.00  0.00     0.303 C 
HETATM   24  N5  UNL     1       8.231  -0.161  -0.003  1.00  0.00     0.096 N 
HETATM   25  C22 UNL     1       7.579   0.591  -1.048  1.00  0.00     0.303 C 
HETATM   26  C23 UNL     1       6.076   0.435  -0.843  1.00  0.00     0.302 C 
BRANCH  24  27
HETATM   27  C17 UNL     1       9.600   0.196   0.156  1.00  0.00     0.222 C 
BRANCH  27  28
HETATM   28  C18 UNL     1       9.850   1.618   0.570  1.00  0.00     0.031 C 
HETATM   29  C19 UNL     1      11.369   1.799   0.688  1.00  0.00     0.007 C 
ENDBRANCH  27  28
BRANCH  27  30
HETATM   30  C20 UNL     1      10.369  -0.099  -1.129  1.00  0.00     0.031 C 
HETATM   31  C21 UNL     1      10.251  -1.597  -1.422  1.00  0.00     0.007 C 
ENDBRANCH  27  30
ENDBRANCH  24  27
ENDBRANCH  20  21
ENDBRANCH  19  20
ENDBRANCH  18  19
ENDBRANCH  16  18
ENDBRANCH  13  14
ENDBRANCH   9  13
BRANCH  12  32
HETATM   32  C26 UNL     1      -4.623  -0.918  -0.045  1.00  0.00     0.028 A 
HETATM   33  C27 UNL     1      -4.956  -1.230   1.256  1.00  0.00     0.035 A 
HETATM   34  C28 UNL     1      -4.237  -0.810   2.492  1.00  0.00     0.070 C 
HETATM   35  N6  UNL     1      -6.098  -1.978   1.246  1.00  0.00    -0.302 N 
HETATM   36  N7  UNL     1      -6.513  -2.160   0.025  1.00  0.00    -0.291 N 
ATOM     37  H6  UNL     1      -6.561  -2.343   2.078  1.00  0.00     0.187 HD
HETATM   38  C34 UNL     1      -5.636  -1.526  -0.799  1.00  0.00     0.038 A 
HETATM   39  C35 UNL     1      -5.767  -1.559  -2.266  1.00  0.00     0.071 C 
BRANCH  36  40
HETATM   40  C29 UNL     1      -7.702  -2.907  -0.373  1.00  0.00     0.112 C 
HETATM   41  C30 UNL     1      -7.351  -4.363  -0.584  1.00  0.00     0.053 C 
HETATM   42  C31 UNL     1      -8.518  -5.270  -0.269  1.00  0.00     0.169 C 
HETATM   43  O4  UNL     1      -8.988  -5.132   1.013  1.00  0.00    -0.391 OA
HETATM   44  C32 UNL     1      -8.428  -4.034   1.655  1.00  0.00     0.169 C 
HETATM   45  C33 UNL     1      -8.686  -2.819   0.793  1.00  0.00     0.053 C 
ENDBRANCH  36  40
ENDBRANCH  12  32
BRANCH   1  46
HETATM   46  C4  UNL     1      -4.798   4.206  -1.367  1.00  0.00     0.011 C 
BRANCH  46  47
HETATM   47  C3  UNL     1      -5.305   4.406  -0.025  1.00  0.00     0.000 C 
BRANCH  47  48
HETATM   48  C2  UNL     1      -4.347   4.302   1.124  1.00  0.00    -0.005 C 
HETATM   49  C1  UNL     1      -3.247   5.341   1.044  1.00  0.00     0.005 C 
ENDBRANCH  47  48
ENDBRANCH  46  47
ENDBRANCH   1  46
TORSDOF 14
