REMARK  2 active torsions:
REMARK  status: ('A' for Active; 'I' for Inactive)
REMARK    1  A    between atoms: C2_2  and  N1_4 
REMARK       I    between atoms: N1_4  and  C4_6 
REMARK       I    between atoms: C4_6  and  N2_8 
REMARK    2  A    between atoms: C8_13  and  O3_14 
ROOT
HETATM    1  N1  UNL     1       2.076  -0.550   0.200  1.00  0.00    -0.339 N 
ATOM      2  H1  UNL     1       1.634  -1.464   0.302  1.00  0.00     0.164 HD
HETATM    3  C4  UNL     1       1.268   0.592   0.238  1.00  0.00     0.324 C 
HETATM    4  O1  UNL     1       1.853   1.709   0.091  1.00  0.00    -0.247 OA
HETATM    5  N2  UNL     1      -0.121   0.567   0.419  1.00  0.00    -0.285 N 
HETATM    6  C5  UNL     1      -0.744  -0.625   0.877  1.00  0.00     0.107 A 
HETATM    7  C6  UNL     1      -1.919  -1.054   0.232  1.00  0.00     0.004 A 
HETATM    8  C7  UNL     1      -2.285  -2.199   0.883  1.00  0.00     0.155 A 
HETATM    9  O2  UNL     1      -1.408  -2.448   1.846  1.00  0.00    -0.298 OA
HETATM   10  C8  UNL     1      -0.469  -1.534   1.880  1.00  0.00     0.211 A 
HETATM   11  C9  UNL     1      -2.353  -0.171  -0.860  1.00  0.00    -0.014 C 
HETATM   12  C10 UNL     1      -1.586  -0.364  -2.128  1.00  0.00     0.020 C 
HETATM   13  C11 UNL     1      -3.813  -0.487  -1.146  1.00  0.00     0.020 C 
HETATM   14  C12 UNL     1      -2.307   1.256  -0.347  1.00  0.00     0.044 C 
HETATM   15  C13 UNL     1      -0.976   1.724   0.117  1.00  0.00     0.036 C 
HETATM   16  C14 UNL     1      -1.147   2.460   1.429  1.00  0.00     0.039 C 
HETATM   17  C15 UNL     1      -0.355   2.660  -0.891  1.00  0.00     0.039 C 
ENDROOT
BRANCH   1  18
HETATM   18  C2  UNL     1       3.525  -0.491   0.021  1.00  0.00     0.078 C 
HETATM   19  C1  UNL     1       4.178  -1.095   1.238  1.00  0.00     0.032 C 
HETATM   20  C3  UNL     1       3.954  -1.327  -1.176  1.00  0.00     0.032 C 
ENDBRANCH   1  18
BRANCH  10  21
HETATM   21  O3  UNL     1       0.638  -1.425   2.745  1.00  0.00    -0.339 OA
ATOM     22  H3  UNL     1       0.827  -2.050   3.435  1.00  0.00     0.220 HD
ENDBRANCH  10  21
TORSDOF 2
