REMARK  1 active torsions:
REMARK  status: ('A' for Active; 'I' for Inactive)
REMARK    1  A    between atoms: C9_12  and  C10_13 
ROOT
HETATM    1  C1  UNL     1      -4.858   0.551   0.014  1.00  0.00     0.049 C 
HETATM    2  C2  UNL     1      -3.380   0.407   0.010  1.00  0.00    -0.053 A 
HETATM    3  C3  UNL     1      -2.569   1.471   0.337  1.00  0.00     0.015 A 
HETATM    4  C4  UNL     1      -1.193   1.330   0.331  1.00  0.00    -0.048 A 
HETATM    5  C5  UNL     1      -0.336   2.486   0.686  1.00  0.00     0.049 C 
HETATM    6  C6  UNL     1      -0.606   0.129  -0.001  1.00  0.00     0.010 A 
HETATM    7  C7  UNL     1      -1.451  -0.940  -0.331  1.00  0.00     0.051 A 
HETATM    8  N1  UNL     1      -0.666  -1.986  -0.614  1.00  0.00    -0.349 N 
ATOM      9  H1  UNL     1      -0.988  -2.914  -0.890  1.00  0.00     0.166 HD
HETATM   10  C8  UNL     1       0.641  -1.604  -0.471  1.00  0.00     0.086 A 
HETATM   11  S1  UNL     1       2.277  -2.082  -0.569  1.00  0.00    -0.068 SA
HETATM   12  C9  UNL     1       3.024  -0.620  -0.127  1.00  0.00     0.053 A 
HETATM   13  C12 UNL     1       1.963   0.218   0.088  1.00  0.00     0.038 A 
HETATM   14  C13 UNL     1       0.728  -0.298  -0.091  1.00  0.00     0.012 A 
HETATM   15  C14 UNL     1      -2.819  -0.803  -0.326  1.00  0.00    -0.028 A 
HETATM   16  C15 UNL     1      -3.693  -1.952  -0.680  1.00  0.00     0.051 C 
ENDROOT
BRANCH  12  17
HETATM   17  C10 UNL     1       4.469  -0.337  -0.010  1.00  0.00     0.138 A 
HETATM   18  N2  UNL     1       5.000   0.821   0.338  1.00  0.00    -0.335 N 
HETATM   19  C11 UNL     1       6.346   0.626   0.315  1.00  0.00     0.199 A 
ATOM     20  H2  UNL     1       4.505   1.681   0.574  1.00  0.00     0.168 HD
HETATM   21  N3  UNL     1       6.625  -0.639  -0.043  1.00  0.00    -0.295 N 
HETATM   22  N4  UNL     1       5.435  -1.213  -0.239  1.00  0.00    -0.283 N 
ATOM     23  H3  UNL     1       7.545  -1.067  -0.143  1.00  0.00     0.187 HD
ATOM     24  H4  UNL     1       5.292  -2.182  -0.523  1.00  0.00     0.188 HD
ENDBRANCH  12  17
TORSDOF 1
