REMARK  6 active torsions:
REMARK  status: ('A' for Active; 'I' for Inactive)
REMARK       I    between atoms: N2_4  and  C1_6 
REMARK    1  A    between atoms: N4_8  and  C2_10 
REMARK    2  A    between atoms: C2_10  and  C3_11 
REMARK    3  A    between atoms: C3_11  and  C4_12 
REMARK    4  A    between atoms: C4_12  and  O1_13 
REMARK    5  A    between atoms: O1_13  and  C5_14 
REMARK    6  A    between atoms: C8_26  and  N10_27 
ROOT
HETATM    1  C5  UNL     1      -1.300   0.015   0.926  1.00  0.00     0.158 A 
HETATM    2  C6  UNL     1      -1.501   1.331   0.565  1.00  0.00     0.169 A 
HETATM    3  N5  UNL     1      -0.649   2.450   0.874  1.00  0.00    -0.078 NA
HETATM    4  N6  UNL     1      -2.649   1.348  -0.127  1.00  0.00    -0.262 N 
ATOM      5  H6  UNL     1      -3.061   2.190  -0.528  1.00  0.00     0.189 HD
HETATM    6  N7  UNL     1      -3.187   0.136  -0.228  1.00  0.00    -0.065 N 
HETATM    7  C7  UNL     1      -4.330  -0.305  -0.834  1.00  0.00     0.713 A 
HETATM    8  N8  UNL     1      -5.080   0.545  -1.439  1.00  0.00    -0.232 N 
ATOM      9  H81 UNL     1      -5.933   0.216  -1.891  1.00  0.00     0.174 HD
ATOM     10  H82 UNL     1      -4.836   1.535  -1.474  1.00  0.00     0.174 HD
HETATM   11  N9  UNL     1      -4.651  -1.605  -0.788  1.00  0.00    -0.021 N 
ATOM     12  H9  UNL     1      -5.503  -1.942  -1.236  1.00  0.00     0.203 HD
HETATM   13  C8  UNL     1      -3.838  -2.458  -0.145  1.00  0.00     0.692 A 
HETATM   14  N11 UNL     1      -2.718  -2.013   0.446  1.00  0.00    -0.171 N 
ATOM     15  H11 UNL     1      -2.116  -2.679   0.929  1.00  0.00     0.186 HD
HETATM   16  C9  UNL     1      -2.364  -0.707   0.420  1.00  0.00     0.197 A 
ENDROOT
BRANCH   1  17
HETATM   17  O1  UNL     1      -0.245  -0.474   1.648  1.00  0.00    -0.344 OA
BRANCH  17  18
HETATM   18  C4  UNL     1       0.971  -0.957   1.177  1.00  0.00     0.177 C 
BRANCH  18  19
HETATM   19  C3  UNL     1       1.753   0.069   0.390  1.00  0.00     0.046 C 
BRANCH  19  20
HETATM   20  C2  UNL     1       3.074  -0.507  -0.098  1.00  0.00     0.124 C 
BRANCH  20  21
HETATM   21  N4  UNL     1       3.746   0.544  -0.837  1.00  0.00    -0.363 N 
HETATM   22  C1  UNL     1       5.041   0.699  -0.733  1.00  0.00     0.202 C 
HETATM   23  N2  UNL     1       5.724   1.713  -1.439  1.00  0.00    -0.280 N 
HETATM   24  N3  UNL     1       5.771  -0.171   0.106  1.00  0.00    -0.062 NA
HETATM   25  N1  UNL     1       5.459   2.941  -1.184  1.00  0.00    -0.343 N 
ATOM     26  H2  UNL     1       6.420   1.471  -2.144  1.00  0.00     0.189 HD
ATOM     27  H12 UNL     1       4.760   3.166  -0.476  1.00  0.00     0.176 HD
ATOM     28  H11 UNL     1       5.952   3.674  -1.694  1.00  0.00     0.176 HD
ATOM     29  H4  UNL     1       3.207   1.165  -1.440  1.00  0.00     0.162 HD
ENDBRANCH  20  21
ENDBRANCH  19  20
ENDBRANCH  18  19
ENDBRANCH  17  18
ENDBRANCH   1  17
BRANCH  13  30
HETATM   30  N10 UNL     1      -4.186  -3.709  -0.125  1.00  0.00    -0.234 N 
ATOM     31 2H10 UNL     1      -5.037  -4.047  -0.574  1.00  0.00     0.174 HD
ATOM     32 1H10 UNL     1      -3.568  -4.357   0.364  1.00  0.00     0.174 HD
ENDBRANCH  13  30
TORSDOF 6
