REMARK  7 active torsions:
REMARK  status: ('A' for Active; 'I' for Inactive)
REMARK    1  A    between atoms: O1_2  and  C2_3 
REMARK    2  A    between atoms: C2_3  and  O2_4 
REMARK    3  A    between atoms: O2_4  and  C3_5 
REMARK    4  A    between atoms: C6_12  and  N3_13 
REMARK    5  A    between atoms: C8_22  and  N6_23 
REMARK    6  A    between atoms: N6_23  and  C9_26 
REMARK    7  A    between atoms: C9_26  and  C10_27 
ROOT
HETATM    1  C3  UNL     1       0.857  -0.039   0.805  1.00  0.00     0.274 C 
HETATM    2  N1  UNL     1       0.408  -1.313   1.362  1.00  0.00    -0.353 N 
ATOM      3  H1  UNL     1       1.019  -1.868   1.962  1.00  0.00     0.162 HD
HETATM    4  C4  UNL     1      -0.893  -1.754   1.047  1.00  0.00     0.144 A 
HETATM    5  C5  UNL     1      -1.873  -0.804   0.861  1.00  0.00     0.151 A 
HETATM    6  N2  UNL     1      -3.133  -1.178   0.562  1.00  0.00    -0.175 N 
ATOM      7  H2  UNL     1      -3.864  -0.481   0.422  1.00  0.00     0.186 HD
HETATM    8  C6  UNL     1      -3.408  -2.501   0.452  1.00  0.00     0.680 A 
HETATM    9  N4  UNL     1      -2.479  -3.461   0.628  1.00  0.00    -0.154 N 
ATOM     10  H4  UNL     1      -2.731  -4.445   0.536  1.00  0.00     0.187 HD
HETATM   11  C7  UNL     1      -1.217  -3.109   0.926  1.00  0.00     0.290 A 
HETATM   12  O3  UNL     1      -0.285  -3.933   1.108  1.00  0.00    -0.265 OA
HETATM   13  N5  UNL     1      -1.493   0.550   1.004  1.00  0.00    -0.343 N 
ATOM     14  H5  UNL     1      -2.237   1.244   1.074  1.00  0.00     0.163 HD
HETATM   15  C8  UNL     1      -0.131   1.024   1.058  1.00  0.00     0.335 C 
ENDROOT
BRANCH  15  16
HETATM   16  N6  UNL     1      -0.081   2.113   0.082  1.00  0.00    -0.046 N 
ATOM     17  H62 UNL     1      -0.657   2.901   0.379  1.00  0.00     0.280 HD
ATOM     18  H61 UNL     1       0.831   2.569   0.085  1.00  0.00     0.280 HD
BRANCH  16  19
HETATM   19  C9  UNL     1      -0.444   1.670  -1.255  1.00  0.00     0.278 C 
BRANCH  19  20
HETATM   20  C10 UNL     1      -0.477   2.885  -2.154  1.00  0.00     0.080 C 
HETATM   21  N7  UNL     1       0.095   3.961  -1.806  1.00  0.00    -0.410 N 
ATOM     22  H72 UNL     1       0.578   3.991  -0.908  1.00  0.00     0.155 HD
ATOM     23  H71 UNL     1       0.073   4.781  -2.413  1.00  0.00     0.155 HD
ENDBRANCH  19  20
ENDBRANCH  16  19
ENDBRANCH  15  16
BRANCH   1  24
HETATM   24  O2  UNL     1       2.127   0.259   1.308  1.00  0.00    -0.339 OA
BRANCH  24  25
HETATM   25  C2  UNL     1       3.167   0.205   0.454  1.00  0.00     0.339 C 
BRANCH  25  26
HETATM   26  O1  UNL     1       3.007   1.098  -0.592  1.00  0.00    -0.372 OA
HETATM   27  C1  UNL     1       4.125   0.981  -1.431  1.00  0.00     0.204 C 
ENDBRANCH  25  26
ENDBRANCH  24  25
ENDBRANCH   1  24
BRANCH   8  28
HETATM   28  N3  UNL     1      -4.589  -2.858   0.153  1.00  0.00    -0.234 N 
ATOM     29  H32 UNL     1      -5.292  -2.131   0.020  1.00  0.00     0.174 HD
ATOM     30  H31 UNL     1      -4.796  -3.853   0.070  1.00  0.00     0.174 HD
ENDBRANCH   8  28
TORSDOF 7
