REMARK  9 active torsions:
REMARK  status: ('A' for Active; 'I' for Inactive)
REMARK    1  A    between atoms: C3_3  and  N1_4 
REMARK    2  A    between atoms: N1_4  and  N2_6 
REMARK    3  A    between atoms: N2_6  and  O1_8 
REMARK    4  A    between atoms: O1_8  and  C4_9 
REMARK    5  A    between atoms: C4_9  and  C5_10 
REMARK    6  A    between atoms: C5_10  and  O2_11 
REMARK    7  A    between atoms: N3_13  and  C6_14 
REMARK    8  A    between atoms: C6_14  and  N4_15 
REMARK    9  A    between atoms: C9_23  and  N6_24 
ROOT
HETATM    1  C1  UNL     1       1.123   2.265   0.815  1.00  0.00     0.072 C 
HETATM    2  C2  UNL     1      -0.081   1.416   0.475  1.00  0.00     0.053 A 
HETATM    3  C3  UNL     1       0.042   0.138   0.313  1.00  0.00     0.148 A 
HETATM    4  N3  UNL     1      -1.042  -0.778  -0.015  1.00  0.00    -0.299 N 
HETATM    5  C7  UNL     1      -2.306  -0.150  -0.153  1.00  0.00     0.127 A 
HETATM    6  C8  UNL     1      -2.453   1.231   0.020  1.00  0.00     0.152 A 
HETATM    7  N5  UNL     1      -3.655   1.821  -0.123  1.00  0.00    -0.174 N 
ATOM      8  H5  UNL     1      -3.734   2.829   0.010  1.00  0.00     0.186 HD
HETATM    9  C9  UNL     1      -4.754   1.113  -0.437  1.00  0.00     0.679 A 
HETATM   10  N7  UNL     1      -4.624  -0.210  -0.607  1.00  0.00    -0.175 N 
ATOM     11  H7  UNL     1      -5.449  -0.761  -0.846  1.00  0.00     0.186 HD
HETATM   12  C10 UNL     1      -3.419  -0.845  -0.470  1.00  0.00     0.145 A 
HETATM   13  N8  UNL     1      -3.425  -2.087  -0.673  1.00  0.00    -0.383 N 
ATOM     14  H81 UNL     1      -4.266  -2.612  -0.913  1.00  0.00     0.157 HD
ATOM     15  H82 UNL     1      -2.527  -2.560  -0.571  1.00  0.00     0.157 HD
HETATM   16  N9  UNL     1      -1.330   2.055   0.342  1.00  0.00    -0.341 N 
ATOM     17  H9  UNL     1      -1.429   3.062   0.470  1.00  0.00     0.167 HD
ENDROOT
BRANCH   3  18
HETATM   18  N1  UNL     1       1.344  -0.428   0.465  1.00  0.00    -0.264 N 
ATOM     19  H1  UNL     1       1.560  -1.003   1.280  1.00  0.00     0.190 HD
BRANCH  18  20
HETATM   20  N2  UNL     1       2.246  -0.211  -0.429  1.00  0.00    -0.206 N 
ATOM     21  H2  UNL     1       2.035   0.364  -1.245  1.00  0.00     0.216 HD
BRANCH  20  22
HETATM   22  O1  UNL     1       3.495  -0.761  -0.273  1.00  0.00    -0.263 OA
BRANCH  22  23
HETATM   23  C4  UNL     1       4.601   0.105  -0.447  1.00  0.00     0.229 C 
BRANCH  23  24
HETATM   24  C5  UNL     1       5.905  -0.636  -0.245  1.00  0.00     0.193 C 
BRANCH  24  25
HETATM   25  O2  UNL     1       6.056  -1.683  -1.139  1.00  0.00    -0.399 OA
ATOM     26  H2  UNL     1       6.875  -2.148  -1.012  1.00  0.00     0.209 HD
ENDBRANCH  24  25
ENDBRANCH  23  24
ENDBRANCH  22  23
ENDBRANCH  20  22
ENDBRANCH  18  20
ENDBRANCH   3  18
BRANCH   4  27
HETATM   27  C6  UNL     1      -0.749  -2.168  -0.169  1.00  0.00     0.361 C 
BRANCH  27  28
HETATM   28  N4  UNL     1       0.104  -2.442   1.055  1.00  0.00    -0.063 N 
ATOM     29  H43 UNL     1       0.918  -1.837   1.160  1.00  0.00     0.276 HD
ATOM     30  H42 UNL     1      -0.321  -2.185   1.946  1.00  0.00     0.276 HD
ATOM     31  H41 UNL     1       0.313  -3.434   0.945  1.00  0.00     0.276 HD
ENDBRANCH  27  28
ENDBRANCH   4  27
BRANCH   9  32
HETATM   32  N6  UNL     1      -5.916   1.658  -0.579  1.00  0.00    -0.234 N 
ATOM     33  H62 UNL     1      -6.015   2.665  -0.450  1.00  0.00     0.174 HD
ATOM     34  H61 UNL     1      -6.750   1.121  -0.817  1.00  0.00     0.174 HD
ENDBRANCH   9  32
TORSDOF 9
