REMARK  6 active torsions:
REMARK  status: ('A' for Active; 'I' for Inactive)
REMARK    1  A    between atoms: N1_1  and  C1_4 
REMARK    2  A    between atoms: C3_11  and  C4_12 
REMARK    3  A    between atoms: N8_22  and  C7_23 
REMARK    4  A    between atoms: C7_23  and  C8_24 
REMARK    5  A    between atoms: C8_24  and  C9_25 
REMARK    6  A    between atoms: C9_25  and  N9_26 
ROOT
HETATM    1  C4  UNL     1      -1.343  -0.797  -1.042  1.00  0.00     0.127 A 
HETATM    2  N5  UNL     1      -1.523  -2.125  -1.338  1.00  0.00    -0.307 N 
ATOM      3  H5  UNL     1      -2.087  -2.351  -2.157  1.00  0.00     0.170 HD
HETATM    4  C5  UNL     1      -1.023  -3.137  -0.646  1.00  0.00     0.279 A 
HETATM    5  O1  UNL     1      -1.215  -4.332  -0.957  1.00  0.00    -0.265 OA
HETATM    6  C6  UNL     1      -0.261  -2.830   0.460  1.00  0.00     0.163 A 
HETATM    7  N6  UNL     1       0.396  -3.587   1.385  1.00  0.00    -0.278 N 
ATOM      8  H6  UNL     1       0.439  -4.606   1.418  1.00  0.00     0.189 HD
HETATM    9  N7  UNL     1       0.963  -2.749   2.226  1.00  0.00    -0.238 N 
ATOM     10  H7  UNL     1       1.527  -3.021   3.032  1.00  0.00     0.208 HD
HETATM   11  N8  UNL     1       0.693  -1.492   1.871  1.00  0.00    -0.260 N 
HETATM   12  C10 UNL     1      -0.071  -1.525   0.770  1.00  0.00     0.159 A 
HETATM   13  N10 UNL     1      -0.605  -0.522   0.028  1.00  0.00    -0.324 N 
ATOM     14  H10 UNL     1      -0.439   0.449   0.293  1.00  0.00     0.169 HD
ENDROOT
BRANCH   1  15
HETATM   15  C3  UNL     1      -1.958   0.202  -1.900  1.00  0.00     0.095 A 
HETATM   16  C1  UNL     1      -2.729  -0.072  -3.019  1.00  0.00     0.131 A 
HETATM   17  N2  UNL     1      -3.140   1.116  -3.577  1.00  0.00    -0.284 N 
HETATM   18  N3  UNL     1      -2.651   2.093  -2.846  1.00  0.00    -0.285 N 
ATOM     19  H2  UNL     1      -3.720   1.220  -4.409  1.00  0.00     0.188 HD
HETATM   20  C2  UNL     1      -1.928   1.556  -1.819  1.00  0.00     0.148 A 
ATOM     21  H3  UNL     1      -2.789   3.089  -3.018  1.00  0.00     0.188 HD
HETATM   22  N4  UNL     1      -1.277   2.349  -0.859  1.00  0.00    -0.080 NA
BRANCH  16  23
HETATM   23  N1  UNL     1      -3.080  -1.164  -3.555  1.00  0.00    -0.384 N 
ATOM     24  H12 UNL     1      -3.647  -1.366  -4.378  1.00  0.00     0.157 HD
ATOM     25  H11 UNL     1      -2.775  -2.045  -3.141  1.00  0.00     0.157 HD
ENDBRANCH  16  23
ENDBRANCH   1  15
BRANCH  11  26
HETATM   26  C7  UNL     1       1.126  -0.272   2.529  1.00  0.00     0.154 C 
BRANCH  26  27
HETATM   27  C8  UNL     1       2.459   0.105   1.881  1.00  0.00     0.049 C 
BRANCH  27  28
HETATM   28  C9  UNL     1       3.008   1.375   2.498  1.00  0.00     0.231 C 
BRANCH  28  29
HETATM   29  N9  UNL     1       4.256   1.746   1.906  1.00  0.00    -0.079 N 
ATOM     30  H93 UNL     1       4.933   0.985   1.953  1.00  0.00     0.274 HD
ATOM     31  H92 UNL     1       4.180   1.826   0.892  1.00  0.00     0.274 HD
ATOM     32  H91 UNL     1       4.626   2.601   2.321  1.00  0.00     0.274 HD
ENDBRANCH  28  29
ENDBRANCH  27  28
ENDBRANCH  26  27
ENDBRANCH  11  26
TORSDOF 6
