REMARK  11 active torsions:
REMARK  status: ('A' for Active; 'I' for Inactive)
REMARK    1  A    between atoms: C3_4  and  N2_5 
REMARK    2  A    between atoms: N2_5  and  C4_7 
REMARK    3  A    between atoms: C4_7  and  O1_8 
REMARK    4  A    between atoms: C4_7  and  C5_10 
REMARK    5  A    between atoms: N3_12  and  N4_13 
REMARK    6  A    between atoms: C11_29  and  S1_30 
REMARK    7  A    between atoms: S1_30  and  N9_31 
REMARK    8  A    between atoms: C12_37  and  N10_38 
REMARK    9  A    between atoms: C13_42  and  C14_43 
REMARK   10  A    between atoms: C14_43  and  O6_44 
REMARK   11  A    between atoms: O6_44  and  N12_45 
ROOT
HETATM    1  N1  UNL     1       3.841  -0.776  -3.776  1.00  0.00    -0.191 NA
HETATM    2  C1  UNL     1       2.896  -0.925  -3.134  1.00  0.00     0.105 C 
HETATM    3  C2  UNL     1       1.699  -1.092  -2.335  1.00  0.00     0.115 A 
HETATM    4  C3  UNL     1       1.526  -0.353  -1.214  1.00  0.00     0.127 A 
HETATM    5  N7  UNL     1       0.414  -0.484  -0.439  1.00  0.00    -0.340 N 
ATOM      6  H7  UNL     1       0.310   0.087   0.400  1.00  0.00     0.167 HD
HETATM    7  C7  UNL     1      -0.542  -1.356  -0.772  1.00  0.00     0.067 A 
HETATM    8  C8  UNL     1      -0.386  -2.129  -1.924  1.00  0.00     0.087 A 
HETATM    9  C9  UNL     1      -1.383  -3.014  -2.238  1.00  0.00     0.260 A 
HETATM   10  O2  UNL     1      -1.275  -3.724  -3.268  1.00  0.00    -0.267 OA
HETATM   11  N8  UNL     1      -2.452  -3.111  -1.450  1.00  0.00    -0.320 N 
ATOM     12  H8  UNL     1      -3.177  -3.779  -1.712  1.00  0.00     0.169 HD
HETATM   13  C10 UNL     1      -2.642  -2.377  -0.317  1.00  0.00     0.081 A 
HETATM   14  C11 UNL     1      -3.757  -2.520   0.463  1.00  0.00     0.149 A 
HETATM   15  S2  UNL     1      -3.514  -1.421   1.715  1.00  0.00    -0.053 SA
HETATM   16  C12 UNL     1      -1.955  -0.790   1.202  1.00  0.00     0.124 A 
HETATM   17  C15 UNL     1      -1.698  -1.478   0.061  1.00  0.00     0.057 A 
HETATM   18  C16 UNL     1       0.733  -2.019  -2.733  1.00  0.00     0.068 A 
HETATM   19  N13 UNL     1       0.933  -2.671  -3.762  1.00  0.00    -0.397 N 
ATOM     20 1H13 UNL     1       0.228  -3.348  -4.053  1.00  0.00     0.156 HD
ATOM     21 2H13 UNL     1       1.757  -2.590  -4.358  1.00  0.00     0.156 HD
ENDROOT
BRANCH   4  22
HETATM   22  N2  UNL     1       2.516   0.581  -0.776  1.00  0.00    -0.344 N 
ATOM     23  H2  UNL     1       3.384   0.677  -1.303  1.00  0.00     0.164 HD
BRANCH  22  24
HETATM   24  C4  UNL     1       2.307   1.380   0.386  1.00  0.00     0.273 C 
BRANCH  24  25
HETATM   25  O1  UNL     1       1.279   2.327   0.183  1.00  0.00    -0.371 OA
ATOM     26  H1  UNL     1       1.140   2.859   0.957  1.00  0.00     0.212 HD
ENDBRANCH  24  25
BRANCH  24  27
HETATM   27  C5  UNL     1       3.573   2.104   0.710  1.00  0.00     0.094 A 
HETATM   28  C6  UNL     1       4.845   1.578   0.725  1.00  0.00     0.168 A 
HETATM   29  N3  UNL     1       5.716   2.566   1.070  1.00  0.00    -0.198 N 
HETATM   30  N5  UNL     1       4.977   3.640   1.252  1.00  0.00    -0.222 N 
HETATM   31  N6  UNL     1       3.703   3.395   1.045  1.00  0.00    -0.283 N 
ATOM     32  H5  UNL     1       5.348   4.551   1.521  1.00  0.00     0.210 HD
ATOM     33  H6  UNL     1       2.944   4.071   1.125  1.00  0.00     0.188 HD
BRANCH  29  34
HETATM   34  N4  UNL     1       7.097   2.430   1.194  1.00  0.00    -0.323 N 
ATOM     35  H42 UNL     1       7.670   1.598   1.053  1.00  0.00     0.179 HD
ATOM     36  H41 UNL     1       7.750   3.170   1.452  1.00  0.00     0.179 HD
ENDBRANCH  29  34
ENDBRANCH  24  27
ENDBRANCH  22  24
ENDBRANCH   4  22
BRANCH  16  37
HETATM   37  N10 UNL     1      -1.321   0.213   2.014  1.00  0.00    -0.173 N 
HETATM   38  O5  UNL     1      -0.424   0.422   2.891  1.00  0.00    -0.146 OA
HETATM   39  N11 UNL     1      -0.676   1.653   3.037  1.00  0.00    -0.224 N 
HETATM   40  C13 UNL     1      -1.646   1.544   2.124  1.00  0.00     0.161 A 
ATOM     41  H11 UNL     1      -0.299   2.409   3.609  1.00  0.00     0.198 HD
BRANCH  40  42
HETATM   42  C14 UNL     1      -2.631   2.465   1.511  1.00  0.00     0.288 C 
BRANCH  42  43
HETATM   43  O6  UNL     1      -2.468   3.759   2.053  1.00  0.00    -0.214 OA
BRANCH  43  44
HETATM   44  N12 UNL     1      -1.315   4.487   1.965  1.00  0.00     0.005 N 
HETATM   45  O7  UNL     1      -0.820   4.905   0.903  1.00  0.00    -0.511 OA
HETATM   46  O8  UNL     1      -0.651   4.782   3.131  1.00  0.00    -0.511 OA
ENDBRANCH  43  44
ENDBRANCH  42  43
ENDBRANCH  40  42
ENDBRANCH  16  37
BRANCH  14  47
HETATM   47  S1  UNL     1      -5.158  -3.603   0.258  1.00  0.00     0.265 S 
HETATM   48  O3  UNL     1      -4.684  -4.917  -0.266  1.00  0.00    -0.200 OA
HETATM   49  O4  UNL     1      -5.707  -3.842   1.663  1.00  0.00    -0.200 OA
BRANCH  47  50
HETATM   50  N9  UNL     1      -6.371  -2.904  -0.715  1.00  0.00    -0.324 N 
ATOM     51  H92 UNL     1      -6.290  -1.973  -1.125  1.00  0.00     0.169 HD
ATOM     52  H91 UNL     1      -7.173  -3.524  -0.832  1.00  0.00     0.169 HD
ENDBRANCH  47  50
ENDBRANCH  14  47
TORSDOF 11
