REMARK  18 active torsions:
REMARK  status: ('A' for Active; 'I' for Inactive)
REMARK    1  A    between atoms: O1_2  and  C2_3 
REMARK    2  A    between atoms: C2_3  and  O2_4 
REMARK    3  A    between atoms: C5_7  and  C6_8 
REMARK    4  A    between atoms: C7_9  and  O3_10 
REMARK    5  A    between atoms: C9_13  and  O4_14 
REMARK    6  A    between atoms: O4_14  and  C10_15 
REMARK    7  A    between atoms: C10_15  and  O6_17 
REMARK    8  A    between atoms: O6_17  and  N1_18 
REMARK    9  A    between atoms: C12_24  and  O7_25 
REMARK   10  A    between atoms: C12_24  and  N4_27 
REMARK   11  A    between atoms: N4_27  and  O8_29 
REMARK   12  A    between atoms: N5_32  and  O9_34 
REMARK   13  A    between atoms: C15_37  and  O10_38 
REMARK   14  A    between atoms: C16_40  and  O11_41 
REMARK   15  A    between atoms: C17_43  and  C18_44 
REMARK   16  A    between atoms: C17_43  and  O13_47 
REMARK   17  A    between atoms: C18_44  and  O12_45 
REMARK   18  A    between atoms: O13_47  and  C19_48 
ROOT
HETATM    1  N1  UNL     1       5.999  -3.953   1.120  1.00  0.00    -0.188 N 
ATOM      2  H1  UNL     1       6.299  -4.907   1.320  1.00  0.00     0.217 HD
HETATM    3  N2  UNL     1       6.200  -3.039   1.950  1.00  0.00    -0.216 N 
ATOM      4  H2  UNL     1       5.882  -2.101   1.704  1.00  0.00     0.201 HD
HETATM    5  C11 UNL     1       6.819  -3.202   3.173  1.00  0.00     0.199 C 
HETATM    6  N3  UNL     1       7.332  -3.357   4.210  1.00  0.00    -0.170 NA
ENDROOT
BRANCH   1   7
HETATM    7  O6  UNL     1       5.371  -3.656  -0.061  1.00  0.00    -0.158 OA
BRANCH   7   8
HETATM    8  C10 UNL     1       4.858  -2.408  -0.287  1.00  0.00     0.435 C 
HETATM    9  O5  UNL     1       4.976  -1.522   0.625  1.00  0.00    -0.227 OA
BRANCH   8  10
HETATM   10  O4  UNL     1       4.212  -2.022  -1.443  1.00  0.00    -0.252 OA
BRANCH  10  11
HETATM   11  C9  UNL     1       3.723  -0.704  -1.565  1.00  0.00     0.136 A 
HETATM   12  C8  UNL     1       2.525  -0.290  -1.213  1.00  0.00     0.049 A 
HETATM   13  C7  UNL     1       1.242  -0.686  -0.642  1.00  0.00     0.093 A 
HETATM   14  C14 UNL     1       2.427   1.128  -1.503  1.00  0.00     0.044 A 
HETATM   15  C6  UNL     1       0.451   0.370  -0.589  1.00  0.00     0.041 A 
HETATM   16  C15 UNL     1       1.193   1.507  -1.128  1.00  0.00     0.092 A 
HETATM   17  C13 UNL     1       3.693   1.565  -2.076  1.00  0.00     0.109 A 
HETATM   18  C12 UNL     1       4.565   0.366  -2.127  1.00  0.00     0.249 A 
HETATM   19  N5  UNL     1       4.026   2.769  -2.478  1.00  0.00    -0.267 N 
ATOM     20  H5  UNL     1       4.961   2.908  -2.861  1.00  0.00     0.194 HD
BRANCH  13  21
HETATM   21  O3  UNL     1       0.877  -1.951  -0.214  1.00  0.00    -0.359 OA
ATOM     22  H3  UNL     1       1.446  -2.711  -0.252  1.00  0.00     0.217 HD
ENDBRANCH  13  21
BRANCH  15  23
HETATM   23  C5  UNL     1      -0.934   0.451  -0.090  1.00  0.00    -0.009 C 
HETATM   24  C4  UNL     1      -1.729   1.496  -0.028  1.00  0.00     0.055 C 
HETATM   25  C2  UNL     1      -3.053   1.189   0.536  1.00  0.00     0.221 C 
HETATM   26  C17 UNL     1      -2.906  -0.205   1.088  1.00  0.00     0.181 C 
HETATM   27  C16 UNL     1      -1.652  -0.740   0.432  1.00  0.00     0.195 C 
BRANCH  25  28
HETATM   28  O1  UNL     1      -3.249   2.036   1.674  1.00  0.00    -0.354 OA
HETATM   29  C1  UNL     1      -3.302   3.363   1.325  1.00  0.00     0.206 C 
ENDBRANCH  25  28
BRANCH  25  30
HETATM   30  O2  UNL     1      -4.085   1.366  -0.336  1.00  0.00    -0.354 OA
HETATM   31  C3  UNL     1      -4.096   0.673  -1.497  1.00  0.00     0.206 C 
ENDBRANCH  25  30
BRANCH  26  32
HETATM   32  C18 UNL     1      -2.601  -0.158   2.585  1.00  0.00     0.212 C 
BRANCH  32  33
HETATM   33  O12 UNL     1      -3.635   0.385   3.306  1.00  0.00    -0.398 OA
ATOM     34  H12 UNL     1      -3.445   0.414   4.236  1.00  0.00     0.209 HD
ENDBRANCH  32  33
ENDBRANCH  26  32
BRANCH  26  35
HETATM   35  O13 UNL     1      -4.048  -0.956   0.829  1.00  0.00    -0.299 OA
BRANCH  35  36
HETATM   36  C19 UNL     1      -4.275  -2.271   1.172  1.00  0.00     0.255 C 
HETATM   37  C20 UNL     1      -5.553  -2.940   0.826  1.00  0.00     0.126 C 
HETATM   38  O14 UNL     1      -3.378  -2.894   1.784  1.00  0.00    -0.266 OA
ENDBRANCH  35  36
ENDBRANCH  26  35
BRANCH  27  39
HETATM   39  O11 UNL     1      -1.936  -1.598  -0.623  1.00  0.00    -0.388 OA
ATOM     40  H11 UNL     1      -2.395  -2.360  -0.289  1.00  0.00     0.210 HD
ENDBRANCH  27  39
ENDBRANCH  15  23
BRANCH  16  41
HETATM   41  O10 UNL     1       0.787   2.826  -1.281  1.00  0.00    -0.359 OA
ATOM     42  H10 UNL     1       1.270   3.565  -1.632  1.00  0.00     0.217 HD
ENDBRANCH  16  41
BRANCH  18  43
HETATM   43  O7  UNL     1       5.737   0.560  -1.397  1.00  0.00    -0.359 OA
ATOM     44  H7  UNL     1       6.280   1.250  -1.759  1.00  0.00     0.213 HD
ENDBRANCH  18  43
BRANCH  18  45
HETATM   45  N4  UNL     1       4.852   0.008  -3.492  1.00  0.00    -0.258 N 
ATOM     46  H4  UNL     1       4.803   0.712  -4.229  1.00  0.00     0.191 HD
BRANCH  45  47
HETATM   47  O8  UNL     1       5.150  -1.125  -3.757  1.00  0.00    -0.291 OA
ATOM     48  H8  UNL     1       5.339  -1.361  -4.657  1.00  0.00     0.244 HD
ENDBRANCH  45  47
ENDBRANCH  18  45
BRANCH  19  49
HETATM   49  O9  UNL     1       3.191   3.842  -2.412  1.00  0.00    -0.290 OA
ATOM     50  H9  UNL     1       3.432   4.714  -2.703  1.00  0.00     0.244 HD
ENDBRANCH  19  49
ENDBRANCH  10  11
ENDBRANCH   8  10
ENDBRANCH   7   8
ENDBRANCH   1   7
TORSDOF 18
