REMARK  15 active torsions:
REMARK  status: ('A' for Active; 'I' for Inactive)
REMARK    1  A    between atoms: C2_2  and  O2_4 
REMARK    2  A    between atoms: O2_4  and  C3_5 
REMARK    3  A    between atoms: C3_5  and  O3_6 
REMARK    4  A    between atoms: O3_6  and  C4_7 
REMARK       I    between atoms: C4_7  and  N1_9 
REMARK    5  A    between atoms: N1_9  and  N2_11 
REMARK    6  A    between atoms: N2_11  and  C6_12 
REMARK    7  A    between atoms: N2_11  and  N11_43 
REMARK    8  A    between atoms: C6_12  and  S1_17 
REMARK    9  A    between atoms: N3_13  and  O5_15 
REMARK   10  A    between atoms: S1_17  and  S2_18 
REMARK   11  A    between atoms: S2_18  and  C7_19 
REMARK   12  A    between atoms: N5_21  and  N6_22 
REMARK   13  A    between atoms: C8_26  and  O6_27 
REMARK   14  A    between atoms: O6_27  and  C9_28 
REMARK   15  A    between atoms: C14_38  and  N10_39 
ROOT
HETATM    1  C7  UNL     1      -1.300   2.287  -0.282  1.00  0.00     0.215 C 
HETATM    2  N4  UNL     1      -1.112   3.043  -1.486  1.00  0.00    -0.108 NA
HETATM    3  N5  UNL     1      -2.090   4.009  -1.602  1.00  0.00    -0.054 NA
HETATM    4  N7  UNL     1      -2.624   4.154  -0.341  1.00  0.00    -0.093 NA
HETATM    5  C8  UNL     1      -2.686   2.776   0.180  1.00  0.00     0.264 C 
ENDROOT
BRANCH   1   6
HETATM    6  S2  UNL     1      -0.140   2.790   1.021  1.00  0.00    -0.062 SA
BRANCH   6   7
HETATM    7  S1  UNL     1       1.817   2.267   0.367  1.00  0.00    -0.014 SA
BRANCH   7   8
HETATM    8  C6  UNL     1       2.151   0.613   0.939  1.00  0.00     0.220 C 
HETATM    9  N3  UNL     1       1.342  -0.091   1.631  1.00  0.00    -0.244 N 
ATOM     10  H3  UNL     1       1.630  -1.029   1.911  1.00  0.00     0.196 HD
BRANCH   8  11
HETATM   11  N2  UNL     1       3.409   0.033   0.604  1.00  0.00    -0.104 N 
BRANCH  11  12
HETATM   12  N1  UNL     1       3.732  -1.291   0.887  1.00  0.00    -0.212 N 
HETATM   13  C4  UNL     1       4.169  -2.126  -0.169  1.00  0.00     0.385 C 
HETATM   14  O4  UNL     1       4.263  -1.700  -1.354  1.00  0.00    -0.236 OA
HETATM   15  C5  UNL     1       3.638  -1.832   2.216  1.00  0.00     0.186 C 
BRANCH  13  16
HETATM   16  O3  UNL     1       4.512  -3.455   0.065  1.00  0.00    -0.276 OA
BRANCH  16  17
HETATM   17  C3  UNL     1       4.946  -4.245  -1.037  1.00  0.00     0.360 C 
BRANCH  17  18
HETATM   18  O2  UNL     1       6.110  -3.660  -1.611  1.00  0.00    -0.295 OA
BRANCH  18  19
HETATM   19  C2  UNL     1       7.226  -3.518  -0.800  1.00  0.00     0.256 C 
HETATM   20  C1  UNL     1       8.495  -2.910  -1.323  1.00  0.00     0.126 C 
HETATM   21  O1  UNL     1       7.196  -3.899   0.399  1.00  0.00    -0.266 OA
ENDBRANCH  18  19
ENDBRANCH  17  18
ENDBRANCH  16  17
ENDBRANCH  13  16
ENDBRANCH  11  12
BRANCH  11  22
HETATM   22  N11 UNL     1       4.416   0.789  -0.047  1.00  0.00    -0.014 N 
HETATM   23  O8  UNL     1       5.571   0.865   0.413  1.00  0.00    -0.515 OA
HETATM   24  O9  UNL     1       4.037   1.425  -1.209  1.00  0.00    -0.515 OA
ENDBRANCH  11  22
ENDBRANCH   8  11
BRANCH   9  25
HETATM   25  O5  UNL     1       0.096   0.358   2.018  1.00  0.00    -0.288 OA
ATOM     26  H5  UNL     1      -0.506  -0.166   2.533  1.00  0.00     0.244 HD
ENDBRANCH   9  25
ENDBRANCH   7   8
ENDBRANCH   6   7
ENDBRANCH   1   6
BRANCH   5  27
HETATM   27  O6  UNL     1      -3.697   2.086  -0.432  1.00  0.00    -0.355 OA
BRANCH  27  28
HETATM   28  C9  UNL     1      -4.671   1.579   0.419  1.00  0.00     0.170 C 
HETATM   29  C10 UNL     1      -6.007   2.289   0.185  1.00  0.00     0.122 C 
HETATM   30  C11 UNL     1      -6.714   1.335  -0.738  1.00  0.00     0.179 C 
HETATM   31  O7  UNL     1      -7.607   1.574  -1.573  1.00  0.00    -0.291 OA
HETATM   32  C12 UNL     1      -6.158   0.012  -0.486  1.00  0.00     0.092 A 
HETATM   33  N8  UNL     1      -6.627  -1.219  -0.805  1.00  0.00    -0.349 N 
HETATM   34  C15 UNL     1      -4.954   0.148   0.201  1.00  0.00     0.045 A 
HETATM   35  C13 UNL     1      -5.950  -2.330  -0.471  1.00  0.00     0.182 A 
ATOM     36  H8  UNL     1      -7.510  -1.303  -1.308  1.00  0.00     0.167 HD
HETATM   37  N9  UNL     1      -4.803  -2.214   0.183  1.00  0.00    -0.338 N 
HETATM   38  C14 UNL     1      -4.291  -1.006   0.526  1.00  0.00     0.111 A 
ATOM     39  H9  UNL     1      -4.290  -3.059   0.436  1.00  0.00     0.168 HD
BRANCH  38  40
HETATM   40  N10 UNL     1      -3.154  -0.951   1.175  1.00  0.00    -0.385 N 
ATOM     41 2H10 UNL     1      -2.660  -1.810   1.417  1.00  0.00     0.157 HD
ATOM     42 1H10 UNL     1      -2.769  -0.042   1.433  1.00  0.00     0.157 HD
ENDBRANCH  38  40
ENDBRANCH  27  28
ENDBRANCH   5  27
BRANCH   3  43
HETATM   43  N6  UNL     1      -3.036   3.730  -2.586  1.00  0.00    -0.333 NA
ATOM     44  H62 UNL     1      -2.640   3.623  -3.520  1.00  0.00     0.173 HD
ATOM     45  H61 UNL     1      -3.759   4.444  -2.672  1.00  0.00     0.173 HD
ENDBRANCH   3  43
TORSDOF 15
