REMARK  6 active torsions:
REMARK  status: ('A' for Active; 'I' for Inactive)
REMARK    1  A    between atoms: N1_5  and  S1_6 
REMARK    2  A    between atoms: S1_6  and  N2_9 
REMARK    3  A    between atoms: N2_9  and  C5_11 
REMARK    4  A    between atoms: N3_14  and  C8_15 
REMARK    5  A    between atoms: C13_23  and  C14_24 
REMARK       I    between atoms: C14_24  and  N5_26 
REMARK    6  A    between atoms: N5_26  and  C15_28 
ROOT
HETATM    1  C1  UNL     1      -0.168  -0.896   4.279  1.00  0.00     0.010 C 
HETATM    2  C2  UNL     1      -0.769  -1.449   3.003  1.00  0.00    -0.015 C 
HETATM    3  C3  UNL     1       0.201  -2.216   2.186  1.00  0.00     0.025 C 
HETATM    4  C4  UNL     1       0.935  -1.471   1.122  1.00  0.00     0.138 C 
HETATM    5  N1  UNL     1       0.131  -0.521   0.419  1.00  0.00    -0.281 N 
HETATM    6  C13 UNL     1      -1.221  -0.730   0.733  1.00  0.00     0.189 C 
HETATM    7  C25 UNL     1      -1.431  -0.378   2.182  1.00  0.00     0.040 C 
ENDROOT
BRANCH   5   8
HETATM    8  S1  UNL     1       0.787   1.014   0.320  1.00  0.00     0.318 S 
HETATM    9  O1  UNL     1      -0.085   2.094  -0.228  1.00  0.00    -0.183 OA
HETATM   10  O2  UNL     1       1.118   1.487   1.748  1.00  0.00    -0.183 OA
BRANCH   8  11
HETATM   11  N2  UNL     1       2.280   0.914  -0.567  1.00  0.00    -0.296 N 
ATOM     12  H2  UNL     1       2.320   0.902  -1.586  1.00  0.00     0.174 HD
BRANCH  11  13
HETATM   13  C5  UNL     1       3.439   0.851   0.251  1.00  0.00     0.124 C 
HETATM   14  C6  UNL     1       4.329   2.053  -0.097  1.00  0.00     0.058 C 
HETATM   15  C7  UNL     1       5.762   1.536  -0.044  1.00  0.00     0.277 C 
HETATM   16  N3  UNL     1       5.617   0.212   0.465  1.00  0.00     0.121 N 
HETATM   17  C12 UNL     1       4.375  -0.300  -0.072  1.00  0.00     0.300 C 
BRANCH  16  18
HETATM   18  C8  UNL     1       6.723  -0.665   0.278  1.00  0.00     0.419 C 
HETATM   19  C9  UNL     1       7.948  -0.173   0.989  1.00  0.00     0.067 C 
HETATM   20  C10 UNL     1       8.899   0.164  -0.139  1.00  0.00     0.031 C 
HETATM   21  C11 UNL     1       8.465  -0.745  -1.266  1.00  0.00     0.235 C 
HETATM   22  N4  UNL     1       7.051  -0.985  -1.071  1.00  0.00    -0.043 N 
ATOM     23  H42 UNL     1       6.775  -1.933  -1.328  1.00  0.00     0.279 HD
ATOM     24  H41 UNL     1       6.472  -0.484  -1.745  1.00  0.00     0.279 HD
ENDBRANCH  16  18
ENDBRANCH  11  13
ENDBRANCH   8  11
ENDBRANCH   5   8
BRANCH   6  25
HETATM   25  C14 UNL     1      -2.238  -0.247  -0.194  1.00  0.00     0.242 C 
HETATM   26  O3  UNL     1      -1.916   0.282  -1.267  1.00  0.00    -0.271 OA
HETATM   27  N5  UNL     1      -3.601  -0.379   0.124  1.00  0.00    -0.350 N 
ATOM     28  H5  UNL     1      -3.835  -0.819   1.014  1.00  0.00     0.163 HD
BRANCH  27  29
HETATM   29  C15 UNL     1      -4.695   0.059  -0.709  1.00  0.00     0.034 C 
HETATM   30  C16 UNL     1      -4.687   1.531  -1.000  1.00  0.00     0.035 C 
HETATM   31  C17 UNL     1      -5.933   1.842  -1.819  1.00  0.00    -0.012 C 
HETATM   32  C18 UNL     1      -5.910   1.064  -3.125  1.00  0.00     0.009 C 
HETATM   33  C22 UNL     1      -7.180   1.493  -1.075  1.00  0.00     0.009 C 
HETATM   34  C19 UNL     1      -5.887  -0.423  -2.835  1.00  0.00    -0.012 C 
HETATM   35  C20 UNL     1      -7.157  -0.780  -2.133  1.00  0.00     0.009 C 
HETATM   36  C24 UNL     1      -4.647  -0.706  -2.011  1.00  0.00     0.035 C 
HETATM   37  C21 UNL     1      -7.205  -0.003  -0.839  1.00  0.00    -0.012 C 
HETATM   38  C23 UNL     1      -5.999  -0.362  -0.034  1.00  0.00     0.035 C 
ENDBRANCH  27  29
ENDBRANCH   6  25
TORSDOF 6
