REMARK  7 active torsions:
REMARK  status: ('A' for Active; 'I' for Inactive)
REMARK    1  A    between atoms: N3_10  and  C6_12 
REMARK    2  A    between atoms: C6_12  and  C7_13 
REMARK    3  A    between atoms: C7_13  and  C8_14 
REMARK    4  A    between atoms: C11_17  and  C12_18 
REMARK    5  A    between atoms: C12_18  and  C13_19 
REMARK    6  A    between atoms: C13_19  and  N4_20 
REMARK    7  A    between atoms: C20_27  and  O1_28 
REMARK       I    between atoms: N5_32  and  C23_34 
ROOT
HETATM    1  C1  UNL     1      11.211   0.372  -1.193  1.00  0.00     0.021 C 
HETATM    2  C2  UNL     1      10.078  -0.055  -1.239  1.00  0.00    -0.040 C 
HETATM    3  C3  UNL     1       8.717  -0.549  -1.313  1.00  0.00     0.178 A 
HETATM    4  N1  UNL     1       8.480  -1.823  -1.616  1.00  0.00    -0.330 N 
ATOM      5  H1  UNL     1       9.263  -2.450  -1.797  1.00  0.00     0.168 HD
HETATM    6  C4  UNL     1       7.224  -2.295  -1.687  1.00  0.00     0.200 A 
HETATM    7  N2  UNL     1       6.198  -1.447  -1.444  1.00  0.00    -0.188 N 
ATOM      8  H2  UNL     1       5.242  -1.798  -1.496  1.00  0.00     0.185 HD
HETATM    9  C5  UNL     1       6.405  -0.152  -1.135  1.00  0.00     0.682 A 
HETATM   10  N3  UNL     1       5.466   0.672  -0.900  1.00  0.00    -0.225 N 
ATOM     11  H3  UNL     1       5.753   1.625  -0.677  1.00  0.00     0.177 HD
HETATM   12  N9  UNL     1       7.670   0.281  -1.073  1.00  0.00    -0.164 N 
HETATM   13  C27 UNL     1       7.928   1.667  -0.744  1.00  0.00     0.177 C 
ENDROOT
BRANCH  10  14
HETATM   14  C6  UNL     1       4.058   0.427  -0.910  1.00  0.00     0.142 C 
BRANCH  14  15
HETATM   15  C7  UNL     1       3.574   0.420   0.519  1.00  0.00     0.058 C 
BRANCH  15  16
HETATM   16  C8  UNL     1       2.110   0.180   0.629  1.00  0.00    -0.057 A 
HETATM   17  C9  UNL     1       1.223   1.232   0.616  1.00  0.00     0.008 A 
HETATM   18  C10 UNL     1      -0.135   1.014   0.718  1.00  0.00     0.014 A 
HETATM   19  C11 UNL     1      -0.693  -0.258   0.838  1.00  0.00    -0.012 A 
HETATM   20  C25 UNL     1       0.193  -1.300   0.850  1.00  0.00     0.014 A 
HETATM   21  C26 UNL     1       1.572  -1.074   0.746  1.00  0.00     0.008 A 
BRANCH  19  22
HETATM   22  C12 UNL     1      -2.149  -0.382   0.940  1.00  0.00     0.040 C 
HETATM   23  N5  UNL     1      -2.847  -1.391   1.055  1.00  0.00    -0.331 N 
HETATM   24  C23 UNL     1      -2.740  -2.754   1.144  1.00  0.00     0.201 C 
ATOM     25  H5  UNL     1      -3.830  -1.123   1.098  1.00  0.00     0.168 HD
HETATM   26  N6  UNL     1      -2.737  -3.558  -0.028  1.00  0.00    -0.062 NA
HETATM   27  N7  UNL     1      -2.652  -3.348   2.283  1.00  0.00    -0.267 N 
HETATM   28  C24 UNL     1      -2.541  -4.729   2.425  1.00  0.00     0.184 C 
ATOM     29  H7  UNL     1      -2.664  -2.776   3.127  1.00  0.00     0.180 HD
HETATM   30  N8  UNL     1      -2.452  -5.884   2.558  1.00  0.00    -0.172 NA
BRANCH  22  31
HETATM   31  C13 UNL     1      -2.940   0.932   0.888  1.00  0.00     0.181 C 
BRANCH  31  32
HETATM   32  N4  UNL     1      -4.351   0.689   1.049  1.00  0.00    -0.375 N 
HETATM   33  C14 UNL     1      -4.959   0.226   2.257  1.00  0.00     0.123 C 
HETATM   34  C15 UNL     1      -5.969  -0.849   2.107  1.00  0.00     0.024 C 
HETATM   35  C16 UNL     1      -6.672  -0.905   0.802  1.00  0.00     0.042 C 
HETATM   36  C17 UNL     1      -6.344   0.146  -0.163  1.00  0.00    -0.031 A 
HETATM   37  C18 UNL     1      -7.221   0.347  -1.226  1.00  0.00     0.012 A 
HETATM   38  C22 UNL     1      -5.215   0.944  -0.072  1.00  0.00     0.039 A 
HETATM   39  C19 UNL     1      -6.920   1.344  -2.153  1.00  0.00     0.037 A 
HETATM   40  C20 UNL     1      -5.797   2.131  -2.056  1.00  0.00     0.067 A 
HETATM   41  C21 UNL     1      -4.920   1.930  -0.991  1.00  0.00     0.066 A 
BRANCH  40  42
HETATM   42  O1  UNL     1      -5.553   3.110  -3.014  1.00  0.00    -0.361 OA
ATOM     43  H1  UNL     1      -4.777   3.654  -2.947  1.00  0.00     0.217 HD
ENDBRANCH  40  42
ENDBRANCH  31  32
ENDBRANCH  22  31
ENDBRANCH  19  22
ENDBRANCH  15  16
ENDBRANCH  14  15
ENDBRANCH  10  14
TORSDOF 7
