REMARK  9 active torsions:
REMARK  status: ('A' for Active; 'I' for Inactive)
REMARK    1  A    between atoms: C2_2  and  S1_3 
REMARK    2  A    between atoms: S1_3  and  C3_6 
REMARK    3  A    between atoms: C6_9  and  S2_10 
REMARK    4  A    between atoms: S2_10  and  N1_13 
REMARK    5  A    between atoms: N1_13  and  C7_15 
REMARK    6  A    between atoms: C10_22  and  N4_23 
REMARK    7  A    between atoms: N4_23  and  C11_25 
REMARK    8  A    between atoms: C15_31  and  C16_32 
REMARK    9  A    between atoms: C16_32  and  O5_33 
ROOT
HETATM    1  C7  UNL     1      -0.074  -2.098  -0.739  1.00  0.00     0.160 A 
HETATM    2  N2  UNL     1       0.545  -2.238  -1.918  1.00  0.00    -0.347 N 
ATOM      3  H2  UNL     1       1.491  -2.615  -1.973  1.00  0.00     0.167 HD
HETATM    4  C8  UNL     1      -0.122  -1.864  -3.035  1.00  0.00     0.107 A 
HETATM    5  C9  UNL     1      -1.397  -1.351  -3.022  1.00  0.00     0.107 A 
HETATM    6  N3  UNL     1      -1.975  -1.232  -1.804  1.00  0.00    -0.348 N 
ATOM      7  H3  UNL     1      -2.922  -0.855  -1.756  1.00  0.00     0.167 HD
HETATM    8  C10 UNL     1      -1.378  -1.579  -0.663  1.00  0.00     0.151 A 
ENDROOT
BRANCH   1   9
HETATM    9  N1  UNL     1       0.450  -2.412   0.366  1.00  0.00    -0.263 N 
ATOM     10  H1  UNL     1      -0.128  -2.256   1.192  1.00  0.00     0.180 HD
BRANCH   9  11
HETATM   11  S2  UNL     1       1.983  -3.057   0.654  1.00  0.00     0.264 S 
HETATM   12  O3  UNL     1       2.399  -4.107  -0.359  1.00  0.00    -0.200 OA
HETATM   13  O4  UNL     1       1.905  -3.733   2.036  1.00  0.00    -0.200 OA
BRANCH  11  14
HETATM   14  C6  UNL     1       3.263  -1.874   0.735  1.00  0.00     0.080 A 
HETATM   15  C5  UNL     1       3.969  -1.569  -0.393  1.00  0.00     0.027 A 
HETATM   16  C4  UNL     1       5.004  -0.628  -0.389  1.00  0.00     0.025 A 
HETATM   17  C3  UNL     1       5.326   0.011   0.775  1.00  0.00     0.059 A 
HETATM   18  C22 UNL     1       4.622  -0.291   1.911  1.00  0.00     0.025 A 
HETATM   19  C21 UNL     1       3.605  -1.216   1.901  1.00  0.00     0.027 A 
BRANCH  17  20
HETATM   20  S1  UNL     1       6.624   1.183   0.755  1.00  0.00     0.175 S 
HETATM   21  O1  UNL     1       7.589   0.800  -0.335  1.00  0.00    -0.223 OA
HETATM   22  O2  UNL     1       7.329   1.262   2.081  1.00  0.00    -0.223 OA
BRANCH  20  23
HETATM   23  C2  UNL     1       6.003   2.811   0.389  1.00  0.00     0.141 C 
HETATM   24  C1  UNL     1       5.337   2.825  -0.950  1.00  0.00     0.021 C 
ENDBRANCH  20  23
ENDBRANCH  17  20
ENDBRANCH  11  14
ENDBRANCH   9  11
ENDBRANCH   1   9
BRANCH   8  25
HETATM   25  N4  UNL     1      -1.956  -1.453   0.487  1.00  0.00    -0.338 N 
ATOM     26  H4  UNL     1      -1.482  -1.725   1.348  1.00  0.00     0.167 HD
BRANCH  25  27
HETATM   27  C11 UNL     1      -3.273  -0.923   0.511  1.00  0.00     0.056 A 
HETATM   28  C12 UNL     1      -4.343  -1.698   0.595  1.00  0.00     0.032 A 
HETATM   29  C13 UNL     1      -4.095  -3.177   0.664  1.00  0.00     0.070 C 
HETATM   30  N5  UNL     1      -5.666  -1.179   0.620  1.00  0.00    -0.367 N 
HETATM   31  C14 UNL     1      -5.911   0.093   0.561  1.00  0.00     0.098 A 
ATOM     32  H5  UNL     1      -6.449  -1.829   0.687  1.00  0.00     0.165 HD
HETATM   33  C15 UNL     1      -4.781   0.993   0.469  1.00  0.00    -0.002 A 
HETATM   34  C20 UNL     1      -3.553   0.527   0.445  1.00  0.00     0.043 A 
BRANCH  33  35
HETATM   35  C16 UNL     1      -5.000   2.451   0.399  1.00  0.00     0.107 A 
HETATM   36  C17 UNL     1      -3.779   3.240   0.309  1.00  0.00     0.012 A 
HETATM   37  C18 UNL     1      -4.013   3.629  -0.906  1.00  0.00    -0.024 A 
HETATM   38  C19 UNL     1      -5.260   2.898  -0.984  1.00  0.00     0.074 A 
BRANCH  35  39
HETATM   39  O5  UNL     1      -5.944   2.924   1.323  1.00  0.00    -0.381 OA
ATOM     40  H5  UNL     1      -6.085   3.862   1.278  1.00  0.00     0.211 HD
ENDBRANCH  35  39
ENDBRANCH  33  35
ENDBRANCH  25  27
ENDBRANCH   8  25
TORSDOF 9
