REMARK  5 active torsions:
REMARK  status: ('A' for Active; 'I' for Inactive)
REMARK    1  A    between atoms: C2_2  and  C3_3 
REMARK    2  A    between atoms: C3_3  and  C4_4 
REMARK    3  A    between atoms: C4_4  and  C5_5 
REMARK    4  A    between atoms: C5_5  and  C6_6 
REMARK    5  A    between atoms: C18_23  and  C19_24 
REMARK       I    between atoms: C19_24  and  N3_26 
ROOT
HETATM    1  C4  UNL     1      -2.894   0.756   0.946  1.00  0.00     0.061 C 
HETATM    2  C8  UNL     1      -3.595  -0.610   0.815  1.00  0.00     0.038 C 
HETATM    3  C9  UNL     1      -2.782  -1.649   0.150  1.00  0.00     0.003 C 
HETATM    4  C10 UNL     1      -1.978  -2.522   1.084  1.00  0.00     0.000 C 
HETATM    5  C11 UNL     1      -1.657  -3.798   0.328  1.00  0.00     0.002 C 
HETATM    6  C12 UNL     1      -0.336  -4.388   0.742  1.00  0.00     0.020 C 
HETATM    7  C13 UNL     1       0.802  -3.571   0.163  1.00  0.00     0.122 C 
HETATM    8  N1  UNL     1       1.109  -4.051  -1.165  1.00  0.00    -0.361 N 
ATOM      9  H1  UNL     1       1.159  -5.059  -1.316  1.00  0.00     0.162 HD
HETATM   10  C14 UNL     1       1.343  -3.197  -2.264  1.00  0.00     0.226 C 
HETATM   11  O1  UNL     1       0.868  -3.437  -3.403  1.00  0.00    -0.273 OA
HETATM   12  C15 UNL     1       2.173  -1.943  -2.161  1.00  0.00     0.205 C 
HETATM   13  C16 UNL     1       3.242  -2.206  -1.177  1.00  0.00     0.229 C 
HETATM   14  O2  UNL     1       3.717  -3.368  -1.134  1.00  0.00    -0.273 OA
HETATM   15  N2  UNL     1       3.771  -1.236  -0.275  1.00  0.00    -0.342 N 
HETATM   16  C17 UNL     1       4.377  -1.594   0.985  1.00  0.00     0.153 C 
HETATM   17  C18 UNL     1       3.734   0.197  -0.586  1.00  0.00     0.188 C 
HETATM   18  C21 UNL     1       2.960   0.859   0.528  1.00  0.00     0.146 C 
HETATM   19  C22 UNL     1       1.750   1.531   0.018  1.00  0.00     0.261 C 
HETATM   20  O4  UNL     1       1.530   1.715  -1.197  1.00  0.00    -0.265 OA
HETATM   21  O5  UNL     1       0.832   1.971   0.943  1.00  0.00    -0.319 OA
HETATM   22  C23 UNL     1       0.405   1.261   2.086  1.00  0.00     0.205 C 
HETATM   23  C24 UNL     1      -1.102   1.517   2.249  1.00  0.00     0.195 C 
HETATM   24  O6  UNL     1      -1.755   0.435   1.730  1.00  0.00    -0.378 OA
ENDROOT
BRANCH  17  25
HETATM   25  C19 UNL     1       5.108   0.748  -0.644  1.00  0.00     0.247 C 
HETATM   26  O3  UNL     1       6.070  -0.089  -0.415  1.00  0.00    -0.271 OA
HETATM   27  N3  UNL     1       5.493   2.046  -0.909  1.00  0.00    -0.302 N 
HETATM   28  C20 UNL     1       5.289   2.878  -1.817  1.00  0.00     0.203 C 
ATOM     29  H3  UNL     1       6.097   2.421  -0.178  1.00  0.00     0.171 HD
HETATM   30  N4  UNL     1       5.866   4.188  -1.784  1.00  0.00    -0.066 NA
HETATM   31  N5  UNL     1       4.473   2.558  -2.927  1.00  0.00    -0.066 NA
ENDBRANCH  17  25
BRANCH   1  32
HETATM   32  C3  UNL     1      -2.411   1.261  -0.330  1.00  0.00     0.038 C 
BRANCH  32  33
HETATM   33  C2  UNL     1      -3.300   1.606  -1.448  1.00  0.00    -0.002 C 
HETATM   34  C1  UNL     1      -2.364   2.058  -2.605  1.00  0.00     0.005 C 
ENDBRANCH  32  33
ENDBRANCH   1  32
BRANCH   1  35
HETATM   35  C5  UNL     1      -3.781   1.562   1.813  1.00  0.00     0.038 C 
BRANCH  35  36
HETATM   36  C6  UNL     1      -5.101   1.993   1.299  1.00  0.00    -0.002 C 
HETATM   37  C7  UNL     1      -5.783   2.741   2.483  1.00  0.00     0.005 C 
ENDBRANCH  35  36
ENDBRANCH   1  35
TORSDOF 5
