REMARK  6 active torsions:
REMARK  status: ('A' for Active; 'I' for Inactive)
REMARK    1  A    between atoms: C4_8  and  C5_9 
REMARK    2  A    between atoms: C5_9  and  C6_10 
REMARK    3  A    between atoms: C6_10  and  C7_11 
REMARK    4  A    between atoms: C7_11  and  C8_12 
REMARK    5  A    between atoms: C8_12  and  C9_13 
REMARK    6  A    between atoms: C9_13  and  N3_14 
ROOT
HETATM    1  C1  UNL     1      -1.103  -5.163  -0.498  1.00  0.00     0.153 C 
HETATM    2  N1  UNL     1      -1.496  -4.108   0.418  1.00  0.00    -0.348 N 
HETATM    3  C2  UNL     1      -0.722  -2.870   0.385  1.00  0.00     0.227 C 
HETATM    4  C3  UNL     1       0.731  -3.180   0.376  1.00  0.00     0.235 C 
HETATM    5  O1  UNL     1       1.060  -4.247   1.002  1.00  0.00    -0.272 OA
HETATM    6  N2  UNL     1       1.730  -2.411  -0.249  1.00  0.00    -0.355 N 
ATOM      7  H2  UNL     1       2.407  -2.917  -0.820  1.00  0.00     0.162 HD
HETATM    8  C4  UNL     1       1.894  -0.983  -0.165  1.00  0.00     0.086 C 
HETATM    9  C13 UNL     1       0.617  -0.242  -0.542  1.00  0.00     0.051 C 
HETATM   10  C14 UNL     1       0.967   1.239  -0.700  1.00  0.00     0.169 C 
HETATM   11  O2  UNL     1      -0.232   1.961  -0.494  1.00  0.00    -0.389 OA
HETATM   12  C15 UNL     1      -0.033   3.290  -0.877  1.00  0.00     0.193 C 
HETATM   13  C16 UNL     1      -1.135   4.139  -0.290  1.00  0.00     0.193 C 
HETATM   14  O3  UNL     1      -2.310   4.044  -1.043  1.00  0.00    -0.387 OA
HETATM   15  C17 UNL     1      -3.387   4.225  -0.169  1.00  0.00     0.195 C 
HETATM   16  C18 UNL     1      -4.687   3.766  -0.762  1.00  0.00     0.258 C 
HETATM   17  N4  UNL     1      -4.969   2.405  -0.347  1.00  0.00    -0.073 N 
ATOM     18  H41 UNL     1      -4.481   2.159   0.514  1.00  0.00     0.277 HD
ATOM     19  H42 UNL     1      -4.536   1.719  -0.965  1.00  0.00     0.277 HD
HETATM   20  C19 UNL     1      -6.408   2.207  -0.235  1.00  0.00     0.232 C 
HETATM   21  C20 UNL     1      -6.740   1.130   0.763  1.00  0.00     0.029 C 
HETATM   22  C21 UNL     1      -7.646   0.082   0.147  1.00  0.00     0.029 C 
HETATM   23  C22 UNL     1      -6.889  -0.771  -0.831  1.00  0.00     0.232 C 
HETATM   24  N5  UNL     1      -5.527  -0.915  -0.423  1.00  0.00    -0.075 N 
ATOM     25  H51 UNL     1      -5.209  -0.110   0.117  1.00  0.00     0.277 HD
ATOM     26  H52 UNL     1      -4.887  -0.834  -1.213  1.00  0.00     0.277 HD
HETATM   27  C23 UNL     1      -5.331  -2.152   0.298  1.00  0.00     0.232 C 
HETATM   28  C24 UNL     1      -3.842  -2.320   0.518  1.00  0.00     0.036 C 
HETATM   29  C25 UNL     1      -3.578  -3.285   1.653  1.00  0.00     0.105 C 
HETATM   30  C26 UNL     1      -2.591  -4.329   1.285  1.00  0.00     0.219 C 
HETATM   31  O4  UNL     1      -2.741  -5.479   1.775  1.00  0.00    -0.273 OA
ENDROOT
BRANCH   8  32
HETATM   32  C5  UNL     1       2.968  -0.502  -1.074  1.00  0.00     0.025 C 
BRANCH  32  33
HETATM   33  C6  UNL     1       4.332  -1.093  -0.788  1.00  0.00     0.002 C 
BRANCH  33  34
HETATM   34  C7  UNL     1       4.842  -0.808   0.592  1.00  0.00     0.002 C 
BRANCH  34  35
HETATM   35  C8  UNL     1       5.014   0.647   0.905  1.00  0.00     0.028 C 
BRANCH  35  36
HETATM   36  C9  UNL     1       6.008   1.396   0.105  1.00  0.00     0.236 C 
BRANCH  36  37
HETATM   37  N3  UNL     1       7.374   1.015   0.213  1.00  0.00    -0.079 N 
HETATM   38  C10 UNL     1       7.857   0.128  -0.804  1.00  0.00     0.271 C 
HETATM   39  C11 UNL     1       8.159   2.266   0.028  1.00  0.00     0.271 C 
HETATM   40  C12 UNL     1       7.766   0.494   1.505  1.00  0.00     0.271 C 
ENDBRANCH  36  37
ENDBRANCH  35  36
ENDBRANCH  34  35
ENDBRANCH  33  34
ENDBRANCH  32  33
ENDBRANCH   8  32
TORSDOF 6
