REMARK  19 active torsions:
REMARK  status: ('A' for Active; 'I' for Inactive)
REMARK    1  A    between atoms: C2_2  and  C3_3 
REMARK    2  A    between atoms: C2_2  and  C17_19 
REMARK    3  A    between atoms: C3_3  and  C4_4 
REMARK    4  A    between atoms: C4_4  and  C5_5 
REMARK    5  A    between atoms: C5_5  and  C6_6 
REMARK    6  A    between atoms: C6_6  and  C8_8 
REMARK    7  A    between atoms: C8_8  and  O1_9 
REMARK    8  A    between atoms: C8_8  and  C9_11 
REMARK    9  A    between atoms: C9_11  and  C10_12 
REMARK   10  A    between atoms: C10_12  and  C11_13 
REMARK   11  A    between atoms: C11_13  and  C12_14 
REMARK   12  A    between atoms: C12_14  and  C14_16 
REMARK   13  A    between atoms: C18_20  and  C19_21 
REMARK   14  A    between atoms: C19_21  and  C20_22 
REMARK   15  A    between atoms: C20_22  and  C22_24 
REMARK   16  A    between atoms: C22_24  and  C23_25 
REMARK   17  A    between atoms: C23_25  and  O2_26 
REMARK   18  A    between atoms: O2_26  and  C24_27 
REMARK   19  A    between atoms: C24_27  and  C25_29 
ROOT
HETATM    1  C17 UNL     1       2.966   0.073   0.446  1.00  0.00     0.007 C 
HETATM    2  C18 UNL     1       3.896  -0.995   0.272  1.00  0.00     0.001 C 
ENDROOT
BRANCH   1   3
HETATM    3  C2  UNL     1       1.705   0.034  -0.025  1.00  0.00    -0.062 C 
HETATM    4  C1  UNL     1       1.213  -1.139  -0.759  1.00  0.00     0.048 C 
BRANCH   3   5
HETATM    5  C3  UNL     1       0.936   1.229   0.267  1.00  0.00     0.007 C 
BRANCH   5   6
HETATM    6  C4  UNL     1      -0.246   1.544  -0.005  1.00  0.00     0.001 C 
BRANCH   6   7
HETATM    7  C5  UNL     1      -1.283   0.850  -0.701  1.00  0.00     0.005 C 
BRANCH   7   8
HETATM    8  C6  UNL     1      -2.497   1.425  -0.864  1.00  0.00    -0.056 C 
HETATM    9  C7  UNL     1      -2.719   2.760  -0.316  1.00  0.00     0.046 C 
BRANCH   8  10
HETATM   10  C8  UNL     1      -3.536   0.692  -1.574  1.00  0.00     0.146 C 
BRANCH  10  11
HETATM   11  O1  UNL     1      -4.008   1.477  -2.627  1.00  0.00    -0.391 OA
ATOM     12  H1  UNL     1      -4.686   0.999  -3.090  1.00  0.00     0.210 HD
ENDBRANCH  10  11
BRANCH  10  13
HETATM   13  C9  UNL     1      -4.703   0.477  -0.562  1.00  0.00     0.036 C 
BRANCH  13  14
HETATM   14  C10 UNL     1      -5.804  -0.273  -1.228  1.00  0.00     0.003 C 
BRANCH  14  15
HETATM   15  C11 UNL     1      -6.936  -0.593  -0.357  1.00  0.00     0.005 C 
BRANCH  15  16
HETATM   16  C12 UNL     1      -7.721   0.467   0.283  1.00  0.00    -0.015 C 
HETATM   17  C13 UNL     1      -7.076   1.391   1.238  1.00  0.00     0.010 C 
BRANCH  16  18
HETATM   18  C14 UNL     1      -8.938  -0.142   0.978  1.00  0.00    -0.019 C 
HETATM   19  C15 UNL     1      -8.533  -1.134   2.033  1.00  0.00     0.010 C 
HETATM   20  C16 UNL     1      -9.857  -0.828   0.001  1.00  0.00     0.010 C 
ENDBRANCH  16  18
ENDBRANCH  15  16
ENDBRANCH  14  15
ENDBRANCH  13  14
ENDBRANCH  10  13
ENDBRANCH   8  10
ENDBRANCH   7   8
ENDBRANCH   6   7
ENDBRANCH   5   6
ENDBRANCH   3   5
ENDBRANCH   1   3
BRANCH   2  21
HETATM   21  C19 UNL     1       5.158  -0.905   0.766  1.00  0.00     0.006 C 
BRANCH  21  22
HETATM   22  C20 UNL     1       6.040  -2.033   0.546  1.00  0.00    -0.064 C 
HETATM   23  C21 UNL     1       5.531  -3.236  -0.207  1.00  0.00     0.048 C 
BRANCH  22  24
HETATM   24  C22 UNL     1       7.268  -2.034   0.986  1.00  0.00     0.006 C 
BRANCH  24  25
HETATM   25  C23 UNL     1       7.877  -0.924   1.729  1.00  0.00     0.207 C 
BRANCH  25  26
HETATM   26  O2  UNL     1       8.996  -0.411   1.081  1.00  0.00    -0.312 OA
BRANCH  26  27
HETATM   27  C24 UNL     1       9.112   0.144  -0.156  1.00  0.00     0.311 C 
HETATM   28  O3  UNL     1       8.099   0.240  -0.874  1.00  0.00    -0.258 OA
BRANCH  27  29
HETATM   29  C25 UNL     1      10.410   0.636  -0.669  1.00  0.00     0.126 A 
HETATM   30  C26 UNL     1      11.552   0.550   0.092  1.00  0.00     0.056 A 
HETATM   31  C27 UNL     1      12.747   1.015  -0.407  1.00  0.00     0.111 A 
HETATM   32  N1  UNL     1      12.768   1.548  -1.641  1.00  0.00    -0.297 N 
HETATM   33  N2  UNL     1      11.656   1.622  -2.357  1.00  0.00    -0.243 N 
ATOM     34  H1  UNL     1      13.645   1.897  -2.028  1.00  0.00     0.187 HD
HETATM   35  N3  UNL     1      10.503   1.180  -1.892  1.00  0.00    -0.281 N 
ATOM     36  H2  UNL     1      11.692   2.031  -3.291  1.00  0.00     0.208 HD
ATOM     37  H3  UNL     1       9.668   1.253  -2.473  1.00  0.00     0.188 HD
ENDBRANCH  27  29
ENDBRANCH  26  27
ENDBRANCH  25  26
ENDBRANCH  24  25
ENDBRANCH  22  24
ENDBRANCH  21  22
ENDBRANCH   2  21
TORSDOF 19
