REMARK  13 active torsions:
REMARK  status: ('A' for Active; 'I' for Inactive)
REMARK    1  A    between atoms: C2_2  and  C3_3 
REMARK    2  A    between atoms: C3_3  and  C4_4 
REMARK    3  A    between atoms: C4_4  and  C5_5 
REMARK    4  A    between atoms: C7_7  and  C8_8 
REMARK    5  A    between atoms: C8_8  and  C9_9 
REMARK    6  A    between atoms: C9_9  and  C10_10 
REMARK    7  A    between atoms: C12_12  and  C13_13 
REMARK    8  A    between atoms: C13_13  and  C14_14 
REMARK    9  A    between atoms: C14_14  and  C15_15 
REMARK   10  A    between atoms: C15_15  and  C17_17 
REMARK   11  A    between atoms: C23_24  and  C24_25 
REMARK   12  A    between atoms: C24_25  and  C25_26 
REMARK   13  A    between atoms: C25_26  and  N1_27 
ROOT
HETATM    1  C17 UNL     1      -2.081   1.948   0.731  1.00  0.00     0.117 C 
HETATM    2  C18 UNL     1      -2.320   3.342   1.267  1.00  0.00     0.052 C 
HETATM    3  C19 UNL     1      -2.444   1.770  -0.692  1.00  0.00     0.212 C 
HETATM    4  O1  UNL     1      -3.601   1.062  -0.927  1.00  0.00    -0.348 OA
HETATM    5  C20 UNL     1      -3.908   0.123   0.039  1.00  0.00     0.219 C 
HETATM    6  C21 UNL     1      -5.038   0.663   0.884  1.00  0.00     0.076 C 
HETATM    7  C22 UNL     1      -6.396   0.226   0.444  1.00  0.00     0.037 C 
HETATM    8  C23 UNL     1      -6.433  -1.217  -0.023  1.00  0.00     0.123 C 
HETATM    9  O2  UNL     1      -5.506  -1.329  -1.061  1.00  0.00    -0.380 OA
HETATM   10  C27 UNL     1      -4.211  -1.235  -0.556  1.00  0.00     0.239 C 
HETATM   11  O3  UNL     1      -2.823  -0.081   0.923  1.00  0.00    -0.197 OA
HETATM   12  O4  UNL     1      -2.718   1.061   1.594  1.00  0.00    -0.224 OA
ENDROOT
BRANCH   1  13
HETATM   13  C15 UNL     1      -0.576   1.659   0.895  1.00  0.00     0.021 C 
HETATM   14  C16 UNL     1       0.198   2.522  -0.029  1.00  0.00     0.013 C 
BRANCH  13  15
HETATM   15  C14 UNL     1      -0.286   1.753   2.340  1.00  0.00     0.011 C 
BRANCH  15  16
HETATM   16  C13 UNL     1       1.082   1.427   2.808  1.00  0.00     0.028 C 
BRANCH  16  17
HETATM   17  C12 UNL     1       2.144   2.291   2.249  1.00  0.00    -0.024 C 
HETATM   18  C10 UNL     1       3.170   1.921   1.540  1.00  0.00    -0.087 C 
HETATM   19  C11 UNL     1       4.149   2.956   1.060  1.00  0.00     0.043 C 
BRANCH  18  20
HETATM   20  C9  UNL     1       3.440   0.537   1.174  1.00  0.00     0.037 C 
BRANCH  20  21
HETATM   21  C8  UNL     1       4.791   0.093   1.737  1.00  0.00     0.031 C 
BRANCH  21  22
HETATM   22  C7  UNL     1       4.996  -1.286   1.326  1.00  0.00    -0.024 C 
HETATM   23  C5  UNL     1       5.999  -1.705   0.592  1.00  0.00    -0.087 C 
HETATM   24  C6  UNL     1       6.111  -3.197   0.289  1.00  0.00     0.043 C 
BRANCH  23  25
HETATM   25  C4  UNL     1       7.036  -0.810   0.104  1.00  0.00     0.033 C 
BRANCH  25  26
HETATM   26  C3  UNL     1       7.164  -0.642  -1.374  1.00  0.00     0.004 C 
BRANCH  26  27
HETATM   27  C2  UNL     1       7.471  -1.848  -2.180  1.00  0.00    -0.004 C 
HETATM   28  C1  UNL     1       7.627  -1.487  -3.667  1.00  0.00     0.005 C 
ENDBRANCH  26  27
ENDBRANCH  25  26
ENDBRANCH  23  25
ENDBRANCH  21  22
ENDBRANCH  20  21
ENDBRANCH  18  20
ENDBRANCH  16  17
ENDBRANCH  15  16
ENDBRANCH  13  15
ENDBRANCH   1  13
BRANCH   8  29
HETATM   29  C24 UNL     1      -7.805  -1.482  -0.576  1.00  0.00     0.051 C 
BRANCH  29  30
HETATM   30  C25 UNL     1      -7.952  -2.901  -1.067  1.00  0.00     0.115 C 
BRANCH  30  31
HETATM   31  N1  UNL     1      -7.051  -3.259  -2.108  1.00  0.00    -0.425 N 
HETATM   32  C26 UNL     1      -7.244  -2.620  -3.360  1.00  0.00     0.139 C 
ATOM     33  H1  UNL     1      -6.305  -3.939  -1.962  1.00  0.00     0.152 HD
ENDBRANCH  30  31
ENDBRANCH  29  30
ENDBRANCH   8  29
TORSDOF 13
