REMARK  16 active torsions:
REMARK  status: ('A' for Active; 'I' for Inactive)
REMARK    1  A    between atoms: C4_4  and  C5_5 
REMARK    2  A    between atoms: C5_5  and  C6_6 
REMARK    3  A    between atoms: C6_6  and  C7_7 
REMARK    4  A    between atoms: C9_9  and  C10_10 
REMARK    5  A    between atoms: C10_10  and  C11_11 
REMARK    6  A    between atoms: C11_11  and  C12_12 
REMARK    7  A    between atoms: C14_14  and  C15_15 
REMARK    8  A    between atoms: C15_15  and  C16_16 
REMARK    9  A    between atoms: C16_16  and  C17_17 
REMARK   10  A    between atoms: C17_17  and  C26_29 
REMARK   11  A    between atoms: C18_18  and  C19_19 
REMARK   12  A    between atoms: C19_19  and  C20_20 
REMARK   13  A    between atoms: C20_20  and  O1_21 
REMARK   14  A    between atoms: C26_29  and  O3_30 
REMARK   15  A    between atoms: O3_30  and  C27_31 
REMARK   16  A    between atoms: C27_31  and  C28_33 
ROOT
HETATM    1  C17 UNL     1      -2.862  -0.043   0.736  1.00  0.00    -0.039 C 
HETATM    2  C18 UNL     1      -4.075  -0.496   1.013  1.00  0.00    -0.012 C 
ENDROOT
BRANCH   1   3
HETATM    3  C16 UNL     1      -1.745  -1.007   0.835  1.00  0.00     0.044 C 
BRANCH   3   4
HETATM    4  C15 UNL     1      -0.952  -1.234  -0.420  1.00  0.00     0.032 C 
BRANCH   4   5
HETATM    5  C14 UNL     1       0.074  -2.253  -0.097  1.00  0.00    -0.024 C 
HETATM    6  C12 UNL     1       1.364  -2.092  -0.203  1.00  0.00    -0.087 C 
HETATM    7  C13 UNL     1       2.235  -3.283   0.127  1.00  0.00     0.043 C 
BRANCH   6   8
HETATM    8  C11 UNL     1       1.990  -0.866  -0.664  1.00  0.00     0.037 C 
BRANCH   8   9
HETATM    9  C10 UNL     1       2.862  -0.158   0.318  1.00  0.00     0.031 C 
BRANCH   9  10
HETATM   10  C9  UNL     1       4.010  -0.911   0.795  1.00  0.00    -0.024 C 
HETATM   11  C7  UNL     1       5.257  -0.628   0.506  1.00  0.00    -0.087 C 
HETATM   12  C8  UNL     1       6.297  -1.564   1.063  1.00  0.00     0.043 C 
BRANCH  11  13
HETATM   13  C6  UNL     1       5.663   0.484  -0.339  1.00  0.00     0.037 C 
BRANCH  13  14
HETATM   14  C5  UNL     1       6.487   1.533   0.309  1.00  0.00     0.031 C 
BRANCH  14  15
HETATM   15  C4  UNL     1       7.785   1.153   0.868  1.00  0.00    -0.024 C 
HETATM   16  C2  UNL     1       8.895   1.660   0.346  1.00  0.00    -0.091 C 
HETATM   17  C1  UNL     1       8.825   2.595  -0.786  1.00  0.00     0.042 C 
HETATM   18  C3  UNL     1      10.205   1.275   0.913  1.00  0.00     0.042 C 
ENDBRANCH  14  15
ENDBRANCH  13  14
ENDBRANCH  11  13
ENDBRANCH   9  10
ENDBRANCH   8   9
ENDBRANCH   6   8
ENDBRANCH   4   5
ENDBRANCH   3   4
ENDBRANCH   1   3
BRANCH   1  19
HETATM   19  C26 UNL     1      -2.586   1.343   0.418  1.00  0.00     0.152 C 
BRANCH  19  20
HETATM   20  O3  UNL     1      -2.036   1.698  -0.785  1.00  0.00    -0.285 OA
BRANCH  20  21
HETATM   21  C27 UNL     1      -2.487   1.583  -2.061  1.00  0.00     0.325 C 
HETATM   22  O4  UNL     1      -3.595   1.076  -2.265  1.00  0.00    -0.256 OA
BRANCH  21  23
HETATM   23  C28 UNL     1      -1.683   2.048  -3.166  1.00  0.00     0.341 C 
HETATM   24  O5  UNL     1      -0.549   2.573  -3.032  1.00  0.00    -0.296 OA
ENDBRANCH  21  23
ENDBRANCH  20  21
ENDBRANCH  19  20
ENDBRANCH   1  19
BRANCH   2  25
HETATM   25  C19 UNL     1      -5.341   0.253   0.986  1.00  0.00     0.097 C 
BRANCH  25  26
HETATM   26  C20 UNL     1      -6.419  -0.532   0.253  1.00  0.00     0.171 C 
HETATM   27  O2  UNL     1      -5.999  -0.811  -1.014  1.00  0.00    -0.354 OA
HETATM   28  C21 UNL     1      -6.901  -0.398  -1.949  1.00  0.00     0.172 C 
HETATM   29  C22 UNL     1      -7.743   0.681  -1.277  1.00  0.00     0.040 C 
HETATM   30  C23 UNL     1      -7.680   0.223   0.145  1.00  0.00     0.011 C 
HETATM   31  C24 UNL     1      -7.807   1.360   1.132  1.00  0.00     0.020 C 
HETATM   32  C25 UNL     1      -8.835  -0.771   0.334  1.00  0.00     0.020 C 
BRANCH  26  33
HETATM   33  O1  UNL     1      -6.573  -1.737   0.974  1.00  0.00    -0.364 OA
ATOM     34  H1  UNL     1      -7.246  -2.227   0.516  1.00  0.00     0.213 HD
ENDBRANCH  26  33
ENDBRANCH  25  26
ENDBRANCH   2  25
TORSDOF 16
