REMARK  15 active torsions:
REMARK  status: ('A' for Active; 'I' for Inactive)
REMARK    1  A    between atoms: C4_6  and  O3_8 
REMARK    2  A    between atoms: C6_10  and  C7_11 
REMARK    3  A    between atoms: C7_11  and  C8_12 
REMARK    4  A    between atoms: C9_13  and  C10_14 
REMARK    5  A    between atoms: C10_14  and  C11_15 
REMARK    6  A    between atoms: C12_16  and  C13_17 
REMARK    7  A    between atoms: C13_17  and  C14_18 
REMARK    8  A    between atoms: C15_19  and  C16_20 
REMARK    9  A    between atoms: C16_20  and  C17_21 
REMARK   10  A    between atoms: C18_22  and  C19_23 
REMARK   11  A    between atoms: C19_23  and  C20_24 
REMARK   12  A    between atoms: C20_24  and  C21_25 
REMARK   13  A    between atoms: C21_25  and  C22_26 
REMARK   14  A    between atoms: C22_26  and  C24_28 
REMARK   15  A    between atoms: C25_29  and  C26_30 
ROOT
HETATM    1  C14 UNL     1      -1.175   0.288   0.717  1.00  0.00    -0.027 C 
HETATM    2  C15 UNL     1       0.024  -0.116   0.501  1.00  0.00    -0.027 C 
ENDROOT
BRANCH   1   3
HETATM    3  C13 UNL     1      -1.978   0.251   1.981  1.00  0.00     0.053 C 
BRANCH   3   4
HETATM    4  C12 UNL     1      -3.200  -0.542   1.815  1.00  0.00    -0.027 C 
HETATM    5  C11 UNL     1      -4.429  -0.131   1.961  1.00  0.00    -0.027 C 
BRANCH   5   6
HETATM    6  C10 UNL     1      -4.827   1.218   2.323  1.00  0.00     0.053 C 
BRANCH   6   7
HETATM    7  C9  UNL     1      -5.654   1.963   1.385  1.00  0.00    -0.027 C 
HETATM    8  C8  UNL     1      -6.139   1.723   0.235  1.00  0.00    -0.029 C 
BRANCH   8   9
HETATM    9  C7  UNL     1      -6.019   0.526  -0.597  1.00  0.00     0.041 C 
BRANCH   9  10
HETATM   10  C6  UNL     1      -7.406  -0.074  -0.809  1.00  0.00     0.090 C 
HETATM   11  C2  UNL     1      -7.314  -1.292  -1.652  1.00  0.00     0.018 C 
HETATM   12  C1  UNL     1      -6.399  -2.248  -1.620  1.00  0.00     0.025 C 
HETATM   13  C3  UNL     1      -8.454  -1.234  -2.552  1.00  0.00     0.291 C 
HETATM   14  O1  UNL     1      -8.759  -2.185  -3.352  1.00  0.00    -0.260 OA
HETATM   15  O2  UNL     1      -9.091  -0.023  -2.374  1.00  0.00    -0.279 OA
HETATM   16  C4  UNL     1      -8.294   0.834  -1.594  1.00  0.00     0.175 C 
HETATM   17  C5  UNL     1      -9.161   1.694  -0.682  1.00  0.00     0.080 C 
BRANCH  16  18
HETATM   18  O3  UNL     1      -7.475   1.649  -2.373  1.00  0.00    -0.364 OA
ATOM     19  H3  UNL     1      -6.937   2.228  -1.846  1.00  0.00     0.213 HD
ENDBRANCH  16  18
ENDBRANCH   9  10
ENDBRANCH   8   9
ENDBRANCH   6   7
ENDBRANCH   5   6
ENDBRANCH   3   4
ENDBRANCH   1   3
BRANCH   2  20
HETATM   20  C16 UNL     1       0.896  -0.731   1.515  1.00  0.00     0.053 C 
BRANCH  20  21
HETATM   21  C17 UNL     1       2.146   0.070   1.708  1.00  0.00    -0.027 C 
HETATM   22  C18 UNL     1       3.310  -0.499   1.473  1.00  0.00    -0.030 C 
BRANCH  22  23
HETATM   23  C19 UNL     1       4.573   0.255   1.650  1.00  0.00     0.027 C 
BRANCH  23  24
HETATM   24  C20 UNL     1       5.314   0.314   0.320  1.00  0.00     0.004 C 
BRANCH  24  25
HETATM   25  C21 UNL     1       5.621  -1.071  -0.130  1.00  0.00     0.008 C 
BRANCH  25  26
HETATM   26  C22 UNL     1       6.396  -1.119  -1.408  1.00  0.00     0.004 C 
HETATM   27  C23 UNL     1       6.595  -2.579  -1.870  1.00  0.00     0.014 C 
BRANCH  26  28
HETATM   28  C24 UNL     1       7.763  -0.560  -1.332  1.00  0.00    -0.020 C 
HETATM   29  C25 UNL     1       8.351  -0.165  -0.238  1.00  0.00     0.028 C 
BRANCH  29  30
HETATM   30  C26 UNL     1       9.730   0.384  -0.284  1.00  0.00     0.055 A 
HETATM   31  C27 UNL     1      10.478   0.843   0.773  1.00  0.00     0.172 A 
HETATM   32  O4  UNL     1      11.628   1.231   0.285  1.00  0.00    -0.316 OA
HETATM   33  C28 UNL     1      11.668   1.052  -1.006  1.00  0.00     0.233 A 
HETATM   34  N1  UNL     1      10.495   0.525  -1.382  1.00  0.00    -0.345 N 
ATOM     35  H1  UNL     1      10.228   0.274  -2.334  1.00  0.00     0.167 HD
ENDBRANCH  29  30
ENDBRANCH  26  28
ENDBRANCH  25  26
ENDBRANCH  24  25
ENDBRANCH  23  24
ENDBRANCH  22  23
ENDBRANCH  20  21
ENDBRANCH   2  20
TORSDOF 15
