REMARK  16 active torsions:
REMARK  status: ('A' for Active; 'I' for Inactive)
REMARK    1  A    between atoms: C2_2  and  C3_3 
REMARK    2  A    between atoms: C3_3  and  C4_4 
REMARK    3  A    between atoms: C4_4  and  C5_5 
REMARK    4  A    between atoms: C5_5  and  C6_6 
REMARK    5  A    between atoms: C6_6  and  O1_7 
REMARK    6  A    between atoms: C6_6  and  C9_11 
REMARK    7  A    between atoms: O1_7  and  C7_8 
REMARK    8  A    between atoms: C9_11  and  C11_13 
REMARK    9  A    between atoms: C12_14  and  C13_15 
REMARK   10  A    between atoms: C13_15  and  C14_16 
REMARK   11  A    between atoms: C16_18  and  C17_19 
REMARK   12  A    between atoms: C17_19  and  C18_20 
REMARK   13  A    between atoms: C18_20  and  C19_21 
REMARK   14  A    between atoms: C21_23  and  C22_24 
REMARK   15  A    between atoms: C23_25  and  C24_26 
REMARK   16  A    between atoms: C24_26  and  C25_27 
ROOT
HETATM    1  C11 UNL     1      -1.722  -0.521   0.198  1.00  0.00    -0.024 C 
HETATM    2  C12 UNL     1      -0.701  -1.302  -0.047  1.00  0.00    -0.026 C 
ENDROOT
BRANCH   1   3
HETATM    3  C9  UNL     1      -2.281   0.565  -0.640  1.00  0.00     0.033 C 
HETATM    4  C10 UNL     1      -2.236   1.887   0.110  1.00  0.00     0.017 C 
BRANCH   3   5
HETATM    5  C6  UNL     1      -3.671   0.235  -1.137  1.00  0.00     0.139 C 
BRANCH   5   6
HETATM    6  C5  UNL     1      -4.636   0.135   0.044  1.00  0.00     0.037 C 
BRANCH   6   7
HETATM    7  C4  UNL     1      -5.995  -0.260  -0.398  1.00  0.00     0.054 C 
BRANCH   7   8
HETATM    8  C3  UNL     1      -7.050  -0.452   0.618  1.00  0.00     0.186 C 
HETATM    9  O5  UNL     1      -6.881  -1.616   1.408  1.00  0.00    -0.210 OA
HETATM   10  O6  UNL     1      -7.700  -2.390   0.723  1.00  0.00    -0.154 OA
HETATM   11  C26 UNL     1      -8.191  -1.276   0.102  1.00  0.00     0.326 C 
HETATM   12  O7  UNL     1      -9.184  -1.023  -0.611  1.00  0.00    -0.259 OA
BRANCH   8  13
HETATM   13  C2  UNL     1      -7.458   0.663   1.509  1.00  0.00     0.047 C 
HETATM   14  C1  UNL     1      -6.391   1.194   2.395  1.00  0.00     0.009 C 
ENDBRANCH   8  13
ENDBRANCH   7   8
ENDBRANCH   6   7
ENDBRANCH   5   6
BRANCH   5  15
HETATM   15  O1  UNL     1      -3.570  -1.009  -1.805  1.00  0.00    -0.316 OA
BRANCH  15  16
HETATM   16  C7  UNL     1      -3.828  -1.188  -3.151  1.00  0.00     0.255 C 
HETATM   17  C8  UNL     1      -3.722  -2.493  -3.851  1.00  0.00     0.126 C 
HETATM   18  O2  UNL     1      -4.172  -0.186  -3.826  1.00  0.00    -0.266 OA
ENDBRANCH  15  16
ENDBRANCH   5  15
ENDBRANCH   3   5
ENDBRANCH   1   3
BRANCH   2  19
HETATM   19  C13 UNL     1       0.108  -1.232  -1.255  1.00  0.00     0.060 C 
BRANCH  19  20
HETATM   20  C14 UNL     1       1.547  -0.947  -0.986  1.00  0.00    -0.084 C 
HETATM   21  C15 UNL     1       2.458  -0.853  -2.152  1.00  0.00     0.043 C 
HETATM   22  C16 UNL     1       2.004  -0.785   0.245  1.00  0.00    -0.024 C 
BRANCH  22  23
HETATM   23  C17 UNL     1       3.483  -0.498   0.441  1.00  0.00     0.031 C 
BRANCH  23  24
HETATM   24  C18 UNL     1       3.584   0.787   1.145  1.00  0.00     0.037 C 
BRANCH  24  25
HETATM   25  C19 UNL     1       4.870   1.348   1.500  1.00  0.00    -0.084 C 
HETATM   26  C20 UNL     1       4.733   2.711   2.229  1.00  0.00     0.043 C 
HETATM   27  C21 UNL     1       6.097   0.953   1.340  1.00  0.00     0.002 C 
BRANCH  27  28
HETATM   28  C22 UNL     1       6.658  -0.208   0.742  1.00  0.00    -0.003 C 
HETATM   29  C23 UNL     1       7.946  -0.437   0.671  1.00  0.00    -0.016 C 
BRANCH  29  30
HETATM   30  C24 UNL     1       9.014   0.422   1.173  1.00  0.00     0.140 C 
BRANCH  30  31
HETATM   31  C25 UNL     1       9.933   0.868   0.079  1.00  0.00     0.176 C 
HETATM   32  O3  UNL     1       9.587   1.764  -0.743  1.00  0.00    -0.648 OA
HETATM   33  O4  UNL     1      11.186   0.311  -0.062  1.00  0.00    -0.648 OA
ENDBRANCH  30  31
ENDBRANCH  29  30
ENDBRANCH  27  28
ENDBRANCH  24  25
ENDBRANCH  23  24
ENDBRANCH  22  23
ENDBRANCH  19  20
ENDBRANCH   2  19
TORSDOF 16
