REMARK  13 active torsions:
REMARK  status: ('A' for Active; 'I' for Inactive)
REMARK    1  A    between atoms: C2_3  and  C3_4 
REMARK    2  A    between atoms: C7_10  and  C8_11 
REMARK       I    between atoms: C8_11  and  N2_13 
REMARK    3  A    between atoms: N2_13  and  C9_15 
REMARK    4  A    between atoms: C10_20  and  C11_21 
REMARK    5  A    between atoms: C11_21  and  C12_22 
REMARK    6  A    between atoms: C12_22  and  S1_23 
REMARK    7  A    between atoms: S1_23  and  C13_26 
REMARK    8  A    between atoms: C13_26  and  C14_27 
REMARK    9  A    between atoms: C14_27  and  C15_28 
REMARK   10  A    between atoms: C15_28  and  C16_29 
REMARK   11  A    between atoms: C16_29  and  C17_30 
REMARK   12  A    between atoms: C17_30  and  C18_31 
REMARK   13  A    between atoms: C18_31  and  N5_32 
ROOT
HETATM    1  C9  UNL     1       2.312  -1.104   0.601  1.00  0.00     0.168 A 
HETATM    2  N3  UNL     1       1.453  -1.611   1.486  1.00  0.00    -0.279 N 
ATOM      3  H3  UNL     1       1.508  -2.594   1.752  1.00  0.00     0.189 HD
HETATM    4  N4  UNL     1       0.572  -0.863   1.991  1.00  0.00    -0.296 N 
ATOM      5  H4  UNL     1      -0.087  -1.246   2.669  1.00  0.00     0.187 HD
HETATM    6  C10 UNL     1       0.492   0.428   1.648  1.00  0.00     0.070 A 
HETATM    7  S2  UNL     1       1.803   0.522   0.513  1.00  0.00    -0.038 SA
ENDROOT
BRANCH   1   8
HETATM    8  N2  UNL     1       3.288  -1.722  -0.026  1.00  0.00    -0.302 N 
HETATM    9  C8  UNL     1       4.040  -0.930  -0.912  1.00  0.00     0.257 C 
HETATM   10  O3  UNL     1       3.515  -0.464  -1.935  1.00  0.00    -0.267 OA
ATOM     11  H2  UNL     1       3.487  -2.712   0.121  1.00  0.00     0.171 HD
BRANCH   9  12
HETATM   12  C7  UNL     1       5.439  -0.663  -0.614  1.00  0.00     0.033 A 
HETATM   13  C6  UNL     1       6.226   0.109  -1.447  1.00  0.00     0.030 A 
HETATM   14  C5  UNL     1       7.542   0.347  -1.146  1.00  0.00    -0.006 A 
HETATM   15  C4  UNL     1       8.556   1.071  -1.786  1.00  0.00     0.050 A 
HETATM   16  C25 UNL     1       8.153  -0.157  -0.016  1.00  0.00     0.045 A 
HETATM   17  C2  UNL     1       9.719   0.985  -1.044  1.00  0.00     0.113 A 
HETATM   18  N1  UNL     1       9.454   0.231   0.035  1.00  0.00    -0.345 N 
HETATM   19  C1  UNL     1      10.402  -0.113   1.080  1.00  0.00     0.156 C 
HETATM   20  C24 UNL     1       7.351  -0.924   0.802  1.00  0.00     0.031 A 
HETATM   21  C23 UNL     1       6.032  -1.177   0.524  1.00  0.00     0.019 A 
BRANCH  17  22
HETATM   22  C3  UNL     1      10.991   1.608  -1.387  1.00  0.00     0.227 C 
HETATM   23  O1  UNL     1      11.969   1.450  -0.620  1.00  0.00    -0.643 OA
HETATM   24  O2  UNL     1      11.118   2.376  -2.560  1.00  0.00    -0.643 OA
ENDBRANCH  17  22
ENDBRANCH   9  12
ENDBRANCH   1   8
BRANCH   6  25
HETATM   25  C11 UNL     1      -0.426   1.470   2.096  1.00  0.00     0.082 C 
BRANCH  25  26
HETATM   26  C12 UNL     1      -1.565   1.812   1.279  1.00  0.00     0.151 C 
BRANCH  26  27
HETATM   27  S1  UNL     1      -2.765   0.590   0.827  1.00  0.00     0.165 S 
HETATM   28  O4  UNL     1      -3.412   0.016   2.062  1.00  0.00    -0.223 OA
HETATM   29  O5  UNL     1      -3.859   1.458   0.143  1.00  0.00    -0.223 OA
BRANCH  27  30
HETATM   30  C13 UNL     1      -2.133  -0.576  -0.274  1.00  0.00     0.105 C 
BRANCH  30  31
HETATM   31  C14 UNL     1      -2.855  -1.775  -0.672  1.00  0.00    -0.015 C 
BRANCH  31  32
HETATM   32  C15 UNL     1      -4.165  -1.846  -1.311  1.00  0.00     0.028 C 
BRANCH  32  33
HETATM   33  C16 UNL     1      -5.350  -1.482  -0.501  1.00  0.00     0.005 C 
BRANCH  33  34
HETATM   34  C17 UNL     1      -6.603  -1.623  -1.377  1.00  0.00     0.020 C 
BRANCH  34  35
HETATM   35  C18 UNL     1      -7.853  -1.286  -0.642  1.00  0.00     0.125 C 
BRANCH  35  36
HETATM   36  N5  UNL     1      -7.960   0.048  -0.132  1.00  0.00    -0.352 N 
HETATM   37  C19 UNL     1      -7.597   0.488   1.201  1.00  0.00     0.126 C 
HETATM   38  C20 UNL     1      -8.631   1.604   1.462  1.00  0.00     0.029 C 
HETATM   39  C21 UNL     1      -8.626   2.277   0.125  1.00  0.00     0.104 C 
HETATM   40  C22 UNL     1      -8.488   1.171  -0.842  1.00  0.00     0.219 C 
HETATM   41  O6  UNL     1      -8.787   1.214  -2.084  1.00  0.00    -0.273 OA
ENDBRANCH  35  36
ENDBRANCH  34  35
ENDBRANCH  33  34
ENDBRANCH  32  33
ENDBRANCH  31  32
ENDBRANCH  30  31
ENDBRANCH  27  30
ENDBRANCH  26  27
ENDBRANCH  25  26
ENDBRANCH   6  25
TORSDOF 13
