REMARK  12 active torsions:
REMARK  status: ('A' for Active; 'I' for Inactive)
REMARK    1  A    between atoms: N1_10  and  C8_11 
REMARK    2  A    between atoms: C8_11  and  C9_12 
REMARK       I    between atoms: C9_12  and  N2_14 
REMARK    3  A    between atoms: N2_14  and  C10_16 
REMARK    4  A    between atoms: C10_16  and  C11_17 
REMARK    5  A    between atoms: N3_25  and  C18_26 
REMARK    6  A    between atoms: C18_26  and  C19_27 
REMARK    7  A    between atoms: C19_27  and  C20_28 
REMARK    8  A    between atoms: C20_28  and  C21_29 
REMARK       I    between atoms: C21_29  and  N4_31 
REMARK    9  A    between atoms: N4_31  and  C22_33 
REMARK   10  A    between atoms: C22_33  and  C23_34 
REMARK   11  A    between atoms: C23_34  and  C24_35 
REMARK   12  A    between atoms: C24_35  and  N5_36 
ROOT
HETATM    1  C1  UNL     1       1.148  -6.901   2.138  1.00  0.00     0.057 C 
HETATM    2  C2  UNL     1       1.285  -5.490   1.620  1.00  0.00    -0.012 A 
HETATM    3  S1  UNL     1       0.543  -4.055   2.173  1.00  0.00    -0.075 SA
HETATM    4  C3  UNL     1       1.224  -2.957   1.065  1.00  0.00     0.097 A 
HETATM    5  C4  UNL     1       2.018  -3.740   0.286  1.00  0.00     0.073 A 
HETATM    6  C5  UNL     1       2.053  -5.056   0.571  1.00  0.00    -0.031 A 
HETATM    7  C6  UNL     1       2.887  -6.068  -0.206  1.00  0.00     0.050 C 
HETATM    8  C7  UNL     1       2.707  -3.052  -0.726  1.00  0.00     0.265 A 
HETATM    9  O1  UNL     1       3.482  -3.616  -1.535  1.00  0.00    -0.267 OA
HETATM   10  N1  UNL     1       2.560  -1.728  -0.873  1.00  0.00    -0.257 N 
HETATM   11  C17 UNL     1       1.758  -0.975  -0.077  1.00  0.00     0.333 A 
HETATM   12  O3  UNL     1       1.600   0.252  -0.186  1.00  0.00    -0.246 OA
HETATM   13  N3  UNL     1       1.084  -1.616   0.907  1.00  0.00    -0.292 N 
ENDROOT
BRANCH  13  14
HETATM   14  C18 UNL     1       0.225  -0.932   1.804  1.00  0.00     0.135 C 
BRANCH  14  15
HETATM   15  C19 UNL     1      -1.207  -0.819   1.430  1.00  0.00     0.029 C 
BRANCH  15  16
HETATM   16  C20 UNL     1      -1.501  -0.126   0.144  1.00  0.00     0.104 C 
BRANCH  16  17
HETATM   17  C21 UNL     1      -3.002  -0.106  -0.019  1.00  0.00     0.217 C 
HETATM   18  O4  UNL     1      -3.765  -0.578   0.878  1.00  0.00    -0.274 OA
HETATM   19  N4  UNL     1      -3.576   0.441  -1.175  1.00  0.00    -0.361 N 
ATOM     20  H4  UNL     1      -2.940   0.809  -1.882  1.00  0.00     0.162 HD
BRANCH  19  21
HETATM   21  C22 UNL     1      -4.976   0.527  -1.448  1.00  0.00     0.124 C 
BRANCH  21  22
HETATM   22  C23 UNL     1      -5.753   1.359  -0.445  1.00  0.00     0.050 C 
BRANCH  22  23
HETATM   23  C24 UNL     1      -7.212   1.316  -0.920  1.00  0.00     0.274 C 
BRANCH  23  24
HETATM   24  N5  UNL     1      -8.073   2.078  -0.085  1.00  0.00     0.092 N 
HETATM   25  C25 UNL     1      -8.273   1.577   1.240  1.00  0.00     0.298 C 
HETATM   26  C26 UNL     1      -8.993   2.627   2.065  1.00  0.00     0.198 C 
HETATM   27  O5  UNL     1     -10.197   2.971   1.489  1.00  0.00    -0.388 OA
HETATM   28  C27 UNL     1     -10.431   2.403   0.264  1.00  0.00     0.198 C 
HETATM   29  C28 UNL     1      -9.296   2.468  -0.710  1.00  0.00     0.298 C 
ENDBRANCH  23  24
ENDBRANCH  22  23
ENDBRANCH  21  22
ENDBRANCH  19  21
ENDBRANCH  16  17
ENDBRANCH  15  16
ENDBRANCH  14  15
ENDBRANCH  13  14
BRANCH  10  30
HETATM   30  C8  UNL     1       3.261  -0.999  -1.906  1.00  0.00     0.239 C 
BRANCH  30  31
HETATM   31  C9  UNL     1       4.580  -0.501  -1.440  1.00  0.00     0.236 C 
HETATM   32  O2  UNL     1       4.899  -0.764  -0.278  1.00  0.00    -0.272 OA
HETATM   33  N2  UNL     1       5.404   0.232  -2.293  1.00  0.00    -0.359 N 
ATOM     34  H2  UNL     1       5.022   0.368  -3.229  1.00  0.00     0.162 HD
BRANCH  33  35
HETATM   35  C10 UNL     1       6.676   0.822  -2.094  1.00  0.00     0.127 C 
BRANCH  35  36
HETATM   36  C11 UNL     1       6.831   1.916  -1.113  1.00  0.00     0.003 C 
HETATM   37  C12 UNL     1       5.959   3.129  -1.395  1.00  0.00     0.006 C 
HETATM   38  C13 UNL     1       6.234   4.120  -0.278  1.00  0.00     0.000 C 
HETATM   39  C14 UNL     1       7.607   3.936   0.339  1.00  0.00     0.000 C 
HETATM   40  C15 UNL     1       7.738   2.591   1.024  1.00  0.00     0.000 C 
HETATM   41  C16 UNL     1       6.838   1.558   0.322  1.00  0.00     0.006 C 
ENDBRANCH  35  36
ENDBRANCH  33  35
ENDBRANCH  30  31
ENDBRANCH  10  30
TORSDOF 12
