REMARK  16 active torsions:
REMARK  status: ('A' for Active; 'I' for Inactive)
REMARK    1  A    between atoms: C4_4  and  C6_6 
REMARK    2  A    between atoms: C6_6  and  C7_7 
REMARK    3  A    between atoms: C9_9  and  C10_10 
REMARK    4  A    between atoms: C10_10  and  C11_11 
REMARK    5  A    between atoms: C11_11  and  C12_12 
REMARK    6  A    between atoms: N1_15  and  C15_16 
REMARK    7  A    between atoms: C15_16  and  O1_17 
REMARK    8  A    between atoms: C15_16  and  C16_19 
REMARK    9  A    between atoms: C16_19  and  N2_21 
REMARK   10  A    between atoms: C19_26  and  O2_27 
REMARK   11  A    between atoms: O2_27  and  C20_28 
REMARK   12  A    between atoms: C20_28  and  C21_30 
REMARK   13  A    between atoms: C21_30  and  C22_31 
REMARK   14  A    between atoms: C22_31  and  C23_32 
REMARK   15  A    between atoms: C23_32  and  O5_34 
REMARK   16  A    between atoms: O5_34  and  C24_35 
ROOT
HETATM    1  C1  UNL     1       5.121   0.657   5.378  1.00  0.00     0.017 C 
HETATM    2  C2  UNL     1       6.031   0.666   4.578  1.00  0.00    -0.089 C 
HETATM    3  C3  UNL     1       7.120   0.696   3.634  1.00  0.00     0.066 C 
HETATM    4  C4  UNL     1       7.089  -0.161   2.591  1.00  0.00    -0.072 C 
HETATM    5  C5  UNL     1       8.232  -0.088   1.652  1.00  0.00     0.044 C 
ENDROOT
BRANCH   4   6
HETATM    6  C6  UNL     1       5.980  -1.115   2.435  1.00  0.00     0.067 C 
BRANCH   6   7
HETATM    7  C7  UNL     1       5.198  -0.955   1.189  1.00  0.00    -0.084 C 
HETATM    8  C8  UNL     1       5.886  -1.126  -0.116  1.00  0.00     0.043 C 
HETATM    9  C9  UNL     1       3.897  -0.673   1.259  1.00  0.00    -0.024 C 
BRANCH   9  10
HETATM   10  C10 UNL     1       3.012  -0.490   0.081  1.00  0.00     0.028 C 
BRANCH  10  11
HETATM   11  C11 UNL     1       1.878  -1.491   0.078  1.00  0.00     0.015 C 
BRANCH  11  12
HETATM   12  C12 UNL     1       0.966  -1.321  -1.114  1.00  0.00    -0.012 C 
HETATM   13  C13 UNL     1       1.817  -1.500  -2.410  1.00  0.00     0.018 C 
HETATM   14  C14 UNL     1       0.544   0.148  -1.173  1.00  0.00     0.143 C 
HETATM   15  N1  UNL     1      -0.561   0.396  -2.030  1.00  0.00    -0.309 N 
HETATM   16  C19 UNL     1      -1.610  -0.599  -2.040  1.00  0.00     0.162 C 
HETATM   17  C27 UNL     1      -1.416  -1.833  -1.645  1.00  0.00     0.006 C 
HETATM   18  C28 UNL     1      -2.222  -3.043  -1.526  1.00  0.00     0.016 C 
HETATM   19  C31 UNL     1      -0.063  -2.323  -1.165  1.00  0.00     0.106 C 
HETATM   20  C29 UNL     1      -1.706  -3.803  -0.538  1.00  0.00     0.051 C 
HETATM   21  C30 UNL     1      -0.522  -3.064   0.006  1.00  0.00     0.158 C 
HETATM   22  O6  UNL     1      -0.173  -3.186   1.198  1.00  0.00    -0.292 OA
BRANCH  15  23
HETATM   23  C15 UNL     1      -0.698   1.547  -2.798  1.00  0.00     0.142 C 
BRANCH  23  24
HETATM   24  O1  UNL     1      -1.744   1.561  -3.587  1.00  0.00    -0.348 OA
ATOM     25  H1  UNL     1      -1.838   2.347  -4.112  1.00  0.00     0.219 HD
ENDBRANCH  23  24
BRANCH  23  26
HETATM   26  C16 UNL     1       0.102   2.758  -2.901  1.00  0.00     0.154 C 
HETATM   27  C17 UNL     1       0.975   2.775  -4.146  1.00  0.00     0.041 C 
BRANCH  26  28
HETATM   28  N2  UNL     1       0.975   2.946  -1.787  1.00  0.00    -0.355 N 
HETATM   29  C18 UNL     1       0.681   3.742  -0.795  1.00  0.00     0.197 C 
HETATM   30  N3  UNL     1      -0.557   4.452  -0.820  1.00  0.00    -0.067 NA
HETATM   31  N4  UNL     1       1.531   3.935   0.303  1.00  0.00    -0.067 NA
ATOM     32  H2  UNL     1       1.860   2.440  -1.765  1.00  0.00     0.162 HD
ENDBRANCH  26  28
ENDBRANCH  23  26
ENDBRANCH  15  23
BRANCH  16  33
HETATM   33  O2  UNL     1      -2.901  -0.287  -2.480  1.00  0.00    -0.261 OA
BRANCH  33  34
HETATM   34  C20 UNL     1      -3.876   0.182  -1.612  1.00  0.00     0.265 C 
HETATM   35  O3  UNL     1      -3.539   0.311  -0.413  1.00  0.00    -0.265 OA
BRANCH  34  36
HETATM   36  C21 UNL     1      -5.245   0.519  -2.042  1.00  0.00     0.121 C 
BRANCH  36  37
HETATM   37  C22 UNL     1      -6.176   0.920  -0.955  1.00  0.00     0.121 C 
BRANCH  37  38
HETATM   38  C23 UNL     1      -6.377  -0.165   0.019  1.00  0.00     0.259 C 
HETATM   39  O4  UNL     1      -5.852  -1.275  -0.136  1.00  0.00    -0.265 OA
BRANCH  38  40
HETATM   40  O5  UNL     1      -7.170   0.070   1.130  1.00  0.00    -0.317 OA
BRANCH  40  41
HETATM   41  C24 UNL     1      -7.409  -0.907   2.099  1.00  0.00     0.123 C 
HETATM   42  C25 UNL     1      -7.079  -0.480   3.498  1.00  0.00     0.040 C 
HETATM   43  C26 UNL     1      -8.900  -1.221   2.055  1.00  0.00     0.040 C 
ENDBRANCH  40  41
ENDBRANCH  38  40
ENDBRANCH  37  38
ENDBRANCH  36  37
ENDBRANCH  34  36
ENDBRANCH  33  34
ENDBRANCH  16  33
ENDBRANCH  11  12
ENDBRANCH  10  11
ENDBRANCH   9  10
ENDBRANCH   6   7
ENDBRANCH   4   6
TORSDOF 16
