REMARK  13 active torsions:
REMARK  status: ('A' for Active; 'I' for Inactive)
REMARK    1  A    between atoms: C2_2  and  C3_3 
REMARK    2  A    between atoms: C5_5  and  O1_6 
REMARK    3  A    between atoms: O1_6  and  C6_7 
REMARK    4  A    between atoms: C6_7  and  C7_8 
REMARK    5  A    between atoms: C8_11  and  C9_12 
REMARK    6  A    between atoms: C14_17  and  C15_18 
REMARK    7  A    between atoms: C15_18  and  C16_20 
REMARK       I    between atoms: C16_20  and  N2_22 
REMARK    8  A    between atoms: N2_22  and  C17_24 
REMARK    9  A    between atoms: C20_27  and  S1_28 
REMARK   10  A    between atoms: N3_30  and  C22_31 
REMARK   11  A    between atoms: C22_31  and  C23_32 
REMARK       I    between atoms: C23_32  and  N4_34 
REMARK   12  A    between atoms: N4_34  and  C24_35 
REMARK   13  A    between atoms: N4_34  and  C26_37 
ROOT
HETATM    1  C16 UNL     1       0.493   0.464   0.686  1.00  0.00     0.297 C 
HETATM    2  O4  UNL     1       0.971  -0.613   1.096  1.00  0.00    -0.264 OA
HETATM    3  N2  UNL     1      -0.894   0.672   0.670  1.00  0.00    -0.316 N 
ATOM      4  H2  UNL     1      -1.205   1.576   0.316  1.00  0.00     0.169 HD
ENDROOT
BRANCH   1   5
HETATM    5  C15 UNL     1       1.407   1.536   0.209  1.00  0.00     0.250 C 
HETATM    6  O3  UNL     1       0.889   2.637  -0.089  1.00  0.00    -0.281 OA
BRANCH   5   7
HETATM    7  C14 UNL     1       2.818   1.327   0.096  1.00  0.00     0.027 A 
HETATM    8  C3  UNL     1       3.685   2.396   0.299  1.00  0.00    -0.041 A 
HETATM    9  C4  UNL     1       5.052   2.123   0.145  1.00  0.00     0.045 A 
HETATM   10  C5  UNL     1       5.531   0.883  -0.187  1.00  0.00     0.076 A 
HETATM   11  C8  UNL     1       4.661  -0.175  -0.389  1.00  0.00    -0.016 A 
HETATM   12  C13 UNL     1       3.310   0.056  -0.246  1.00  0.00     0.027 A 
BRANCH   8  13
HETATM   13  C2  UNL     1       3.275   3.756   0.646  1.00  0.00     0.035 C 
HETATM   14  C1  UNL     1       2.770   3.887   2.084  1.00  0.00     0.010 C 
ENDBRANCH   8  13
BRANCH  10  15
HETATM   15  O1  UNL     1       6.886   0.625  -0.338  1.00  0.00    -0.342 OA
BRANCH  15  16
HETATM   16  C6  UNL     1       7.790   1.677  -0.141  1.00  0.00     0.275 C 
BRANCH  16  17
HETATM   17  C7  UNL     1       9.201   1.270  -0.332  1.00  0.00     0.255 C 
HETATM   18  N1  UNL     1       9.628  -0.015  -0.667  1.00  0.00    -0.060 NA
HETATM   19  O2  UNL     1      10.086   2.156  -0.180  1.00  0.00    -0.274 OA
ENDBRANCH  16  17
ENDBRANCH  15  16
ENDBRANCH  10  15
BRANCH  11  20
HETATM   20  C9  UNL     1       5.214  -1.483  -0.745  1.00  0.00    -0.021 C 
HETATM   21  C10 UNL     1       6.161  -2.024   0.312  1.00  0.00     0.019 C 
HETATM   22  C11 UNL     1       5.946  -1.478  -2.066  1.00  0.00     0.019 C 
HETATM   23  C12 UNL     1       4.064  -2.480  -0.836  1.00  0.00     0.019 C 
ENDBRANCH  11  20
ENDBRANCH   5   7
ENDBRANCH   1   5
BRANCH   3  24
HETATM   24  C17 UNL     1      -1.906  -0.207   1.080  1.00  0.00     0.104 A 
HETATM   25  C18 UNL     1      -1.658  -1.403   1.686  1.00  0.00     0.038 A 
HETATM   26  C19 UNL     1      -2.737  -2.202   2.076  1.00  0.00     0.039 A 
HETATM   27  C20 UNL     1      -4.042  -1.791   1.855  1.00  0.00     0.074 A 
HETATM   28  N3  UNL     1      -4.285  -0.602   1.253  1.00  0.00    -0.298 N 
HETATM   29  C28 UNL     1      -3.249   0.146   0.887  1.00  0.00     0.275 A 
HETATM   30  O6  UNL     1      -3.497   1.254   0.327  1.00  0.00    -0.265 OA
BRANCH  27  31
HETATM   31  S1  UNL     1      -5.357  -2.839   2.401  1.00  0.00    -0.117 SA
HETATM   32  C21 UNL     1      -5.776  -4.030   1.111  1.00  0.00     0.097 C 
ENDBRANCH  27  31
BRANCH  28  33
HETATM   33  C22 UNL     1      -5.658  -0.205   1.018  1.00  0.00     0.236 C 
BRANCH  33  34
HETATM   34  C23 UNL     1      -6.119  -0.646  -0.312  1.00  0.00     0.238 C 
HETATM   35  O5  UNL     1      -5.322  -1.217  -1.092  1.00  0.00    -0.272 OA
HETATM   36  N4  UNL     1      -7.451  -0.436  -0.722  1.00  0.00    -0.351 N 
BRANCH  36  37
HETATM   37  C24 UNL     1      -7.945  -0.863  -2.002  1.00  0.00     0.121 C 
HETATM   38  C25 UNL     1      -7.787   0.187  -3.088  1.00  0.00     0.026 C 
ENDBRANCH  36  37
BRANCH  36  39
HETATM   39  C26 UNL     1      -8.372   0.237   0.164  1.00  0.00     0.121 C 
HETATM   40  C27 UNL     1      -8.346   1.746  -0.066  1.00  0.00     0.026 C 
ENDBRANCH  36  39
ENDBRANCH  33  34
ENDBRANCH  28  33
ENDBRANCH   3  24
TORSDOF 13
