REMARK  18 active torsions:
REMARK  status: ('A' for Active; 'I' for Inactive)
REMARK    1  A    between atoms: C2_2  and  N1_3 
REMARK    2  A    between atoms: C2_2  and  C21_31 
REMARK    3  A    between atoms: C3_5  and  O1_6 
REMARK    4  A    between atoms: C3_5  and  C4_8 
REMARK    5  A    between atoms: C4_8  and  C5_9 
REMARK    6  A    between atoms: C4_8  and  C15_21 
REMARK    7  A    between atoms: C5_9  and  C6_10 
REMARK    8  A    between atoms: C7_11  and  C8_12 
REMARK    9  A    between atoms: C8_12  and  C9_13 
REMARK   10  A    between atoms: C9_13  and  N2_14 
REMARK       I    between atoms: N2_14  and  C10_15 
REMARK   11  A    between atoms: C10_15  and  C11_17 
REMARK   12  A    between atoms: C15_21  and  S1_22 
REMARK   13  A    between atoms: S1_22  and  C16_23 
REMARK   14  A    between atoms: C16_23  and  N3_25 
REMARK       I    between atoms: C21_31  and  N4_33 
REMARK   15  A    between atoms: N4_33  and  C22_35 
REMARK   16  A    between atoms: C22_35  and  C23_36 
REMARK   17  A    between atoms: C23_36  and  C24_37 
REMARK   18  A    between atoms: C24_37  and  N5_38 
ROOT
HETATM    1  C4  UNL     1      -0.210   1.181   0.326  1.00  0.00     0.047 C 
ENDROOT
BRANCH   1   2
HETATM    2  C3  UNL     1       0.665   0.008   0.001  1.00  0.00     0.155 C 
HETATM    3  N1  UNL     1       1.935  -0.140   0.213  1.00  0.00    -0.335 N 
ATOM      4  H1  UNL     1       2.270   0.822   0.275  1.00  0.00     0.168 HD
BRANCH   3   5
HETATM    5  C2  UNL     1       2.961  -0.800   0.381  1.00  0.00     0.075 C 
HETATM    6  C1  UNL     1       2.862  -2.293   0.354  1.00  0.00     0.074 C 
BRANCH   5   7
HETATM    7  C21 UNL     1       4.299  -0.168   0.665  1.00  0.00     0.263 C 
HETATM    8  O4  UNL     1       4.245   1.048   0.835  1.00  0.00    -0.266 OA
HETATM    9  N4  UNL     1       5.410  -1.021   0.688  1.00  0.00    -0.356 N 
ATOM     10  H4  UNL     1       5.285  -2.025   0.561  1.00  0.00     0.162 HD
BRANCH   9  11
HETATM   11  C22 UNL     1       6.751  -0.471   0.894  1.00  0.00     0.124 C 
BRANCH  11  12
HETATM   12  C23 UNL     1       7.800  -1.532   0.815  1.00  0.00     0.041 C 
BRANCH  12  13
HETATM   13  C24 UNL     1       7.719  -2.228  -0.552  1.00  0.00     0.150 C 
BRANCH  13  14
HETATM   14  N5  UNL     1       8.724  -3.231  -0.566  1.00  0.00    -0.304 N 
HETATM   15  C25 UNL     1       8.639  -4.542  -0.210  1.00  0.00     0.111 A 
HETATM   16  C26 UNL     1       9.913  -5.086  -0.401  1.00  0.00     0.037 A 
HETATM   17  C27 UNL     1      10.696  -4.080  -0.855  1.00  0.00     0.108 A 
HETATM   18  N6  UNL     1       9.994  -2.978  -0.953  1.00  0.00    -0.310 N 
ATOM     19  H6  UNL     1      10.348  -2.076  -1.270  1.00  0.00     0.186 HD
ENDBRANCH  13  14
ENDBRANCH  12  13
ENDBRANCH  11  12
ENDBRANCH   9  11
ENDBRANCH   5   7
ENDBRANCH   3   5
BRANCH   2  20
HETATM   20  O1  UNL     1      -0.002  -0.987  -0.564  1.00  0.00    -0.345 OA
ATOM     21  H1  UNL     1      -0.933  -0.879  -0.719  1.00  0.00     0.219 HD
ENDBRANCH   2  20
ENDBRANCH   1   2
BRANCH   1  22
HETATM   22  C5  UNL     1      -1.431   1.100   0.092  1.00  0.00    -0.116 C 
BRANCH  22  23
HETATM   23  C6  UNL     1      -2.808   1.178  -0.110  1.00  0.00     0.052 C 
HETATM   24  C7  UNL     1      -3.376   0.109  -0.677  1.00  0.00    -0.012 C 
BRANCH  24  25
HETATM   25  C8  UNL     1      -4.868   0.063  -0.912  1.00  0.00     0.087 C 
BRANCH  25  26
HETATM   26  C9  UNL     1      -5.211  -1.134  -0.091  1.00  0.00     0.162 C 
BRANCH  26  27
HETATM   27  N2  UNL     1      -6.508  -1.638   0.029  1.00  0.00    -0.387 NA
HETATM   28  C10 UNL     1      -7.720  -2.109   0.142  1.00  0.00     0.298 C 
HETATM   29  O2  UNL     1      -8.790  -1.695   0.619  1.00  0.00    -0.256 OA
BRANCH  28  30
HETATM   30  C11 UNL     1      -7.922  -3.573  -0.454  1.00  0.00     0.044 C 
HETATM   31  C12 UNL     1      -7.038  -4.494   0.308  1.00  0.00     0.026 C 
HETATM   32  C13 UNL     1      -7.450  -3.471  -1.919  1.00  0.00     0.026 C 
HETATM   33  C14 UNL     1      -9.328  -3.976  -0.424  1.00  0.00     0.026 C 
ENDBRANCH  28  30
ENDBRANCH  26  27
ENDBRANCH  25  26
ENDBRANCH  24  25
ENDBRANCH  22  23
ENDBRANCH   1  22
BRANCH   1  34
HETATM   34  C15 UNL     1       0.526   2.180   1.228  1.00  0.00     0.133 C 
BRANCH  34  35
HETATM   35  S1  UNL     1      -0.532   3.234   2.127  1.00  0.00    -0.095 SA
BRANCH  35  36
HETATM   36  C16 UNL     1      -1.253   4.618   1.422  1.00  0.00     0.137 C 
HETATM   37  S2  UNL     1      -2.906   4.736   1.460  1.00  0.00    -0.053 SA
BRANCH  36  38
HETATM   38  N3  UNL     1      -0.547   5.664   0.795  1.00  0.00    -0.362 N 
HETATM   39  C17 UNL     1      -1.448   6.787   0.269  1.00  0.00     0.150 C 
HETATM   40  C18 UNL     1      -0.573   8.042   0.434  1.00  0.00     0.187 C 
HETATM   41  O3  UNL     1       0.387   8.011  -0.586  1.00  0.00    -0.388 OA
HETATM   42  C19 UNL     1       0.939   6.723  -0.685  1.00  0.00     0.187 C 
HETATM   43  C20 UNL     1       0.830   5.921   0.628  1.00  0.00     0.150 C 
ENDBRANCH  36  38
ENDBRANCH  35  36
ENDBRANCH  34  35
ENDBRANCH   1  34
TORSDOF 18
