REMARK  14 active torsions:
REMARK  status: ('A' for Active; 'I' for Inactive)
REMARK    1  A    between atoms: C2_2  and  C3_3 
REMARK    2  A    between atoms: C3_3  and  C4_4 
REMARK    3  A    between atoms: C4_4  and  C5_5 
REMARK    4  A    between atoms: C5_5  and  O1_6 
REMARK    5  A    between atoms: O1_6  and  C6_7 
REMARK    6  A    between atoms: C9_10  and  C10_11 
REMARK    7  A    between atoms: C13_16  and  N2_17 
REMARK    8  A    between atoms: N2_17  and  C14_18 
REMARK    9  A    between atoms: C14_18  and  C15_19 
REMARK   10  A    between atoms: N3_22  and  C18_23 
REMARK   11  A    between atoms: C18_23  and  C19_24 
REMARK   12  A    between atoms: C19_24  and  O2_25 
REMARK   13  A    between atoms: C19_24  and  C20_27 
REMARK   14  A    between atoms: C20_27  and  N4_28 
ROOT
HETATM    1  C10 UNL     1       2.615  -0.330   0.950  1.00  0.00     0.118 A 
HETATM    2  N1  UNL     1       2.399  -1.065   2.078  1.00  0.00    -0.344 N 
ATOM      3  H1  UNL     1       3.070  -1.783   2.349  1.00  0.00     0.167 HD
HETATM    4  C11 UNL     1       1.315  -0.853   2.833  1.00  0.00     0.026 A 
HETATM    5  C12 UNL     1       0.385   0.101   2.513  1.00  0.00     0.046 A 
HETATM    6  C13 UNL     1       0.583   0.862   1.370  1.00  0.00     0.190 A 
HETATM    7  N6  UNL     1       1.721   0.597   0.629  1.00  0.00    -0.316 N 
ATOM      8  H6  UNL     1       1.883   1.147  -0.215  1.00  0.00     0.170 HD
HETATM    9  C27 UNL     1      -0.770   0.244   3.429  1.00  0.00     0.213 C 
HETATM   10  O3  UNL     1      -0.254   0.332   4.708  1.00  0.00    -0.386 OA
HETATM   11  C28 UNL     1       0.485  -0.733   5.135  1.00  0.00     0.174 C 
HETATM   12  C29 UNL     1       1.033  -1.635   4.082  1.00  0.00     0.084 C 
ENDROOT
BRANCH   6  13
HETATM   13  N2  UNL     1      -0.214   1.719   1.072  1.00  0.00    -0.403 NA
BRANCH  13  14
HETATM   14  C14 UNL     1      -1.093   2.660   0.745  1.00  0.00     0.164 C 
BRANCH  14  15
HETATM   15  C15 UNL     1      -1.731   2.553  -0.652  1.00  0.00     0.068 C 
HETATM   16  C16 UNL     1      -2.690   3.677  -0.888  1.00  0.00     0.043 C 
HETATM   17  C17 UNL     1      -3.973   3.002  -1.327  1.00  0.00     0.273 C 
HETATM   18  N3  UNL     1      -3.924   1.689  -0.802  1.00  0.00     0.091 N 
HETATM   19  C26 UNL     1      -2.555   1.325  -0.711  1.00  0.00     0.283 C 
BRANCH  18  20
HETATM   20  C18 UNL     1      -4.598   1.463   0.437  1.00  0.00     0.305 C 
BRANCH  20  21
HETATM   21  C19 UNL     1      -6.102   1.592   0.276  1.00  0.00     0.174 C 
BRANCH  21  22
HETATM   22  O2  UNL     1      -6.728   1.353   1.486  1.00  0.00    -0.392 OA
ATOM     23  H2  UNL     1      -7.669   1.434   1.385  1.00  0.00     0.210 HD
ENDBRANCH  21  22
BRANCH  21  24
HETATM   24  C20 UNL     1      -6.638   0.703  -0.798  1.00  0.00     0.305 C 
BRANCH  24  25
HETATM   25  N4  UNL     1      -6.479  -0.712  -0.529  1.00  0.00     0.094 N 
HETATM   26  C21 UNL     1      -6.983  -1.417  -1.699  1.00  0.00     0.302 C 
HETATM   27  C22 UNL     1      -8.480  -1.472  -1.752  1.00  0.00     0.302 C 
HETATM   28  N5  UNL     1      -8.991  -2.327  -0.689  1.00  0.00     0.087 N 
HETATM   29  C23 UNL     1     -10.182  -1.716  -0.109  1.00  0.00     0.310 C 
HETATM   30  C24 UNL     1      -7.957  -2.477   0.323  1.00  0.00     0.302 C 
HETATM   31  C25 UNL     1      -7.330  -1.101   0.589  1.00  0.00     0.302 C 
ENDBRANCH  24  25
ENDBRANCH  21  24
ENDBRANCH  20  21
ENDBRANCH  18  20
ENDBRANCH  14  15
ENDBRANCH  13  14
ENDBRANCH   6  13
BRANCH   1  32
HETATM   32  C9  UNL     1       3.806  -0.568   0.138  1.00  0.00     0.009 A 
HETATM   33  C8  UNL     1       4.700  -1.538   0.552  1.00  0.00     0.018 A 
HETATM   34  C7  UNL     1       5.856  -1.822  -0.166  1.00  0.00     0.038 A 
HETATM   35  C6  UNL     1       6.163  -1.149  -1.324  1.00  0.00     0.074 A 
HETATM   36  C31 UNL     1       5.259  -0.163  -1.750  1.00  0.00    -0.028 A 
HETATM   37  C30 UNL     1       4.117   0.098  -1.016  1.00  0.00     0.024 A 
HETATM   38  C32 UNL     1       5.529   0.618  -3.005  1.00  0.00     0.051 C 
BRANCH  35  39
HETATM   39  O1  UNL     1       7.272  -1.356  -2.104  1.00  0.00    -0.351 OA
BRANCH  39  40
HETATM   40  C5  UNL     1       8.329  -2.222  -1.941  1.00  0.00     0.175 C 
BRANCH  40  41
HETATM   41  C4  UNL     1       9.200  -2.039  -0.752  1.00  0.00     0.027 C 
BRANCH  41  42
HETATM   42  C3  UNL     1       9.865  -0.675  -0.719  1.00  0.00     0.002 C 
BRANCH  42  43
HETATM   43  C2  UNL     1      10.735  -0.446  -1.938  1.00  0.00    -0.004 C 
HETATM   44  C1  UNL     1      11.349   0.942  -1.809  1.00  0.00     0.005 C 
ENDBRANCH  42  43
ENDBRANCH  41  42
ENDBRANCH  40  41
ENDBRANCH  39  40
ENDBRANCH  35  39
ENDBRANCH   1  32
TORSDOF 14
