REMARK  14 active torsions:
REMARK  status: ('A' for Active; 'I' for Inactive)
REMARK    1  A    between atoms: C3_3  and  C4_4 
REMARK    2  A    between atoms: C4_4  and  N1_5 
REMARK    3  A    between atoms: C10_11  and  O1_12 
REMARK    4  A    between atoms: C12_14  and  O2_15 
REMARK    5  A    between atoms: O2_15  and  C13_16 
REMARK    6  A    between atoms: C13_16  and  C14_17 
REMARK    7  A    between atoms: C14_17  and  C15_18 
REMARK    8  A    between atoms: C15_18  and  C16_19 
REMARK    9  A    between atoms: C16_19  and  C17_20 
REMARK   10  A    between atoms: C17_20  and  C18_21 
REMARK   11  A    between atoms: C25_29  and  O3_30 
REMARK   12  A    between atoms: N3_32  and  C26_33 
REMARK   13  A    between atoms: C26_33  and  C27_34 
REMARK   14  A    between atoms: C27_34  and  C28_35 
REMARK       I    between atoms: C28_35  and  N4_37 
ROOT
HETATM    1  N1  UNL     1       0.303  -3.196   0.710  1.00  0.00    -0.329 N 
HETATM    2  C5  UNL     1      -0.242  -4.052  -0.186  1.00  0.00     0.013 A 
HETATM    3  C6  UNL     1       0.599  -5.151  -0.692  1.00  0.00     0.068 C 
HETATM    4  C7  UNL     1      -1.548  -3.907  -0.619  1.00  0.00     0.037 A 
HETATM    5  C8  UNL     1      -2.330  -2.877  -0.143  1.00  0.00    -0.019 A 
HETATM    6  C9  UNL     1      -3.646  -2.708  -0.561  1.00  0.00     0.052 A 
HETATM    7  C10 UNL     1      -4.388  -1.661  -0.053  1.00  0.00     0.102 A 
HETATM    8  C12 UNL     1      -3.839  -0.797   0.850  1.00  0.00     0.102 A 
HETATM    9  C20 UNL     1      -2.547  -0.973   1.253  1.00  0.00     0.054 A 
HETATM   10  C21 UNL     1      -1.769  -2.011   0.767  1.00  0.00    -0.000 A 
HETATM   11  C22 UNL     1      -0.462  -2.194   1.171  1.00  0.00     0.023 A 
HETATM   12  C23 UNL     1       0.057  -1.196   2.167  1.00  0.00     0.069 C 
ENDROOT
BRANCH   1  13
HETATM   13  C4  UNL     1       1.608  -3.357   1.181  1.00  0.00     0.112 C 
BRANCH  13  14
HETATM   14  C3  UNL     1       2.747  -2.934   0.763  1.00  0.00     0.035 A 
HETATM   15  C2  UNL     1       3.088  -2.160  -0.312  1.00  0.00     0.040 A 
HETATM   16  C1  UNL     1       2.289  -1.620  -1.210  1.00  0.00     0.044 C 
HETATM   17  N3  UNL     1       4.451  -1.983  -0.355  1.00  0.00    -0.326 N 
HETATM   18  C25 UNL     1       4.990  -2.634   0.681  1.00  0.00     0.168 A 
HETATM   19  C24 UNL     1       3.976  -3.225   1.383  1.00  0.00     0.111 A 
HETATM   20  N2  UNL     1       4.120  -4.024   2.573  1.00  0.00    -0.097 NA
BRANCH  17  21
HETATM   21  C26 UNL     1       5.206  -1.233  -1.351  1.00  0.00     0.140 C 
BRANCH  21  22
HETATM   22  C27 UNL     1       5.316   0.203  -0.891  1.00  0.00     0.123 C 
BRANCH  22  23
HETATM   23  C28 UNL     1       6.081   1.023  -1.875  1.00  0.00     0.221 C 
HETATM   24  O4  UNL     1       6.496   0.485  -2.918  1.00  0.00    -0.273 OA
HETATM   25  N4  UNL     1       6.342   2.389  -1.646  1.00  0.00    -0.348 N 
HETATM   26  C29 UNL     1       5.886   3.089  -0.440  1.00  0.00     0.152 C 
HETATM   27  C32 UNL     1       7.081   3.156  -2.608  1.00  0.00     0.152 C 
HETATM   28  C30 UNL     1       7.079   3.840   0.140  1.00  0.00     0.187 C 
HETATM   29  O5  UNL     1       7.705   4.571  -0.864  1.00  0.00    -0.388 OA
HETATM   30  C31 UNL     1       8.259   3.766  -1.858  1.00  0.00     0.187 C 
ENDBRANCH  22  23
ENDBRANCH  21  22
ENDBRANCH  17  21
BRANCH  18  31
HETATM   31  O3  UNL     1       6.357  -2.717   1.019  1.00  0.00    -0.344 OA
ATOM     32  H3  UNL     1       7.061  -2.306   0.531  1.00  0.00     0.219 HD
ENDBRANCH  18  31
ENDBRANCH  13  14
ENDBRANCH   1  13
BRANCH   8  33
HETATM   33  O2  UNL     1      -4.610   0.245   1.342  1.00  0.00    -0.348 OA
BRANCH  33  34
HETATM   34  C13 UNL     1      -4.200   1.204   2.264  1.00  0.00     0.176 C 
BRANCH  34  35
HETATM   35  C14 UNL     1      -5.385   2.134   2.497  1.00  0.00     0.027 C 
BRANCH  35  36
HETATM   36  C15 UNL     1      -5.688   2.731   1.101  1.00  0.00     0.002 C 
BRANCH  36  37
HETATM   37  C16 UNL     1      -6.842   3.668   1.195  1.00  0.00     0.000 C 
BRANCH  37  38
HETATM   38  C17 UNL     1      -7.174   4.359  -0.071  1.00  0.00    -0.000 C 
BRANCH  38  39
HETATM   39  C18 UNL     1      -7.572   3.611  -1.267  1.00  0.00    -0.005 C 
HETATM   40  C19 UNL     1      -6.542   2.721  -1.858  1.00  0.00     0.005 C 
ENDBRANCH  38  39
ENDBRANCH  37  38
ENDBRANCH  36  37
ENDBRANCH  35  36
ENDBRANCH  34  35
ENDBRANCH  33  34
ENDBRANCH   8  33
BRANCH   7  41
HETATM   41  O1  UNL     1      -5.700  -1.515  -0.488  1.00  0.00    -0.353 OA
HETATM   42  C11 UNL     1      -6.289  -2.385  -1.414  1.00  0.00     0.210 C 
ENDBRANCH   7  41
TORSDOF 14
