REMARK  12 active torsions:
REMARK  status: ('A' for Active; 'I' for Inactive)
REMARK    1  A    between atoms: C2_2  and  C3_3 
REMARK    2  A    between atoms: C3_3  and  N1_4 
REMARK    3  A    between atoms: N1_4  and  C4_5 
REMARK    4  A    between atoms: N1_4  and  C10_15 
REMARK    5  A    between atoms: C4_5  and  C5_6 
REMARK    6  A    between atoms: C10_15  and  O1_16 
REMARK    7  A    between atoms: C11_18  and  N4_19 
REMARK    8  A    between atoms: C16_25  and  N5_26 
REMARK    9  A    between atoms: C22_33  and  C24_35 
REMARK   10  A    between atoms: C24_35  and  C25_36 
REMARK   11  A    between atoms: C25_36  and  C26_37 
REMARK   12  A    between atoms: C26_37  and  N6_38 
ROOT
HETATM    1  N4  UNL     1       0.187   0.476   0.071  1.00  0.00    -0.305 N 
HETATM    2  C12 UNL     1       0.698   1.814   0.174  1.00  0.00     0.229 C 
HETATM    3  O2  UNL     1       1.554   1.955   1.058  1.00  0.00    -0.273 OA
HETATM    4  C13 UNL     1       0.386   3.021  -0.571  1.00  0.00     0.143 C 
HETATM    5  C14 UNL     1      -1.011   3.457  -0.410  1.00  0.00    -0.030 A 
HETATM    6  C15 UNL     1      -1.162   4.741   0.046  1.00  0.00     0.038 A 
HETATM    7  C16 UNL     1      -2.439   5.285   0.260  1.00  0.00     0.029 A 
HETATM    8  C19 UNL     1      -3.549   4.517   0.008  1.00  0.00     0.030 A 
HETATM    9  C20 UNL     1      -3.416   3.237  -0.446  1.00  0.00     0.021 A 
HETATM   10  C21 UNL     1      -2.134   2.701  -0.658  1.00  0.00     0.009 A 
HETATM   11  S1  UNL     1      -2.175   1.042  -1.252  1.00  0.00    -0.098 SA
HETATM   12  C22 UNL     1      -0.895  -0.047  -0.686  1.00  0.00     0.089 C 
HETATM   13  C23 UNL     1      -0.444  -0.812  -1.934  1.00  0.00     0.052 C 
ENDROOT
BRANCH   1  14
HETATM   14  C11 UNL     1       0.838  -0.425   0.947  1.00  0.00     0.151 C 
HETATM   15  C10 UNL     1       2.028  -1.143   0.721  1.00  0.00     0.154 C 
BRANCH  15  16
HETATM   16  N1  UNL     1       3.020  -1.215  -0.231  1.00  0.00    -0.355 N 
BRANCH  16  17
HETATM   17  C3  UNL     1       3.297  -0.413  -1.399  1.00  0.00     0.125 C 
BRANCH  17  18
HETATM   18  C2  UNL     1       4.290   0.714  -1.137  1.00  0.00     0.015 C 
HETATM   19  C1  UNL     1       4.428   1.452  -2.463  1.00  0.00     0.006 C 
ENDBRANCH  17  18
ENDBRANCH  16  17
BRANCH  16  20
HETATM   20  C4  UNL     1       4.025  -2.328  -0.107  1.00  0.00     0.183 C 
BRANCH  20  21
HETATM   21  C5  UNL     1       5.160  -1.954   0.729  1.00  0.00     0.042 A 
HETATM   22  C6  UNL     1       6.365  -2.601   0.474  1.00  0.00     0.114 A 
HETATM   23  N2  UNL     1       7.460  -2.323   1.197  1.00  0.00    -0.366 N 
HETATM   24  C7  UNL     1       7.424  -1.413   2.188  1.00  0.00     0.020 A 
ATOM     25  H2  UNL     1       8.333  -2.809   0.993  1.00  0.00     0.165 HD
HETATM   26  C8  UNL     1       8.597  -1.063   3.005  1.00  0.00     0.069 C 
HETATM   27  C9  UNL     1       6.224  -0.757   2.456  1.00  0.00     0.112 A 
HETATM   28  N3  UNL     1       5.147  -1.058   1.714  1.00  0.00    -0.365 N 
ATOM     29  H3  UNL     1       4.272  -0.575   1.915  1.00  0.00     0.165 HD
ENDBRANCH  20  21
ENDBRANCH  16  20
ENDBRANCH  15  16
BRANCH  15  30
HETATM   30  O1  UNL     1       2.275  -2.002   1.708  1.00  0.00    -0.345 OA
ATOM     31  H1  UNL     1       1.591  -1.952   2.365  1.00  0.00     0.219 HD
ENDBRANCH  15  30
ENDBRANCH   1  14
BRANCH  12  32
HETATM   32  C24 UNL     1      -1.606  -1.133   0.143  1.00  0.00     0.045 C 
BRANCH  32  33
HETATM   33  C25 UNL     1      -2.819  -1.681  -0.637  1.00  0.00     0.033 C 
BRANCH  33  34
HETATM   34  C26 UNL     1      -3.430  -2.715   0.322  1.00  0.00     0.272 C 
BRANCH  34  35
HETATM   35  N6  UNL     1      -4.589  -3.346  -0.222  1.00  0.00     0.091 N 
HETATM   36  C27 UNL     1      -4.199  -4.190  -1.329  1.00  0.00     0.300 C 
HETATM   37  C28 UNL     1      -5.328  -5.025  -1.851  1.00  0.00     0.262 C 
HETATM   38  N7  UNL     1      -6.141  -5.603  -0.814  1.00  0.00    -0.072 N 
HETATM   39  C29 UNL     1      -5.491  -5.540   0.466  1.00  0.00     0.262 C 
ATOM     40  H72 UNL     1      -7.066  -5.174  -0.783  1.00  0.00     0.277 HD
ATOM     41  H71 UNL     1      -6.416  -6.558  -1.045  1.00  0.00     0.277 HD
HETATM   42  C30 UNL     1      -5.243  -4.109   0.821  1.00  0.00     0.300 C 
ENDBRANCH  34  35
ENDBRANCH  33  34
ENDBRANCH  32  33
ENDBRANCH  12  32
BRANCH   7  43
HETATM   43  N5  UNL     1      -2.594   6.600   0.729  1.00  0.00    -0.390 N 
HETATM   44  C17 UNL     1      -2.577   6.791   2.185  1.00  0.00     0.149 C 
HETATM   45  C18 UNL     1      -2.766   7.682  -0.194  1.00  0.00     0.149 C 
ENDBRANCH   7  43
TORSDOF 12
