REMARK  14 active torsions:
REMARK  status: ('A' for Active; 'I' for Inactive)
REMARK    1  A    between atoms: C2_2  and  C3_3 
REMARK    2  A    between atoms: C3_3  and  C4_4 
REMARK    3  A    between atoms: C4_4  and  C9_11 
REMARK    4  A    between atoms: C5_5  and  C6_6 
REMARK    5  A    between atoms: C6_6  and  O1_7 
REMARK    6  A    between atoms: O1_7  and  C7_8 
REMARK    7  A    between atoms: C9_11  and  N1_12 
REMARK    8  A    between atoms: C9_11  and  C16_20 
REMARK    9  A    between atoms: N1_12  and  N2_13 
REMARK   10  A    between atoms: C16_20  and  C24_35 
REMARK   11  A    between atoms: N3_21  and  N4_23 
REMARK       I    between atoms: N4_23  and  C17_25 
REMARK   12  A    between atoms: C17_25  and  C18_27 
REMARK   13  A    between atoms: C18_27  and  N5_28 
REMARK       I    between atoms: C24_35  and  N7_37 
REMARK   14  A    between atoms: N7_37  and  C25_39 
ROOT
HETATM    1  C16 UNL     1       0.082  -0.222   0.635  1.00  0.00     0.159 C 
HETATM    2  N3  UNL     1       1.227   0.315   0.740  1.00  0.00    -0.290 N 
ATOM      3  H3  UNL     1       1.779   0.052   1.556  1.00  0.00     0.187 HD
ENDROOT
BRANCH   1   4
HETATM    4  C9  UNL     1      -0.394  -1.192   1.651  1.00  0.00     0.170 C 
BRANCH   4   5
HETATM    5  C4  UNL     1       0.340  -1.332   2.936  1.00  0.00    -0.014 C 
HETATM    6  C5  UNL     1       1.438  -0.776   3.299  1.00  0.00     0.010 C 
BRANCH   5   7
HETATM    7  C3  UNL     1      -0.359  -2.141   4.028  1.00  0.00     0.041 C 
BRANCH   7   8
HETATM    8  C2  UNL     1      -0.298  -3.598   3.760  1.00  0.00     0.000 C 
HETATM    9  C1  UNL     1      -1.154  -4.331   4.786  1.00  0.00     0.005 C 
ENDBRANCH   7   8
ENDBRANCH   5   7
BRANCH   6  10
HETATM   10  C6  UNL     1       2.099  -0.824   4.640  1.00  0.00     0.207 C 
BRANCH  10  11
HETATM   11  O1  UNL     1       2.208   0.527   5.127  1.00  0.00    -0.318 OA
BRANCH  11  12
HETATM   12  C7  UNL     1       2.763   0.846   6.354  1.00  0.00     0.255 C 
HETATM   13  C8  UNL     1       2.846   2.257   6.820  1.00  0.00     0.126 C 
HETATM   14  O2  UNL     1       3.199  -0.064   7.082  1.00  0.00    -0.266 OA
ENDBRANCH  11  12
ENDBRANCH  10  11
ENDBRANCH   6  10
ENDBRANCH   4   5
BRANCH   4  15
HETATM   15  N1  UNL     1      -1.437  -1.806   1.515  1.00  0.00    -0.325 NA
BRANCH  15  16
HETATM   16  N2  UNL     1      -2.546  -2.452   1.354  1.00  0.00    -0.263 N 
HETATM   17  C10 UNL     1      -3.811  -2.001   1.970  1.00  0.00     0.156 C 
HETATM   18  C11 UNL     1      -4.874  -1.677   0.980  1.00  0.00     0.022 C 
HETATM   19  C12 UNL     1      -4.932  -2.532  -0.238  1.00  0.00     0.002 C 
HETATM   20  C13 UNL     1      -4.990  -4.007   0.015  1.00  0.00     0.002 C 
HETATM   21  C14 UNL     1      -3.783  -4.523   0.751  1.00  0.00     0.022 C 
HETATM   22  C15 UNL     1      -2.564  -3.706   0.543  1.00  0.00     0.156 C 
ENDBRANCH  15  16
ENDBRANCH   4  15
ENDBRANCH   1   4
BRANCH   1  23
HETATM   23  C24 UNL     1      -0.900   0.326  -0.284  1.00  0.00     0.273 C 
HETATM   24  O4  UNL     1      -1.942  -0.387  -0.487  1.00  0.00    -0.266 OA
HETATM   25  N7  UNL     1      -0.912   1.532  -0.990  1.00  0.00    -0.351 N 
ATOM     26  H7  UNL     1      -0.141   2.192  -0.889  1.00  0.00     0.163 HD
BRANCH  25  27
HETATM   27  C25 UNL     1      -2.037   1.845  -1.876  1.00  0.00     0.084 C 
HETATM   28  C26 UNL     1      -3.133   2.600  -1.133  1.00  0.00     0.025 C 
HETATM   29  C27 UNL     1      -3.753   3.599  -2.094  1.00  0.00     0.002 C 
HETATM   30  C28 UNL     1      -2.768   4.736  -2.293  1.00  0.00     0.000 C 
HETATM   31  C29 UNL     1      -1.448   4.115  -2.725  1.00  0.00     0.002 C 
HETATM   32  C30 UNL     1      -1.623   2.626  -3.064  1.00  0.00     0.025 C 
ENDBRANCH  25  27
ENDBRANCH   1  23
BRANCH   2  33
HETATM   33  N4  UNL     1       1.815   1.229  -0.142  1.00  0.00    -0.265 N 
HETATM   34  C17 UNL     1       2.175   0.769  -1.441  1.00  0.00     0.275 C 
HETATM   35  O3  UNL     1       1.912  -0.468  -1.660  1.00  0.00    -0.265 OA
ATOM     36  H4  UNL     1       1.981   2.196   0.137  1.00  0.00     0.190 HD
BRANCH  34  37
HETATM   37  C18 UNL     1       2.773   1.589  -2.444  1.00  0.00     0.171 C 
BRANCH  37  38
HETATM   38  N5  UNL     1       3.047   0.980  -3.726  1.00  0.00    -0.335 N 
HETATM   39  C19 UNL     1       3.233   1.905  -4.773  1.00  0.00     0.113 C 
HETATM   40  C20 UNL     1       4.657   2.147  -5.100  1.00  0.00     0.107 C 
HETATM   41  N6  UNL     1       5.547   1.142  -4.735  1.00  0.00    -0.368 N 
HETATM   42  C21 UNL     1       6.684   1.650  -4.027  1.00  0.00     0.154 C 
HETATM   43  C22 UNL     1       5.131  -0.142  -4.394  1.00  0.00     0.107 C 
HETATM   44  C23 UNL     1       3.774  -0.222  -3.733  1.00  0.00     0.113 C 
ENDBRANCH  37  38
ENDBRANCH  34  37
ENDBRANCH   2  33
TORSDOF 14
