REMARK  13 active torsions:
REMARK  status: ('A' for Active; 'I' for Inactive)
REMARK    1  A    between atoms: C2_2  and  C3_3 
REMARK    2  A    between atoms: C3_3  and  C4_4 
REMARK    3  A    between atoms: C4_4  and  C5_5 
REMARK    4  A    between atoms: C5_5  and  N1_6 
REMARK    5  A    between atoms: C9_13  and  N3_14 
REMARK    6  A    between atoms: N4_17  and  C12_18 
REMARK    7  A    between atoms: C12_18  and  C13_19 
REMARK       I    between atoms: N5_24  and  C17_25 
REMARK    8  A    between atoms: C17_25  and  C18_27 
REMARK    9  A    between atoms: C18_27  and  N6_28 
REMARK   10  A    between atoms: C18_27  and  C19_32 
REMARK   11  A    between atoms: C19_32  and  C20_33 
REMARK   12  A    between atoms: C20_33  and  C21_34 
REMARK   13  A    between atoms: C27_40  and  O4_41 
ROOT
HETATM    1  N3  UNL     1       0.395   0.228   0.359  1.00  0.00    -0.377 N 
HETATM    2  C10 UNL     1      -0.218   0.755   1.539  1.00  0.00     0.153 C 
HETATM    3  C11 UNL     1      -1.686   0.673   1.643  1.00  0.00     0.292 C 
HETATM    4  N4  UNL     1      -2.373  -0.073   0.614  1.00  0.00     0.092 N 
HETATM    5  C24 UNL     1      -1.823   0.220  -0.679  1.00  0.00     0.292 C 
HETATM    6  C25 UNL     1      -0.399  -0.276  -0.721  1.00  0.00     0.153 C 
ENDROOT
BRANCH   1   7
HETATM    7  C9  UNL     1       1.809   0.215   0.260  1.00  0.00     0.035 A 
HETATM    8  C8  UNL     1       2.485  -0.398  -0.789  1.00  0.00     0.060 A 
HETATM    9  C7  UNL     1       3.860  -0.392  -0.867  1.00  0.00     0.057 A 
HETATM   10  N2  UNL     1       4.505  -0.985  -1.878  1.00  0.00    -0.307 N 
HETATM   11  C29 UNL     1       4.575   0.232   0.112  1.00  0.00     0.092 A 
HETATM   12  C6  UNL     1       5.870  -0.978  -1.949  1.00  0.00     0.329 A 
ATOM     13  H2  UNL     1       3.968  -1.451  -2.609  1.00  0.00     0.170 HD
HETATM   14  N1  UNL     1       6.610  -0.375  -1.006  1.00  0.00    -0.265 N 
HETATM   15  O1  UNL     1       6.374  -1.563  -2.938  1.00  0.00    -0.246 OA
HETATM   16  C30 UNL     1       5.937   0.228   0.024  1.00  0.00     0.266 A 
HETATM   17  O5  UNL     1       6.606   0.800   0.920  1.00  0.00    -0.267 OA
HETATM   18  C27 UNL     1       3.971   0.866   1.192  1.00  0.00     0.088 A 
HETATM   19  C26 UNL     1       2.603   0.831   1.222  1.00  0.00     0.067 A 
BRANCH  14  20
HETATM   20  C5  UNL     1       8.039  -0.371  -1.080  1.00  0.00     0.137 C 
BRANCH  20  21
HETATM   21  C4  UNL     1       8.611   0.796  -1.830  1.00  0.00     0.020 C 
BRANCH  21  22
HETATM   22  C3  UNL     1      10.112   0.775  -1.881  1.00  0.00     0.001 C 
BRANCH  22  23
HETATM   23  C2  UNL     1      10.734   0.817  -0.502  1.00  0.00    -0.004 C 
HETATM   24  C1  UNL     1      10.340   2.065   0.244  1.00  0.00     0.005 C 
ENDBRANCH  22  23
ENDBRANCH  21  22
ENDBRANCH  20  21
ENDBRANCH  14  20
BRANCH  18  25
HETATM   25  O4  UNL     1       4.736   1.494   2.172  1.00  0.00    -0.355 OA
HETATM   26  C28 UNL     1       4.028   2.112   3.229  1.00  0.00     0.210 C 
ENDBRANCH  18  25
ENDBRANCH   1   7
BRANCH   4  27
HETATM   27  C12 UNL     1      -2.488  -1.469   0.923  1.00  0.00     0.278 C 
BRANCH  27  28
HETATM   28  C13 UNL     1      -3.280  -2.197  -0.139  1.00  0.00     0.033 C 
HETATM   29  C14 UNL     1      -3.402  -3.670   0.191  1.00  0.00     0.017 C 
HETATM   30  C15 UNL     1      -4.102  -3.845   1.528  1.00  0.00     0.104 C 
HETATM   31  C16 UNL     1      -5.241  -2.875   1.619  1.00  0.00     0.226 C 
HETATM   32  O2  UNL     1      -5.914  -2.768   2.683  1.00  0.00    -0.273 OA
HETATM   33  N5  UNL     1      -5.602  -2.049   0.522  1.00  0.00    -0.286 N 
HETATM   34  C17 UNL     1      -6.993  -1.779   0.297  1.00  0.00     0.257 C 
HETATM   35  C23 UNL     1      -4.582  -1.504  -0.331  1.00  0.00     0.141 C 
HETATM   36  O3  UNL     1      -7.834  -2.289   1.057  1.00  0.00    -0.271 OA
BRANCH  34  37
HETATM   37  C18 UNL     1      -7.441  -0.916  -0.812  1.00  0.00     0.275 C 
BRANCH  37  38
HETATM   38  N6  UNL     1      -8.853  -1.245  -1.045  1.00  0.00    -0.066 N 
ATOM     39  H63 UNL     1      -9.015  -2.238  -1.213  1.00  0.00     0.275 HD
ATOM     40  H62 UNL     1      -9.431  -1.163  -0.209  1.00  0.00     0.275 HD
ATOM     41  H61 UNL     1      -9.163  -0.648  -1.812  1.00  0.00     0.275 HD
ENDBRANCH  37  38
BRANCH  37  42
HETATM   42  C19 UNL     1      -7.351   0.532  -0.354  1.00  0.00     0.042 C 
BRANCH  42  43
HETATM   43  C20 UNL     1      -7.802   1.491  -1.442  1.00  0.00     0.002 C 
BRANCH  43  44
HETATM   44  C21 UNL     1      -7.651   2.890  -0.832  1.00  0.00    -0.004 C 
HETATM   45  C22 UNL     1      -8.507   3.006   0.390  1.00  0.00     0.005 C 
ENDBRANCH  43  44
ENDBRANCH  42  43
ENDBRANCH  37  42
ENDBRANCH  34  37
ENDBRANCH  27  28
ENDBRANCH   4  27
TORSDOF 13
