REMARK  15 active torsions:
REMARK  status: ('A' for Active; 'I' for Inactive)
REMARK    1  A    between atoms: C4_4  and  C5_5 
REMARK    2  A    between atoms: C5_5  and  C6_6 
REMARK    3  A    between atoms: C6_6  and  C7_7 
REMARK    4  A    between atoms: C9_9  and  C10_10 
REMARK    5  A    between atoms: C10_10  and  C11_11 
REMARK    6  A    between atoms: C11_11  and  C12_12 
REMARK    7  A    between atoms: C14_14  and  C15_15 
REMARK    8  A    between atoms: C15_15  and  C16_16 
REMARK    9  A    between atoms: C16_16  and  C17_17 
REMARK   10  A    between atoms: C19_19  and  C20_20 
REMARK   11  A    between atoms: C20_20  and  N1_21 
REMARK   12  A    between atoms: C22_25  and  C23_26 
REMARK   13  A    between atoms: C23_26  and  O1_27 
REMARK   14  A    between atoms: C23_26  and  C24_29 
REMARK   15  A    between atoms: C24_29  and  N3_30 
ROOT
HETATM    1  C17 UNL     1       1.196  -1.775   2.478  1.00  0.00    -0.086 C 
HETATM    2  C18 UNL     1       0.719  -3.192   2.665  1.00  0.00     0.043 C 
HETATM    3  C19 UNL     1       2.435  -1.532   2.801  1.00  0.00    -0.003 C 
ENDROOT
BRANCH   1   4
HETATM    4  C16 UNL     1       0.276  -0.763   1.999  1.00  0.00     0.037 C 
BRANCH   4   5
HETATM    5  C15 UNL     1      -0.279  -0.928   0.610  1.00  0.00     0.031 C 
BRANCH   5   6
HETATM    6  C14 UNL     1      -1.053  -2.130   0.343  1.00  0.00    -0.024 C 
HETATM    7  C12 UNL     1      -2.304  -2.210   0.084  1.00  0.00    -0.087 C 
HETATM    8  C13 UNL     1      -2.892  -3.595  -0.162  1.00  0.00     0.043 C 
BRANCH   7   9
HETATM    9  C11 UNL     1      -3.261  -1.062  -0.001  1.00  0.00     0.037 C 
BRANCH   9  10
HETATM   10  C10 UNL     1      -4.312  -1.302   1.023  1.00  0.00     0.031 C 
BRANCH  10  11
HETATM   11  C9  UNL     1      -5.430  -0.420   1.176  1.00  0.00    -0.024 C 
HETATM   12  C7  UNL     1      -5.856   0.635   0.542  1.00  0.00    -0.087 C 
HETATM   13  C8  UNL     1      -5.158   1.256  -0.595  1.00  0.00     0.043 C 
BRANCH  12  14
HETATM   14  C6  UNL     1      -7.114   1.278   1.047  1.00  0.00     0.037 C 
BRANCH  14  15
HETATM   15  C5  UNL     1      -8.272   1.264   0.129  1.00  0.00     0.031 C 
BRANCH  15  16
HETATM   16  C4  UNL     1      -8.061   1.967  -1.140  1.00  0.00    -0.024 C 
HETATM   17  C2  UNL     1      -8.161   1.371  -2.331  1.00  0.00    -0.091 C 
HETATM   18  C1  UNL     1      -7.947   2.087  -3.600  1.00  0.00     0.042 C 
HETATM   19  C3  UNL     1      -8.503  -0.070  -2.359  1.00  0.00     0.042 C 
ENDBRANCH  15  16
ENDBRANCH  14  15
ENDBRANCH  12  14
ENDBRANCH  10  11
ENDBRANCH   9  10
ENDBRANCH   7   9
ENDBRANCH   5   6
ENDBRANCH   4   5
ENDBRANCH   1   4
BRANCH   3  20
HETATM   20  C20 UNL     1       3.092  -0.229   2.736  1.00  0.00     0.177 C 
BRANCH  20  21
HETATM   21  N1  UNL     1       4.243  -0.273   1.820  1.00  0.00    -0.283 N 
HETATM   22  C21 UNL     1       5.489  -0.582   2.197  1.00  0.00     0.202 A 
HETATM   23  N2  UNL     1       6.268  -0.523   1.095  1.00  0.00    -0.338 N 
HETATM   24  C22 UNL     1       5.505  -0.183   0.068  1.00  0.00     0.128 A 
ATOM     25  H2  UNL     1       7.270  -0.708   1.060  1.00  0.00     0.168 HD
HETATM   26  N4  UNL     1       4.257  -0.031   0.523  1.00  0.00    -0.283 N 
ATOM     27  H4  UNL     1       3.448   0.230  -0.041  1.00  0.00     0.188 HD
BRANCH  24  28
HETATM   28  C23 UNL     1       5.952  -0.003  -1.327  1.00  0.00     0.215 C 
BRANCH  28  29
HETATM   29  O1  UNL     1       5.421   1.126  -1.918  1.00  0.00    -0.386 OA
ATOM     30  H1  UNL     1       5.709   1.242  -2.816  1.00  0.00     0.210 HD
ENDBRANCH  28  29
BRANCH  28  31
HETATM   31  C24 UNL     1       7.451  -0.097  -1.398  1.00  0.00     0.311 C 
BRANCH  31  32
HETATM   32  N3  UNL     1       8.092   1.027  -0.747  1.00  0.00     0.091 N 
HETATM   33  C25 UNL     1       9.540   0.908  -0.782  1.00  0.00     0.272 C 
HETATM   34  C26 UNL     1      10.065   2.323  -0.670  1.00  0.00     0.032 C 
HETATM   35  C27 UNL     1       8.977   3.200  -1.202  1.00  0.00     0.032 C 
HETATM   36  C28 UNL     1       7.792   2.294  -1.388  1.00  0.00     0.272 C 
ENDBRANCH  31  32
ENDBRANCH  28  31
ENDBRANCH  24  28
ENDBRANCH  20  21
ENDBRANCH   3  20
TORSDOF 15
