REMARK  16 active torsions:
REMARK  status: ('A' for Active; 'I' for Inactive)
REMARK    1  A    between atoms: C2_2  and  C3_3 
REMARK    2  A    between atoms: C3_3  and  C5_5 
REMARK    3  A    between atoms: C5_5  and  O2_7 
REMARK    4  A    between atoms: O2_7  and  C6_8 
REMARK    5  A    between atoms: C6_8  and  C8_10 
REMARK    6  A    between atoms: C6_8  and  C25_30 
REMARK    7  A    between atoms: C8_10  and  O3_13 
REMARK    8  A    between atoms: O3_13  and  C11_14 
REMARK    9  A    between atoms: C11_14  and  C12_15 
REMARK   10  A    between atoms: C13_16  and  C15_18 
REMARK   11  A    between atoms: C15_18  and  C16_19 
REMARK   12  A    between atoms: C16_19  and  C17_20 
REMARK   13  A    between atoms: C18_21  and  C20_23 
REMARK   14  A    between atoms: C20_23  and  C21_24 
REMARK   15  A    between atoms: C21_24  and  C22_25 
REMARK   16  A    between atoms: C23_26  and  O4_28 
ROOT
HETATM    1  O3  UNL     1      -1.758  -0.949   1.356  1.00  0.00    -0.374 OA
ENDROOT
BRANCH   1   2
HETATM    2  C8  UNL     1      -3.108  -0.820   1.617  1.00  0.00     0.088 C 
HETATM    3  C9  UNL     1      -3.394  -1.635   2.862  1.00  0.00     0.049 C 
HETATM    4  C10 UNL     1      -3.383   0.662   1.956  1.00  0.00     0.049 C 
BRANCH   2   5
HETATM    5  C6  UNL     1      -3.971  -1.200   0.435  1.00  0.00     0.130 C 
HETATM    6  C7  UNL     1      -3.558  -2.623   0.086  1.00  0.00     0.053 C 
BRANCH   5   7
HETATM    7  O2  UNL     1      -3.921  -0.314  -0.556  1.00  0.00    -0.304 OA
BRANCH   7   8
HETATM    8  C5  UNL     1      -3.074   0.219  -1.429  1.00  0.00     0.263 C 
HETATM    9  O1  UNL     1      -1.895  -0.200  -1.371  1.00  0.00    -0.265 OA
BRANCH   8  10
HETATM   10  C3  UNL     1      -3.392   1.251  -2.450  1.00  0.00     0.081 C 
HETATM   11  C4  UNL     1      -4.489   0.768  -3.387  1.00  0.00     0.020 C 
BRANCH  10  12
HETATM   12  C2  UNL     1      -3.843   2.558  -1.883  1.00  0.00     0.010 C 
HETATM   13  C1  UNL     1      -2.828   3.161  -0.952  1.00  0.00     0.006 C 
ENDBRANCH  10  12
ENDBRANCH   8  10
ENDBRANCH   7   8
ENDBRANCH   5   7
BRANCH   5  14
HETATM   14  C25 UNL     1      -5.446  -1.331   0.889  1.00  0.00     0.113 A 
HETATM   15  C26 UNL     1      -6.040  -2.728   0.952  1.00  0.00     0.051 C 
HETATM   16  C27 UNL     1      -6.401  -0.403   0.104  1.00  0.00     0.209 A 
HETATM   17  O5  UNL     1      -6.097  -0.247   1.426  1.00  0.00    -0.372 OA
ENDBRANCH   5  14
ENDBRANCH   2   5
ENDBRANCH   1   2
BRANCH   1  18
HETATM   18  C11 UNL     1      -0.939  -0.627   2.390  1.00  0.00     0.196 C 
BRANCH  18  19
HETATM   19  C12 UNL     1       0.484  -0.937   2.285  1.00  0.00     0.001 C 
HETATM   20  C13 UNL     1       1.181  -1.510   1.344  1.00  0.00    -0.085 C 
HETATM   21  C14 UNL     1       0.690  -2.034   0.058  1.00  0.00     0.043 C 
BRANCH  20  22
HETATM   22  C15 UNL     1       2.700  -1.666   1.523  1.00  0.00     0.037 C 
BRANCH  22  23
HETATM   23  C16 UNL     1       3.355  -0.931   0.378  1.00  0.00     0.031 C 
BRANCH  23  24
HETATM   24  C17 UNL     1       4.814  -0.981   0.418  1.00  0.00    -0.024 C 
HETATM   25  C18 UNL     1       5.557   0.135   0.500  1.00  0.00    -0.087 C 
HETATM   26  C19 UNL     1       4.837   1.450   0.553  1.00  0.00     0.043 C 
BRANCH  25  27
HETATM   27  C20 UNL     1       7.010   0.001   0.558  1.00  0.00     0.037 C 
BRANCH  27  28
HETATM   28  C21 UNL     1       7.754   0.627  -0.585  1.00  0.00     0.034 C 
BRANCH  28  29
HETATM   29  C22 UNL     1       7.528   2.072  -0.696  1.00  0.00     0.005 C 
HETATM   30  C23 UNL     1       7.018   2.577  -1.821  1.00  0.00     0.035 C 
HETATM   31  C24 UNL     1       6.673   1.694  -2.955  1.00  0.00     0.075 C 
BRANCH  30  32
HETATM   32  O4  UNL     1       6.805   3.962  -1.925  1.00  0.00    -0.366 OA
ATOM     33  H4  UNL     1       6.442   4.322  -2.726  1.00  0.00     0.217 HD
ENDBRANCH  30  32
ENDBRANCH  28  29
ENDBRANCH  27  28
ENDBRANCH  25  27
ENDBRANCH  23  24
ENDBRANCH  22  23
ENDBRANCH  20  22
ENDBRANCH  18  19
ENDBRANCH   1  18
TORSDOF 16
