REMARK  17 active torsions:
REMARK  status: ('A' for Active; 'I' for Inactive)
REMARK    1  A    between atoms: O1_2  and  C2_3 
REMARK    2  A    between atoms: C2_3  and  C3_5 
REMARK    3  A    between atoms: C4_7  and  C5_8 
REMARK    4  A    between atoms: C6_9  and  O4_10 
REMARK    5  A    between atoms: C6_9  and  C7_12 
REMARK    6  A    between atoms: C7_12  and  O6_14 
REMARK    7  A    between atoms: O6_14  and  C8_15 
REMARK    8  A    between atoms: C8_15  and  C9_16 
REMARK    9  A    between atoms: C10_17  and  C12_19 
REMARK   10  A    between atoms: C12_19  and  C13_20 
REMARK   11  A    between atoms: C13_20  and  C14_21 
REMARK   12  A    between atoms: C15_22  and  C17_24 
REMARK   13  A    between atoms: C17_24  and  C18_25 
REMARK   14  A    between atoms: C18_25  and  C19_26 
REMARK   15  A    between atoms: C20_27  and  C22_29 
REMARK   16  A    between atoms: C22_29  and  C23_30 
REMARK   17  A    between atoms: C23_30  and  C24_31 
ROOT
HETATM    1  C9  UNL     1      -3.172  -0.694   2.474  1.00  0.00     0.002 C 
HETATM    2  C10 UNL     1      -1.904  -0.983   2.284  1.00  0.00    -0.085 C 
HETATM    3  C11 UNL     1      -1.097  -1.562   3.430  1.00  0.00     0.043 C 
ENDROOT
BRANCH   2   4
HETATM    4  C12 UNL     1      -1.258  -0.827   0.985  1.00  0.00     0.037 C 
BRANCH   4   5
HETATM    5  C13 UNL     1      -0.162   0.165   0.954  1.00  0.00     0.031 C 
BRANCH   5   6
HETATM    6  C14 UNL     1       1.000  -0.054   1.812  1.00  0.00    -0.024 C 
HETATM    7  C15 UNL     1       2.198  -0.314   1.247  1.00  0.00    -0.087 C 
HETATM    8  C16 UNL     1       2.258  -0.364  -0.216  1.00  0.00     0.043 C 
BRANCH   7   9
HETATM    9  C17 UNL     1       3.328  -0.540   2.157  1.00  0.00     0.037 C 
BRANCH   9  10
HETATM   10  C18 UNL     1       4.465   0.401   2.070  1.00  0.00     0.031 C 
BRANCH  10  11
HETATM   11  C19 UNL     1       5.077   0.388   0.704  1.00  0.00    -0.024 C 
HETATM   12  C20 UNL     1       5.162   1.459  -0.038  1.00  0.00    -0.087 C 
HETATM   13  C21 UNL     1       4.622   2.772   0.480  1.00  0.00     0.043 C 
BRANCH  12  14
HETATM   14  C22 UNL     1       5.790   1.492  -1.353  1.00  0.00     0.037 C 
BRANCH  14  15
HETATM   15  C23 UNL     1       6.435   0.241  -1.813  1.00  0.00     0.031 C 
BRANCH  15  16
HETATM   16  C24 UNL     1       7.610  -0.206  -1.036  1.00  0.00    -0.024 C 
HETATM   17  C25 UNL     1       8.767  -0.347  -1.694  1.00  0.00    -0.091 C 
HETATM   18  C26 UNL     1       8.858  -0.063  -3.142  1.00  0.00     0.042 C 
HETATM   19  C27 UNL     1       9.978  -0.793  -0.962  1.00  0.00     0.042 C 
ENDBRANCH  15  16
ENDBRANCH  14  15
ENDBRANCH  12  14
ENDBRANCH  10  11
ENDBRANCH   9  10
ENDBRANCH   7   9
ENDBRANCH   5   6
ENDBRANCH   4   5
ENDBRANCH   2   4
BRANCH   1  20
HETATM   20  C8  UNL     1      -4.114  -0.133   1.512  1.00  0.00     0.207 C 
BRANCH  20  21
HETATM   21  O6  UNL     1      -5.176  -1.106   1.385  1.00  0.00    -0.312 OA
BRANCH  21  22
HETATM   22  C7  UNL     1      -6.255  -0.882   0.531  1.00  0.00     0.316 C 
HETATM   23  O5  UNL     1      -6.256   0.191  -0.111  1.00  0.00    -0.257 OA
BRANCH  22  24
HETATM   24  C6  UNL     1      -7.333  -1.851   0.391  1.00  0.00     0.140 C 
HETATM   25  C5  UNL     1      -8.359  -1.662  -0.407  1.00  0.00     0.050 C 
BRANCH  25  26
HETATM   26  C4  UNL     1      -8.456  -0.429  -1.209  1.00  0.00     0.187 A 
HETATM   27  C3  UNL     1      -9.255  -0.570  -2.511  1.00  0.00     0.254 A 
HETATM   28  O3  UNL     1      -7.903  -0.338  -2.462  1.00  0.00    -0.361 OA
BRANCH  27  29
HETATM   29  C2  UNL     1     -10.209   0.534  -2.795  1.00  0.00     0.290 C 
HETATM   30  O2  UNL     1     -11.324   0.270  -3.331  1.00  0.00    -0.262 OA
BRANCH  29  31
HETATM   31  O1  UNL     1      -9.939   1.842  -2.503  1.00  0.00    -0.324 OA
HETATM   32  C1  UNL     1     -10.827   2.913  -2.762  1.00  0.00     0.213 C 
ENDBRANCH  29  31
ENDBRANCH  27  29
ENDBRANCH  25  26
BRANCH  24  33
HETATM   33  O4  UNL     1      -7.293  -3.034   1.126  1.00  0.00    -0.355 OA
ATOM     34  H4  UNL     1      -6.551  -3.171   1.703  1.00  0.00     0.218 HD
ENDBRANCH  24  33
ENDBRANCH  22  24
ENDBRANCH  21  22
ENDBRANCH  20  21
ENDBRANCH   1  20
TORSDOF 17
