REMARK  3 active torsions:
REMARK  status: ('A' for Active; 'I' for Inactive)
REMARK    1  A    between atoms: C4_5  and  N2_6 
REMARK    2  A    between atoms: N2_6  and  C5_8 
REMARK    3  A    between atoms: C18_30  and  N5_31 
ROOT
HETATM    1  N1  UNL     1       0.594   5.589  -1.945  1.00  0.00    -0.191 NA
HETATM    2  C1  UNL     1       0.387   4.505  -1.573  1.00  0.00     0.102 C 
HETATM    3  C2  UNL     1       0.157   3.181  -1.129  1.00  0.00     0.075 C 
HETATM    4  C3  UNL     1       1.262   2.315  -1.103  1.00  0.00     0.073 C 
HETATM    5  C4  UNL     1       1.401   1.104  -0.443  1.00  0.00     0.107 C 
HETATM    6  N4  UNL     1       0.397   0.445   0.189  1.00  0.00    -0.341 N 
ATOM      7  H4  UNL     1       0.670  -0.193   0.936  1.00  0.00     0.167 HD
HETATM    8  C9  UNL     1      -0.917   0.544  -0.065  1.00  0.00     0.065 A 
HETATM    9  C10 UNL     1      -1.653   1.641  -0.475  1.00  0.00     0.095 A 
HETATM   10  C11 UNL     1      -3.015   1.575  -0.654  1.00  0.00     0.303 A 
HETATM   11  O3  UNL     1      -3.627   2.596  -1.024  1.00  0.00    -0.259 OA
HETATM   12  O4  UNL     1      -3.615   0.422  -0.424  1.00  0.00    -0.274 OA
HETATM   13  C12 UNL     1      -2.965  -0.658  -0.033  1.00  0.00     0.092 A 
HETATM   14  C13 UNL     1      -3.684  -1.825   0.182  1.00  0.00     0.041 A 
HETATM   15  C14 UNL     1      -2.998  -2.948   0.586  1.00  0.00     0.045 A 
HETATM   16  C15 UNL     1      -1.631  -2.915   0.773  1.00  0.00     0.117 A 
HETATM   17  F1  UNL     1      -0.970  -4.030   1.171  1.00  0.00    -0.206 F 
HETATM   18  C16 UNL     1      -0.897  -1.761   0.564  1.00  0.00     0.059 A 
HETATM   19  C17 UNL     1      -1.575  -0.636   0.162  1.00  0.00     0.029 A 
HETATM   20  C18 UNL     1      -1.158   2.907  -0.769  1.00  0.00     0.065 C 
ENDROOT
BRANCH  20  21
HETATM   21  N5  UNL     1      -2.003   3.873  -0.697  1.00  0.00    -0.397 N 
ATOM     22  H52 UNL     1      -1.640   4.801  -0.913  1.00  0.00     0.156 HD
ATOM     23  H51 UNL     1      -2.968   3.672  -0.433  1.00  0.00     0.156 HD
ENDBRANCH  20  21
BRANCH   5  24
HETATM   24  N2  UNL     1       2.548   0.597  -0.435  1.00  0.00    -0.338 N 
ATOM     25  H2  UNL     1       3.265   1.135  -0.921  1.00  0.00     0.167 HD
BRANCH  24  26
HETATM   26  C5  UNL     1       2.987  -0.595   0.141  1.00  0.00     0.107 A 
HETATM   27  C6  UNL     1       3.167  -1.742  -0.492  1.00  0.00     0.109 A 
HETATM   28  C7  UNL     1       3.637  -2.757   0.469  1.00  0.00     0.250 A 
HETATM   29  O1  UNL     1       3.914  -3.947   0.254  1.00  0.00    -0.268 OA
HETATM   30  N3  UNL     1       3.722  -2.105   1.752  1.00  0.00    -0.289 N 
HETATM   31  C8  UNL     1       3.317  -0.752   1.554  1.00  0.00     0.275 A 
ATOM     32  H3  UNL     1       4.015  -2.530   2.632  1.00  0.00     0.172 HD
HETATM   33  O2  UNL     1       3.281   0.089   2.490  1.00  0.00    -0.266 OA
ENDBRANCH  24  26
ENDBRANCH   5  24
TORSDOF 3
