REMARK  6 active torsions:
REMARK  status: ('A' for Active; 'I' for Inactive)
REMARK    1  A    between atoms: N1_2  and  C2_3 
REMARK    2  A    between atoms: N1_2  and  C13_29 
REMARK    3  A    between atoms: C2_3  and  O1_4 
REMARK    4  A    between atoms: C2_3  and  N2_6 
REMARK    5  A    between atoms: N3_9  and  C5_10 
REMARK    6  A    between atoms: C8_18  and  N6_19 
ROOT
HETATM    1  C5  UNL     1      -1.791   0.541  -0.088  1.00  0.00     0.682 A 
HETATM    2  N4  UNL     1      -2.429   1.546   0.551  1.00  0.00    -0.185 N 
ATOM      3  H4  UNL     1      -1.973   2.389   0.899  1.00  0.00     0.184 HD
HETATM    4  C6  UNL     1      -3.741   1.290   0.668  1.00  0.00     0.133 A 
HETATM    5  C7  UNL     1      -4.839   1.929   1.206  1.00  0.00     0.147 A 
HETATM    6  S1  UNL     1      -4.624   3.389   1.919  1.00  0.00    -0.057 SA
HETATM    7  N5  UNL     1      -6.076   1.398   1.167  1.00  0.00    -0.179 N 
ATOM      8  H5  UNL     1      -6.868   1.896   1.574  1.00  0.00     0.185 HD
HETATM    9  C8  UNL     1      -6.250   0.187   0.576  1.00  0.00     0.680 A 
HETATM   10  N7  UNL     1      -5.189  -0.453   0.044  1.00  0.00    -0.170 N 
HETATM   11  C9  UNL     1      -5.337  -1.743  -0.593  1.00  0.00     0.177 C 
HETATM   12  C10 UNL     1      -3.930   0.068   0.074  1.00  0.00     0.169 A 
HETATM   13  N8  UNL     1      -2.740  -0.365  -0.376  1.00  0.00    -0.173 N 
ATOM     14  H8  UNL     1      -2.582  -1.247  -0.862  1.00  0.00     0.186 HD
ENDROOT
BRANCH   1  15
HETATM   15  N3  UNL     1      -0.422   0.423  -0.410  1.00  0.00    -0.214 N 
HETATM   16  C4  UNL     1       0.484   1.484  -0.035  1.00  0.00     0.161 C 
HETATM   17  C3  UNL     1       1.767   0.813   0.503  1.00  0.00     0.147 C 
HETATM   18  N2  UNL     1       2.324  -0.026  -0.522  1.00  0.00    -0.344 N 
HETATM   19  C12 UNL     1       1.425  -0.361  -1.662  1.00  0.00     0.147 C 
HETATM   20  C11 UNL     1       0.057  -0.735  -1.098  1.00  0.00     0.161 C 
BRANCH  18  21
HETATM   21  C2  UNL     1       3.602  -0.579  -0.600  1.00  0.00     0.221 C 
BRANCH  21  22
HETATM   22  N1  UNL     1       4.638  -0.430   0.333  1.00  0.00    -0.289 N 
HETATM   23  C1  UNL     1       4.548   0.321   1.534  1.00  0.00     0.159 C 
BRANCH  22  24
HETATM   24  C13 UNL     1       5.940  -1.093   0.077  1.00  0.00     0.322 C 
HETATM   25  C14 UNL     1       6.433  -0.511  -1.244  1.00  0.00     0.117 C 
HETATM   26  F1  UNL     1       5.791  -2.450  -0.018  1.00  0.00    -0.183 F 
HETATM   27  F2  UNL     1       6.809  -0.787   1.091  1.00  0.00    -0.183 F 
ENDBRANCH  22  24
ENDBRANCH  21  22
BRANCH  21  28
HETATM   28  O1  UNL     1       3.859  -1.315  -1.658  1.00  0.00    -0.332 OA
ATOM     29  H1  UNL     1       3.157  -1.416  -2.290  1.00  0.00     0.220 HD
ENDBRANCH  21  28
ENDBRANCH  18  21
ENDBRANCH   1  15
BRANCH   9  30
HETATM   30  N6  UNL     1      -7.429  -0.336   0.530  1.00  0.00    -0.234 N 
ATOM     31  H62 UNL     1      -8.232   0.148   0.932  1.00  0.00     0.174 HD
ATOM     32  H61 UNL     1      -7.560  -1.245   0.086  1.00  0.00     0.174 HD
ENDBRANCH   9  30
TORSDOF 6
