REMARK  1 active torsions:
REMARK  status: ('A' for Active; 'I' for Inactive)
REMARK    1  A    between atoms: C7_13  and  N3_14 
ROOT
HETATM    1  O1  UNL     1      -5.982  -3.287  -0.483  1.00  0.00    -0.264 OA
HETATM    2  C1  UNL     1      -5.312  -2.215  -0.524  1.00  0.00     0.297 C 
HETATM    3  N1  UNL     1      -5.689  -0.960  -1.098  1.00  0.00    -0.288 N 
ATOM      4  H1  UNL     1      -6.576  -0.763  -1.562  1.00  0.00     0.172 HD
HETATM    5  C2  UNL     1      -4.616  -0.022  -0.915  1.00  0.00     0.266 C 
HETATM    6  O2  UNL     1      -4.491   1.018  -1.588  1.00  0.00    -0.269 OA
HETATM    7  C3  UNL     1      -3.793  -0.575   0.174  1.00  0.00     0.213 A 
HETATM    8  N2  UNL     1      -3.979  -0.012   1.470  1.00  0.00    -0.361 N 
ATOM      9  H2  UNL     1      -4.754   0.032   2.131  1.00  0.00     0.161 HD
HETATM   10  C4  UNL     1      -2.638   0.464   1.462  1.00  0.00     0.039 A 
HETATM   11  C5  UNL     1      -1.602   1.135   2.080  1.00  0.00     0.032 A 
HETATM   12  C6  UNL     1      -0.382   1.254   1.425  1.00  0.00     0.031 A 
HETATM   13  C7  UNL     1      -0.150   0.724   0.163  1.00  0.00     0.030 A 
HETATM   14  C15 UNL     1      -1.194   0.057  -0.440  1.00  0.00     0.042 A 
HETATM   15  C16 UNL     1      -2.405  -0.062   0.209  1.00  0.00     0.016 A 
HETATM   16  C17 UNL     1      -3.953  -2.021   0.026  1.00  0.00     0.259 C 
HETATM   17  O4  UNL     1      -3.172  -2.980   0.279  1.00  0.00    -0.283 OA
ENDROOT
BRANCH  13  18
HETATM   18  N3  UNL     1       1.079   0.843  -0.515  1.00  0.00    -0.380 N 
HETATM   19  C8  UNL     1       1.202   0.076  -1.718  1.00  0.00     0.128 C 
HETATM   20  C9  UNL     1       2.570   0.158  -2.334  1.00  0.00     0.068 C 
HETATM   21  C10 UNL     1       3.684  -0.185  -1.414  1.00  0.00     0.013 A 
HETATM   22  S1  UNL     1       5.066  -1.076  -1.902  1.00  0.00    -0.016 SA
HETATM   23  C12 UNL     1       3.960   0.046  -0.091  1.00  0.00     0.026 A 
HETATM   24  N4  UNL     1       5.904  -1.111  -0.444  1.00  0.00    -0.293 N 
HETATM   25  C11 UNL     1       5.112  -0.441   0.389  1.00  0.00     0.259 A 
ATOM     26  H4  UNL     1       6.806  -1.544  -0.245  1.00  0.00     0.177 HD
HETATM   27  O3  UNL     1       5.489  -0.292   1.613  1.00  0.00    -0.267 OA
HETATM   28  C13 UNL     1       3.016   0.820   0.819  1.00  0.00     0.065 C 
HETATM   29  C14 UNL     1       2.122   1.702   0.010  1.00  0.00     0.128 C 
ENDBRANCH  13  18
TORSDOF 1
