REMARK  1 active torsions:
REMARK  status: ('A' for Active; 'I' for Inactive)
REMARK    1  A    between atoms: C13_22  and  N5_23 
ROOT
HETATM    1  N5  UNL     1       3.803  -0.295   0.191  1.00  0.00    -0.375 N 
HETATM    2  C14 UNL     1       4.225   0.548   1.291  1.00  0.00     0.143 C 
HETATM    3  C15 UNL     1       5.215   1.593   0.809  1.00  0.00     0.154 C 
HETATM    4  N6  UNL     1       6.202   0.994  -0.065  1.00  0.00    -0.317 N 
HETATM    5  C16 UNL     1       7.188   1.794  -0.624  1.00  0.00     0.179 C 
HETATM    6  N7  UNL     1       8.013   2.444  -1.085  1.00  0.00    -0.172 NA
HETATM    7  C17 UNL     1       6.141  -0.439  -0.339  1.00  0.00     0.154 C 
HETATM    8  C18 UNL     1       4.739  -0.731  -0.830  1.00  0.00     0.143 C 
ENDROOT
BRANCH   1   9
HETATM    9  C13 UNL     1       2.456  -0.725   0.070  1.00  0.00     0.070 A 
HETATM   10  C12 UNL     1       2.179  -2.064   0.075  1.00  0.00     0.035 A 
HETATM   11  C11 UNL     1       0.877  -2.452  -0.042  1.00  0.00     0.032 A 
HETATM   12  C10 UNL     1      -0.203  -1.538  -0.167  1.00  0.00     0.041 A 
HETATM   13  N1  UNL     1      -1.502  -2.107  -0.277  1.00  0.00    -0.383 N 
HETATM   14  C9  UNL     1       0.084  -0.191  -0.172  1.00  0.00     0.035 A 
HETATM   15  C1  UNL     1      -1.661  -3.186  -1.264  1.00  0.00     0.149 C 
HETATM   16  C2  UNL     1      -2.683  -1.755   0.493  1.00  0.00     0.150 C 
HETATM   17  C3  UNL     1      -3.964  -1.903  -0.244  1.00  0.00     0.252 C 
HETATM   18  N2  UNL     1      -4.647  -0.713  -0.612  1.00  0.00    -0.072 N 
HETATM   19  C4  UNL     1      -5.085   0.006   0.561  1.00  0.00     0.251 C 
ATOM     20  H22 UNL     1      -4.082  -0.127  -1.226  1.00  0.00     0.277 HD
ATOM     21  H21 UNL     1      -5.420  -0.902  -1.250  1.00  0.00     0.277 HD
HETATM   22  C5  UNL     1      -5.013   1.510   0.381  1.00  0.00     0.141 C 
HETATM   23  N3  UNL     1      -4.074   1.912  -0.607  1.00  0.00    -0.418 N 
HETATM   24  C6  UNL     1      -3.007   2.759  -0.141  1.00  0.00     0.141 C 
ATOM     25  H3  UNL     1      -4.151   1.620  -1.581  1.00  0.00     0.153 HD
HETATM   26  C7  UNL     1      -2.308   2.282   1.072  1.00  0.00     0.251 C 
HETATM   27  N4  UNL     1      -1.001   1.713   0.858  1.00  0.00    -0.070 N 
HETATM   28  C8  UNL     1      -0.902   0.910  -0.319  1.00  0.00     0.276 C 
ATOM     29  H42 UNL     1      -0.289   2.443   0.854  1.00  0.00     0.277 HD
ATOM     30  H41 UNL     1      -0.702   1.185   1.678  1.00  0.00     0.277 HD
HETATM   31  C19 UNL     1       1.418   0.186  -0.052  1.00  0.00     0.153 A 
HETATM   32  F1  UNL     1       1.702   1.525  -0.063  1.00  0.00    -0.203 F 
ENDBRANCH   1   9
TORSDOF 1
