REMARK  1 active torsions:
REMARK  status: ('A' for Active; 'I' for Inactive)
REMARK    1  A    between atoms: C10_18  and  C11_19 
REMARK       I    between atoms: C11_19  and  N3_21 
ROOT
HETATM    1  N1  UNL     1      -2.493   0.886  -4.270  1.00  0.00    -0.386 N 
ATOM      2  H11 UNL     1      -2.362   1.862  -4.535  1.00  0.00     0.157 HD
ATOM      3  H12 UNL     1      -3.247   0.537  -4.862  1.00  0.00     0.157 HD
HETATM    4  C1  UNL     1      -1.863   0.232  -3.396  1.00  0.00     0.119 C 
HETATM    5  N2  UNL     1      -2.044  -1.120  -3.029  1.00  0.00    -0.250 N 
ATOM      6  H2  UNL     1      -2.735  -1.740  -3.452  1.00  0.00     0.196 HD
HETATM    7  O1  UNL     1      -1.189  -1.493  -2.047  1.00  0.00    -0.236 OA
HETATM    8  C2  UNL     1      -0.691  -0.319  -1.494  1.00  0.00     0.230 C 
HETATM    9  O2  UNL     1      -1.540   0.048  -0.467  1.00  0.00    -0.314 OA
HETATM   10  C3  UNL     1      -1.781  -0.964   0.447  1.00  0.00     0.167 C 
HETATM   11  C4  UNL     1      -1.695  -0.329   1.819  1.00  0.00     0.068 C 
HETATM   12  C5  UNL     1      -2.918   0.418   2.200  1.00  0.00     0.005 C 
HETATM   13  C6  UNL     1      -3.796   0.853   1.053  1.00  0.00     0.000 C 
HETATM   14  C7  UNL     1      -4.124  -0.293   0.124  1.00  0.00     0.005 C 
HETATM   15  C8  UNL     1      -3.213  -1.477   0.350  1.00  0.00     0.068 C 
HETATM   16  O3  UNL     1      -0.870  -1.970   0.262  1.00  0.00    -0.354 OA
HETATM   17  C9  UNL     1       0.441  -1.510   0.271  1.00  0.00     0.191 C 
HETATM   18  C10 UNL     1       0.651  -0.575  -0.911  1.00  0.00     0.168 C 
HETATM   19  C16 UNL     1      -0.769   0.738  -2.537  1.00  0.00     0.216 C 
HETATM   20 CL1  UNL     1       0.670   0.895  -3.536  1.00  0.00    -0.111 Cl
ENDROOT
BRANCH  18  21
HETATM   21  C11 UNL     1       1.354   0.619  -0.437  1.00  0.00     0.231 C 
HETATM   22  O4  UNL     1       0.774   1.730  -0.537  1.00  0.00    -0.273 OA
HETATM   23  N3  UNL     1       2.652   0.609   0.130  1.00  0.00    -0.348 N 
HETATM   24  C12 UNL     1       3.313   1.816   0.590  1.00  0.00     0.153 C 
HETATM   25  C15 UNL     1       3.421  -0.628   0.291  1.00  0.00     0.153 C 
HETATM   26  C13 UNL     1       4.296   1.417   1.676  1.00  0.00     0.252 C 
HETATM   27  N4  UNL     1       5.367   0.587   1.145  1.00  0.00    -0.072 N 
HETATM   28  C14 UNL     1       4.884  -0.237   0.079  1.00  0.00     0.252 C 
ATOM     29  H42 UNL     1       6.171   1.145   0.858  1.00  0.00     0.277 HD
ATOM     30  H41 UNL     1       5.817   0.036   1.876  1.00  0.00     0.277 HD
ENDBRANCH  18  21
TORSDOF 1
