REMARK  2 active torsions:
REMARK  status: ('A' for Active; 'I' for Inactive)
REMARK    1  A    between atoms: C13_17  and  C15_20 
REMARK    2  A    between atoms: C16_21  and  O2_22 
ROOT
HETATM    1  N1  UNL     1      -1.397  -0.134  -2.878  1.00  0.00    -0.195 NA
HETATM    2  C1  UNL     1      -0.826  -0.408  -1.887  1.00  0.00     0.087 C 
HETATM    3  C2  UNL     1      -0.079  -0.779  -0.623  1.00  0.00     0.166 C 
HETATM    4  C3  UNL     1       0.852  -1.823  -1.125  1.00  0.00     0.087 C 
HETATM    5  N2  UNL     1       1.580  -2.654  -1.545  1.00  0.00    -0.195 NA
HETATM    6  C4  UNL     1      -1.118  -1.434   0.193  1.00  0.00     0.082 C 
HETATM    7  C5  UNL     1      -2.343  -0.553   0.076  1.00  0.00    -0.039 A 
HETATM    8  C6  UNL     1      -3.464  -1.194  -0.385  1.00  0.00     0.050 A 
HETATM    9  C7  UNL     1      -4.598  -0.418  -0.504  1.00  0.00     0.117 A 
HETATM   10  F1  UNL     1      -5.771  -0.970  -0.958  1.00  0.00    -0.206 F 
HETATM   11  C8  UNL     1      -4.612   0.925  -0.182  1.00  0.00     0.043 A 
HETATM   12  C9  UNL     1      -3.469   1.541   0.279  1.00  0.00     0.018 A 
HETATM   13  C10 UNL     1      -2.304   0.787   0.412  1.00  0.00     0.016 A 
HETATM   14  C11 UNL     1      -1.181   1.589   0.913  1.00  0.00     0.162 C 
HETATM   15  O1  UNL     1      -1.339   2.802   1.087  1.00  0.00    -0.292 OA
HETATM   16  C12 UNL     1       0.153   0.943   1.211  1.00  0.00     0.116 C 
HETATM   17  C13 UNL     1       0.650   0.406  -0.146  1.00  0.00     0.126 C 
HETATM   18  C14 UNL     1       0.324   1.526  -1.042  1.00  0.00     0.078 C 
HETATM   19  N3  UNL     1       0.014   2.427  -1.760  1.00  0.00    -0.196 NA
ENDROOT
BRANCH  17  20
HETATM   20  C15 UNL     1       2.108   0.267   0.025  1.00  0.00     0.087 A 
HETATM   21  C16 UNL     1       2.622  -0.653   0.949  1.00  0.00     0.157 A 
HETATM   22  N4  UNL     1       3.938  -0.846   1.124  1.00  0.00    -0.288 N 
HETATM   23  C17 UNL     1       4.847  -0.166   0.424  1.00  0.00     0.329 A 
ATOM     24  H4  UNL     1       4.252  -1.531   1.811  1.00  0.00     0.172 HD
HETATM   25  O3  UNL     1       6.096  -0.354   0.596  1.00  0.00    -0.247 OA
HETATM   26  N5  UNL     1       4.407   0.725  -0.470  1.00  0.00    -0.275 N 
HETATM   27  C18 UNL     1       3.077   0.948  -0.677  1.00  0.00     0.261 A 
ATOM     28  H5  UNL     1       5.087   1.255  -1.015  1.00  0.00     0.173 HD
HETATM   29  O4  UNL     1       2.708   1.791  -1.524  1.00  0.00    -0.267 OA
BRANCH  21  30
HETATM   30  O2  UNL     1       1.785  -1.395   1.718  1.00  0.00    -0.345 OA
ATOM     31  H2  UNL     1       2.133  -2.019   2.344  1.00  0.00     0.219 HD
ENDBRANCH  21  30
ENDBRANCH  17  20
TORSDOF 2
