REMARK  5 active torsions:
REMARK  status: ('A' for Active; 'I' for Inactive)
REMARK    1  A    between atoms: C3_3  and  C4_4 
REMARK    2  A    between atoms: C4_4  and  C5_5 
REMARK    3  A    between atoms: C5_5  and  O2_7 
REMARK    4  A    between atoms: O2_7  and  C6_8 
REMARK    5  A    between atoms: C19_24  and  O6_25 
ROOT
HETATM    1  C6  UNL     1       0.997  -0.349   1.142  1.00  0.00     0.167 C 
HETATM    2  C7  UNL     1       0.805  -1.706   1.839  1.00  0.00     0.036 C 
HETATM    3  C8  UNL     1      -0.295  -1.322   2.809  1.00  0.00     0.016 C 
HETATM    4  C9  UNL     1      -1.267  -0.432   2.016  1.00  0.00     0.001 C 
HETATM    5  C10 UNL     1      -2.431  -1.275   1.680  1.00  0.00     0.016 C 
HETATM    6  C11 UNL     1      -3.455  -0.806   0.724  1.00  0.00     0.045 C 
HETATM    7  C12 UNL     1      -3.287  -1.074  -0.706  1.00  0.00     0.128 C 
HETATM    8  C13 UNL     1      -4.682  -1.073  -1.357  1.00  0.00     0.052 C 
HETATM    9  O3  UNL     1      -2.835  -2.415  -0.818  1.00  0.00    -0.224 OA
HETATM   10  O4  UNL     1      -1.752  -2.437  -1.519  1.00  0.00    -0.204 OA
HETATM   11  C14 UNL     1      -1.099  -1.182  -1.309  1.00  0.00     0.335 C 
HETATM   12  O5  UNL     1      -0.692  -1.200  -0.068  1.00  0.00    -0.340 OA
HETATM   13  C15 UNL     1      -0.465  -0.148   0.739  1.00  0.00     0.103 C 
HETATM   14  C16 UNL     1      -0.843   1.201   0.326  1.00  0.00     0.031 C 
HETATM   15  C17 UNL     1      -0.821   1.500  -1.126  1.00  0.00     0.011 C 
HETATM   16  C18 UNL     1      -2.197   1.053  -1.659  1.00  0.00     0.047 C 
HETATM   17  C19 UNL     1      -2.380  -0.372  -1.586  1.00  0.00     0.143 C 
HETATM   18  C20 UNL     1      -0.125   2.243   1.203  1.00  0.00     0.086 C 
HETATM   19  C21 UNL     1      -0.609   1.915   2.575  1.00  0.00     0.128 C 
HETATM   20  O7  UNL     1      -0.210   2.561   3.510  1.00  0.00    -0.298 OA
HETATM   21  C22 UNL     1      -1.569   0.812   2.802  1.00  0.00     0.090 C 
ENDROOT
BRANCH   1  22
HETATM   22  O2  UNL     1       1.787  -0.448  -0.004  1.00  0.00    -0.313 OA
BRANCH  22  23
HETATM   23  C5  UNL     1       2.982   0.157  -0.260  1.00  0.00     0.262 C 
HETATM   24  O1  UNL     1       3.437   0.896   0.641  1.00  0.00    -0.265 OA
BRANCH  23  25
HETATM   25  C4  UNL     1       3.755  -0.009  -1.524  1.00  0.00     0.138 C 
BRANCH  25  26
HETATM   26  C3  UNL     1       5.007   0.793  -1.462  1.00  0.00    -0.021 C 
HETATM   27  C2  UNL     1       6.197   0.235  -1.560  1.00  0.00    -0.034 C 
HETATM   28  C1  UNL     1       7.439   1.045  -1.497  1.00  0.00     0.036 C 
ENDBRANCH  25  26
ENDBRANCH  23  25
ENDBRANCH  22  23
ENDBRANCH   1  22
BRANCH  17  29
HETATM   29  O6  UNL     1      -2.712  -0.803  -2.910  1.00  0.00    -0.381 OA
ATOM     30  H6  UNL     1      -2.116  -0.342  -3.488  1.00  0.00     0.211 HD
ENDBRANCH  17  29
TORSDOF 5
