REMARK  4 active torsions:
REMARK  status: ('A' for Active; 'I' for Inactive)
REMARK    1  A    between atoms: C3_3  and  C4_4 
REMARK    2  A    between atoms: C5_5  and  O1_6 
REMARK    3  A    between atoms: C13_17  and  O4_19 
REMARK    4  A    between atoms: O4_19  and  C15_20 
ROOT
HETATM    1  C4  UNL     1      -2.109  -0.465  -0.284  1.00  0.00     0.049 C 
HETATM    2  C5  UNL     1      -2.109  -1.232  -1.526  1.00  0.00     0.163 C 
HETATM    3  C6  UNL     1      -0.887  -1.449  -2.310  1.00  0.00     0.231 C 
HETATM    4  O2  UNL     1      -0.586  -0.268  -3.029  1.00  0.00    -0.306 OA
HETATM    5  C7  UNL     1      -0.800   1.026  -2.601  1.00  0.00     0.260 C 
HETATM    6  O3  UNL     1      -0.732   1.847  -3.600  1.00  0.00    -0.265 OA
HETATM    7  C8  UNL     1      -1.075   1.607  -1.296  1.00  0.00     0.121 C 
HETATM    8  C9  UNL     1      -1.173   0.702  -0.117  1.00  0.00    -0.019 C 
HETATM    9  C10 UNL     1      -2.007   1.594   0.883  1.00  0.00     0.017 C 
HETATM   10  C11 UNL     1       0.036   0.432   0.653  1.00  0.00     0.035 C 
HETATM   11  C12 UNL     1       1.132   1.374   0.097  1.00  0.00     0.077 C 
HETATM   12  C13 UNL     1       2.412   0.807   0.693  1.00  0.00     0.171 C 
HETATM   13  C14 UNL     1       2.824   1.513   1.951  1.00  0.00     0.079 C 
HETATM   14  O6  UNL     1       2.162  -0.510   0.805  1.00  0.00    -0.343 OA
HETATM   15  C17 UNL     1       0.785  -0.783   0.773  1.00  0.00     0.075 C 
HETATM   16  C18 UNL     1       0.550  -1.347   2.201  1.00  0.00     0.047 C 
HETATM   17  C19 UNL     1       0.611  -1.965  -0.093  1.00  0.00     0.089 C 
HETATM   18  C20 UNL     1       1.920  -2.794  -0.079  1.00  0.00     0.021 C 
HETATM   19  C21 UNL     1       0.305  -1.741  -1.484  1.00  0.00     0.165 C 
HETATM   20  O7  UNL     1       1.278  -1.796  -2.257  1.00  0.00    -0.295 OA
ENDROOT
BRANCH  12  21
HETATM   21  O4  UNL     1       3.503   0.962  -0.228  1.00  0.00    -0.284 OA
BRANCH  21  22
HETATM   22  C15 UNL     1       3.864   2.238  -0.641  1.00  0.00     0.257 C 
HETATM   23  C16 UNL     1       4.993   2.462  -1.598  1.00  0.00     0.126 C 
HETATM   24  O5  UNL     1       3.234   3.223  -0.203  1.00  0.00    -0.266 OA
ENDBRANCH  21  22
ENDBRANCH  12  21
BRANCH   1  25
HETATM   25  C3  UNL     1      -3.543  -0.074  -0.021  1.00  0.00    -0.023 C 
HETATM   26  C2  UNL     1      -4.228  -0.644   0.947  1.00  0.00    -0.034 C 
HETATM   27  C1  UNL     1      -3.708  -1.692   1.862  1.00  0.00     0.036 C 
ENDBRANCH   1  25
BRANCH   2  28
HETATM   28  O1  UNL     1      -2.875  -2.416  -1.369  1.00  0.00    -0.392 OA
ATOM     29  H1  UNL     1      -2.875  -2.915  -2.177  1.00  0.00     0.210 HD
ENDBRANCH   2  28
TORSDOF 4
