REMARK  7 active torsions:
REMARK  status: ('A' for Active; 'I' for Inactive)
REMARK    1  A    between atoms: C2_2  and  O2_4 
REMARK    2  A    between atoms: O2_4  and  C3_5 
REMARK    3  A    between atoms: C5_7  and  O3_8 
REMARK    4  A    between atoms: O3_8  and  C6_9 
REMARK    5  A    between atoms: C10_14  and  O5_15 
REMARK    6  A    between atoms: O5_15  and  C11_16 
REMARK    7  A    between atoms: C17_23  and  O7_24 
ROOT
HETATM    1  C3  UNL     1      -2.291  -0.375  -0.043  1.00  0.00     0.135 C 
HETATM    2  C4  UNL     1      -1.369  -1.504   0.291  1.00  0.00     0.066 C 
HETATM    3  C5  UNL     1      -0.148  -1.471  -0.601  1.00  0.00     0.146 C 
HETATM    4  C8  UNL     1       0.576  -0.159  -0.644  1.00  0.00     0.021 C 
HETATM    5  C9  UNL     1       0.743   0.134  -2.165  1.00  0.00     0.022 C 
HETATM    6  C10 UNL     1       1.944  -0.106  -0.098  1.00  0.00     0.147 C 
HETATM    7  C13 UNL     1       2.658   1.124  -0.701  1.00  0.00     0.061 C 
HETATM    8  C14 UNL     1       1.728   2.268  -0.799  1.00  0.00    -0.021 C 
HETATM    9  C15 UNL     1       0.456   2.228  -0.586  1.00  0.00    -0.071 C 
HETATM   10  C16 UNL     1      -0.413   3.415  -0.698  1.00  0.00     0.066 C 
HETATM   11  C17 UNL     1      -1.126   3.623   0.639  1.00  0.00     0.122 C 
HETATM   12  C18 UNL     1      -0.942   2.582   1.647  1.00  0.00     0.033 C 
HETATM   13  C19 UNL     1      -0.313   1.264   1.330  1.00  0.00     0.017 C 
HETATM   14  C20 UNL     1      -0.224   0.988  -0.142  1.00  0.00    -0.003 C 
HETATM   15  C21 UNL     1      -1.610   0.797  -0.701  1.00  0.00     0.047 C 
ENDROOT
BRANCH   1  16
HETATM   16  O2  UNL     1      -3.018  -0.054   1.116  1.00  0.00    -0.316 OA
BRANCH  16  17
HETATM   17  C2  UNL     1      -4.373  -0.124   1.264  1.00  0.00     0.255 C 
HETATM   18  C1  UNL     1      -4.968   0.258   2.570  1.00  0.00     0.126 C 
HETATM   19  O1  UNL     1      -5.058  -0.510   0.286  1.00  0.00    -0.266 OA
ENDBRANCH  16  17
ENDBRANCH   1  16
BRANCH   3  20
HETATM   20  O3  UNL     1       0.689  -2.540  -0.478  1.00  0.00    -0.315 OA
BRANCH  20  21
HETATM   21  C6  UNL     1       0.786  -3.614  -1.383  1.00  0.00     0.255 C 
HETATM   22  C7  UNL     1       1.688  -4.762  -1.234  1.00  0.00     0.126 C 
HETATM   23  O4  UNL     1       0.006  -3.483  -2.343  1.00  0.00    -0.266 OA
ENDBRANCH  20  21
ENDBRANCH   3  20
BRANCH   6  24
HETATM   24  O5  UNL     1       2.836  -1.150  -0.417  1.00  0.00    -0.315 OA
BRANCH  24  25
HETATM   25  C11 UNL     1       3.595  -1.767   0.566  1.00  0.00     0.255 C 
HETATM   26  C12 UNL     1       4.568  -2.854   0.357  1.00  0.00     0.126 C 
HETATM   27  O6  UNL     1       3.453  -1.369   1.762  1.00  0.00    -0.266 OA
ENDBRANCH  24  25
ENDBRANCH   6  24
BRANCH  11  28
HETATM   28  O7  UNL     1      -0.682   4.889   1.098  1.00  0.00    -0.395 OA
ATOM     29  H7  UNL     1      -1.125   5.018   1.928  1.00  0.00     0.210 HD
ENDBRANCH  11  28
TORSDOF 7
