REMARK  6 active torsions:
REMARK  status: ('A' for Active; 'I' for Inactive)
REMARK    1  A    between atoms: C2_2  and  O2_4 
REMARK    2  A    between atoms: O2_4  and  C3_5 
REMARK    3  A    between atoms: C10_12  and  C12_14 
REMARK    4  A    between atoms: C12_14  and  O3_15 
REMARK    5  A    between atoms: C14_19  and  O5_20 
REMARK    6  A    between atoms: O5_20  and  C15_21 
ROOT
HETATM    1  C3  UNL     1       3.194   0.683  -0.343  1.00  0.00     0.270 C 
HETATM    2  C4  UNL     1       1.761   1.022  -0.775  1.00  0.00     0.067 C 
HETATM    3  C5  UNL     1       0.949  -0.207  -0.638  1.00  0.00     0.005 C 
HETATM    4  C6  UNL     1       1.745  -1.362  -0.120  1.00  0.00     0.019 C 
HETATM    5  C7  UNL     1       0.897  -2.615  -0.300  1.00  0.00     0.008 C 
HETATM    6  C8  UNL     1      -0.338  -2.432   0.562  1.00  0.00     0.007 C 
HETATM    7  C9  UNL     1      -1.115  -1.274   0.019  1.00  0.00     0.012 C 
HETATM    8  C10 UNL     1      -2.476  -1.233   0.618  1.00  0.00     0.045 C 
HETATM    9  C11 UNL     1      -3.438  -1.997  -0.304  1.00  0.00     0.026 C 
HETATM   10  C13 UNL     1      -2.953   0.167   0.646  1.00  0.00     0.167 C 
HETATM   11  O4  UNL     1      -3.656   0.555   1.539  1.00  0.00    -0.294 OA
HETATM   12  C14 UNL     1      -2.507   1.047  -0.497  1.00  0.00     0.203 C 
HETATM   13  C17 UNL     1      -1.029   1.193  -0.400  1.00  0.00     0.050 C 
HETATM   14  C18 UNL     1      -0.327  -0.008   0.172  1.00  0.00    -0.032 C 
HETATM   15  C19 UNL     1       0.045   0.295   1.590  1.00  0.00     0.016 C 
HETATM   16  C20 UNL     1       2.972  -1.536  -0.968  1.00  0.00     0.125 C 
HETATM   17  C21 UNL     1       3.831  -2.603  -0.282  1.00  0.00     0.040 C 
HETATM   18  O7  UNL     1       3.666  -0.367  -1.139  1.00  0.00    -0.355 OA
ENDROOT
BRANCH   1  19
HETATM   19  O2  UNL     1       4.065   1.777  -0.569  1.00  0.00    -0.290 OA
BRANCH  19  20
HETATM   20  C2  UNL     1       4.784   2.373   0.459  1.00  0.00     0.257 C 
HETATM   21  C1  UNL     1       5.685   3.509   0.205  1.00  0.00     0.126 C 
HETATM   22  O1  UNL     1       4.676   1.940   1.656  1.00  0.00    -0.266 OA
ENDBRANCH  19  20
ENDBRANCH   1  19
BRANCH   8  23
HETATM   23  C12 UNL     1      -2.577  -1.887   1.969  1.00  0.00     0.181 C 
BRANCH  23  24
HETATM   24  O3  UNL     1      -3.923  -1.754   2.379  1.00  0.00    -0.400 OA
ATOM     25  H3  UNL     1      -3.987  -2.167   3.232  1.00  0.00     0.209 HD
ENDBRANCH  23  24
ENDBRANCH   8  23
BRANCH  12  26
HETATM   26  O5  UNL     1      -3.228   2.234  -0.394  1.00  0.00    -0.309 OA
BRANCH  26  27
HETATM   27  C15 UNL     1      -4.148   2.610  -1.348  1.00  0.00     0.255 C 
HETATM   28  C16 UNL     1      -4.880   3.874  -1.187  1.00  0.00     0.126 C 
HETATM   29  O6  UNL     1      -4.298   1.823  -2.316  1.00  0.00    -0.266 OA
ENDBRANCH  26  27
ENDBRANCH  12  26
TORSDOF 6
