REMARK  6 active torsions:
REMARK  status: ('A' for Active; 'I' for Inactive)
REMARK    1  A    between atoms: C13_13  and  C14_14 
REMARK    2  A    between atoms: C14_14  and  C15_15 
REMARK    3  A    between atoms: C15_15  and  O2_17 
REMARK    4  A    between atoms: C17_19  and  C19_21 
REMARK    5  A    between atoms: C19_21  and  O4_23 
REMARK    6  A    between atoms: C22_27  and  O6_28 
ROOT
HETATM    1  C1  UNL     1      -5.964   1.881   1.060  1.00  0.00     0.046 C 
HETATM    2  C2  UNL     1      -4.933   1.188   0.575  1.00  0.00     0.038 C 
HETATM    3  C3  UNL     1      -3.480   1.529   0.845  1.00  0.00     0.074 C 
HETATM    4  C4  UNL     1      -2.862   0.676  -0.210  1.00  0.00     0.064 C 
HETATM    5  C5  UNL     1      -3.713  -0.568  -0.004  1.00  0.00     0.136 C 
HETATM    6  C6  UNL     1      -3.336  -1.639  -0.931  1.00  0.00     0.034 C 
HETATM    7  C7  UNL     1      -1.880  -1.514  -1.421  1.00  0.00     0.016 C 
HETATM    8  C8  UNL     1      -1.020  -0.996  -0.255  1.00  0.00     0.006 C 
HETATM    9  C9  UNL     1      -1.330  -1.761   0.981  1.00  0.00     0.020 C 
HETATM   10  C10 UNL     1       0.481  -1.133  -0.592  1.00  0.00    -0.012 C 
HETATM   11  C11 UNL     1       0.780  -0.841  -2.003  1.00  0.00     0.021 C 
HETATM   12  C12 UNL     1       0.738  -2.641  -0.425  1.00  0.00     0.021 C 
HETATM   13  C13 UNL     1       1.229  -0.423   0.475  1.00  0.00    -0.040 C 
HETATM   14  C17 UNL     1       0.865   1.009   0.765  1.00  0.00     0.132 C 
HETATM   15  C18 UNL     1       1.286   1.220   2.266  1.00  0.00     0.039 C 
HETATM   16  C21 UNL     1      -0.607   1.203   0.724  1.00  0.00     0.184 C 
HETATM   17  O5  UNL     1      -1.047   2.015   1.541  1.00  0.00    -0.293 OA
HETATM   18  C22 UNL     1      -1.407   0.470  -0.220  1.00  0.00     0.134 C 
HETATM   19  O7  UNL     1      -4.995   0.052  -0.249  1.00  0.00    -0.350 OA
ENDROOT
BRANCH  13  20
HETATM   20  C14 UNL     1       2.592  -0.827   0.833  1.00  0.00     0.087 C 
BRANCH  20  21
HETATM   21  C15 UNL     1       3.710  -0.830  -0.058  1.00  0.00     0.282 C 
HETATM   22  O1  UNL     1       3.718  -0.483  -1.236  1.00  0.00    -0.260 OA
BRANCH  21  23
HETATM   23  O2  UNL     1       4.989  -1.266   0.375  1.00  0.00    -0.323 OA
HETATM   24  C16 UNL     1       6.096  -1.282  -0.466  1.00  0.00     0.213 C 
ENDBRANCH  21  23
ENDBRANCH  20  21
ENDBRANCH  13  20
BRANCH  14  25
HETATM   25  C19 UNL     1       1.547   2.076   0.084  1.00  0.00     0.278 C 
HETATM   26  O3  UNL     1       0.906   2.820  -0.686  1.00  0.00    -0.264 OA
BRANCH  25  27
HETATM   27  O4  UNL     1       2.886   2.400   0.178  1.00  0.00    -0.325 OA
HETATM   28  C20 UNL     1       3.497   3.463  -0.517  1.00  0.00     0.213 C 
ENDBRANCH  25  27
ENDBRANCH  14  25
BRANCH  18  29
HETATM   29  O6  UNL     1      -0.997   0.924  -1.514  1.00  0.00    -0.381 OA
ATOM     30  H6  UNL     1      -0.056   0.791  -1.520  1.00  0.00     0.211 HD
ENDBRANCH  18  29
TORSDOF 6
