REMARK  3 active torsions:
REMARK  status: ('A' for Active; 'I' for Inactive)
REMARK    1  A    between atoms: C2_2  and  C3_3 
REMARK    2  A    between atoms: C3_3  and  C4_4 
REMARK    3  A    between atoms: C4_4  and  C5_5 
ROOT
HETATM    1  C4  UNL     1      -0.211   0.118  -0.492  1.00  0.00     0.183 C 
HETATM    2  N1  UNL     1      -0.921  -1.120  -0.760  1.00  0.00    -0.058 N 
ATOM      3  H11 UNL     1      -0.292  -1.917  -0.859  1.00  0.00     0.278 HD
ATOM      4  H12 UNL     1      -1.326  -1.143  -1.696  1.00  0.00     0.278 HD
HETATM    5  C7  UNL     1      -1.893  -1.317   0.259  1.00  0.00     0.257 C 
HETATM    6  C8  UNL     1      -1.383  -0.551   1.460  1.00  0.00     0.149 C 
HETATM    7 CL2  UNL     1      -2.792  -0.033   2.407  1.00  0.00    -0.120 Cl
HETATM    8  C9  UNL     1      -0.721   0.646   0.763  1.00  0.00     0.168 C 
HETATM    9 CL3  UNL     1       0.350   1.426   1.867  1.00  0.00    -0.097 Cl
HETATM   10 CL4  UNL     1      -2.085   1.786   0.455  1.00  0.00    -0.097 Cl
ENDROOT
BRANCH   1  11
HETATM   11  C3  UNL     1       1.240  -0.143  -0.640  1.00  0.00     0.073 C 
BRANCH  11  12
HETATM   12  C2  UNL     1       1.848  -1.046   0.335  1.00  0.00    -0.034 C 
HETATM   13  C1  UNL     1       2.835  -0.675   1.138  1.00  0.00     0.007 C 
ENDBRANCH  11  12
ENDBRANCH   1  11
BRANCH   1  14
HETATM   14  C5  UNL     1      -0.595   1.067  -1.604  1.00  0.00     0.027 C 
HETATM   15  C6  UNL     1      -0.050   2.274  -1.675  1.00  0.00     0.083 C 
HETATM   16 CL1  UNL     1      -0.463   3.405  -2.942  1.00  0.00    -0.097 Cl
ENDBRANCH   1  14
TORSDOF 3
