REMARK  5 active torsions:
REMARK  status: ('A' for Active; 'I' for Inactive)
REMARK    1  A    between atoms: C2_2  and  C3_3 
REMARK    2  A    between atoms: C3_3  and  N1_5 
REMARK    3  A    between atoms: N1_5  and  N2_6 
REMARK    4  A    between atoms: N2_6  and  C5_8 
REMARK    5  A    between atoms: C5_8  and  C7_12 
ROOT
HETATM    1  C5  UNL     1       1.274  -0.408   1.477  1.00  0.00     0.079 C 
HETATM    2  C6  UNL     1       1.962  -1.434   1.088  1.00  0.00     0.128 C 
HETATM    3 CL1  UNL     1       1.135  -2.743   0.240  1.00  0.00    -0.069 Cl
HETATM    4 CL2  UNL     1       3.682  -1.617   1.366  1.00  0.00    -0.069 Cl
ENDROOT
BRANCH   1   5
HETATM    5  N2  UNL     1      -0.142  -0.369   1.204  1.00  0.00    -0.237 N 
ATOM      6  H2  UNL     1      -0.739  -0.420   2.030  1.00  0.00     0.201 HD
BRANCH   5   7
HETATM    7  N1  UNL     1      -0.764  -0.282   0.103  1.00  0.00    -0.335 NA
BRANCH   7   8
HETATM    8  C3  UNL     1      -1.310  -0.204  -0.934  1.00  0.00     0.082 C 
HETATM    9  C4  UNL     1      -0.548  -0.227  -2.240  1.00  0.00     0.082 C 
BRANCH   8  10
HETATM   10  C2  UNL     1      -2.812  -0.069  -1.155  1.00  0.00     0.065 C 
HETATM   11  C1  UNL     1      -3.343  -1.229  -1.963  1.00  0.00     0.012 C 
ENDBRANCH   8  10
ENDBRANCH   7   8
ENDBRANCH   5   7
ENDBRANCH   1   5
BRANCH   1  12
HETATM   12  C7  UNL     1       1.895   0.717   2.185  1.00  0.00     0.082 A 
HETATM   13  C8  UNL     1       3.172   1.324   1.613  1.00  0.00     0.057 A 
HETATM   14  C9  UNL     1       1.878   2.110   1.705  1.00  0.00     0.123 A 
HETATM   15 CL3  UNL     1       1.927   3.442   2.909  1.00  0.00    -0.101 Cl
HETATM   16 CL4  UNL     1       1.191   2.591   0.164  1.00  0.00    -0.101 Cl
ENDBRANCH   1  12
TORSDOF 5
