REMARK  13 active torsions:
REMARK  status: ('A' for Active; 'I' for Inactive)
REMARK    1  A    between atoms: C2_2  and  N1_3 
REMARK    2  A    between atoms: N1_3  and  C3_4 
REMARK    3  A    between atoms: N1_3  and  C5_6 
REMARK    4  A    between atoms: C5_6  and  C6_7 
REMARK    5  A    between atoms: C6_7  and  N2_8 
REMARK    6  A    between atoms: N2_8  and  C7_10 
REMARK    7  A    between atoms: C8_13  and  N4_14 
REMARK    8  A    between atoms: N4_14  and  C9_16 
REMARK    9  A    between atoms: C9_16  and  C10_17 
REMARK   10  A    between atoms: C18_26  and  S1_27 
REMARK   11  A    between atoms: S1_27  and  N5_28 
REMARK   12  A    between atoms: C21_35  and  O4_36 
REMARK   13  A    between atoms: C23_38  and  O5_39 
ROOT
HETATM    1  C10 UNL     1       3.186   1.271   0.241  1.00  0.00     0.006 A 
HETATM    2  C11 UNL     1       3.383   2.646  -0.008  1.00  0.00     0.051 A 
HETATM    3  C12 UNL     1       4.603   3.279  -0.072  1.00  0.00     0.075 A 
HETATM    4  O1  UNL     1       4.741   4.564  -0.289  1.00  0.00    -0.355 OA
HETATM    5  C13 UNL     1       4.851   5.812  -0.499  1.00  0.00     0.210 C 
HETATM    6  C14 UNL     1       5.737   2.435   0.112  1.00  0.00    -0.021 A 
HETATM    7  C15 UNL     1       7.066   3.059   0.069  1.00  0.00     0.052 C 
HETATM    8  C16 UNL     1       5.554   1.104   0.349  1.00  0.00    -0.029 A 
HETATM    9  C17 UNL     1       6.714   0.166   0.437  1.00  0.00     0.050 C 
HETATM   10  C18 UNL     1       4.271   0.502   0.427  1.00  0.00     0.097 A 
ENDROOT
BRANCH   1  11
HETATM   11  C9  UNL     1       1.820   0.808   0.359  1.00  0.00     0.102 C 
BRANCH  11  12
HETATM   12  N4  UNL     1       1.337  -0.404  -0.169  1.00  0.00    -0.350 N 
ATOM     13  H4  UNL     1       2.009  -1.134  -0.408  1.00  0.00     0.166 HD
BRANCH  12  14
HETATM   14  C8  UNL     1       0.105  -0.629  -0.361  1.00  0.00     0.133 A 
HETATM   15  N3  UNL     1      -0.943   0.168  -0.169  1.00  0.00    -0.176 N 
HETATM   16  C7  UNL     1      -2.189  -0.156  -0.066  1.00  0.00     0.680 A 
ATOM     17  H3  UNL     1      -0.735   1.164  -0.093  1.00  0.00     0.186 HD
HETATM   18  N6  UNL     1      -2.568  -1.453  -0.158  1.00  0.00    -0.191 N 
HETATM   19  C26 UNL     1      -1.598  -2.380  -0.345  1.00  0.00     0.066 A 
ATOM     20  H6  UNL     1      -3.549  -1.722  -0.089  1.00  0.00     0.184 HD
HETATM   21  C19 UNL     1      -0.320  -2.001  -0.452  1.00  0.00     0.039 A 
HETATM   22  C25 UNL     1      -1.975  -3.724  -0.256  1.00  0.00     0.070 A 
HETATM   23  C20 UNL     1       0.642  -2.986  -0.498  1.00  0.00     0.057 A 
HETATM   24  C21 UNL     1       0.313  -4.324  -0.411  1.00  0.00     0.102 A 
HETATM   25  C23 UNL     1      -1.041  -4.689  -0.280  1.00  0.00     0.103 A 
BRANCH  16  26
HETATM   26  N2  UNL     1      -3.184   0.660   0.123  1.00  0.00    -0.224 N 
ATOM     27  H2  UNL     1      -4.105   0.226   0.178  1.00  0.00     0.177 HD
BRANCH  26  28
HETATM   28  C6  UNL     1      -3.162   2.046   0.260  1.00  0.00     0.157 C 
BRANCH  28  29
HETATM   29  C5  UNL     1      -4.453   2.523   0.964  1.00  0.00     0.137 C 
BRANCH  29  30
HETATM   30  N1  UNL     1      -5.587   2.120   0.223  1.00  0.00    -0.412 N 
BRANCH  30  31
HETATM   31  C2  UNL     1      -6.702   3.018   0.127  1.00  0.00     0.112 C 
HETATM   32  C1  UNL     1      -7.643   3.035   1.262  1.00  0.00     0.026 C 
ENDBRANCH  30  31
BRANCH  30  33
HETATM   33  C3  UNL     1      -5.968   0.741   0.231  1.00  0.00     0.112 C 
HETATM   34  C4  UNL     1      -6.386   0.386  -1.186  1.00  0.00     0.026 C 
ENDBRANCH  30  33
ENDBRANCH  29  30
ENDBRANCH  28  29
ENDBRANCH  26  28
ENDBRANCH  16  26
BRANCH  24  35
HETATM   35  O4  UNL     1       1.211  -5.317  -0.455  1.00  0.00    -0.353 OA
HETATM   36  C22 UNL     1       2.443  -5.632  -0.797  1.00  0.00     0.210 C 
ENDBRANCH  24  35
BRANCH  25  37
HETATM   37  O5  UNL     1      -1.321  -6.018  -0.175  1.00  0.00    -0.353 OA
HETATM   38  C24 UNL     1      -2.511  -6.680  -0.025  1.00  0.00     0.210 C 
ENDBRANCH  25  37
ENDBRANCH  12  14
ENDBRANCH  11  12
ENDBRANCH   1  11
BRANCH  10  39
HETATM   39  S1  UNL     1       4.196  -1.145   0.949  1.00  0.00     0.258 S 
HETATM   40  O2  UNL     1       5.357  -1.369   1.972  1.00  0.00    -0.201 OA
HETATM   41  O3  UNL     1       2.987  -1.361   1.875  1.00  0.00    -0.201 OA
BRANCH  39  42
HETATM   42  N5  UNL     1       4.405  -2.319  -0.253  1.00  0.00    -0.324 N 
ATOM     43  H52 UNL     1       4.565  -2.054  -1.225  1.00  0.00     0.169 HD
ATOM     44  H51 UNL     1       4.361  -3.290   0.055  1.00  0.00     0.169 HD
ENDBRANCH  39  42
ENDBRANCH  10  39
TORSDOF 13
