REMARK  14 active torsions:
REMARK  status: ('A' for Active; 'I' for Inactive)
REMARK       I    between atoms: N1_2  and  C3_4 
REMARK    1  A    between atoms: C3_4  and  C4_6 
REMARK    2  A    between atoms: C4_6  and  C5_7 
REMARK    3  A    between atoms: C5_7  and  C6_8 
REMARK    4  A    between atoms: C6_8  and  C7_9 
REMARK    5  A    between atoms: C7_9  and  C8_10 
REMARK    6  A    between atoms: C8_10  and  O2_11 
REMARK    7  A    between atoms: C8_10  and  N2_13 
REMARK    8  A    between atoms: N2_13  and  C9_15 
REMARK    9  A    between atoms: C11_17  and  C12_18 
REMARK       I    between atoms: C12_18  and  N3_20 
REMARK   10  A    between atoms: N3_20  and  C13_21 
REMARK   11  A    between atoms: C13_21  and  C14_22 
REMARK   12  A    between atoms: C16_26  and  C17_27 
REMARK   13  A    between atoms: C17_27  and  C18_28 
REMARK       I    between atoms: C18_28  and  N5_30 
REMARK   14  A    between atoms: C23_37  and  C24_38 
ROOT
HETATM    1  C9  UNL     1      -1.328  -0.409  -0.720  1.00  0.00     0.049 A 
HETATM    2  C10 UNL     1      -0.199   0.282  -1.004  1.00  0.00     0.056 A 
HETATM    3  C11 UNL     1       0.635  -0.212  -1.935  1.00  0.00     0.089 A 
HETATM    4  S1  UNL     1      -0.134  -1.643  -2.432  1.00  0.00    -0.085 SA
HETATM    5  C23 UNL     1      -1.556  -1.570  -1.406  1.00  0.00     0.018 A 
ENDROOT
BRANCH   3   6
HETATM    6  C12 UNL     1       1.928   0.319  -2.477  1.00  0.00     0.328 C 
HETATM    7  O3  UNL     1       2.426  -0.368  -3.439  1.00  0.00    -0.251 OA
HETATM    8  N3  UNL     1       2.503   1.451  -1.959  1.00  0.00    -0.406 NA
BRANCH   8   9
HETATM    9  C13 UNL     1       3.094   2.579  -1.459  1.00  0.00     0.262 C 
BRANCH   9  10
HETATM   10  C14 UNL     1       4.449   2.220  -0.823  1.00  0.00    -0.011 A 
HETATM   11  C15 UNL     1       4.871   2.758   0.353  1.00  0.00     0.098 A 
HETATM   12  N4  UNL     1       6.044   2.496   0.928  1.00  0.00    -0.367 N 
HETATM   13  C16 UNL     1       6.939   1.625   0.337  1.00  0.00     0.042 A 
ATOM     14  H4  UNL     1       6.284   2.943   1.813  1.00  0.00     0.165 HD
HETATM   15  C21 UNL     1       6.549   1.066  -0.844  1.00  0.00     0.070 A 
HETATM   16  N6  UNL     1       7.433   0.184  -1.515  1.00  0.00    -0.100 NA
HETATM   17  C22 UNL     1       5.293   1.350  -1.455  1.00  0.00     0.039 A 
BRANCH  13  18
HETATM   18  C17 UNL     1       8.240   1.374   1.001  1.00  0.00     0.161 C 
BRANCH  18  19
HETATM   19  C18 UNL     1       8.339   0.016   1.624  1.00  0.00     0.224 C 
HETATM   20  O4  UNL     1       7.438  -0.794   1.465  1.00  0.00    -0.273 OA
HETATM   21  N5  UNL     1       9.497  -0.241   2.381  1.00  0.00    -0.361 N 
HETATM   22  C19 UNL     1      10.508   0.777   2.512  1.00  0.00     0.152 C 
HETATM   23  C20 UNL     1       9.669  -1.510   3.037  1.00  0.00     0.152 C 
ENDBRANCH  18  19
ENDBRANCH  13  18
ENDBRANCH   9  10
ENDBRANCH   8   9
ENDBRANCH   3   6
BRANCH   1  24
HETATM   24  N2  UNL     1      -2.150  -0.015   0.416  1.00  0.00    -0.340 N 
ATOM     25  H2  UNL     1      -2.404  -0.721   1.107  1.00  0.00     0.167 HD
BRANCH  24  26
HETATM   26  C8  UNL     1      -2.596   1.275   0.590  1.00  0.00     0.115 C 
BRANCH  26  27
HETATM   27  C7  UNL     1      -3.410   1.832   1.648  1.00  0.00     0.084 C 
BRANCH  27  28
HETATM   28  C6  UNL     1      -4.866   2.055   1.085  1.00  0.00     0.008 C 
BRANCH  28  29
HETATM   29  C5  UNL     1      -5.376   0.669   0.785  1.00  0.00     0.010 C 
BRANCH  29  30
HETATM   30  C4  UNL     1      -6.705   0.487   0.215  1.00  0.00     0.103 C 
BRANCH  30  31
HETATM   31  C3  UNL     1      -7.865   1.016   0.996  1.00  0.00     0.218 C 
HETATM   32  N1  UNL     1      -9.181   0.530   0.712  1.00  0.00    -0.361 N 
HETATM   33  C1  UNL     1     -10.296   1.040   1.449  1.00  0.00     0.152 C 
HETATM   34  C2  UNL     1      -9.421  -0.491  -0.315  1.00  0.00     0.152 C 
HETATM   35  O1  UNL     1      -7.747   1.872   1.892  1.00  0.00    -0.273 OA
ENDBRANCH  30  31
ENDBRANCH  29  30
ENDBRANCH  28  29
ENDBRANCH  27  28
ENDBRANCH  26  27
BRANCH  26  36
HETATM   36  O2  UNL     1      -2.266   2.165  -0.328  1.00  0.00    -0.349 OA
ATOM     37  H2  UNL     1      -1.731   1.799  -1.023  1.00  0.00     0.219 HD
ENDBRANCH  26  36
ENDBRANCH  24  26
ENDBRANCH   1  24
BRANCH   5  38
HETATM   38  C24 UNL     1      -2.718  -2.494  -1.479  1.00  0.00    -0.015 C 
HETATM   39  C25 UNL     1      -3.253  -3.138  -0.287  1.00  0.00     0.020 C 
HETATM   40  C26 UNL     1      -3.803  -1.953  -2.405  1.00  0.00     0.020 C 
HETATM   41  C27 UNL     1      -2.141  -3.690  -2.344  1.00  0.00     0.020 C 
ENDBRANCH   5  38
TORSDOF 14
