REMARK  12 active torsions:
REMARK  status: ('A' for Active; 'I' for Inactive)
REMARK    1  A    between atoms: C4_6  and  C5_7 
REMARK    2  A    between atoms: C5_7  and  N2_8 
REMARK    3  A    between atoms: N2_8  and  C6_9 
REMARK       I    between atoms: N2_8  and  C10_14 
REMARK    4  A    between atoms: C6_9  and  C7_10 
REMARK    5  A    between atoms: C7_10  and  N3_11 
REMARK       I    between atoms: C10_14  and  N4_16 
REMARK    6  A    between atoms: N4_16  and  C11_18 
REMARK    7  A    between atoms: C12_23  and  S1_24 
REMARK    8  A    between atoms: S1_24  and  C13_25 
REMARK    9  A    between atoms: C13_25  and  C14_26 
REMARK   10  A    between atoms: C14_26  and  C15_27 
REMARK   11  A    between atoms: C15_27  and  C16_28 
REMARK       I    between atoms: N9_34  and  C18_36 
REMARK   12  A    between atoms: C18_36  and  C19_38 
ROOT
HETATM    1  C11 UNL     1      -1.198  -1.013   1.069  1.00  0.00     0.169 A 
HETATM    2  N5  UNL     1      -0.245  -0.479   1.835  1.00  0.00    -0.278 N 
ATOM      3  H5  UNL     1      -0.351   0.461   2.216  1.00  0.00     0.189 HD
HETATM    4  N6  UNL     1       0.791  -1.160   2.079  1.00  0.00    -0.286 N 
ATOM      5  H6  UNL     1       1.522  -0.756   2.664  1.00  0.00     0.188 HD
HETATM    6  C12 UNL     1       0.954  -2.373   1.602  1.00  0.00     0.130 A 
HETATM    7  S3  UNL     1      -0.542  -2.546   0.710  1.00  0.00    -0.026 SA
ENDROOT
BRANCH   1   8
HETATM    8  N4  UNL     1      -2.336  -0.463   0.708  1.00  0.00    -0.287 N 
HETATM    9  C10 UNL     1      -3.204  -1.245  -0.127  1.00  0.00     0.324 C 
HETATM   10  N2  UNL     1      -3.980  -0.663  -1.154  1.00  0.00    -0.327 N 
HETATM   11  O1  UNL     1      -3.269  -2.484   0.069  1.00  0.00    -0.247 OA
ATOM     12  H4  UNL     1      -2.591   0.478   1.008  1.00  0.00     0.172 HD
BRANCH  10  13
HETATM   13  C5  UNL     1      -4.838  -1.481  -1.967  1.00  0.00     0.184 C 
BRANCH  13  14
HETATM   14  C4  UNL     1      -6.202  -1.645  -1.429  1.00  0.00     0.027 A 
HETATM   15  N1  UNL     1      -7.351  -1.875  -2.110  1.00  0.00    -0.367 N 
HETATM   16  C3  UNL     1      -8.394  -1.977  -1.277  1.00  0.00     0.095 A 
ATOM     17  H1  UNL     1      -7.413  -1.959  -3.125  1.00  0.00     0.165 HD
HETATM   18  C2  UNL     1      -7.933  -1.809   0.018  1.00  0.00    -0.045 A 
HETATM   19  C1  UNL     1      -8.770  -1.850   1.234  1.00  0.00     0.049 C 
HETATM   20  C22 UNL     1      -6.592  -1.608  -0.092  1.00  0.00     0.034 A 
ENDBRANCH  13  14
ENDBRANCH  10  13
BRANCH  10  21
HETATM   21  C6  UNL     1      -3.889   0.752  -1.391  1.00  0.00     0.158 C 
BRANCH  21  22
HETATM   22  C7  UNL     1      -4.852   1.591  -0.621  1.00  0.00     0.291 C 
BRANCH  22  23
HETATM   23  N3  UNL     1      -4.687   3.014  -0.908  1.00  0.00     0.081 N 
HETATM   24  C8  UNL     1      -3.446   3.521  -0.408  1.00  0.00     0.309 C 
HETATM   25  C9  UNL     1      -5.800   3.752  -0.339  1.00  0.00     0.309 C 
ENDBRANCH  22  23
ENDBRANCH  21  22
ENDBRANCH  10  21
ENDBRANCH   1   8
BRANCH   6  26
HETATM   26  S1  UNL     1       2.260  -3.570   1.752  1.00  0.00    -0.103 SA
BRANCH  26  27
HETATM   27  C13 UNL     1       3.441  -3.456   0.452  1.00  0.00     0.082 C 
BRANCH  27  28
HETATM   28  C14 UNL     1       4.402  -2.343   0.398  1.00  0.00     0.017 C 
BRANCH  28  29
HETATM   29  C15 UNL     1       3.929  -0.950   0.298  1.00  0.00     0.067 C 
BRANCH  29  30
HETATM   30  C16 UNL     1       5.180  -0.085   0.200  1.00  0.00     0.069 A 
HETATM   31  N7  UNL     1       5.873   0.458   1.186  1.00  0.00    -0.296 N 
HETATM   32  N8  UNL     1       6.901   1.159   0.929  1.00  0.00    -0.279 N 
ATOM     33  H7  UNL     1       5.582   0.314   2.153  1.00  0.00     0.187 HD
HETATM   34  C17 UNL     1       7.260   1.332  -0.345  1.00  0.00     0.167 A 
ATOM     35  H8  UNL     1       7.442   1.582   1.683  1.00  0.00     0.189 HD
HETATM   36  N9  UNL     1       8.276   2.010  -0.828  1.00  0.00    -0.306 N 
HETATM   37  S2  UNL     1       6.051   0.439  -1.167  1.00  0.00    -0.038 SA
HETATM   38  C18 UNL     1       9.118   2.653   0.108  1.00  0.00     0.227 C 
ATOM     39  H9  UNL     1       8.449   2.070  -1.831  1.00  0.00     0.171 HD
HETATM   40  O2  UNL     1       8.714   3.713   0.631  1.00  0.00    -0.273 OA
BRANCH  38  41
HETATM   41  C19 UNL     1      10.461   2.089   0.473  1.00  0.00     0.078 A 
HETATM   42  C20 UNL     1      11.288   1.520  -0.640  1.00  0.00     0.015 A 
HETATM   43  C21 UNL     1      10.571   0.619   0.330  1.00  0.00     0.015 A 
ENDBRANCH  38  41
ENDBRANCH  29  30
ENDBRANCH  28  29
ENDBRANCH  27  28
ENDBRANCH  26  27
ENDBRANCH   6  26
TORSDOF 12
