REMARK  17 active torsions:
REMARK  status: ('A' for Active; 'I' for Inactive)
REMARK    1  A    between atoms: N1_1  and  C1_4 
REMARK    2  A    between atoms: N6_16  and  C5_17 
REMARK    3  A    between atoms: C5_17  and  C6_18 
REMARK    4  A    between atoms: C6_18  and  O1_19 
REMARK    5  A    between atoms: C6_18  and  C7_21 
REMARK    6  A    between atoms: C7_21  and  O2_22 
REMARK    7  A    between atoms: C7_21  and  C8_24 
REMARK    8  A    between atoms: C8_24  and  O3_25 
REMARK    9  A    between atoms: C8_24  and  C9_27 
REMARK   10  A    between atoms: C9_27  and  O4_28 
REMARK   11  A    between atoms: O4_28  and  C10_29 
REMARK   12  A    between atoms: C15_35  and  N7_36 
REMARK       I    between atoms: N7_36  and  C16_38 
REMARK   13  A    between atoms: C16_38  and  C17_40 
REMARK   14  A    between atoms: C18_42  and  N8_43 
REMARK       I    between atoms: N8_43  and  C19_45 
REMARK   15  A    between atoms: C19_45  and  C20_47 
REMARK   16  A    between atoms: N10_49  and  N11_50 
REMARK   17  A    between atoms: C21_53  and  N12_54 
ROOT
HETATM    1  C10 UNL     1       0.509  -1.409  -0.318  1.00  0.00     0.137 C 
HETATM    2  C11 UNL     1      -0.000  -2.079  -1.448  1.00  0.00     0.043 C 
HETATM    3  C12 UNL     1      -1.308  -2.423  -1.694  1.00  0.00     0.022 C 
HETATM    4  C13 UNL     1      -2.443  -1.990  -1.008  1.00  0.00     0.061 A 
HETATM    5  C14 UNL     1      -3.597  -2.103  -1.750  1.00  0.00     0.216 A 
HETATM    6  O5  UNL     1      -3.505  -2.585  -2.894  1.00  0.00    -0.285 OA
HETATM    7  C15 UNL     1      -4.789  -1.670  -1.166  1.00  0.00     0.131 A 
HETATM    8  C18 UNL     1      -4.860  -1.145   0.095  1.00  0.00     0.141 A 
HETATM    9  N13 UNL     1      -3.703  -1.044   0.813  1.00  0.00    -0.326 N 
ATOM     10  H13 UNL     1      -3.744  -0.656   1.755  1.00  0.00     0.169 HD
HETATM   11  C22 UNL     1      -2.527  -1.431   0.334  1.00  0.00     0.124 A 
HETATM   12  N14 UNL     1      -1.466  -1.267   1.151  1.00  0.00    -0.306 N 
ATOM     13  H14 UNL     1      -1.717  -1.035   2.112  1.00  0.00     0.170 HD
HETATM   14  C23 UNL     1      -0.132  -1.352   0.938  1.00  0.00     0.280 C 
HETATM   15  O8  UNL     1       0.640  -1.385   1.910  1.00  0.00    -0.265 OA
ENDROOT
BRANCH   1  16
HETATM   16  O4  UNL     1       1.651  -0.827  -0.501  1.00  0.00    -0.343 OA
BRANCH  16  17
HETATM   17  C9  UNL     1       2.794  -0.270  -0.774  1.00  0.00     0.210 C 
BRANCH  17  18
HETATM   18  C8  UNL     1       3.866  -1.191  -1.346  1.00  0.00     0.173 C 
BRANCH  18  19
HETATM   19  C7  UNL     1       4.985  -0.509  -2.024  1.00  0.00     0.179 C 
BRANCH  19  20
HETATM   20  C6  UNL     1       6.092  -0.164  -0.991  1.00  0.00     0.169 C 
BRANCH  20  21
HETATM   21  C5  UNL     1       7.228   0.433  -1.771  1.00  0.00     0.186 C 
BRANCH  21  22
HETATM   22  N6  UNL     1       8.416   0.660  -1.007  1.00  0.00    -0.257 N 
HETATM   23  C3  UNL     1       8.774   1.728  -0.276  1.00  0.00     0.157 A 
HETATM   24  N3  UNL     1       8.159   2.880   0.007  1.00  0.00    -0.335 N 
HETATM   25  C4  UNL     1      10.040   1.488   0.243  1.00  0.00     0.139 A 
HETATM   26  C2  UNL     1       8.765   3.804   0.792  1.00  0.00     0.183 A 
ATOM     27  H3  UNL     1       7.229   3.065  -0.369  1.00  0.00     0.168 HD
HETATM   28  N2  UNL     1      10.008   3.547   1.288  1.00  0.00    -0.337 N 
HETATM   29  C1  UNL     1      10.676   2.433   1.053  1.00  0.00     0.132 A 
ATOM     30  H2  UNL     1      10.448   4.256   1.875  1.00  0.00     0.168 HD
HETATM   31  N4  UNL     1      10.412   0.289  -0.183  1.00  0.00    -0.279 N 
HETATM   32  N5  UNL     1       9.440  -0.192  -0.922  1.00  0.00    -0.238 N 
ATOM     33  H4  UNL     1      11.295  -0.176   0.026  1.00  0.00     0.189 HD
ATOM     34  H5  UNL     1       9.464  -1.105  -1.376  1.00  0.00     0.208 HD
BRANCH  29  35
HETATM   35  N1  UNL     1      11.833   2.201   1.513  1.00  0.00    -0.383 N 
ATOM     36  H12 UNL     1      12.297   2.891   2.104  1.00  0.00     0.157 HD
ATOM     37  H11 UNL     1      12.349   1.340   1.331  1.00  0.00     0.157 HD
ENDBRANCH  29  35
ENDBRANCH  21  22
ENDBRANCH  20  21
BRANCH  20  38
HETATM   38  O1  UNL     1       6.495  -1.381  -0.416  1.00  0.00    -0.391 OA
ATOM     39  H1  UNL     1       5.776  -1.759   0.077  1.00  0.00     0.210 HD
ENDBRANCH  20  38
ENDBRANCH  19  20
BRANCH  19  40
HETATM   40  O2  UNL     1       5.630  -1.408  -2.897  1.00  0.00    -0.390 OA
ATOM     41  H2  UNL     1       4.953  -1.619  -3.529  1.00  0.00     0.210 HD
ENDBRANCH  19  40
ENDBRANCH  18  19
BRANCH  18  42
HETATM   42  O3  UNL     1       4.200  -2.198  -0.475  1.00  0.00    -0.391 OA
ATOM     43  H3  UNL     1       3.480  -2.637  -0.038  1.00  0.00     0.210 HD
ENDBRANCH  18  42
ENDBRANCH  17  18
ENDBRANCH  16  17
ENDBRANCH   1  16
BRANCH   7  44
HETATM   44  N7  UNL     1      -5.994  -1.775  -1.941  1.00  0.00    -0.320 N 
HETATM   45  C16 UNL     1      -6.390  -0.681  -2.779  1.00  0.00     0.236 C 
HETATM   46  O6  UNL     1      -5.703   0.364  -2.851  1.00  0.00    -0.272 OA
ATOM     47  H7  UNL     1      -6.563  -2.620  -1.896  1.00  0.00     0.169 HD
BRANCH  45  48
HETATM   48  C17 UNL     1      -7.628  -0.777  -3.576  1.00  0.00     0.217 C 
HETATM   49 CL1  UNL     1      -7.183  -1.515  -5.142  1.00  0.00    -0.121 Cl
ENDBRANCH  45  48
ENDBRANCH   7  44
BRANCH   8  50
HETATM   50  N8  UNL     1      -6.119  -0.718   0.616  1.00  0.00    -0.309 N 
HETATM   51  C19 UNL     1      -6.295  -0.142   1.901  1.00  0.00     0.247 C 
HETATM   52  O7  UNL     1      -5.298   0.007   2.629  1.00  0.00    -0.271 OA
ATOM     53  H8  UNL     1      -6.944  -0.834   0.027  1.00  0.00     0.170 HD
BRANCH  51  54
HETATM   54  C20 UNL     1      -7.686   0.238   2.265  1.00  0.00     0.235 C 
HETATM   55  N9  UNL     1      -7.865   0.842   3.545  1.00  0.00    -0.126 NA
HETATM   56  N10 UNL     1      -8.916   1.582   3.000  1.00  0.00    -0.116 NA
HETATM   57  C21 UNL     1      -8.150   1.580   1.749  1.00  0.00     0.324 C 
BRANCH  56  58
HETATM   58  N11 UNL     1      -9.105   2.851   3.500  1.00  0.00    -0.347 NA
ATOM     59 2H11 UNL     1      -9.638   2.852   4.370  1.00  0.00     0.172 HD
ATOM     60 1H11 UNL     1      -9.873   3.392   3.102  1.00  0.00     0.172 HD
ENDBRANCH  56  58
BRANCH  57  61
HETATM   61  N12 UNL     1      -8.986   1.489   0.577  1.00  0.00    -0.058 N 
ATOM     62 3H12 UNL     1      -8.518   0.961  -0.160  1.00  0.00     0.276 HD
ATOM     63 2H12 UNL     1      -9.781   0.874   0.748  1.00  0.00     0.276 HD
ATOM     64 1H12 UNL     1      -9.299   2.395   0.229  1.00  0.00     0.276 HD
ENDBRANCH  57  61
ENDBRANCH  51  54
ENDBRANCH   8  50
TORSDOF 17
