REMARK  23 active torsions:
REMARK  status: ('A' for Active; 'I' for Inactive)
REMARK    1  A    between atoms: C3_4  and  O1_5 
REMARK    2  A    between atoms: O1_5  and  C4_6 
REMARK    3  A    between atoms: C5_8  and  O3_9 
REMARK    4  A    between atoms: C6_11  and  O4_12 
REMARK    5  A    between atoms: C7_14  and  O5_15 
REMARK    6  A    between atoms: C8_17  and  C9_18 
REMARK    7  A    between atoms: C9_18  and  O6_19 
REMARK    8  A    between atoms: C10_22  and  C11_23 
REMARK    9  A    between atoms: C11_23  and  O8_24 
REMARK   10  A    between atoms: C12_26  and  O9_27 
REMARK   11  A    between atoms: C13_29  and  O10_30 
REMARK   12  A    between atoms: O10_30  and  C14_31 
REMARK   13  A    between atoms: C14_31  and  C15_32 
REMARK   14  A    between atoms: C15_32  and  C16_33 
REMARK   15  A    between atoms: C16_33  and  C17_34 
REMARK   16  A    between atoms: C17_34  and  O11_35 
REMARK   17  A    between atoms: O11_35  and  C18_36 
REMARK   18  A    between atoms: C19_38  and  C20_39 
REMARK   19  A    between atoms: C20_39  and  O13_40 
REMARK   20  A    between atoms: C21_42  and  O14_43 
REMARK   21  A    between atoms: C22_45  and  O15_46 
REMARK   22  A    between atoms: C23_48  and  O16_49 
REMARK   23  A    between atoms: C24_51  and  O17_52 
ROOT
HETATM    1  N1  UNL     1      -2.864  -2.758  -2.043  1.00  0.00    -0.197 NA
HETATM    2  C1  UNL     1      -2.690  -1.801  -1.380  1.00  0.00     0.071 C 
HETATM    3  C2  UNL     1      -2.449  -0.610  -0.567  1.00  0.00     0.179 C 
HETATM    4  C3  UNL     1      -3.745   0.068  -0.288  1.00  0.00     0.283 C 
HETATM    5  O7  UNL     1      -3.619   1.412  -0.648  1.00  0.00    -0.350 OA
HETATM    6  C10 UNL     1      -2.865   2.133   0.248  1.00  0.00     0.179 C 
HETATM    7  C12 UNL     1      -1.474   2.440  -0.290  1.00  0.00     0.180 C 
HETATM    8  C13 UNL     1      -0.664   1.171  -0.453  1.00  0.00     0.182 C 
HETATM    9  C24 UNL     1      -1.452   0.235  -1.317  1.00  0.00     0.172 C 
ENDROOT
BRANCH   4  10
HETATM   10  O1  UNL     1      -4.759  -0.551  -1.007  1.00  0.00    -0.329 OA
BRANCH  10  11
HETATM   11  C4  UNL     1      -5.747  -1.010  -0.179  1.00  0.00     0.275 C 
HETATM   12  O2  UNL     1      -5.938  -2.376  -0.324  1.00  0.00    -0.328 OA
HETATM   13  C5  UNL     1      -6.812  -2.905   0.590  1.00  0.00     0.291 C 
HETATM   14  C6  UNL     1      -7.495  -1.885   1.447  1.00  0.00     0.202 C 
HETATM   15  C7  UNL     1      -7.997  -0.695   0.697  1.00  0.00     0.162 C 
HETATM   16  C8  UNL     1      -7.084  -0.354  -0.461  1.00  0.00     0.096 C 
BRANCH  13  17
HETATM   17  O3  UNL     1      -6.077  -3.749   1.441  1.00  0.00    -0.368 OA
ATOM     18  H3  UNL     1      -6.683  -4.116   2.074  1.00  0.00     0.212 HD
ENDBRANCH  13  17
BRANCH  14  19
HETATM   19  O4  UNL     1      -8.624  -2.521   2.013  1.00  0.00    -0.388 OA
ATOM     20  H4  UNL     1      -9.057  -1.874   2.557  1.00  0.00     0.210 HD
ENDBRANCH  14  19
BRANCH  15  21
HETATM   21  O5  UNL     1      -7.959   0.413   1.572  1.00  0.00    -0.392 OA
ATOM     22  H5  UNL     1      -8.278   1.170   1.095  1.00  0.00     0.210 HD
ENDBRANCH  15  21
BRANCH  16  23
HETATM   23  C9  UNL     1      -7.709  -0.905  -1.729  1.00  0.00     0.176 C 
BRANCH  23  24
HETATM   24  O6  UNL     1      -6.853  -0.665  -2.825  1.00  0.00    -0.400 OA
ATOM     25  H6  UNL     1      -7.244  -1.010  -3.619  1.00  0.00     0.209 HD
ENDBRANCH  23  24
ENDBRANCH  16  23
ENDBRANCH  10  11
ENDBRANCH   4  10
BRANCH   9  26
HETATM   26  O17 UNL     1      -2.061   0.880  -2.364  1.00  0.00    -0.391 OA
ATOM     27  H17 UNL     1      -1.432   1.413  -2.837  1.00  0.00     0.210 HD
ENDBRANCH   9  26
BRANCH   8  28
HETATM   28  O10 UNL     1       0.587   1.453  -0.950  1.00  0.00    -0.381 OA
BRANCH  28  29
HETATM   29  C14 UNL     1       1.620   1.114  -0.084  1.00  0.00     0.168 C 
BRANCH  29  30
HETATM   30  C15 UNL     1       2.918   1.462  -0.729  1.00  0.00     0.028 C 
BRANCH  30  31
HETATM   31  C16 UNL     1       4.133   1.134   0.147  1.00  0.00     0.028 C 
BRANCH  31  32
HETATM   32  C17 UNL     1       4.145  -0.321   0.435  1.00  0.00     0.171 C 
BRANCH  32  33
HETATM   33  O11 UNL     1       5.216  -0.677   1.221  1.00  0.00    -0.359 OA
BRANCH  33  34
HETATM   34  C18 UNL     1       6.452  -0.426   0.676  1.00  0.00     0.291 C 
HETATM   35  O12 UNL     1       7.043  -1.702   0.468  1.00  0.00    -0.348 OA
HETATM   36  C19 UNL     1       8.324  -1.601  -0.031  1.00  0.00     0.179 C 
HETATM   37  C21 UNL     1       8.851  -0.208  -0.130  1.00  0.00     0.180 C 
HETATM   38  C22 UNL     1       8.726   0.467   1.204  1.00  0.00     0.183 C 
HETATM   39  C23 UNL     1       7.284   0.347   1.662  1.00  0.00     0.204 C 
BRANCH  36  40
HETATM   40  C20 UNL     1       8.424  -2.296  -1.388  1.00  0.00     0.198 C 
BRANCH  40  41
HETATM   41  O13 UNL     1       8.088  -3.657  -1.209  1.00  0.00    -0.398 OA
ATOM     42  H13 UNL     1       8.150  -4.089  -2.053  1.00  0.00     0.209 HD
ENDBRANCH  40  41
ENDBRANCH  36  40
BRANCH  37  43
HETATM   43  O14 UNL     1      10.209  -0.292  -0.451  1.00  0.00    -0.390 OA
ATOM     44  H14 UNL     1      10.544   0.595  -0.514  1.00  0.00     0.210 HD
ENDBRANCH  37  43
BRANCH  38  45
HETATM   45  O15 UNL     1       9.541  -0.217   2.132  1.00  0.00    -0.390 OA
ATOM     46  H15 UNL     1       9.462   0.210   2.977  1.00  0.00     0.210 HD
ENDBRANCH  38  45
BRANCH  39  47
HETATM   47  O16 UNL     1       6.777   1.622   1.814  1.00  0.00    -0.388 OA
ATOM     48  H16 UNL     1       7.303   2.110   2.437  1.00  0.00     0.210 HD
ENDBRANCH  39  47
ENDBRANCH  33  34
ENDBRANCH  32  33
ENDBRANCH  31  32
ENDBRANCH  30  31
ENDBRANCH  29  30
ENDBRANCH  28  29
ENDBRANCH   8  28
BRANCH   6  49
HETATM   49  C11 UNL     1      -3.547   3.467   0.474  1.00  0.00     0.198 C 
BRANCH  49  50
HETATM   50  O8  UNL     1      -4.837   3.295   0.989  1.00  0.00    -0.398 OA
ATOM     51  H8  UNL     1      -5.265   4.131   1.131  1.00  0.00     0.209 HD
ENDBRANCH  49  50
ENDBRANCH   6  49
BRANCH   7  52
HETATM   52  O9  UNL     1      -0.841   3.295   0.585  1.00  0.00    -0.390 OA
ATOM     53  H9  UNL     1       0.027   3.487   0.249  1.00  0.00     0.210 HD
ENDBRANCH   7  52
TORSDOF 23
