REMARK  21 active torsions:
REMARK  status: ('A' for Active; 'I' for Inactive)
REMARK    1  A    between atoms: N1_2  and  C2_5 
REMARK    2  A    between atoms: C2_5  and  C3_6 
REMARK    3  A    between atoms: C4_8  and  O2_9 
REMARK    4  A    between atoms: O2_9  and  C5_10 
REMARK    5  A    between atoms: C6_11  and  O3_12 
REMARK    6  A    between atoms: C7_14  and  C8_15 
REMARK    7  A    between atoms: C8_15  and  O4_16 
REMARK    8  A    between atoms: C9_19  and  O6_20 
REMARK    9  A    between atoms: O6_20  and  C10_21 
REMARK   10  A    between atoms: C11_23  and  O8_24 
REMARK   11  A    between atoms: O8_24  and  C12_25 
REMARK   12  A    between atoms: C13_27  and  C14_28 
REMARK   13  A    between atoms: C14_28  and  O10_29 
REMARK   14  A    between atoms: C15_31  and  O11_32 
REMARK   15  A    between atoms: C16_34  and  N2_35 
REMARK   16  A    between atoms: C17_39  and  O12_40 
REMARK   17  A    between atoms: C18_42  and  N3_43 
REMARK   18  A    between atoms: C20_48  and  N4_49 
REMARK   19  A    between atoms: C21_53  and  O13_54 
REMARK   20  A    between atoms: C22_56  and  O14_57 
REMARK   21  A    between atoms: C24_60  and  C25_61 
ROOT
HETATM    1  C10 UNL     1       1.533  -1.287   0.191  1.00  0.00     0.296 C 
HETATM    2  O7  UNL     1       2.595  -1.174   1.096  1.00  0.00    -0.327 OA
HETATM    3  C11 UNL     1       3.785  -1.453   0.458  1.00  0.00     0.296 C 
HETATM    4  C18 UNL     1       3.883  -2.891  -0.000  1.00  0.00     0.240 C 
HETATM    5  C19 UNL     1       2.653  -3.207  -0.816  1.00  0.00     0.075 C 
HETATM    6  C20 UNL     1       1.391  -2.786  -0.094  1.00  0.00     0.240 C 
ENDROOT
BRANCH   1   7
HETATM    7  O6  UNL     1       0.363  -0.763   0.679  1.00  0.00    -0.327 OA
BRANCH   7   8
HETATM    8  C9  UNL     1      -0.160   0.259  -0.144  1.00  0.00     0.294 C 
HETATM    9  O5  UNL     1      -0.232   1.390   0.616  1.00  0.00    -0.348 OA
HETATM   10  C7  UNL     1      -0.920   2.436   0.078  1.00  0.00     0.179 C 
HETATM   11  C6  UNL     1      -1.688   2.134  -1.162  1.00  0.00     0.181 C 
HETATM   12  C5  UNL     1      -2.442   0.841  -1.020  1.00  0.00     0.189 C 
HETATM   13  C21 UNL     1      -1.493  -0.243  -0.639  1.00  0.00     0.205 C 
BRANCH  10  14
HETATM   14  C8  UNL     1      -1.801   3.035   1.152  1.00  0.00     0.198 C 
BRANCH  14  15
HETATM   15  O4  UNL     1      -2.545   4.105   0.717  1.00  0.00    -0.398 OA
ATOM     16  H4  UNL     1      -3.098   4.481   1.391  1.00  0.00     0.209 HD
ENDBRANCH  14  15
ENDBRANCH  10  14
BRANCH  11  17
HETATM   17  O3  UNL     1      -0.872   2.089  -2.286  1.00  0.00    -0.390 OA
ATOM     18  H3  UNL     1      -0.396   2.906  -2.376  1.00  0.00     0.210 HD
ENDBRANCH  11  17
BRANCH  12  19
HETATM   19  O2  UNL     1      -3.516   0.959  -0.140  1.00  0.00    -0.348 OA
BRANCH  19  20
HETATM   20  C4  UNL     1      -4.745   0.787  -0.774  1.00  0.00     0.289 C 
HETATM   21  O1  UNL     1      -5.368  -0.318  -0.229  1.00  0.00    -0.351 OA
HETATM   22  C3  UNL     1      -6.740  -0.264  -0.272  1.00  0.00     0.157 C 
HETATM   23  C24 UNL     1      -7.299   0.812   0.653  1.00  0.00     0.048 C 
HETATM   24  C23 UNL     1      -6.426   2.046   0.589  1.00  0.00     0.046 C 
HETATM   25  C22 UNL     1      -5.570   2.050  -0.660  1.00  0.00     0.173 C 
BRANCH  22  26
HETATM   26  C2  UNL     1      -7.256  -1.595   0.290  1.00  0.00     0.264 C 
BRANCH  26  27
HETATM   27  N1  UNL     1      -6.774  -2.706  -0.504  1.00  0.00    -0.077 N 
HETATM   28  C1  UNL     1      -7.296  -3.918   0.077  1.00  0.00     0.267 C 
ATOM     29  H12 UNL     1      -5.758  -2.716  -0.597  1.00  0.00     0.276 HD
ATOM     30  H11 UNL     1      -6.998  -2.612  -1.495  1.00  0.00     0.276 HD
ENDBRANCH  26  27
ENDBRANCH  22  26
BRANCH  23  31
HETATM   31  C25 UNL     1      -8.729   1.134   0.304  1.00  0.00     0.229 C 
HETATM   32  F1  UNL     1      -9.159   2.111   1.181  1.00  0.00    -0.255 F 
ENDBRANCH  23  31
BRANCH  25  33
HETATM   33  O14 UNL     1      -6.349   2.265  -1.794  1.00  0.00    -0.391 OA
ATOM     34  H14 UNL     1      -6.867   3.058  -1.722  1.00  0.00     0.210 HD
ENDBRANCH  25  33
ENDBRANCH  19  20
ENDBRANCH  12  19
BRANCH  13  35
HETATM   35  O13 UNL     1      -2.024  -1.125   0.295  1.00  0.00    -0.388 OA
ATOM     36  H13 UNL     1      -1.419  -1.816   0.538  1.00  0.00     0.210 HD
ENDBRANCH  13  35
ENDBRANCH   7   8
ENDBRANCH   1   7
BRANCH   6  37
HETATM   37  N4  UNL     1       1.336  -3.533   1.155  1.00  0.00    -0.070 N 
ATOM     38  H43 UNL     1       2.137  -3.333   1.754  1.00  0.00     0.274 HD
ATOM     39  H42 UNL     1       0.599  -3.191   1.771  1.00  0.00     0.274 HD
ATOM     40  H41 UNL     1       1.241  -4.531   0.965  1.00  0.00     0.274 HD
ENDBRANCH   6  37
BRANCH   3  41
HETATM   41  O8  UNL     1       4.858  -1.107   1.271  1.00  0.00    -0.327 OA
BRANCH  41  42
HETATM   42  C12 UNL     1       5.646  -0.116   0.713  1.00  0.00     0.294 C 
HETATM   43  O9  UNL     1       6.901  -0.692   0.436  1.00  0.00    -0.348 OA
HETATM   44  C13 UNL     1       7.540   0.156  -0.462  1.00  0.00     0.179 C 
HETATM   45  C15 UNL     1       7.723   1.530   0.097  1.00  0.00     0.182 C 
HETATM   46  C16 UNL     1       7.295   1.514   1.558  1.00  0.00     0.247 C 
HETATM   47  C17 UNL     1       5.840   1.074   1.609  1.00  0.00     0.206 C 
BRANCH  44  48
HETATM   48  C14 UNL     1       8.852  -0.467  -0.896  1.00  0.00     0.198 C 
BRANCH  48  49
HETATM   49  O10 UNL     1       9.680  -0.674   0.181  1.00  0.00    -0.398 OA
ATOM     50  H10 UNL     1      10.502  -1.064  -0.091  1.00  0.00     0.209 HD
ENDBRANCH  48  49
ENDBRANCH  44  48
BRANCH  45  51
HETATM   51  O11 UNL     1       6.973   2.469  -0.626  1.00  0.00    -0.391 OA
ATOM     52  H11 UNL     1       7.089   3.342  -0.271  1.00  0.00     0.210 HD
ENDBRANCH  45  51
BRANCH  46  53
HETATM   53  N2  UNL     1       7.434   2.868   2.046  1.00  0.00    -0.070 N 
ATOM     54  H23 UNL     1       8.368   3.253   1.904  1.00  0.00     0.274 HD
ATOM     55  H22 UNL     1       6.926   3.552   1.485  1.00  0.00     0.274 HD
ATOM     56  H21 UNL     1       7.147   2.857   3.025  1.00  0.00     0.274 HD
ENDBRANCH  46  53
BRANCH  47  57
HETATM   57  O12 UNL     1       5.087   2.133   1.080  1.00  0.00    -0.388 OA
ATOM     58  H12 UNL     1       5.210   2.886   1.647  1.00  0.00     0.210 HD
ENDBRANCH  47  57
ENDBRANCH  41  42
ENDBRANCH   3  41
BRANCH   4  59
HETATM   59  N3  UNL     1       3.956  -3.812   1.095  1.00  0.00    -0.070 N 
ATOM     60  H33 UNL     1       4.723  -3.574   1.724  1.00  0.00     0.274 HD
ATOM     61  H32 UNL     1       3.173  -3.683   1.735  1.00  0.00     0.274 HD
ATOM     62  H31 UNL     1       4.022  -4.782   0.786  1.00  0.00     0.274 HD
ENDBRANCH   4  59
TORSDOF 21
