REMARK  22 active torsions:
REMARK  status: ('A' for Active; 'I' for Inactive)
REMARK    1  A    between atoms: C1_4  and  O1_5 
REMARK    2  A    between atoms: O1_5  and  C2_6 
REMARK    3  A    between atoms: C2_6  and  N2_8 
REMARK    4  A    between atoms: N2_8  and  C3_10 
REMARK    5  A    between atoms: C3_10  and  C4_11 
REMARK    6  A    between atoms: C5_13  and  C6_14 
REMARK    7  A    between atoms: C6_14  and  N3_15 
REMARK    8  A    between atoms: C7_19  and  O3_20 
REMARK    9  A    between atoms: C8_22  and  O4_23 
REMARK   10  A    between atoms: O4_23  and  C9_24 
REMARK   11  A    between atoms: C10_25  and  N4_26 
REMARK   12  A    between atoms: C12_31  and  N5_32 
REMARK   13  A    between atoms: C13_36  and  O5_37 
REMARK   14  A    between atoms: O5_37  and  C14_38 
REMARK   15  A    between atoms: C15_40  and  C16_41 
REMARK   16  A    between atoms: C16_41  and  N6_42 
REMARK   17  A    between atoms: C17_46  and  O7_47 
REMARK   18  A    between atoms: C18_49  and  O8_50 
REMARK   19  A    between atoms: C19_52  and  N7_53 
REMARK   20  A    between atoms: C20_57  and  O9_58 
REMARK   21  A    between atoms: O9_58  and  C21_59 
REMARK   22  A    between atoms: C21_59  and  C22_61 
ROOT
HETATM    1  C9  UNL     1       0.234  -1.009   1.180  1.00  0.00     0.187 C 
HETATM    2  C10 UNL     1      -0.408  -1.818   2.286  1.00  0.00     0.217 C 
HETATM    3  C11 UNL     1      -1.320  -0.898   3.036  1.00  0.00     0.071 C 
HETATM    4  C12 UNL     1      -1.864   0.240   2.255  1.00  0.00     0.217 C 
HETATM    5  C13 UNL     1      -1.980   0.082   0.791  1.00  0.00     0.187 C 
HETATM    6  C20 UNL     1      -0.891  -0.772   0.170  1.00  0.00     0.194 C 
ENDROOT
BRANCH   1   7
HETATM    7  O4  UNL     1       1.250  -1.717   0.552  1.00  0.00    -0.348 OA
BRANCH   7   8
HETATM    8  C8  UNL     1       2.453  -1.064   0.512  1.00  0.00     0.294 C 
HETATM    9  C7  UNL     1       2.951  -0.783  -0.885  1.00  0.00     0.204 C 
HETATM   10  C5  UNL     1       4.253  -0.013  -0.746  1.00  0.00     0.183 C 
HETATM   11  O2  UNL     1       5.126  -0.789  -0.018  1.00  0.00    -0.350 OA
HETATM   12  C4  UNL     1       4.641  -1.192   1.207  1.00  0.00     0.281 C 
HETATM   13  O11 UNL     1       3.426  -1.831   1.146  1.00  0.00    -0.327 OA
BRANCH   9  14
HETATM   14  O3  UNL     1       3.257  -1.995  -1.522  1.00  0.00    -0.388 OA
ATOM     15  H3  UNL     1       2.443  -2.477  -1.609  1.00  0.00     0.210 HD
ENDBRANCH   9  14
BRANCH  10  16
HETATM   16  C6  UNL     1       4.872   0.274  -2.096  1.00  0.00     0.264 C 
BRANCH  16  17
HETATM   17  N3  UNL     1       5.140  -0.941  -2.832  1.00  0.00    -0.077 N 
ATOM     18  H33 UNL     1       5.715  -1.585  -2.289  1.00  0.00     0.274 HD
ATOM     19  H32 UNL     1       4.301  -1.514  -2.922  1.00  0.00     0.274 HD
ATOM     20  H31 UNL     1       5.557  -0.747  -3.742  1.00  0.00     0.274 HD
ENDBRANCH  16  17
ENDBRANCH  10  16
BRANCH  12  21
HETATM   21  C3  UNL     1       4.672  -0.047   2.196  1.00  0.00     0.183 C 
BRANCH  21  22
HETATM   22  N2  UNL     1       6.070   0.376   2.321  1.00  0.00    -0.356 N 
ATOM     23  H2  UNL     1       6.804  -0.093   1.791  1.00  0.00     0.162 HD
BRANCH  22  24
HETATM   24  C2  UNL     1       6.382   1.446   3.190  1.00  0.00     0.216 C 
HETATM   25  S1  UNL     1       5.227   2.207   4.042  1.00  0.00    -0.033 SA
BRANCH  24  26
HETATM   26  O1  UNL     1       7.703   1.845   3.309  1.00  0.00    -0.280 OA
BRANCH  26  27
HETATM   27  C1  UNL     1       8.327   2.505   2.233  1.00  0.00     0.229 C 
HETATM   28  N1  UNL     1       8.028   2.103   1.050  1.00  0.00    -0.390 N 
ATOM     29  H12 UNL     1       7.366   1.339   0.913  1.00  0.00     0.157 HD
ATOM     30  H11 UNL     1       8.480   2.581   0.271  1.00  0.00     0.157 HD
ENDBRANCH  26  27
ENDBRANCH  24  26
ENDBRANCH  22  24
ENDBRANCH  21  22
ENDBRANCH  12  21
ENDBRANCH   7   8
ENDBRANCH   1   7
BRANCH   2  31
HETATM   31  N4  UNL     1       0.573  -2.419   3.159  1.00  0.00    -0.072 N 
ATOM     32  H43 UNL     1       1.243  -2.980   2.632  1.00  0.00     0.274 HD
ATOM     33  H42 UNL     1       1.211  -1.718   3.536  1.00  0.00     0.274 HD
ATOM     34  H41 UNL     1       0.140  -2.964   3.905  1.00  0.00     0.274 HD
ENDBRANCH   2  31
BRANCH   6  35
HETATM   35  O9  UNL     1      -1.475  -2.055  -0.056  1.00  0.00    -0.310 OA
BRANCH  35  36
HETATM   36  C21 UNL     1      -1.542  -2.657  -1.273  1.00  0.00     0.273 C 
HETATM   37  O10 UNL     1      -1.078  -2.090  -2.286  1.00  0.00    -0.264 OA
BRANCH  36  38
HETATM   38  C22 UNL     1      -2.169  -3.991  -1.401  1.00  0.00     0.225 C 
HETATM   39 CL1  UNL     1      -0.953  -5.295  -1.187  1.00  0.00    -0.120 Cl
ENDBRANCH  36  38
ENDBRANCH  35  36
ENDBRANCH   6  35
BRANCH   5  40
HETATM   40  O5  UNL     1      -3.244  -0.315   0.350  1.00  0.00    -0.349 OA
BRANCH  40  41
HETATM   41  C14 UNL     1      -3.853   0.591  -0.482  1.00  0.00     0.294 C 
HETATM   42  O6  UNL     1      -3.982   0.069  -1.799  1.00  0.00    -0.349 OA
HETATM   43  C15 UNL     1      -4.066   1.170  -2.638  1.00  0.00     0.181 C 
HETATM   44  C17 UNL     1      -5.227   2.067  -2.391  1.00  0.00     0.179 C 
HETATM   45  C18 UNL     1      -5.540   2.268  -0.924  1.00  0.00     0.184 C 
HETATM   46  C19 UNL     1      -5.220   1.032  -0.101  1.00  0.00     0.269 C 
BRANCH  43  47
HETATM   47  C16 UNL     1      -4.128   0.646  -4.056  1.00  0.00     0.264 C 
BRANCH  47  48
HETATM   48  N6  UNL     1      -5.250  -0.207  -4.288  1.00  0.00    -0.077 N 
ATOM     49  H63 UNL     1      -5.269  -0.974  -3.616  1.00  0.00     0.274 HD
ATOM     50  H62 UNL     1      -6.121   0.260  -4.034  1.00  0.00     0.274 HD
ATOM     51  H61 UNL     1      -5.292  -0.560  -5.244  1.00  0.00     0.274 HD
ENDBRANCH  47  48
ENDBRANCH  43  47
BRANCH  44  52
HETATM   52  O7  UNL     1      -6.381   1.739  -3.088  1.00  0.00    -0.390 OA
ATOM     53  H7  UNL     1      -7.122   2.312  -2.930  1.00  0.00     0.210 HD
ENDBRANCH  44  52
BRANCH  45  54
HETATM   54  O8  UNL     1      -4.880   3.386  -0.426  1.00  0.00    -0.391 OA
ATOM     55  H8  UNL     1      -5.076   3.512   0.495  1.00  0.00     0.210 HD
ENDBRANCH  45  54
BRANCH  46  56
HETATM   56  N7  UNL     1      -5.438   1.320   1.276  1.00  0.00    -0.068 N 
ATOM     57  H73 UNL     1      -5.168   0.515   1.841  1.00  0.00     0.275 HD
ATOM     58  H72 UNL     1      -4.755   2.008   1.594  1.00  0.00     0.275 HD
ATOM     59  H71 UNL     1      -6.376   1.623   1.538  1.00  0.00     0.275 HD
ENDBRANCH  46  56
ENDBRANCH  40  41
ENDBRANCH   5  40
BRANCH   4  60
HETATM   60  N5  UNL     1      -1.177   1.504   2.568  1.00  0.00    -0.072 N 
ATOM     61  H53 UNL     1      -1.199   1.699   3.569  1.00  0.00     0.274 HD
ATOM     62  H52 UNL     1      -0.168   1.418   2.442  1.00  0.00     0.274 HD
ATOM     63  H51 UNL     1      -1.551   2.286   2.031  1.00  0.00     0.274 HD
ENDBRANCH   4  60
TORSDOF 22
