REMARK  20 active torsions:
REMARK  status: ('A' for Active; 'I' for Inactive)
REMARK    1  A    between atoms: C3_3  and  O1_4 
REMARK    2  A    between atoms: N1_8  and  O3_10 
REMARK    3  A    between atoms: C5_12  and  N2_13 
REMARK    4  A    between atoms: N2_13  and  C6_15 
REMARK    5  A    between atoms: C7_19  and  N4_20 
REMARK    6  A    between atoms: N4_20  and  C8_21 
REMARK    7  A    between atoms: N4_20  and  N6_25 
REMARK    8  A    between atoms: C8_21  and  C9_22 
REMARK    9  A    between atoms: N6_25  and  O5_27 
REMARK   10  A    between atoms: C10_29  and  N7_30 
REMARK   11  A    between atoms: N7_30  and  C11_32 
REMARK   12  A    between atoms: C11_32  and  O6_33 
REMARK   13  A    between atoms: C11_32  and  C12_35 
REMARK   14  A    between atoms: C12_35  and  N8_36 
REMARK   15  A    between atoms: C12_35  and  C13_40 
REMARK   16  A    between atoms: C13_40  and  C14_41 
REMARK   17  A    between atoms: C16_44  and  O7_45 
REMARK   18  A    between atoms: N9_47  and  S1_48 
REMARK   19  A    between atoms: C18_53  and  N10_54 
REMARK   20  A    between atoms: C19_58  and  O11_59 
ROOT
HETATM    1  C6  UNL     1       1.328   0.163   0.523  1.00  0.00     0.325 C 
HETATM    2  N3  UNL     1       0.657   1.222   1.342  1.00  0.00    -0.024 N 
ATOM      3  H31 UNL     1       1.191   2.085   1.438  1.00  0.00     0.282 HD
ATOM      4  H32 UNL     1       0.607   1.017   2.340  1.00  0.00     0.282 HD
HETATM    5  C7  UNL     1      -0.633   1.380   0.694  1.00  0.00     0.352 C 
HETATM    6  C10 UNL     1      -1.428   0.147   1.003  1.00  0.00     0.046 C 
HETATM    7  C15 UNL     1      -0.643  -1.023   1.500  1.00  0.00     0.120 C 
HETATM    8  C16 UNL     1      -0.700  -1.163   3.008  1.00  0.00     0.222 C 
HETATM    9  N9  UNL     1       0.635  -1.280   3.471  1.00  0.00    -0.161 NA
HETATM   10  C17 UNL     1       1.483  -1.531   2.375  1.00  0.00     0.156 C 
HETATM   11  C18 UNL     1       0.802  -1.103   1.111  1.00  0.00     0.194 C 
ENDROOT
BRANCH   1  12
HETATM   12  N2  UNL     1       2.711   0.403   0.447  1.00  0.00    -0.355 N 
ATOM     13  H2  UNL     1       3.083   0.972   1.207  1.00  0.00     0.162 HD
BRANCH  12  14
HETATM   14  C5  UNL     1       3.673  -0.007  -0.499  1.00  0.00     0.117 A 
HETATM   15  C4  UNL     1       4.559  -1.072  -0.354  1.00  0.00     0.199 A 
HETATM   16  O2  UNL     1       5.437  -1.325  -1.355  1.00  0.00    -0.266 OA
HETATM   17  N1  UNL     1       4.619  -1.795   0.598  1.00  0.00    -0.245 N 
HETATM   18  C3  UNL     1       5.544  -0.681  -2.448  1.00  0.00     0.194 A 
HETATM   19  C2  UNL     1       4.710   0.383  -2.676  1.00  0.00     0.032 A 
HETATM   20  C1  UNL     1       4.822   1.163  -3.940  1.00  0.00     0.056 C 
HETATM   21  C19 UNL     1       3.787   0.711  -1.710  1.00  0.00     0.107 A 
ATOM     22  H1  UNL     1       3.876  -1.396   1.172  1.00  0.00     0.196 HD
BRANCH  18  23
HETATM   23  O1  UNL     1       6.493  -1.040  -3.423  1.00  0.00    -0.340 OA
ATOM     24  H1  UNL     1       7.071  -1.777  -3.265  1.00  0.00     0.220 HD
ENDBRANCH  18  23
BRANCH  21  25
HETATM   25  O11 UNL     1       2.947   1.784  -1.947  1.00  0.00    -0.358 OA
ATOM     26  H11 UNL     1       2.310   2.010  -1.280  1.00  0.00     0.217 HD
ENDBRANCH  21  25
BRANCH  17  27
HETATM   27  O3  UNL     1       4.998  -2.716   1.342  1.00  0.00    -0.288 OA
ATOM     28  H3  UNL     1       5.046  -3.290   2.098  1.00  0.00     0.244 HD
ENDBRANCH  17  27
ENDBRANCH  12  14
ENDBRANCH   1  12
BRANCH  11  29
HETATM   29  N10 UNL     1       0.983  -2.156   0.132  1.00  0.00    -0.065 N 
ATOM     30 3H10 UNL     1       0.562  -1.934  -0.770  1.00  0.00     0.275 HD
ATOM     31 2H10 UNL     1       1.949  -2.239  -0.186  1.00  0.00     0.275 HD
ATOM     32 1H10 UNL     1       0.623  -3.022   0.534  1.00  0.00     0.275 HD
ENDBRANCH  11  29
BRANCH   5  33
HETATM   33  N4  UNL     1      -1.267   2.575   1.299  1.00  0.00    -0.264 N 
BRANCH  33  34
HETATM   34  C8  UNL     1      -2.595   2.946   0.922  1.00  0.00     0.246 C 
BRANCH  34  35
HETATM   35  C9  UNL     1      -3.117   4.082   1.646  1.00  0.00     0.250 C 
HETATM   36  N5  UNL     1      -4.438   4.550   1.348  1.00  0.00    -0.061 NA
HETATM   37  O4  UNL     1      -2.465   4.678   2.526  1.00  0.00    -0.275 OA
ENDBRANCH  34  35
ENDBRANCH  33  34
BRANCH  33  38
HETATM   38  N6  UNL     1      -0.524   3.293   2.217  1.00  0.00    -0.210 N 
ATOM     39  H6  UNL     1      -0.601   3.051   3.205  1.00  0.00     0.215 HD
BRANCH  38  40
HETATM   40  O5  UNL     1       0.251   4.242   1.880  1.00  0.00    -0.275 OA
ATOM     41  H5  UNL     1       0.762   4.736   2.511  1.00  0.00     0.246 HD
ENDBRANCH  38  40
ENDBRANCH  33  38
ENDBRANCH   5  33
BRANCH   6  42
HETATM   42  N7  UNL     1      -2.420  -0.212   0.092  1.00  0.00    -0.365 N 
ATOM     43  H7  UNL     1      -3.385  -0.212   0.421  1.00  0.00     0.161 HD
BRANCH  42  44
HETATM   44  C11 UNL     1      -2.192  -0.569  -1.230  1.00  0.00     0.248 C 
BRANCH  44  45
HETATM   45  O6  UNL     1      -1.575   0.333  -2.059  1.00  0.00    -0.375 OA
ATOM     46  H6  UNL     1      -1.419   0.089  -2.964  1.00  0.00     0.212 HD
ENDBRANCH  44  45
BRANCH  44  47
HETATM   47  C12 UNL     1      -3.587  -0.859  -1.850  1.00  0.00     0.233 C 
BRANCH  47  48
HETATM   48  N8  UNL     1      -4.365   0.340  -1.898  1.00  0.00    -0.071 N 
ATOM     49  H83 UNL     1      -4.440   0.783  -0.982  1.00  0.00     0.274 HD
ATOM     50  H82 UNL     1      -3.879   1.091  -2.388  1.00  0.00     0.274 HD
ATOM     51  H81 UNL     1      -5.281   0.150  -2.305  1.00  0.00     0.274 HD
ENDBRANCH  47  48
BRANCH  47  52
HETATM   52  C13 UNL     1      -3.445  -1.406  -3.242  1.00  0.00     0.068 C 
BRANCH  52  53
HETATM   53  C14 UNL     1      -4.830  -1.681  -3.782  1.00  0.00     0.224 C 
HETATM   54  F1  UNL     1      -5.616  -0.556  -3.844  1.00  0.00    -0.255 F 
ENDBRANCH  52  53
ENDBRANCH  47  52
ENDBRANCH  44  47
ENDBRANCH  42  44
ENDBRANCH   6  42
BRANCH   8  55
HETATM   55  O7  UNL     1      -1.284  -0.080   3.652  1.00  0.00    -0.379 OA
ATOM     56  H7  UNL     1      -1.320  -0.168   4.597  1.00  0.00     0.211 HD
ENDBRANCH   8  55
BRANCH   9  57
HETATM   57  S1  UNL     1       0.807  -2.321   4.809  1.00  0.00     0.187 S 
HETATM   58  O8  UNL     1       2.245  -2.326   5.306  1.00  0.00    -0.582 OA
HETATM   59  O9  UNL     1      -0.024  -1.793   5.949  1.00  0.00    -0.582 OA
HETATM   60  O10 UNL     1       0.338  -3.906   4.459  1.00  0.00    -0.582 OA
ENDBRANCH   9  57
TORSDOF 20
