REMARK  14 active torsions:
REMARK  status: ('A' for Active; 'I' for Inactive)
REMARK    1  A    between atoms: N2_6  and  C3_7 
REMARK    2  A    between atoms: C3_7  and  C4_8 
REMARK    3  A    between atoms: C4_8  and  N3_9 
REMARK    4  A    between atoms: C4_8  and  C5_13 
REMARK    5  A    between atoms: C5_13  and  N4_14 
REMARK    6  A    between atoms: C5_13  and  O1_18 
REMARK       I    between atoms: N6_23  and  C7_25 
REMARK    7  A    between atoms: C7_25  and  C8_27 
REMARK    8  A    between atoms: C8_27  and  C11_34 
REMARK    9  A    between atoms: N7_28  and  O3_30 
REMARK   10  A    between atoms: O3_30  and  C9_31 
REMARK   11  A    between atoms: C9_31  and  C10_32 
REMARK   12  A    between atoms: C12_35  and  C13_36 
REMARK   13  A    between atoms: N9_42  and  N10_43 
REMARK   14  A    between atoms: C16_45  and  C17_46 
ROOT
HETATM    1  C8  UNL     1      -1.209  -1.751  -0.279  1.00  0.00     0.153 C 
HETATM    2  N7  UNL     1      -2.265  -1.352  -0.980  1.00  0.00    -0.259 N 
ATOM      3  H7  UNL     1      -3.181  -1.510  -0.560  1.00  0.00     0.194 HD
ENDROOT
BRANCH   1   4
HETATM    4  C7  UNL     1       0.052  -1.504  -0.918  1.00  0.00     0.278 C 
HETATM    5  N6  UNL     1       1.350  -1.694  -0.430  1.00  0.00    -0.305 N 
HETATM    6  C6  UNL     1       2.261  -0.846  -0.223  1.00  0.00     0.142 C 
ATOM      7  H6  UNL     1       1.595  -2.659  -0.209  1.00  0.00     0.170 HD
HETATM    8  C1  UNL     1       2.195   0.595  -0.443  1.00  0.00     0.063 C 
HETATM    9  N5  UNL     1       3.593  -1.086   0.276  1.00  0.00    -0.303 N 
HETATM   10  N1  UNL     1       1.219   1.411  -0.468  1.00  0.00    -0.398 N 
HETATM   11  C2  UNL     1       3.621   1.005  -0.658  1.00  0.00     0.174 C 
ATOM     12  H12 UNL     1       1.173   2.418  -0.622  1.00  0.00     0.156 HD
ATOM     13  H11 UNL     1       0.249   1.132  -0.322  1.00  0.00     0.156 HD
HETATM   14  N2  UNL     1       4.421  -0.043  -0.112  1.00  0.00    -0.222 NA
ATOM     15  H5  UNL     1       3.881  -1.895   0.827  1.00  0.00     0.182 HD
HETATM   16  O2  UNL     1       0.024  -1.020  -2.120  1.00  0.00    -0.265 OA
BRANCH  14  17
HETATM   17  C3  UNL     1       5.528  -0.456  -0.908  1.00  0.00     0.151 C 
BRANCH  17  18
HETATM   18  C4  UNL     1       6.642   0.516  -1.056  1.00  0.00     0.253 C 
BRANCH  18  19
HETATM   19  N3  UNL     1       6.320   1.770  -1.651  1.00  0.00    -0.070 N 
ATOM     20  H33 UNL     1       5.877   1.616  -2.557  1.00  0.00     0.274 HD
ATOM     21  H32 UNL     1       5.552   2.205  -1.140  1.00  0.00     0.274 HD
ATOM     22  H31 UNL     1       7.085   2.437  -1.753  1.00  0.00     0.274 HD
ENDBRANCH  18  19
BRANCH  18  23
HETATM   23  C5  UNL     1       7.420   0.763   0.219  1.00  0.00     0.348 C 
BRANCH  23  24
HETATM   24  N4  UNL     1       6.714   1.588   1.166  1.00  0.00    -0.051 N 
ATOM     25  H43 UNL     1       6.430   2.469   0.738  1.00  0.00     0.277 HD
ATOM     26  H42 UNL     1       5.795   1.197   1.372  1.00  0.00     0.277 HD
ATOM     27  H41 UNL     1       7.238   1.754   2.025  1.00  0.00     0.277 HD
ENDBRANCH  23  24
BRANCH  23  28
HETATM   28  O1  UNL     1       8.582   1.465  -0.179  1.00  0.00    -0.368 OA
ATOM     29  H1  UNL     1       9.070   1.620   0.621  1.00  0.00     0.212 HD
ENDBRANCH  23  28
ENDBRANCH  18  23
ENDBRANCH  17  18
ENDBRANCH  14  17
ENDBRANCH   1   4
BRANCH   1  30
HETATM   30  C11 UNL     1      -1.455  -2.241   1.079  1.00  0.00     0.125 A 
HETATM   31  C12 UNL     1      -0.673  -3.004   1.892  1.00  0.00     0.142 A 
HETATM   32  N8  UNL     1      -1.217  -2.904   3.175  1.00  0.00    -0.343 N 
HETATM   33  C14 UNL     1      -2.270  -2.121   3.075  1.00  0.00     0.208 A 
ATOM     34  H8  UNL     1      -0.867  -3.350   4.023  1.00  0.00     0.167 HD
HETATM   35  N9  UNL     1      -2.463  -1.693   1.831  1.00  0.00    -0.239 N 
BRANCH  31  36
HETATM   36  C13 UNL     1       0.344  -3.996   1.579  1.00  0.00     0.229 C 
HETATM   37  O4  UNL     1       1.079  -4.431   2.492  1.00  0.00    -0.643 OA
HETATM   38  O5  UNL     1       0.526  -4.493   0.323  1.00  0.00    -0.643 OA
ENDBRANCH  31  36
BRANCH  35  39
HETATM   39  N10 UNL     1      -3.481  -0.865   1.405  1.00  0.00    -0.240 N 
HETATM   40  C15 UNL     1      -4.678  -1.309   0.984  1.00  0.00     0.139 A 
HETATM   41  C16 UNL     1      -5.727  -0.524   0.572  1.00  0.00     0.098 A 
HETATM   42  C18 UNL     1      -5.539   0.851   0.591  1.00  0.00     0.208 A 
HETATM   43  O7  UNL     1      -6.463   1.597   0.225  1.00  0.00    -0.286 OA
HETATM   44  C19 UNL     1      -4.318   1.325   1.019  1.00  0.00     0.130 A 
HETATM   45  C20 UNL     1      -4.121   2.692   1.049  1.00  0.00     0.277 A 
HETATM   46  C22 UNL     1      -3.299   0.489   1.422  1.00  0.00     0.162 A 
HETATM   47  O8  UNL     1      -5.065   3.432   0.676  1.00  0.00    -0.266 OA
HETATM   48  N12 UNL     1      -2.944   3.175   1.469  1.00  0.00    -0.155 N 
HETATM   49  C21 UNL     1      -1.973   2.320   1.855  1.00  0.00     0.680 A 
ATOM     50  H12 UNL     1      -2.783   4.182   1.497  1.00  0.00     0.187 HD
HETATM   51  N13 UNL     1      -0.834   2.807   2.265  1.00  0.00    -0.234 N 
HETATM   52  N14 UNL     1      -2.125   0.999   1.841  1.00  0.00    -0.174 N 
ATOM     53 2H13 UNL     1      -0.717   3.820   2.276  1.00  0.00     0.174 HD
ATOM     54 1H13 UNL     1      -0.100   2.161   2.557  1.00  0.00     0.174 HD
ATOM     55  H14 UNL     1      -1.368   0.385   2.141  1.00  0.00     0.186 HD
BRANCH  41  56
HETATM   56  C17 UNL     1      -6.994  -1.102   0.131  1.00  0.00     0.270 C 
HETATM   57  N11 UNL     1      -8.052  -0.271  -0.283  1.00  0.00    -0.057 NA
HETATM   58  O6  UNL     1      -7.125  -2.335   0.127  1.00  0.00    -0.271 OA
ENDBRANCH  41  56
ENDBRANCH  35  39
ENDBRANCH   1  30
BRANCH   2  59
HETATM   59  O3  UNL     1      -2.248  -0.768  -2.174  1.00  0.00    -0.277 OA
BRANCH  59  60
HETATM   60  C9  UNL     1      -2.619   0.571  -2.444  1.00  0.00     0.232 C 
BRANCH  60  61
HETATM   61  C10 UNL     1      -2.484   0.882  -3.918  1.00  0.00     0.250 C 
HETATM   62  F1  UNL     1      -3.316   0.023  -4.610  1.00  0.00    -0.253 F 
ENDBRANCH  60  61
ENDBRANCH  59  60
ENDBRANCH   2  59
TORSDOF 14
