REMARK  21 active torsions:
REMARK  status: ('A' for Active; 'I' for Inactive)
REMARK    1  A    between atoms: C2_2  and  O1_3 
REMARK    2  A    between atoms: O1_3  and  C3_4 
REMARK    3  A    between atoms: C4_5  and  O2_6 
REMARK    4  A    between atoms: C5_8  and  C6_9 
REMARK    5  A    between atoms: C6_9  and  N1_10 
REMARK    6  A    between atoms: C7_15  and  O4_16 
REMARK    7  A    between atoms: O4_16  and  C8_17 
REMARK    8  A    between atoms: C9_19  and  C10_20 
REMARK    9  A    between atoms: C10_20  and  N2_21 
REMARK   10  A    between atoms: C11_25  and  O6_26 
REMARK   11  A    between atoms: O6_26  and  C12_27 
REMARK   12  A    between atoms: C15_31  and  O8_32 
REMARK   13  A    between atoms: C16_34  and  O9_35 
REMARK   14  A    between atoms: O9_35  and  C17_36 
REMARK   15  A    between atoms: C18_38  and  C19_39 
REMARK   16  A    between atoms: C19_39  and  N3_40 
REMARK   17  A    between atoms: C20_44  and  O11_45 
REMARK   18  A    between atoms: C21_47  and  O12_48 
REMARK   19  A    between atoms: C22_50  and  N4_51 
REMARK   20  A    between atoms: C23_55  and  O13_56 
REMARK   21  A    between atoms: C24_58  and  O14_59 
ROOT
HETATM    1  C12 UNL     1       1.478  -0.705  -0.491  1.00  0.00     0.292 C 
HETATM    2  O7  UNL     1       1.784  -0.193  -1.720  1.00  0.00    -0.351 OA
HETATM    3  C13 UNL     1       2.981  -0.570  -2.254  1.00  0.00     0.152 C 
HETATM    4  C14 UNL     1       2.736  -1.376  -3.516  1.00  0.00     0.042 C 
HETATM    5  C15 UNL     1       3.911  -1.272  -1.328  1.00  0.00     0.178 C 
HETATM    6  C16 UNL     1       3.904  -0.642   0.042  1.00  0.00     0.189 C 
HETATM    7  C23 UNL     1       2.525  -0.421   0.562  1.00  0.00     0.205 C 
ENDROOT
BRANCH   1   8
HETATM    8  O6  UNL     1       0.247  -0.188  -0.092  1.00  0.00    -0.348 OA
BRANCH   8   9
HETATM    9  C11 UNL     1      -0.709  -1.175   0.118  1.00  0.00     0.189 C 
HETATM   10  C9  UNL     1      -1.330  -1.110   1.474  1.00  0.00     0.181 C 
HETATM   11  O5  UNL     1      -2.506  -0.384   1.360  1.00  0.00    -0.349 OA
HETATM   12  C8  UNL     1      -3.030  -0.747   0.126  1.00  0.00     0.294 C 
HETATM   13  C24 UNL     1      -1.866  -0.879  -0.830  1.00  0.00     0.205 C 
BRANCH  10  14
HETATM   14  C10 UNL     1      -1.658  -2.448   2.067  1.00  0.00     0.264 C 
BRANCH  14  15
HETATM   15  N2  UNL     1      -2.257  -2.185   3.385  1.00  0.00    -0.077 N 
ATOM     16  H23 UNL     1      -1.670  -1.609   3.988  1.00  0.00     0.274 HD
ATOM     17  H22 UNL     1      -3.057  -1.553   3.346  1.00  0.00     0.274 HD
ATOM     18  H21 UNL     1      -2.480  -3.095   3.788  1.00  0.00     0.274 HD
ENDBRANCH  14  15
ENDBRANCH  10  14
BRANCH  12  19
HETATM   19  O4  UNL     1      -4.024   0.063  -0.328  1.00  0.00    -0.326 OA
BRANCH  19  20
HETATM   20  C7  UNL     1      -5.248  -0.487  -0.525  1.00  0.00     0.300 C 
HETATM   21  O3  UNL     1      -5.730  -0.405  -1.810  1.00  0.00    -0.349 OA
HETATM   22  C5  UNL     1      -7.063  -0.751  -1.946  1.00  0.00     0.181 C 
HETATM   23  C4  UNL     1      -7.981   0.095  -1.119  1.00  0.00     0.180 C 
HETATM   24  C3  UNL     1      -7.201   1.038  -0.205  1.00  0.00     0.191 C 
HETATM   25  C25 UNL     1      -6.196   0.149   0.501  1.00  0.00     0.256 C 
HETATM   26  F1  UNL     1      -5.502   0.918   1.414  1.00  0.00    -0.241 F 
BRANCH  22  27
HETATM   27  C6  UNL     1      -7.223  -2.234  -1.732  1.00  0.00     0.264 C 
BRANCH  27  28
HETATM   28  N1  UNL     1      -8.599  -2.665  -1.871  1.00  0.00    -0.077 N 
ATOM     29  H13 UNL     1      -9.215  -2.135  -1.254  1.00  0.00     0.274 HD
ATOM     30  H12 UNL     1      -8.985  -2.379  -2.771  1.00  0.00     0.274 HD
ATOM     31  H11 UNL     1      -8.707  -3.669  -1.726  1.00  0.00     0.274 HD
ENDBRANCH  27  28
ENDBRANCH  22  27
BRANCH  23  32
HETATM   32  O2  UNL     1      -8.789  -0.743  -0.353  1.00  0.00    -0.390 OA
ATOM     33  H2  UNL     1      -9.274  -1.330  -0.921  1.00  0.00     0.210 HD
ENDBRANCH  23  32
BRANCH  24  34
HETATM   34  O1  UNL     1      -6.606   2.005  -0.973  1.00  0.00    -0.381 OA
BRANCH  34  35
HETATM   35  C2  UNL     1      -6.953   3.296  -0.667  1.00  0.00     0.164 C 
HETATM   36  C1  UNL     1      -8.414   3.598  -0.801  1.00  0.00     0.033 C 
ENDBRANCH  34  35
ENDBRANCH  24  34
ENDBRANCH  19  20
ENDBRANCH  12  19
BRANCH  13  37
HETATM   37  O14 UNL     1      -1.653   0.292  -1.551  1.00  0.00    -0.388 OA
ATOM     38  H14 UNL     1      -0.922   0.209  -2.152  1.00  0.00     0.210 HD
ENDBRANCH  13  37
ENDBRANCH   8   9
ENDBRANCH   1   8
BRANCH   7  39
HETATM   39  O13 UNL     1       2.416   0.867   1.074  1.00  0.00    -0.388 OA
ATOM     40  H13 UNL     1       3.074   1.045   1.736  1.00  0.00     0.210 HD
ENDBRANCH   7  39
BRANCH   6  41
HETATM   41  O9  UNL     1       4.621   0.558  -0.038  1.00  0.00    -0.348 OA
BRANCH  41  42
HETATM   42  C17 UNL     1       5.778   0.529   0.704  1.00  0.00     0.294 C 
HETATM   43  O10 UNL     1       6.887   0.823  -0.058  1.00  0.00    -0.349 OA
HETATM   44  C18 UNL     1       8.074   0.489   0.585  1.00  0.00     0.181 C 
HETATM   45  C20 UNL     1       8.243   1.171   1.903  1.00  0.00     0.179 C 
HETATM   46  C21 UNL     1       6.973   1.193   2.719  1.00  0.00     0.184 C 
HETATM   47  C22 UNL     1       5.760   1.525   1.863  1.00  0.00     0.269 C 
BRANCH  44  48
HETATM   48  C19 UNL     1       9.211   0.902  -0.336  1.00  0.00     0.264 C 
BRANCH  48  49
HETATM   49  N3  UNL     1       9.208   2.303  -0.617  1.00  0.00    -0.077 N 
ATOM     50  H33 UNL     1       8.307   2.600  -0.991  1.00  0.00     0.274 HD
ATOM     51  H32 UNL     1       9.217   2.850   0.244  1.00  0.00     0.274 HD
ATOM     52  H31 UNL     1       9.971   2.580  -1.235  1.00  0.00     0.274 HD
ENDBRANCH  48  49
ENDBRANCH  44  48
BRANCH  45  53
HETATM   53  O11 UNL     1       9.177   0.412   2.643  1.00  0.00    -0.390 OA
ATOM     54  H11 UNL     1       9.284   0.846   3.481  1.00  0.00     0.210 HD
ENDBRANCH  45  53
BRANCH  46  55
HETATM   55  O12 UNL     1       7.097   2.200   3.674  1.00  0.00    -0.391 OA
ATOM     56  H12 UNL     1       6.298   2.214   4.187  1.00  0.00     0.210 HD
ENDBRANCH  46  55
BRANCH  47  57
HETATM   57  N4  UNL     1       5.899   2.886   1.415  1.00  0.00    -0.068 N 
ATOM     58  H43 UNL     1       6.735   3.002   0.842  1.00  0.00     0.275 HD
ATOM     59  H42 UNL     1       5.191   3.119   0.718  1.00  0.00     0.275 HD
ATOM     60  H41 UNL     1       5.887   3.551   2.189  1.00  0.00     0.275 HD
ENDBRANCH  47  57
ENDBRANCH  41  42
ENDBRANCH   6  41
BRANCH   5  61
HETATM   61  O8  UNL     1       3.718  -2.648  -1.286  1.00  0.00    -0.390 OA
ATOM     62  H8  UNL     1       4.312  -3.096  -0.695  1.00  0.00     0.210 HD
ENDBRANCH   5  61
TORSDOF 21
