REMARK  21 active torsions:
REMARK  status: ('A' for Active; 'I' for Inactive)
REMARK    1  A    between atoms: C2_2  and  S1_3 
REMARK    2  A    between atoms: S1_3  and  C3_4 
REMARK    3  A    between atoms: C3_4  and  C4_5 
REMARK    4  A    between atoms: C5_7  and  O2_8 
REMARK    5  A    between atoms: C6_10  and  O3_11 
REMARK    6  A    between atoms: C7_13  and  O4_14 
REMARK    7  A    between atoms: O4_14  and  C8_15 
REMARK    8  A    between atoms: C9_16  and  O5_17 
REMARK    9  A    between atoms: O5_17  and  C10_18 
REMARK   10  A    between atoms: C11_20  and  C12_21 
REMARK   11  A    between atoms: C12_21  and  N1_22 
REMARK   12  A    between atoms: C13_26  and  O7_27 
REMARK   13  A    between atoms: C14_29  and  O8_30 
REMARK   14  A    between atoms: C15_32  and  N2_33 
REMARK   15  A    between atoms: C17_38  and  N3_39 
REMARK   16  A    between atoms: C18_43  and  O9_44 
REMARK   17  A    between atoms: O9_44  and  C19_45 
REMARK   18  A    between atoms: C20_47  and  C21_48 
REMARK   19  A    between atoms: C21_48  and  N4_49 
REMARK   20  A    between atoms: C22_53  and  O11_54 
REMARK   21  A    between atoms: C23_56  and  O12_57 
ROOT
HETATM    1  C8  UNL     1      -0.594   0.912   1.374  1.00  0.00     0.184 C 
HETATM    2  C9  UNL     1      -1.900   1.302   0.708  1.00  0.00     0.186 C 
HETATM    3  C15 UNL     1      -2.519   2.313   1.647  1.00  0.00     0.217 C 
HETATM    4  C16 UNL     1      -2.828   1.613   2.979  1.00  0.00     0.071 C 
HETATM    5  C17 UNL     1      -1.640   0.926   3.568  1.00  0.00     0.217 C 
HETATM    6  C18 UNL     1      -1.082  -0.009   2.509  1.00  0.00     0.186 C 
ENDROOT
BRANCH   1   7
HETATM    7  O4  UNL     1       0.379   0.400   0.623  1.00  0.00    -0.369 OA
BRANCH   7   8
HETATM    8  C7  UNL     1       1.615   0.955   0.583  1.00  0.00     0.197 C 
HETATM    9  C6  UNL     1       2.734   0.185   1.211  1.00  0.00     0.205 C 
HETATM   10  C5  UNL     1       3.983   0.996   1.300  1.00  0.00     0.288 C 
HETATM   11  O1  UNL     1       4.240   1.748   0.231  1.00  0.00    -0.349 OA
HETATM   12  C4  UNL     1       3.552   1.430  -0.895  1.00  0.00     0.176 C 
HETATM   13  C24 UNL     1       2.050   1.568  -0.727  1.00  0.00     0.155 C 
HETATM   14  C25 UNL     1       1.743   3.048  -0.793  1.00  0.00     0.057 C 
HETATM   15  F1  UNL     1       1.496   0.978  -1.837  1.00  0.00    -0.238 F 
BRANCH   9  16
HETATM   16  O3  UNL     1       3.069  -1.008   0.584  1.00  0.00    -0.388 OA
ATOM     17  H3  UNL     1       2.274  -1.524   0.527  1.00  0.00     0.210 HD
ENDBRANCH   9  16
BRANCH  10  18
HETATM   18  O2  UNL     1       5.110   0.128   1.499  1.00  0.00    -0.369 OA
ATOM     19  H2  UNL     1       4.927  -0.408   2.261  1.00  0.00     0.212 HD
ENDBRANCH  10  18
BRANCH  12  20
HETATM   20  C3  UNL     1       4.072   2.296  -2.029  1.00  0.00     0.109 C 
BRANCH  20  21
HETATM   21  S1  UNL     1       3.207   1.927  -3.582  1.00  0.00    -0.167 SA
BRANCH  21  22
HETATM   22  C2  UNL     1       3.641   0.238  -4.140  1.00  0.00     0.069 C 
HETATM   23  C1  UNL     1       5.119   0.184  -4.520  1.00  0.00     0.016 C 
ENDBRANCH  21  22
ENDBRANCH  20  21
ENDBRANCH  12  20
ENDBRANCH   7   8
ENDBRANCH   1   7
BRANCH   2  24
HETATM   24  O5  UNL     1      -1.773   1.631  -0.564  1.00  0.00    -0.349 OA
BRANCH  24  25
HETATM   25  C10 UNL     1      -2.490   1.007  -1.536  1.00  0.00     0.292 C 
HETATM   26  O6  UNL     1      -1.770   0.602  -2.656  1.00  0.00    -0.349 OA
HETATM   27  C11 UNL     1      -2.747   0.341  -3.606  1.00  0.00     0.181 C 
HETATM   28  C13 UNL     1      -3.506   1.654  -3.623  1.00  0.00     0.182 C 
HETATM   29  C14 UNL     1      -3.396   2.058  -2.162  1.00  0.00     0.204 C 
BRANCH  27  30
HETATM   30  C12 UNL     1      -2.158   0.097  -4.976  1.00  0.00     0.264 C 
BRANCH  30  31
HETATM   31  N1  UNL     1      -3.265  -0.160  -5.884  1.00  0.00    -0.077 N 
ATOM     32  H13 UNL     1      -3.871  -0.918  -5.570  1.00  0.00     0.274 HD
ATOM     33  H12 UNL     1      -3.966   0.581  -5.878  1.00  0.00     0.274 HD
ATOM     34  H11 UNL     1      -2.867  -0.325  -6.809  1.00  0.00     0.274 HD
ENDBRANCH  30  31
ENDBRANCH  27  30
BRANCH  28  35
HETATM   35  O7  UNL     1      -2.883   2.559  -4.471  1.00  0.00    -0.390 OA
ATOM     36  H7  UNL     1      -3.358   3.381  -4.482  1.00  0.00     0.210 HD
ENDBRANCH  28  35
BRANCH  29  37
HETATM   37  O8  UNL     1      -2.735   3.287  -2.117  1.00  0.00    -0.388 OA
ATOM     38  H8  UNL     1      -3.300   3.943  -2.508  1.00  0.00     0.210 HD
ENDBRANCH  29  37
ENDBRANCH  24  25
ENDBRANCH   2  24
BRANCH   6  39
HETATM   39  O9  UNL     1      -0.181  -0.915   2.939  1.00  0.00    -0.349 OA
BRANCH  39  40
HETATM   40  C19 UNL     1      -0.585  -2.218   2.830  1.00  0.00     0.292 C 
HETATM   41  O10 UNL     1       0.174  -2.963   1.925  1.00  0.00    -0.349 OA
HETATM   42  C20 UNL     1      -0.333  -4.239   2.155  1.00  0.00     0.181 C 
HETATM   43  C22 UNL     1      -0.095  -4.362   3.655  1.00  0.00     0.182 C 
HETATM   44  C23 UNL     1      -0.640  -2.996   4.103  1.00  0.00     0.204 C 
BRANCH  42  45
HETATM   45  C21 UNL     1       0.378  -5.311   1.378  1.00  0.00     0.264 C 
BRANCH  45  46
HETATM   46  N4  UNL     1       1.770  -5.406   1.673  1.00  0.00    -0.077 N 
ATOM     47  H43 UNL     1       2.228  -4.504   1.543  1.00  0.00     0.274 HD
ATOM     48  H42 UNL     1       1.918  -5.530   2.675  1.00  0.00     0.274 HD
ATOM     49  H41 UNL     1       2.253  -6.134   1.146  1.00  0.00     0.274 HD
ENDBRANCH  45  46
ENDBRANCH  42  45
BRANCH  43  50
HETATM   50  O11 UNL     1      -0.815  -5.405   4.192  1.00  0.00    -0.390 OA
ATOM     51  H11 UNL     1      -0.667  -5.482   5.127  1.00  0.00     0.210 HD
ENDBRANCH  43  50
BRANCH  44  52
HETATM   52  O12 UNL     1      -1.969  -3.273   4.502  1.00  0.00    -0.388 OA
ATOM     53  H12 UNL     1      -2.004  -3.768   5.312  1.00  0.00     0.210 HD
ENDBRANCH  44  52
ENDBRANCH  39  40
ENDBRANCH   6  39
BRANCH   3  54
HETATM   54  N2  UNL     1      -3.822   2.789   1.219  1.00  0.00    -0.072 N 
ATOM     55  H23 UNL     1      -3.775   3.161   0.271  1.00  0.00     0.274 HD
ATOM     56  H22 UNL     1      -4.457   2.006   1.064  1.00  0.00     0.274 HD
ATOM     57  H21 UNL     1      -4.240   3.471   1.852  1.00  0.00     0.274 HD
ENDBRANCH   3  54
BRANCH   5  58
HETATM   58  N3  UNL     1      -2.050   0.260   4.766  1.00  0.00    -0.072 N 
ATOM     59  H33 UNL     1      -2.507   0.888   5.427  1.00  0.00     0.274 HD
ATOM     60  H32 UNL     1      -2.834  -0.375   4.613  1.00  0.00     0.274 HD
ATOM     61  H31 UNL     1      -1.239  -0.209   5.168  1.00  0.00     0.274 HD
ENDBRANCH   5  58
TORSDOF 21
