REMARK  1 active torsions:
REMARK  status: ('A' for Active; 'I' for Inactive)
REMARK    1  A    between atoms: C11_13  and  C12_14 
ROOT
HETATM    1  C1  UNL     1      -4.057  -1.456   0.407  1.00  0.00     0.154 C 
HETATM    2  N1  UNL     1      -2.927  -0.526   0.241  1.00  0.00    -0.375 N 
HETATM    3  C2  UNL     1      -3.247   0.817   0.407  1.00  0.00     0.100 C 
HETATM    4  C3  UNL     1      -2.902   1.764  -0.709  1.00  0.00     0.290 A 
HETATM    5  C4  UNL     1      -2.564   3.174  -0.227  1.00  0.00     0.315 A 
HETATM    6  N2  UNL     1      -1.522   2.359  -0.721  1.00  0.00     0.107 N 
HETATM    7  C5  UNL     1      -0.736   1.432  -0.141  1.00  0.00     0.231 C 
HETATM    8  C6  UNL     1      -0.913   0.230  -0.998  1.00  0.00     0.053 C 
HETATM    9  C7  UNL     1      -0.453  -0.756   0.043  1.00  0.00     0.015 C 
HETATM   10  C8  UNL     1       0.273   0.020   1.153  1.00  0.00     0.026 C 
HETATM   11  C9  UNL     1       0.636   1.212   0.217  1.00  0.00     0.043 C 
HETATM   12  C10 UNL     1       1.640   0.587  -0.686  1.00  0.00     0.094 C 
HETATM   13  C11 UNL     1       2.902   0.131   0.004  1.00  0.00     0.019 C 
HETATM   14  C13 UNL     1       2.997  -1.331   0.296  1.00  0.00     0.009 C 
HETATM   15  C14 UNL     1       1.698  -2.098   0.347  1.00  0.00     0.027 C 
HETATM   16  C15 UNL     1       0.586  -1.586  -0.538  1.00  0.00     0.097 C 
HETATM   17  N3  UNL     1       1.338  -0.624  -1.347  1.00  0.00    -0.388 N 
HETATM   18  C16 UNL     1       1.916  -0.997  -2.506  1.00  0.00     0.116 C 
HETATM   19  C17 UNL     1      -1.747  -1.187   0.595  1.00  0.00     0.074 C 
ENDROOT
BRANCH  13  20
HETATM   20  C12 UNL     1       3.404   1.041   1.071  1.00  0.00     0.092 C 
HETATM   21  S1  UNL     1       4.911   0.475   1.885  1.00  0.00    -0.097 SA
ENDBRANCH  13  20
TORSDOF 1
