REMARK  1 active torsions:
REMARK  status: ('A' for Active; 'I' for Inactive)
REMARK    1  A    between atoms: C16_19  and  O1_21 
ROOT
HETATM    1  C1  UNL     1       2.923  -1.682   1.510  1.00  0.00     0.315 C 
HETATM    2  N1  UNL     1       1.747  -0.994   1.093  1.00  0.00     0.130 N 
HETATM    3  C2  UNL     1       0.641  -1.964   1.192  1.00  0.00     0.396 C 
HETATM    4  N2  UNL     1      -0.349  -1.550   0.278  1.00  0.00    -0.381 N 
HETATM    5  C3  UNL     1      -0.026  -1.965  -0.987  1.00  0.00     0.123 C 
HETATM    6  C4  UNL     1       1.374  -1.397  -1.292  1.00  0.00     0.084 C 
HETATM    7  C5  UNL     1       1.818  -0.410  -0.234  1.00  0.00     0.233 C 
HETATM    8  C6  UNL     1       3.304  -0.170  -0.562  1.00  0.00     0.066 C 
HETATM    9  C7  UNL     1       3.617   1.171  -0.002  1.00  0.00     0.024 C 
HETATM   10  C8  UNL     1       2.304   1.883  -0.203  1.00  0.00     0.119 C 
HETATM   11  N3  UNL     1       1.275   0.865  -0.303  1.00  0.00    -0.378 N 
HETATM   12  C9  UNL     1       0.250   1.241  -1.174  1.00  0.00     0.128 C 
HETATM   13  C10 UNL     1      -1.096   1.559  -0.489  1.00  0.00    -0.025 C 
HETATM   14  C11 UNL     1      -1.489   2.930  -1.111  1.00  0.00     0.017 C 
HETATM   15  C12 UNL     1      -0.883   1.841   0.938  1.00  0.00     0.011 C 
HETATM   16  C13 UNL     1      -1.799   1.137   1.919  1.00  0.00     0.003 C 
HETATM   17  C14 UNL     1      -1.509  -0.297   1.985  1.00  0.00     0.028 C 
HETATM   18  C15 UNL     1      -1.579  -1.147   0.759  1.00  0.00     0.114 C 
HETATM   19  C16 UNL     1      -2.559  -0.556  -0.188  1.00  0.00     0.075 C 
HETATM   20  C17 UNL     1      -3.129  -1.572  -1.189  1.00  0.00     0.048 C 
HETATM   21  C18 UNL     1      -2.187   0.666  -0.903  1.00  0.00     0.050 C 
ENDROOT
BRANCH  19  22
HETATM   22  O1  UNL     1      -3.710  -0.345   0.637  1.00  0.00    -0.388 OA
ATOM     23  H1  UNL     1      -4.337   0.033   0.031  1.00  0.00     0.210 HD
ENDBRANCH  19  22
TORSDOF 1
