REMARK  1 active torsions:
REMARK  status: ('A' for Active; 'I' for Inactive)
REMARK    1  A    between atoms: C1_2  and  C2_3 
REMARK       I    between atoms: C1_2  and  N3_14 
ROOT
HETATM    1  O1  UNL     1       1.668   1.822   0.650  1.00  0.00    -0.265 OA
HETATM    2  C1  UNL     1       1.317   0.779  -0.040  1.00  0.00     0.276 C 
HETATM    3  N3  UNL     1      -0.034   0.608  -0.323  1.00  0.00    -0.326 N 
HETATM    4  C8  UNL     1      -0.973   1.636   0.190  1.00  0.00     0.132 C 
HETATM    5  C9  UNL     1      -1.998   0.833   0.981  1.00  0.00     0.030 C 
HETATM    6  C10 UNL     1      -2.839   0.064  -0.019  1.00  0.00    -0.031 C 
HETATM    7  C11 UNL     1      -3.232  -1.227   0.666  1.00  0.00     0.036 C 
HETATM    8  C12 UNL     1      -4.531  -1.792   0.103  1.00  0.00     0.168 C 
HETATM    9  O3  UNL     1      -5.500  -0.826   0.375  1.00  0.00    -0.391 OA
HETATM   10  C13 UNL     1      -5.310   0.219  -0.482  1.00  0.00     0.168 C 
HETATM   11  C14 UNL     1      -4.008   0.917  -0.391  1.00  0.00     0.036 C 
HETATM   12  C15 UNL     1      -2.097  -0.302  -1.268  1.00  0.00     0.054 C 
HETATM   13  C16 UNL     1      -0.593  -0.458  -1.056  1.00  0.00     0.068 C 
ENDROOT
BRANCH   2  14
HETATM   14  C2  UNL     1       2.421  -0.086  -0.429  1.00  0.00     0.124 A 
HETATM   15  N1  UNL     1       2.473  -1.218  -1.125  1.00  0.00    -0.295 N 
HETATM   16  N2  UNL     1       3.731  -1.680  -1.246  1.00  0.00    -0.301 N 
ATOM     17  H1  UNL     1       1.655  -1.682  -1.521  1.00  0.00     0.187 HD
HETATM   18  C3  UNL     1       4.547  -0.853  -0.626  1.00  0.00     0.058 A 
ATOM     19  H2  UNL     1       4.007  -2.530  -1.737  1.00  0.00     0.186 HD
HETATM   20  C4  UNL     1       3.767   0.158  -0.101  1.00  0.00     0.004 A 
HETATM   21  C7  UNL     1       6.010  -0.755  -0.380  1.00  0.00     0.226 C 
HETATM   22  C5  UNL     1       4.519   1.191   0.643  1.00  0.00     0.069 C 
HETATM   23  C6  UNL     1       5.507   0.461   1.529  1.00  0.00     0.172 C 
HETATM   24  O2  UNL     1       6.348  -0.394   0.891  1.00  0.00    -0.385 OA
ENDBRANCH   2  14
TORSDOF 1
