REMARK  3 active torsions:
REMARK  status: ('A' for Active; 'I' for Inactive)
REMARK    1  A    between atoms: C4_4  and  N1_5 
REMARK    2  A    between atoms: N1_5  and  C5_7 
REMARK    3  A    between atoms: C5_7  and  N2_9 
ROOT
HETATM    1  N2  UNL     1      -0.698  -1.577   0.159  1.00  0.00    -0.351 N 
HETATM    2  C6  UNL     1      -1.064  -2.643   1.112  1.00  0.00     0.151 C 
HETATM    3  C7  UNL     1      -2.518  -2.312   1.474  1.00  0.00     0.191 C 
HETATM    4  O1  UNL     1      -2.638  -0.931   1.577  1.00  0.00    -0.352 OA
HETATM    5  C8  UNL     1      -2.786  -0.318   0.318  1.00  0.00     0.180 C 
HETATM    6  C9  UNL     1      -4.208  -0.481  -0.107  1.00  0.00     0.070 C 
HETATM    7  C10 UNL     1      -5.069   0.610   0.477  1.00  0.00     0.007 C 
HETATM    8  C11 UNL     1      -4.616   1.924  -0.122  1.00  0.00     0.026 C 
HETATM    9  C12 UNL     1      -3.168   1.817  -0.473  1.00  0.00     0.171 C 
HETATM   10  O2  UNL     1      -2.443   1.008   0.386  1.00  0.00    -0.353 OA
HETATM   11  C13 UNL     1      -1.804  -1.046  -0.588  1.00  0.00     0.193 C 
ENDROOT
BRANCH   1  12
HETATM   12  C5  UNL     1       0.656  -1.182   0.065  1.00  0.00     0.170 C 
HETATM   13  S1  UNL     1       1.775  -1.939   1.031  1.00  0.00    -0.041 SA
BRANCH  12  14
HETATM   14  N1  UNL     1       1.146  -0.175  -0.800  1.00  0.00    -0.362 N 
ATOM     15  H1  UNL     1       0.464   0.295  -1.395  1.00  0.00     0.162 HD
BRANCH  14  16
HETATM   16  C4  UNL     1       2.501   0.243  -0.917  1.00  0.00     0.088 C 
HETATM   17  C3  UNL     1       3.121   0.789   0.343  1.00  0.00     0.056 C 
HETATM   18  C2  UNL     1       4.276   1.679  -0.123  1.00  0.00     0.119 C 
HETATM   19  C1  UNL     1       5.092   2.191   1.026  1.00  0.00     0.039 C 
HETATM   20  O3  UNL     1       5.014   1.022  -1.087  1.00  0.00    -0.386 OA
HETATM   21  C15 UNL     1       4.861  -0.346  -1.120  1.00  0.00     0.170 C 
HETATM   22  C14 UNL     1       3.448  -0.773  -1.469  1.00  0.00     0.051 C 
ENDBRANCH  14  16
ENDBRANCH  12  14
ENDBRANCH   1  12
TORSDOF 3
