REMARK  5 active torsions:
REMARK  status: ('A' for Active; 'I' for Inactive)
REMARK    1  A    between atoms: C2_2  and  N1_3 
REMARK    2  A    between atoms: C3_6  and  O1_7 
REMARK    3  A    between atoms: C3_6  and  N2_9 
REMARK       I    between atoms: N3_15  and  C9_16 
REMARK    4  A    between atoms: C9_16  and  O3_18 
REMARK    5  A    between atoms: O3_18  and  C10_19 
ROOT
HETATM    1  N2  UNL     1       3.331   0.271  -0.494  1.00  0.00    -0.360 N 
HETATM    2  C4  UNL     1       2.577  -0.921  -0.389  1.00  0.00     0.126 C 
HETATM    3  C5  UNL     1       1.144  -0.565  -0.667  1.00  0.00     0.031 C 
HETATM    4  C6  UNL     1       1.070   0.889  -0.312  1.00  0.00    -0.020 C 
HETATM    5  C7  UNL     1       0.016   1.661  -1.027  1.00  0.00     0.031 C 
HETATM    6  C8  UNL     1      -1.267   1.789  -0.241  1.00  0.00     0.129 C 
HETATM    7  N3  UNL     1      -1.332   0.881   0.862  1.00  0.00    -0.328 N 
HETATM    8  C9  UNL     1      -2.455   0.005   0.958  1.00  0.00     0.363 C 
HETATM    9  O2  UNL     1      -2.567  -0.818   1.909  1.00  0.00    -0.238 OA
HETATM   10  C14 UNL     1      -0.267   0.882   1.832  1.00  0.00     0.129 C 
HETATM   11  C15 UNL     1       1.055   1.062   1.174  1.00  0.00     0.031 C 
HETATM   12  C16 UNL     1       2.435   1.385  -0.821  1.00  0.00     0.134 C 
ENDROOT
BRANCH   1  13
HETATM   13  C3  UNL     1       4.719   0.450  -0.316  1.00  0.00     0.160 C 
HETATM   14  C2  UNL     1       5.710  -0.535   0.033  1.00  0.00     0.050 C 
HETATM   15  C1  UNL     1       7.175  -0.123   0.163  1.00  0.00     0.072 C 
BRANCH  14  16
HETATM   16  N1  UNL     1       5.479  -1.739   0.244  1.00  0.00    -0.399 N 
ATOM     17  H12 UNL     1       6.181  -2.437   0.491  1.00  0.00     0.156 HD
ATOM     18  H11 UNL     1       4.501  -2.014   0.157  1.00  0.00     0.156 HD
ENDBRANCH  14  16
BRANCH  13  19
HETATM   19  O1  UNL     1       5.170   1.665  -0.490  1.00  0.00    -0.345 OA
ATOM     20  H1  UNL     1       4.516   2.315  -0.720  1.00  0.00     0.219 HD
ENDBRANCH  13  19
ENDBRANCH   1  13
BRANCH   8  21
HETATM   21  O3  UNL     1      -3.477  -0.007   0.039  1.00  0.00    -0.294 OA
BRANCH  21  22
HETATM   22  C10 UNL     1      -4.593  -0.819   0.059  1.00  0.00     0.061 C 
HETATM   23  C11 UNL     1      -4.333  -2.290   0.011  1.00  0.00     0.046 C 
HETATM   24  C12 UNL     1      -5.444  -0.474  -1.167  1.00  0.00     0.046 C 
HETATM   25  C13 UNL     1      -5.488  -0.554   1.266  1.00  0.00     0.046 C 
ENDBRANCH  21  22
ENDBRANCH   8  21
TORSDOF 5
