REMARK  8 active torsions:
REMARK  status: ('A' for Active; 'I' for Inactive)
REMARK    1  A    between atoms: N1_1  and  C1_4 
REMARK    2  A    between atoms: C1_4  and  C2_5 
REMARK    3  A    between atoms: C1_4  and  N2_10 
REMARK    4  A    between atoms: C2_5  and  C3_6 
REMARK    5  A    between atoms: C3_6  and  C4_7 
REMARK    6  A    between atoms: C4_7  and  C5_8 
REMARK    7  A    between atoms: N2_10  and  C6_12 
REMARK    8  A    between atoms: C7_17  and  C8_18 
ROOT
HETATM    1  C6  UNL     1       0.293  -1.393   0.502  1.00  0.00     0.166 A 
HETATM    2  N3  UNL     1       0.583  -0.300   1.212  1.00  0.00    -0.279 N 
ATOM      3  H3  UNL     1      -0.051   0.028   1.940  1.00  0.00     0.189 HD
HETATM    4  N4  UNL     1       1.658   0.322   0.967  1.00  0.00    -0.291 N 
ATOM      5  H4  UNL     1       1.886   1.158   1.505  1.00  0.00     0.187 HD
HETATM    6  C7  UNL     1       2.486  -0.090   0.032  1.00  0.00     0.105 A 
HETATM    7  S2  UNL     1       1.643  -1.490  -0.541  1.00  0.00    -0.033 SA
ENDROOT
BRANCH   1   8
HETATM    8  N2  UNL     1      -0.756  -2.178   0.591  1.00  0.00    -0.325 N 
ATOM      9  H2  UNL     1      -0.828  -2.982  -0.032  1.00  0.00     0.169 HD
BRANCH   8  10
HETATM   10  C1  UNL     1      -1.783  -1.939   1.523  1.00  0.00     0.076 C 
BRANCH  10  11
HETATM   11  N1  UNL     1      -1.536  -2.005   2.768  1.00  0.00    -0.389 N 
ATOM     12  H12 UNL     1      -2.280  -1.832   3.444  1.00  0.00     0.157 HD
ATOM     13  H11 UNL     1      -0.597  -2.231   3.096  1.00  0.00     0.157 HD
ENDBRANCH  10  11
BRANCH  10  14
HETATM   14  C2  UNL     1      -3.138  -1.613   1.050  1.00  0.00     0.076 C 
BRANCH  14  15
HETATM   15  C3  UNL     1      -3.045  -0.347   0.227  1.00  0.00     0.008 C 
BRANCH  15  16
HETATM   16  C4  UNL     1      -4.393   0.077  -0.309  1.00  0.00     0.011 C 
BRANCH  16  17
HETATM   17  C5  UNL     1      -4.183   1.343  -1.110  1.00  0.00     0.086 C 
HETATM   18  S1  UNL     1      -3.490   2.587   0.035  1.00  0.00    -0.098 SA
ENDBRANCH  16  17
ENDBRANCH  15  16
ENDBRANCH  14  15
ENDBRANCH  10  14
ENDBRANCH   8  10
ENDBRANCH   1   8
BRANCH   6  19
HETATM   19  C8  UNL     1       3.763   0.449  -0.425  1.00  0.00     0.038 A 
HETATM   20  C9  UNL     1       4.283   1.560   0.135  1.00  0.00     0.103 A 
HETATM   21  N5  UNL     1       5.480   2.081  -0.280  1.00  0.00    -0.373 N 
HETATM   22  C10 UNL     1       6.160   1.473  -1.274  1.00  0.00     0.113 A 
ATOM     23  H5  UNL     1       5.854   2.922   0.159  1.00  0.00     0.164 HD
HETATM   24  C11 UNL     1       5.676   0.330  -1.887  1.00  0.00     0.072 A 
HETATM   25 CL1  UNL     1       6.498  -0.500  -3.167  1.00  0.00    -0.081 Cl
HETATM   26  C12 UNL     1       4.457  -0.170  -1.438  1.00  0.00     0.071 A 
HETATM   27 CL2  UNL     1       3.830  -1.612  -2.200  1.00  0.00    -0.081 Cl
ENDBRANCH   6  19
TORSDOF 8
