REMARK  8 active torsions:
REMARK  status: ('A' for Active; 'I' for Inactive)
REMARK    1  A    between atoms: C3_3  and  C4_4 
REMARK    2  A    between atoms: C4_4  and  N1_5 
REMARK    3  A    between atoms: N1_5  and  N2_6 
REMARK    4  A    between atoms: N2_6  and  C5_8 
REMARK    5  A    between atoms: C5_8  and  C6_12 
REMARK    6  A    between atoms: C10_18  and  N4_19 
REMARK    7  A    between atoms: N4_19  and  C11_21 
REMARK    8  A    between atoms: C14_24  and  N5_25 
ROOT
HETATM    1  C1  UNL     1       0.705   2.159  -1.366  1.00  0.00     0.052 C 
HETATM    2  C2  UNL     1      -0.169   1.157  -0.753  1.00  0.00    -0.014 A 
HETATM    3  C3  UNL     1       0.372   0.178   0.038  1.00  0.00     0.003 A 
HETATM    4  C8  UNL     1      -0.425  -0.777   0.628  1.00  0.00     0.017 A 
HETATM    5  C9  UNL     1      -1.788  -0.728   0.403  1.00  0.00     0.032 A 
HETATM    6  C10 UNL     1      -2.338   0.259  -0.395  1.00  0.00     0.062 A 
HETATM    7  C14 UNL     1      -1.544   1.217  -0.987  1.00  0.00     0.136 A 
ENDROOT
BRANCH   3   8
HETATM    8  C4  UNL     1       1.839   0.132   0.272  1.00  0.00     0.221 C 
BRANCH   8   9
HETATM    9  N1  UNL     1       2.337  -0.685   0.941  1.00  0.00    -0.336 NA
BRANCH   9  10
HETATM   10  N2  UNL     1       3.060  -1.501   1.639  1.00  0.00    -0.221 N 
ATOM     11  H2  UNL     1       2.713  -1.869   2.525  1.00  0.00     0.203 HD
BRANCH  10  12
HETATM   12  C5  UNL     1       4.381  -1.889   1.143  1.00  0.00     0.140 C 
HETATM   13  N3  UNL     1       4.492  -2.952   0.429  1.00  0.00    -0.385 N 
ATOM     14  H32 UNL     1       3.717  -3.564   0.173  1.00  0.00     0.157 HD
ATOM     15  H31 UNL     1       5.413  -3.222   0.083  1.00  0.00     0.157 HD
BRANCH  12  16
HETATM   16  C6  UNL     1       5.494  -1.010   1.511  1.00  0.00     0.169 C 
HETATM   17  C7  UNL     1       5.323   0.379   0.957  1.00  0.00     0.059 C 
HETATM   18 CL1  UNL     1       5.536  -0.897   3.303  1.00  0.00    -0.093 Cl
HETATM   19 CL2  UNL     1       7.022  -1.709   0.909  1.00  0.00    -0.093 Cl
ENDBRANCH  12  16
ENDBRANCH  10  12
ENDBRANCH   9  10
ENDBRANCH   8   9
ENDBRANCH   3   8
BRANCH   7  20
HETATM   20  N5  UNL     1      -2.033   2.237  -1.801  1.00  0.00    -0.113 N 
HETATM   21  O1  UNL     1      -2.074   3.409  -1.328  1.00  0.00    -0.532 OA
HETATM   22  O2  UNL     1      -2.481   2.088  -3.085  1.00  0.00    -0.532 OA
ENDBRANCH   7  20
BRANCH   6  23
HETATM   23  N4  UNL     1      -3.748   0.329  -0.641  1.00  0.00    -0.383 N 
ATOM     24  H4  UNL     1      -4.124   1.071  -1.232  1.00  0.00     0.160 HD
BRANCH  23  25
HETATM   25  C11 UNL     1      -4.634  -0.638  -0.061  1.00  0.00     0.082 A 
HETATM   26  C12 UNL     1      -6.102  -0.458  -0.388  1.00  0.00     0.027 A 
HETATM   27  C13 UNL     1      -5.588  -0.290   1.021  1.00  0.00     0.027 A 
ENDBRANCH  23  25
ENDBRANCH   6  23
TORSDOF 8
