REMARK  8 active torsions:
REMARK  status: ('A' for Active; 'I' for Inactive)
REMARK    1  A    between atoms: C2_2  and  N1_3 
REMARK    2  A    between atoms: N1_3  and  C3_5 
REMARK    3  A    between atoms: C3_5  and  C4_6 
REMARK    4  A    between atoms: C4_6  and  O2_8 
REMARK    5  A    between atoms: O2_8  and  C5_9 
REMARK    6  A    between atoms: C9_13  and  C11_15 
REMARK    7  A    between atoms: C13_17  and  O3_18 
REMARK    8  A    between atoms: C16_24  and  O4_25 
ROOT
HETATM    1  C3  UNL     1      -0.050  -0.662  -0.235  1.00  0.00     0.111 C 
HETATM    2  C9  UNL     1      -1.430  -0.611  -0.557  1.00  0.00    -0.016 C 
HETATM    3  C10 UNL     1      -1.873  -1.226  -1.887  1.00  0.00     0.052 C 
ENDROOT
BRANCH   2   4
HETATM    4  C11 UNL     1      -2.462   0.285  -0.020  1.00  0.00     0.010 A 
HETATM    5  C12 UNL     1      -3.421  -0.149   0.926  1.00  0.00     0.053 A 
HETATM    6  C13 UNL     1      -4.332   0.674   1.538  1.00  0.00     0.090 A 
HETATM    7  C14 UNL     1      -4.363   2.015   1.254  1.00  0.00     0.091 A 
HETATM    8 CL1  UNL     1      -5.512   3.113   2.002  1.00  0.00    -0.079 Cl
HETATM    9  C15 UNL     1      -3.452   2.479   0.339  1.00  0.00     0.092 A 
HETATM   10 CL2  UNL     1      -3.491   4.201  -0.036  1.00  0.00    -0.079 Cl
HETATM   11  C16 UNL     1      -2.531   1.649  -0.281  1.00  0.00     0.100 A 
BRANCH   6  12
HETATM   12  O3  UNL     1      -5.239   0.168   2.457  1.00  0.00    -0.359 OA
ATOM     13  H3  UNL     1      -5.870   0.738   2.881  1.00  0.00     0.217 HD
ENDBRANCH   6  12
BRANCH  11  14
HETATM   14  O4  UNL     1      -1.697   2.234  -1.183  1.00  0.00    -0.358 OA
ATOM     15  H4  UNL     1      -1.744   3.166  -1.361  1.00  0.00     0.217 HD
ENDBRANCH  11  14
ENDBRANCH   2   4
BRANCH   1  16
HETATM   16  N1  UNL     1       0.461  -1.848   0.143  1.00  0.00    -0.385 N 
ATOM     17  H1  UNL     1       1.468  -1.841   0.307  1.00  0.00     0.159 HD
BRANCH  16  18
HETATM   18  C2  UNL     1      -0.140  -3.070   0.347  1.00  0.00     0.115 C 
HETATM   19  C1  UNL     1       0.952  -4.162   0.184  1.00  0.00     0.026 C 
ENDBRANCH  16  18
ENDBRANCH   1  16
BRANCH   1  20
HETATM   20  C4  UNL     1       1.020   0.312  -0.293  1.00  0.00     0.311 C 
HETATM   21  O1  UNL     1       0.951   1.529  -0.526  1.00  0.00    -0.258 OA
BRANCH  20  22
HETATM   22  O2  UNL     1       2.368  -0.098  -0.069  1.00  0.00    -0.306 OA
BRANCH  22  23
HETATM   23  C5  UNL     1       3.367   0.909  -0.092  1.00  0.00     0.060 C 
HETATM   24  C6  UNL     1       3.335   1.738  -1.334  1.00  0.00     0.046 C 
HETATM   25  C7  UNL     1       3.426   1.724   1.145  1.00  0.00     0.046 C 
HETATM   26  C8  UNL     1       4.692   0.099  -0.179  1.00  0.00     0.046 C 
ENDBRANCH  22  23
ENDBRANCH  20  22
ENDBRANCH   1  20
TORSDOF 8
