REMARK  13 active torsions:
REMARK  status: ('A' for Active; 'I' for Inactive)
REMARK    1  A    between atoms: C3_3  and  O1_4 
REMARK    2  A    between atoms: C4_6  and  N1_7 
REMARK    3  A    between atoms: C11_14  and  O2_15 
REMARK    4  A    between atoms: C12_17  and  C13_18 
REMARK    5  A    between atoms: N2_19  and  N3_21 
REMARK       I    between atoms: N3_21  and  C14_23 
REMARK    6  A    between atoms: C14_23  and  C15_25 
REMARK    7  A    between atoms: C15_25  and  C16_26 
REMARK    8  A    between atoms: C15_25  and  N5_31 
REMARK    9  A    between atoms: C16_26  and  N4_27 
REMARK   10  A    between atoms: N5_31  and  N6_33 
REMARK       I    between atoms: N6_33  and  C17_35 
REMARK   11  A    between atoms: C17_35  and  C18_37 
REMARK   12  A    between atoms: N7_39  and  C20_40 
REMARK   13  A    between atoms: C21_46  and  N10_47 
ROOT
HETATM    1  C15 UNL     1       2.784  -1.159   1.064  1.00  0.00     0.218 C 
ENDROOT
BRANCH   1   2
HETATM    2  C14 UNL     1       1.303  -1.058   0.762  1.00  0.00     0.262 C 
HETATM    3  N3  UNL     1       0.411  -1.472   1.773  1.00  0.00    -0.269 N 
ATOM      4  H3  UNL     1       0.756  -1.825   2.665  1.00  0.00     0.190 HD
HETATM    5  O3  UNL     1       0.953  -0.618  -0.350  1.00  0.00    -0.269 OA
BRANCH   3   6
HETATM    6  N2  UNL     1      -0.958  -1.384   1.516  1.00  0.00    -0.308 N 
HETATM    7  C13 UNL     1      -1.466  -0.269   1.174  1.00  0.00     0.122 C 
ATOM      8  H2  UNL     1      -1.549  -2.211   1.602  1.00  0.00     0.186 HD
BRANCH   7   9
HETATM    9  C12 UNL     1      -2.863  -0.006   0.873  1.00  0.00     0.023 A 
HETATM   10  C2  UNL     1      -3.840  -0.979   0.924  1.00  0.00    -0.012 A 
HETATM   11  C1  UNL     1      -3.483  -2.369   1.305  1.00  0.00     0.052 C 
HETATM   12  C3  UNL     1      -5.162  -0.635   0.615  1.00  0.00     0.099 A 
HETATM   13  C4  UNL     1      -5.504   0.665   0.259  1.00  0.00     0.067 A 
HETATM   14  C10 UNL     1      -4.524   1.624   0.211  1.00  0.00     0.069 A 
HETATM   15  C11 UNL     1      -3.225   1.286   0.515  1.00  0.00     0.080 A 
BRANCH  12  16
HETATM   16  O1  UNL     1      -6.188  -1.538   0.642  1.00  0.00    -0.358 OA
ATOM     17  H1  UNL     1      -7.085  -1.305   0.432  1.00  0.00     0.217 HD
ENDBRANCH  12  16
BRANCH  13  18
HETATM   18  N1  UNL     1      -6.825   1.080  -0.075  1.00  0.00    -0.379 N 
HETATM   19  C5  UNL     1      -7.434   0.484  -1.237  1.00  0.00     0.123 C 
HETATM   20  C6  UNL     1      -8.748  -0.158  -0.932  1.00  0.00     0.020 C 
HETATM   21  C7  UNL     1      -9.298   0.345   0.376  1.00  0.00     0.003 C 
HETATM   22  C8  UNL     1      -9.026   1.852   0.476  1.00  0.00     0.020 C 
HETATM   23  C9  UNL     1      -7.546   2.059   0.684  1.00  0.00     0.123 C 
ENDBRANCH  13  18
BRANCH  15  24
HETATM   24  O2  UNL     1      -2.259   2.260   0.462  1.00  0.00    -0.360 OA
ATOM     25  H2  UNL     1      -1.362   2.027   0.672  1.00  0.00     0.217 HD
ENDBRANCH  15  24
ENDBRANCH   7   9
ENDBRANCH   3   6
ENDBRANCH   1   2
BRANCH   1  26
HETATM   26  C16 UNL     1       2.958  -0.265   2.290  1.00  0.00     0.265 C 
BRANCH  26  27
HETATM   27  N4  UNL     1       4.320  -0.226   2.753  1.00  0.00    -0.077 N 
ATOM     28  H43 UNL     1       4.675  -1.166   2.930  1.00  0.00     0.274 HD
ATOM     29  H42 UNL     1       4.955   0.050   2.004  1.00  0.00     0.274 HD
ATOM     30  H41 UNL     1       4.436   0.371   3.572  1.00  0.00     0.274 HD
ENDBRANCH  26  27
ENDBRANCH   1  26
BRANCH   1  31
HETATM   31  N5  UNL     1       3.476  -0.704  -0.088  1.00  0.00    -0.318 N 
ATOM     32  H5  UNL     1       2.978  -0.306  -0.884  1.00  0.00     0.181 HD
BRANCH  31  33
HETATM   33  N6  UNL     1       4.851  -0.822  -0.086  1.00  0.00    -0.268 N 
HETATM   34  C17 UNL     1       5.628  -0.365  -1.191  1.00  0.00     0.289 C 
HETATM   35  O4  UNL     1       5.036   0.143  -2.165  1.00  0.00    -0.264 OA
ATOM     36  H6  UNL     1       5.318  -1.242   0.717  1.00  0.00     0.190 HD
BRANCH  34  37
HETATM   37  C18 UNL     1       7.076  -0.478  -1.207  1.00  0.00     0.136 A 
HETATM   38  C19 UNL     1       7.934  -0.112  -2.222  1.00  0.00     0.156 A 
HETATM   39  N7  UNL     1       9.215  -0.360  -1.874  1.00  0.00    -0.229 N 
HETATM   40  N11 UNL     1       9.134  -0.872  -0.660  1.00  0.00    -0.234 N 
HETATM   41  N12 UNL     1       7.896  -0.957  -0.233  1.00  0.00    -0.279 N 
ATOM     42  H11 UNL     1       9.943  -1.168  -0.115  1.00  0.00     0.209 HD
ATOM     43  H12 UNL     1       7.600  -1.320   0.673  1.00  0.00     0.189 HD
BRANCH  39  44
HETATM   44  C20 UNL     1      10.395  -0.130  -2.631  1.00  0.00     0.195 A 
HETATM   45  N8  UNL     1      10.972  -0.984  -3.511  1.00  0.00    -0.220 N 
HETATM   46  O5  UNL     1      12.029  -0.413  -3.998  1.00  0.00    -0.153 OA
ATOM     47  H8  UNL     1      10.633  -1.916  -3.749  1.00  0.00     0.198 HD
HETATM   48  N9  UNL     1      12.203   0.774  -3.502  1.00  0.00    -0.222 N 
HETATM   49  C21 UNL     1      11.188   0.984  -2.634  1.00  0.00     0.169 A 
ATOM     50  H9  UNL     1      12.959   1.422  -3.724  1.00  0.00     0.198 HD
BRANCH  49  51
HETATM   51  N10 UNL     1      11.012   2.053  -1.939  1.00  0.00    -0.381 N 
ATOM     52 2H10 UNL     1      10.246   2.211  -1.284  1.00  0.00     0.157 HD
ATOM     53 1H10 UNL     1      11.604   2.884  -1.941  1.00  0.00     0.157 HD
ENDBRANCH  49  51
ENDBRANCH  39  44
ENDBRANCH  34  37
ENDBRANCH  31  33
ENDBRANCH   1  31
TORSDOF 13
