REMARK  14 active torsions:
REMARK  status: ('A' for Active; 'I' for Inactive)
REMARK       I    between atoms: C2_2  and  N1_4 
REMARK    1  A    between atoms: N1_4  and  C3_6 
REMARK    2  A    between atoms: C4_7  and  S1_8 
REMARK    3  A    between atoms: S1_8  and  C5_9 
REMARK    4  A    between atoms: C6_12  and  C7_13 
REMARK    5  A    between atoms: C7_13  and  O2_14 
REMARK    6  A    between atoms: O2_14  and  C8_15 
REMARK    7  A    between atoms: C8_15  and  C9_17 
REMARK    8  A    between atoms: C11_19  and  O4_20 
REMARK    9  A    between atoms: C13_23  and  O5_24 
REMARK   10  A    between atoms: C14_26  and  O6_27 
REMARK   11  A    between atoms: C17_34  and  C18_35 
REMARK   12  A    between atoms: C18_35  and  O8_36 
REMARK   13  A    between atoms: C18_35  and  C19_38 
REMARK   14  A    between atoms: C20_41  and  O11_43 
ROOT
HETATM    1  C3  UNL     1      -3.110  -0.796   0.929  1.00  0.00     0.085 C 
HETATM    2  C4  UNL     1      -1.809  -0.347   1.031  1.00  0.00     0.100 C 
HETATM    3  N3  UNL     1      -1.483   0.958   0.617  1.00  0.00    -0.352 N 
ATOM      4  H3  UNL     1      -0.517   1.273   0.703  1.00  0.00     0.166 HD
HETATM    5  C15 UNL     1      -2.441   1.848   0.087  1.00  0.00     0.018 C 
HETATM    6  C16 UNL     1      -2.007   3.179  -0.395  1.00  0.00     0.069 C 
HETATM    7  C17 UNL     1      -3.743   1.460  -0.011  1.00  0.00     0.044 C 
HETATM    8  C20 UNL     1      -4.066   0.287   0.805  1.00  0.00     0.131 C 
HETATM    9  C21 UNL     1      -5.465  -0.073   1.066  1.00  0.00     0.058 C 
ENDROOT
BRANCH   2  10
HETATM   10  S1  UNL     1      -0.531  -1.533   1.418  1.00  0.00    -0.057 SA
BRANCH  10  11
HETATM   11  C5  UNL     1       1.076  -0.700   1.136  1.00  0.00     0.301 A 
HETATM   12  N2  UNL     1       1.237  -0.426  -0.232  1.00  0.00    -0.337 N 
HETATM   13  C6  UNL     1       2.205  -1.234  -0.351  1.00  0.00     0.144 A 
ATOM     14  H2  UNL     1       0.755   0.192  -0.885  1.00  0.00     0.164 HD
HETATM   15  O7  UNL     1       2.131  -1.569   0.969  1.00  0.00    -0.302 OA
BRANCH  13  16
HETATM   16  C7  UNL     1       3.088  -1.649  -1.516  1.00  0.00     0.263 C 
BRANCH  16  17
HETATM   17  O2  UNL     1       4.428  -1.349  -1.275  1.00  0.00    -0.309 OA
BRANCH  17  18
HETATM   18  C8  UNL     1       4.944  -0.099  -1.035  1.00  0.00     0.296 C 
HETATM   19  O3  UNL     1       4.143   0.877  -1.028  1.00  0.00    -0.259 OA
BRANCH  18  20
HETATM   20  C9  UNL     1       6.366   0.048  -0.802  1.00  0.00     0.078 A 
HETATM   21  C10 UNL     1       7.173  -1.060  -0.834  1.00  0.00     0.057 A 
HETATM   22  C11 UNL     1       8.513  -0.963  -0.624  1.00  0.00     0.069 A 
HETATM   23  C12 UNL     1       9.093   0.267  -0.370  1.00  0.00     0.076 A 
HETATM   24  C13 UNL     1       8.314   1.400  -0.331  1.00  0.00     0.102 A 
HETATM   25  C14 UNL     1       6.937   1.274  -0.551  1.00  0.00     0.115 A 
BRANCH  22  26
HETATM   26  O4  UNL     1       9.301  -2.097  -0.662  1.00  0.00    -0.361 OA
ATOM     27  H4  UNL     1      10.237  -2.029  -0.515  1.00  0.00     0.217 HD
ENDBRANCH  22  26
BRANCH  24  28
HETATM   28  O5  UNL     1       8.896   2.634  -0.076  1.00  0.00    -0.358 OA
ATOM     29  H5  UNL     1       8.358   3.417  -0.049  1.00  0.00     0.217 HD
ENDBRANCH  24  28
BRANCH  25  30
HETATM   30  O6  UNL     1       6.162   2.419  -0.509  1.00  0.00    -0.357 OA
ATOM     31  H6  UNL     1       6.556   3.266  -0.336  1.00  0.00     0.217 HD
ENDBRANCH  25  30
ENDBRANCH  18  20
ENDBRANCH  17  18
ENDBRANCH  16  17
ENDBRANCH  13  16
ENDBRANCH  10  11
ENDBRANCH   2  10
BRANCH   1  32
HETATM   32  N1  UNL     1      -3.263  -2.171   1.122  1.00  0.00    -0.326 N 
HETATM   33  C2  UNL     1      -4.266  -3.116   1.120  1.00  0.00     0.218 C 
HETATM   34  C1  UNL     1      -3.869  -4.602   1.429  1.00  0.00     0.117 C 
HETATM   35  O1  UNL     1      -5.481  -3.078   0.921  1.00  0.00    -0.274 OA
ATOM     36  H1  UNL     1      -2.363  -2.606   1.325  1.00  0.00     0.168 HD
ENDBRANCH   1  32
BRANCH   8  37
HETATM   37  O11 UNL     1      -3.821   1.007   2.193  1.00  0.00    -0.379 OA
ATOM     38  H11 UNL     1      -4.447   1.717   2.112  1.00  0.00     0.211 HD
ENDBRANCH   8  37
BRANCH   7  39
HETATM   39  C18 UNL     1      -4.701   2.385  -0.595  1.00  0.00     0.154 C 
BRANCH  39  40
HETATM   40  O8  UNL     1      -4.230   3.609  -0.851  1.00  0.00    -0.354 OA
ATOM     41  H8  UNL     1      -4.856   4.213  -1.233  1.00  0.00     0.218 HD
ENDBRANCH  39  40
BRANCH  39  42
HETATM   42  C19 UNL     1      -6.089   2.295  -0.990  1.00  0.00     0.234 C 
HETATM   43  O9  UNL     1      -6.674   1.133  -1.339  1.00  0.00    -0.642 OA
HETATM   44  O10 UNL     1      -6.886   3.064  -0.108  1.00  0.00    -0.642 OA
ENDBRANCH  39  42
ENDBRANCH   7  39
TORSDOF 14
