REMARK  10 active torsions:
REMARK  status: ('A' for Active; 'I' for Inactive)
REMARK    1  A    between atoms: N1_2  and  C3_4 
REMARK    2  A    between atoms: N3_9  and  C6_10 
REMARK    3  A    between atoms: C10_22  and  O1_23 
REMARK    4  A    between atoms: C10_22  and  N8_25 
REMARK    5  A    between atoms: N8_25  and  C11_27 
REMARK    6  A    between atoms: C11_27  and  C12_28 
REMARK    7  A    between atoms: N9_32  and  C14_33 
REMARK    8  A    between atoms: C17_41  and  O4_42 
REMARK    9  A    between atoms: N13_46  and  C18_47 
REMARK   10  A    between atoms: C18_47  and  C19_48 
ROOT
HETATM    1  C3  UNL     1      -2.702   0.296  -0.966  1.00  0.00     0.138 A 
HETATM    2  C4  UNL     1      -1.400   0.136  -1.348  1.00  0.00     0.107 A 
HETATM    3  C5  UNL     1      -0.219  -0.352  -0.674  1.00  0.00     0.140 C 
HETATM    4  N2  UNL     1       0.981   0.206  -0.757  1.00  0.00    -0.279 N 
ATOM      5  H2  UNL     1       1.204   1.039  -1.302  1.00  0.00     0.189 HD
HETATM    6  N3  UNL     1       1.886  -0.511   0.007  1.00  0.00    -0.255 N 
HETATM    7  C13 UNL     1       1.026  -1.105   1.061  1.00  0.00     0.279 C 
HETATM    8  N9  UNL     1      -0.078  -1.494   0.146  1.00  0.00    -0.315 N 
HETATM    9  C17 UNL     1      -1.352   0.564  -2.695  1.00  0.00     0.173 A 
HETATM   10  N12 UNL     1      -2.585   0.948  -3.044  1.00  0.00    -0.275 N 
ATOM     11  H12 UNL     1      -2.851   1.306  -3.961  1.00  0.00     0.189 HD
HETATM   12  N13 UNL     1      -3.414   0.792  -2.010  1.00  0.00    -0.274 N 
ENDROOT
BRANCH   6  13
HETATM   13  C6  UNL     1       3.272  -0.776  -0.099  1.00  0.00     0.157 A 
HETATM   14  N4  UNL     1       3.538  -1.843  -0.977  1.00  0.00    -0.174 N 
HETATM   15  C7  UNL     1       4.773  -2.289  -1.126  1.00  0.00     0.678 A 
ATOM     16  H4  UNL     1       2.775  -2.273  -1.500  1.00  0.00     0.186 HD
HETATM   17  N5  UNL     1       5.018  -3.265  -1.930  1.00  0.00    -0.234 N 
HETATM   18  N6  UNL     1       5.765  -1.719  -0.434  1.00  0.00    -0.178 N 
ATOM     19  H52 UNL     1       4.261  -3.700  -2.458  1.00  0.00     0.174 HD
ATOM     20  H51 UNL     1       5.971  -3.609  -2.045  1.00  0.00     0.174 HD
HETATM   21  C8  UNL     1       5.555  -0.711   0.403  1.00  0.00     0.150 A 
ATOM     22  H6  UNL     1       6.715  -2.071  -0.554  1.00  0.00     0.185 HD
HETATM   23  N7  UNL     1       6.628  -0.135   1.122  1.00  0.00    -0.081 NA
HETATM   24  C9  UNL     1       4.246  -0.179   0.607  1.00  0.00     0.102 A 
HETATM   25  C10 UNL     1       4.112   0.926   1.500  1.00  0.00     0.153 C 
BRANCH  25  26
HETATM   26  O1  UNL     1       5.212   1.289   2.097  1.00  0.00    -0.345 OA
ATOM     27  H1  UNL     1       5.123   2.025   2.691  1.00  0.00     0.219 HD
ENDBRANCH  25  26
BRANCH  25  28
HETATM   28  N8  UNL     1       2.985   1.684   1.831  1.00  0.00    -0.360 N 
ATOM     29  H8  UNL     1       2.078   1.479   1.411  1.00  0.00     0.162 HD
BRANCH  28  30
HETATM   30  C11 UNL     1       3.136   2.799   2.811  1.00  0.00     0.235 C 
BRANCH  30  31
HETATM   31  C12 UNL     1       1.812   3.435   2.999  1.00  0.00     0.191 C 
HETATM   32  O2  UNL     1       0.808   3.013   2.372  1.00  0.00    -0.647 OA
HETATM   33  O3  UNL     1       1.635   4.509   3.863  1.00  0.00    -0.647 OA
ENDBRANCH  30  31
ENDBRANCH  28  30
ENDBRANCH  25  28
ENDBRANCH   6  13
BRANCH   8  34
HETATM   34  C14 UNL     1      -0.754  -2.748   0.143  1.00  0.00     0.330 C 
HETATM   35  C15 UNL     1      -0.253  -3.638   1.218  1.00  0.00     0.111 C 
HETATM   36  N10 UNL     1      -0.265  -4.827   0.793  1.00  0.00    -0.376 N 
HETATM   37  C16 UNL     1      -0.753  -4.873  -0.556  1.00  0.00     0.357 C 
ATOM     38  H10 UNL     1       0.031  -5.641   1.333  1.00  0.00     0.160 HD
HETATM   39  N11 UNL     1      -0.495  -3.515  -1.066  1.00  0.00    -0.034 N 
ATOM     40 2H11 UNL     1      -1.025  -3.240  -1.893  1.00  0.00     0.282 HD
ATOM     41 1H11 UNL     1       0.415  -3.367  -1.503  1.00  0.00     0.282 HD
ENDBRANCH   8  34
BRANCH   1  42
HETATM   42  N1  UNL     1      -3.186   0.016   0.344  1.00  0.00    -0.374 N 
HETATM   43  C1  UNL     1      -2.466   0.441   1.553  1.00  0.00     0.150 C 
HETATM   44  C2  UNL     1      -4.409  -0.723   0.605  1.00  0.00     0.150 C 
ENDBRANCH   1  42
BRANCH   9  45
HETATM   45  O4  UNL     1      -0.218   0.581  -3.505  1.00  0.00    -0.344 OA
ATOM     46  H4  UNL     1      -0.186   0.869  -4.410  1.00  0.00     0.219 HD
ENDBRANCH   9  45
BRANCH  12  47
HETATM   47  C18 UNL     1      -4.803   1.113  -2.072  1.00  0.00     0.155 C 
BRANCH  47  48
HETATM   48  C19 UNL     1      -5.131   2.527  -1.645  1.00  0.00     0.005 A 
HETATM   49  C20 UNL     1      -4.518   3.645  -2.411  1.00  0.00     0.007 A 
HETATM   50  C21 UNL     1      -4.136   3.380  -0.995  1.00  0.00     0.007 A 
ENDBRANCH  47  48
ENDBRANCH  12  47
TORSDOF 10
