REMARK  9 active torsions:
REMARK  status: ('A' for Active; 'I' for Inactive)
REMARK    1  A    between atoms: N1_2  and  C2_4 
REMARK    2  A    between atoms: C3_7  and  N3_8 
REMARK    3  A    between atoms: N3_8  and  N4_9 
REMARK    4  A    between atoms: N4_9  and  C4_11 
REMARK    5  A    between atoms: C5_19  and  N9_20 
REMARK       I    between atoms: N9_20  and  C6_21 
REMARK    6  A    between atoms: C6_21  and  C7_23 
REMARK    7  A    between atoms: N12_30  and  C10_31 
REMARK    8  A    between atoms: C14_35  and  C15_36 
REMARK    9  A    between atoms: C17_40  and  C19_42 
ROOT
HETATM    1  C2  UNL     1      -3.251  -1.813  -1.049  1.00  0.00     0.138 C 
HETATM    2  N2  UNL     1      -2.278  -1.112  -1.519  1.00  0.00    -0.345 N 
ATOM      3  H2  UNL     1      -1.877  -1.376  -2.419  1.00  0.00     0.163 HD
HETATM    4  C3  UNL     1      -1.733   0.026  -0.831  1.00  0.00     0.262 C 
HETATM    5  C5  UNL     1      -1.473  -0.407   0.629  1.00  0.00     0.136 C 
HETATM    6  C17 UNL     1      -2.702  -0.399   1.458  1.00  0.00     0.155 C 
HETATM    7  C18 UNL     1      -2.428  -1.163   2.750  1.00  0.00     0.047 C 
HETATM    8  S1  UNL     1      -3.961  -1.373   0.510  1.00  0.00    -0.066 SA
ENDROOT
BRANCH   5   9
HETATM    9  N9  UNL     1      -0.266   0.025   1.086  1.00  0.00    -0.368 NA
HETATM   10  C6  UNL     1       0.957   0.478   1.548  1.00  0.00     0.346 C 
HETATM   11  O1  UNL     1       1.306   1.705   1.647  1.00  0.00    -0.249 OA
BRANCH  10  12
HETATM   12  C7  UNL     1       2.028  -0.436   1.981  1.00  0.00     0.164 A 
HETATM   13  C8  UNL     1       2.008  -1.212   3.111  1.00  0.00     0.059 A 
HETATM   14  C9  UNL     1       1.016  -1.342   4.209  1.00  0.00     0.072 C 
HETATM   15  N10 UNL     1       3.199  -1.902   3.062  1.00  0.00    -0.288 N 
HETATM   16  N11 UNL     1       3.844  -1.554   1.999  1.00  0.00    -0.235 N 
ATOM     17  H10 UNL     1       3.520  -2.579   3.754  1.00  0.00     0.188 HD
HETATM   18  N12 UNL     1       3.158  -0.648   1.294  1.00  0.00    -0.234 N 
ATOM     19  H11 UNL     1       4.757  -1.922   1.732  1.00  0.00     0.209 HD
BRANCH  18  20
HETATM   20  C10 UNL     1       3.651  -0.118   0.081  1.00  0.00     0.059 A 
HETATM   21  C11 UNL     1       2.911   0.321  -0.983  1.00  0.00     0.031 A 
HETATM   22  C12 UNL     1       3.501   0.785  -2.170  1.00  0.00     0.003 A 
HETATM   23  C13 UNL     1       4.871   0.811  -2.294  1.00  0.00     0.017 A 
HETATM   24  C14 UNL     1       5.645   0.376  -1.241  1.00  0.00     0.031 A 
HETATM   25  C16 UNL     1       5.041  -0.062  -0.115  1.00  0.00     0.048 A 
BRANCH  24  26
HETATM   26  C15 UNL     1       7.116   0.397  -1.402  1.00  0.00     0.265 C 
HETATM   27  N13 UNL     1       7.697   0.709  -2.669  1.00  0.00    -0.057 NA
HETATM   28  O2  UNL     1       7.774   0.131  -0.382  1.00  0.00    -0.271 OA
ENDBRANCH  24  26
ENDBRANCH  18  20
ENDBRANCH  10  12
ENDBRANCH   5   9
BRANCH   4  29
HETATM   29  N3  UNL     1      -2.544   1.184  -0.965  1.00  0.00    -0.093 NA
BRANCH  29  30
HETATM   30  N4  UNL     1      -2.584   1.652  -2.310  1.00  0.00    -0.132 N 
ATOM     31  H4  UNL     1      -2.162   1.104  -3.060  1.00  0.00     0.201 HD
BRANCH  30  32
HETATM   32  C4  UNL     1      -3.212   2.879  -2.593  1.00  0.00     0.722 A 
HETATM   33  N5  UNL     1      -2.693   4.041  -3.001  1.00  0.00    -0.112 N 
HETATM   34  N6  UNL     1      -3.651   4.941  -3.135  1.00  0.00     0.009 NA
ATOM     35  H5  UNL     1      -1.703   4.208  -3.182  1.00  0.00     0.203 HD
HETATM   36  N7  UNL     1      -4.813   4.376  -2.811  1.00  0.00    -0.211 N 
HETATM   37  N8  UNL     1      -4.530   3.141  -2.491  1.00  0.00    -0.117 N 
ATOM     38  H7  UNL     1      -5.733   4.816  -2.812  1.00  0.00     0.206 HD
ATOM     39  H8  UNL     1      -5.226   2.455  -2.198  1.00  0.00     0.207 HD
ENDBRANCH  30  32
ENDBRANCH  29  30
ENDBRANCH   4  29
BRANCH   6  40
HETATM   40  C19 UNL     1      -3.284   0.878   1.838  1.00  0.00     0.199 C 
HETATM   41  O3  UNL     1      -4.558   1.035   1.760  1.00  0.00    -0.646 OA
HETATM   42  O4  UNL     1      -2.590   1.969   2.293  1.00  0.00    -0.646 OA
ENDBRANCH   6  40
BRANCH   1  43
HETATM   43  N1  UNL     1      -3.758  -2.949  -1.783  1.00  0.00    -0.375 N 
HETATM   44  C1  UNL     1      -3.759  -4.267  -1.199  1.00  0.00     0.148 C 
ATOM     45  H1  UNL     1      -4.120  -2.817  -2.727  1.00  0.00     0.161 HD
ENDBRANCH   1  43
TORSDOF 9
