REMARK  13 active torsions:
REMARK  status: ('A' for Active; 'I' for Inactive)
REMARK    1  A    between atoms: C6_7  and  O2_8 
REMARK    2  A    between atoms: O2_8  and  C7_9 
REMARK    3  A    between atoms: C7_9  and  C8_10 
REMARK    4  A    between atoms: C8_10  and  C9_11 
REMARK    5  A    between atoms: C9_11  and  O3_12 
REMARK    6  A    between atoms: C15_19  and  O4_20 
REMARK    7  A    between atoms: O4_20  and  C16_21 
REMARK    8  A    between atoms: C17_23  and  C18_24 
REMARK    9  A    between atoms: C18_24  and  O6_25 
REMARK   10  A    between atoms: C19_27  and  O7_28 
REMARK   11  A    between atoms: C20_30  and  O8_31 
REMARK   12  A    between atoms: C21_33  and  O9_34 
REMARK   13  A    between atoms: C22_36  and  O10_37 
ROOT
HETATM    1  C1  UNL     1       2.272   4.195  -0.609  1.00  0.00     0.013 C 
HETATM    2  C2  UNL     1       1.387   3.713  -1.272  1.00  0.00    -0.103 C 
HETATM    3  C3  UNL     1       0.282   3.132  -2.071  1.00  0.00     0.069 C 
HETATM    4  C4  UNL     1       0.229   3.897  -3.365  1.00  0.00     0.034 C 
HETATM    5  C5  UNL     1      -1.006   3.136  -1.314  1.00  0.00     0.196 C 
HETATM    6  O1  UNL     1      -1.574   1.874  -1.389  1.00  0.00    -0.357 OA
HETATM    7  C6  UNL     1      -0.864   0.992  -0.546  1.00  0.00     0.291 C 
HETATM    8  C15 UNL     1       0.513   0.880  -1.058  1.00  0.00     0.210 C 
HETATM    9  C22 UNL     1       0.666   1.687  -2.316  1.00  0.00     0.174 C 
ENDROOT
BRANCH   9  10
HETATM   10  O10 UNL     1      -0.076   1.107  -3.341  1.00  0.00    -0.391 OA
ATOM     11  H10 UNL     1       0.165   0.201  -3.495  1.00  0.00     0.210 HD
ENDBRANCH   9  10
BRANCH   8  12
HETATM   12  O4  UNL     1       1.536   1.199  -0.210  1.00  0.00    -0.346 OA
BRANCH  12  13
HETATM   13  C16 UNL     1       2.450   0.179   0.018  1.00  0.00     0.292 C 
HETATM   14  O5  UNL     1       3.645   0.604  -0.509  1.00  0.00    -0.348 OA
HETATM   15  C17 UNL     1       4.745  -0.200  -0.293  1.00  0.00     0.179 C 
HETATM   16  C19 UNL     1       5.067  -0.321   1.182  1.00  0.00     0.180 C 
HETATM   17  C20 UNL     1       3.920   0.279   1.992  1.00  0.00     0.183 C 
HETATM   18  C21 UNL     1       2.602  -0.166   1.456  1.00  0.00     0.204 C 
BRANCH  15  19
HETATM   19  C18 UNL     1       4.501  -1.567  -0.876  1.00  0.00     0.198 C 
BRANCH  19  20
HETATM   20  O6  UNL     1       4.264  -1.507  -2.253  1.00  0.00    -0.398 OA
ATOM     21  H6  UNL     1       4.110  -2.369  -2.621  1.00  0.00     0.209 HD
ENDBRANCH  19  20
ENDBRANCH  15  19
BRANCH  16  22
HETATM   22  O7  UNL     1       5.112  -1.668   1.500  1.00  0.00    -0.390 OA
ATOM     23  H7  UNL     1       5.314  -1.744   2.425  1.00  0.00     0.210 HD
ENDBRANCH  16  22
BRANCH  17  24
HETATM   24  O8  UNL     1       3.976   1.669   1.951  1.00  0.00    -0.390 OA
ATOM     25  H8  UNL     1       3.262   2.042   2.455  1.00  0.00     0.210 HD
ENDBRANCH  17  24
BRANCH  18  26
HETATM   26  O9  UNL     1       1.558   0.314   2.250  1.00  0.00    -0.388 OA
ATOM     27  H9  UNL     1       1.655   0.094   3.169  1.00  0.00     0.210 HD
ENDBRANCH  18  26
ENDBRANCH  12  13
ENDBRANCH   8  12
BRANCH   7  28
HETATM   28  O2  UNL     1      -1.596  -0.212  -0.611  1.00  0.00    -0.358 OA
BRANCH  28  29
HETATM   29  C7  UNL     1      -2.195  -0.392   0.611  1.00  0.00     0.182 C 
BRANCH  29  30
HETATM   30  C8  UNL     1      -3.017  -1.644   0.705  1.00  0.00     0.003 C 
HETATM   31  C10 UNL     1      -3.552  -1.714   2.133  1.00  0.00     0.014 C 
HETATM   32  C11 UNL     1      -4.828  -0.903   2.158  1.00  0.00     0.001 C 
HETATM   33  C12 UNL     1      -5.905  -1.764   1.498  1.00  0.00     0.000 C 
HETATM   34  C13 UNL     1      -5.370  -2.341   0.222  1.00  0.00     0.001 C 
HETATM   35  C14 UNL     1      -4.169  -1.549  -0.280  1.00  0.00     0.014 C 
BRANCH  30  36
HETATM   36  C9  UNL     1      -2.207  -2.887   0.469  1.00  0.00     0.175 C 
BRANCH  36  37
HETATM   37  O3  UNL     1      -1.202  -2.958   1.423  1.00  0.00    -0.400 OA
ATOM     38  H3  UNL     1      -0.690  -3.744   1.274  1.00  0.00     0.209 HD
ENDBRANCH  36  37
ENDBRANCH  30  36
ENDBRANCH  29  30
ENDBRANCH  28  29
ENDBRANCH   7  28
TORSDOF 13
