REMARK  9 active torsions:
REMARK  status: ('A' for Active; 'I' for Inactive)
REMARK    1  A    between atoms: O1_2  and  C2_3 
REMARK    2  A    between atoms: C11_14  and  N1_15 
REMARK       I    between atoms: N1_15  and  C12_17 
REMARK    3  A    between atoms: C12_17  and  C13_19 
REMARK    4  A    between atoms: C13_19  and  N2_21 
REMARK       I    between atoms: N2_21  and  C15_23 
REMARK    5  A    between atoms: C15_23  and  C16_25 
REMARK    6  A    between atoms: C16_25  and  N3_27 
REMARK    7  A    between atoms: C18_32  and  N4_33 
REMARK    8  A    between atoms: N4_33  and  O7_35 
REMARK    9  A    between atoms: C19_37  and  O8_38 
ROOT
HETATM    1  C2  UNL     1      -3.568   1.997  -0.084  1.00  0.00     0.290 C 
HETATM    2  O2  UNL     1      -3.187   1.278  -1.198  1.00  0.00    -0.351 OA
HETATM    3  C3  UNL     1      -3.165  -0.090  -1.007  1.00  0.00     0.159 C 
HETATM    4  C4  UNL     1      -2.986  -0.726  -2.379  1.00  0.00     0.043 C 
HETATM    5  C5  UNL     1      -2.089  -0.524  -0.040  1.00  0.00     0.135 C 
HETATM    6  C6  UNL     1      -2.567  -1.853   0.565  1.00  0.00     0.211 C 
HETATM    7  O3  UNL     1      -2.431  -2.797  -0.446  1.00  0.00    -0.378 OA
HETATM    8  C7  UNL     1      -1.268  -3.502  -0.412  1.00  0.00     0.058 C 
HETATM    9  C8  UNL     1      -1.558  -4.828   0.308  1.00  0.00     0.045 C 
HETATM   10  C9  UNL     1      -0.795  -3.925  -1.808  1.00  0.00     0.045 C 
HETATM   11  C10 UNL     1      -0.130  -2.859   0.288  1.00  0.00     0.091 C 
HETATM   12  C11 UNL     1       0.053  -1.403  -0.000  1.00  0.00     0.227 C 
HETATM   13  O6  UNL     1      -0.940  -0.827  -0.745  1.00  0.00    -0.349 OA
HETATM   14  C18 UNL     1      -1.920   0.529   0.995  1.00  0.00     0.178 C 
HETATM   15  C19 UNL     1      -3.197   1.348   1.225  1.00  0.00     0.203 C 
ENDROOT
BRANCH  12  16
HETATM   16  N1  UNL     1       1.308  -1.227  -0.705  1.00  0.00    -0.333 N 
HETATM   17  C12 UNL     1       2.407  -0.514  -0.126  1.00  0.00     0.242 C 
HETATM   18  O4  UNL     1       2.308  -0.016   1.023  1.00  0.00    -0.271 OA
ATOM     19  H1  UNL     1       1.411  -1.622  -1.640  1.00  0.00     0.165 HD
BRANCH  17  20
HETATM   20  C13 UNL     1       3.683  -0.340  -0.852  1.00  0.00     0.172 C 
HETATM   21  C14 UNL     1       4.336  -1.666  -1.177  1.00  0.00     0.042 C 
BRANCH  20  22
HETATM   22  N2  UNL     1       4.600   0.408  -0.040  1.00  0.00    -0.346 N 
HETATM   23  C15 UNL     1       5.166   1.651  -0.442  1.00  0.00     0.248 C 
HETATM   24  O5  UNL     1       4.821   2.092  -1.585  1.00  0.00    -0.271 OA
ATOM     25  H2  UNL     1       4.859   0.030   0.871  1.00  0.00     0.163 HD
BRANCH  23  26
HETATM   26  C16 UNL     1       6.100   2.390   0.412  1.00  0.00     0.270 C 
HETATM   27  C17 UNL     1       5.511   2.807   1.734  1.00  0.00     0.050 C 
BRANCH  26  28
HETATM   28  N3  UNL     1       6.498   3.616  -0.282  1.00  0.00    -0.067 N 
ATOM     29  H33 UNL     1       6.878   3.433  -1.211  1.00  0.00     0.275 HD
ATOM     30  H32 UNL     1       5.698   4.181  -0.567  1.00  0.00     0.275 HD
ATOM     31  H31 UNL     1       7.148   4.130   0.312  1.00  0.00     0.275 HD
ENDBRANCH  26  28
ENDBRANCH  23  26
ENDBRANCH  20  22
ENDBRANCH  17  20
ENDBRANCH  12  16
BRANCH  14  32
HETATM   32  N4  UNL     1      -0.921   1.490   0.657  1.00  0.00    -0.294 N 
ATOM     33  H4  UNL     1      -0.395   1.443  -0.216  1.00  0.00     0.188 HD
BRANCH  32  34
HETATM   34  O7  UNL     1      -0.721   2.444   1.547  1.00  0.00    -0.294 OA
ATOM     35  H7  UNL     1      -0.056   3.084   1.322  1.00  0.00     0.244 HD
ENDBRANCH  32  34
ENDBRANCH  14  32
BRANCH  15  36
HETATM   36  O8  UNL     1      -4.199   0.617   1.786  1.00  0.00    -0.384 OA
HETATM   37  C20 UNL     1      -4.490   1.123   3.049  1.00  0.00     0.202 C 
ENDBRANCH  15  36
BRANCH   1  38
HETATM   38  O1  UNL     1      -2.918   3.227  -0.147  1.00  0.00    -0.363 OA
HETATM   39  C1  UNL     1      -3.820   4.289  -0.196  1.00  0.00     0.204 C 
ENDBRANCH   1  38
TORSDOF 9
