REMARK  12 active torsions:
REMARK  status: ('A' for Active; 'I' for Inactive)
REMARK       I    between atoms: C1_2  and  N1_3 
REMARK    1  A    between atoms: C1_2  and  C8_11 
REMARK    2  A    between atoms: N1_3  and  C2_5 
REMARK    3  A    between atoms: C10_13  and  O2_14 
REMARK    4  A    between atoms: C11_16  and  C12_17 
REMARK    5  A    between atoms: C12_17  and  S1_18 
REMARK    6  A    between atoms: S1_18  and  C13_19 
REMARK    7  A    between atoms: C13_19  and  C14_20 
REMARK    8  A    between atoms: C15_22  and  C16_23 
REMARK    9  A    between atoms: C16_23  and  O4_24 
REMARK   10  A    between atoms: C17_26  and  O5_27 
REMARK   11  A    between atoms: C18_29  and  O6_30 
REMARK   12  A    between atoms: C19_32  and  O7_33 
ROOT
HETATM    1  C12 UNL     1      -1.275   1.124   0.765  1.00  0.00     0.091 C 
ENDROOT
BRANCH   1   2
HETATM    2  C11 UNL     1      -0.080   0.264   0.910  1.00  0.00     0.086 C 
HETATM    3  C10 UNL     1      -0.233  -1.207   0.706  1.00  0.00     0.134 C 
HETATM    4  C9  UNL     1       1.208  -1.748   0.743  1.00  0.00     0.057 C 
HETATM    5  C8  UNL     1       1.953  -1.085  -0.364  1.00  0.00     0.142 C 
HETATM    6  S2  UNL     1       1.187   0.589  -0.397  1.00  0.00    -0.146 SA
BRANCH   3   7
HETATM    7  O2  UNL     1      -0.766  -1.537  -0.523  1.00  0.00    -0.394 OA
ATOM      8  H2  UNL     1      -1.655  -1.203  -0.546  1.00  0.00     0.210 HD
ENDBRANCH   3   7
BRANCH   5   9
HETATM    9  C1  UNL     1       3.363  -0.873   0.048  1.00  0.00     0.232 C 
HETATM   10  O1  UNL     1       3.710  -1.253   1.194  1.00  0.00    -0.272 OA
HETATM   11  N1  UNL     1       4.327  -0.269  -0.783  1.00  0.00    -0.355 N 
ATOM     12  H1  UNL     1       4.068   0.046  -1.718  1.00  0.00     0.162 HD
BRANCH  11  13
HETATM   13  C2  UNL     1       5.673  -0.097  -0.316  1.00  0.00     0.084 C 
HETATM   14  C3  UNL     1       6.062   1.376  -0.248  1.00  0.00     0.025 C 
HETATM   15  C4  UNL     1       7.568   1.507  -0.239  1.00  0.00     0.002 C 
HETATM   16  C5  UNL     1       8.145   0.272   0.419  1.00  0.00     0.000 C 
HETATM   17  C6  UNL     1       7.987  -0.875  -0.561  1.00  0.00     0.002 C 
HETATM   18  C7  UNL     1       6.669  -0.762  -1.254  1.00  0.00     0.025 C 
ENDBRANCH  11  13
ENDBRANCH   5   9
ENDBRANCH   1   2
BRANCH   1  19
HETATM   19  S1  UNL     1      -2.554   0.731   1.890  1.00  0.00    -0.165 SA
BRANCH  19  20
HETATM   20  C13 UNL     1      -3.597  -0.650   1.734  1.00  0.00     0.108 C 
BRANCH  20  21
HETATM   21  C14 UNL     1      -4.689  -0.540   0.707  1.00  0.00     0.162 C 
HETATM   22  O3  UNL     1      -5.467   0.568   1.058  1.00  0.00    -0.372 OA
HETATM   23  C15 UNL     1      -6.556   0.707   0.216  1.00  0.00     0.176 C 
HETATM   24  C17 UNL     1      -6.015   1.077  -1.159  1.00  0.00     0.180 C 
HETATM   25  C18 UNL     1      -5.242  -0.100  -1.689  1.00  0.00     0.180 C 
HETATM   26  C19 UNL     1      -4.227  -0.611  -0.674  1.00  0.00     0.179 C 
BRANCH  23  27
HETATM   27  C16 UNL     1      -7.414   1.856   0.720  1.00  0.00     0.198 C 
BRANCH  27  28
HETATM   28  O4  UNL     1      -6.674   3.022   0.726  1.00  0.00    -0.398 OA
ATOM     29  H4  UNL     1      -7.210   3.740   1.041  1.00  0.00     0.209 HD
ENDBRANCH  27  28
ENDBRANCH  23  27
BRANCH  24  30
HETATM   30  O5  UNL     1      -5.151   2.156  -0.968  1.00  0.00    -0.390 OA
ATOM     31  H5  UNL     1      -4.814   2.387  -1.826  1.00  0.00     0.210 HD
ENDBRANCH  24  30
BRANCH  25  32
HETATM   32  O6  UNL     1      -6.096  -1.106  -2.116  1.00  0.00    -0.390 OA
ATOM     33  H6  UNL     1      -5.608  -1.849  -2.451  1.00  0.00     0.210 HD
ENDBRANCH  25  32
BRANCH  26  34
HETATM   34  O7  UNL     1      -4.085  -1.989  -1.004  1.00  0.00    -0.390 OA
ATOM     35  H7  UNL     1      -3.784  -2.035  -1.904  1.00  0.00     0.210 HD
ENDBRANCH  26  34
ENDBRANCH  20  21
ENDBRANCH  19  20
ENDBRANCH   1  19
TORSDOF 12
