REMARK  5 active torsions:
REMARK  status: ('A' for Active; 'I' for Inactive)
REMARK    1  A    between atoms: N1_1  and  C1_4 
REMARK    2  A    between atoms: C2_7  and  S1_8 
REMARK    3  A    between atoms: S1_8  and  C3_9 
REMARK    4  A    between atoms: C3_9  and  N3_10 
REMARK    5  A    between atoms: C3_9  and  N4_14 
ROOT
HETATM    1  C1  UNL     1       2.364   0.247   0.646  1.00  0.00     0.692 A 
HETATM    2  N2  UNL     1       1.005   0.196   0.529  1.00  0.00    -0.168 N 
ATOM      3  H2  UNL     1       0.340   0.500   1.240  1.00  0.00     0.186 HD
HETATM    4  C2  UNL     1       0.677  -0.322  -0.681  1.00  0.00     0.178 A 
HETATM    5  N5  UNL     1       1.841  -0.588  -1.304  1.00  0.00    -0.265 N 
ATOM      6  H5  UNL     1       1.938  -0.988  -2.237  1.00  0.00     0.189 HD
HETATM    7  N6  UNL     1       2.830  -0.248  -0.512  1.00  0.00    -0.130 N 
ATOM      8  H6  UNL     1       3.818  -0.346  -0.744  1.00  0.00     0.205 HD
ENDROOT
BRANCH   4   9
HETATM    9  S1  UNL     1      -0.903  -0.637  -1.398  1.00  0.00    -0.031 SA
BRANCH   9  10
HETATM   10  C3  UNL     1      -2.284  -0.169  -0.370  1.00  0.00     0.447 C 
BRANCH  10  11
HETATM   11  N3  UNL     1      -2.401   1.256  -0.167  1.00  0.00    -0.041 N 
ATOM     12  H33 UNL     1      -1.531   1.639   0.203  1.00  0.00     0.277 HD
ATOM     13  H32 UNL     1      -2.436   1.745  -1.061  1.00  0.00     0.277 HD
ATOM     14  H31 UNL     1      -3.191   1.524   0.421  1.00  0.00     0.277 HD
ENDBRANCH  10  11
BRANCH  10  15
HETATM   15  N4  UNL     1      -2.245  -0.800   0.939  1.00  0.00    -0.041 N 
ATOM     16  H43 UNL     1      -2.178  -1.814   0.855  1.00  0.00     0.277 HD
ATOM     17  H42 UNL     1      -1.359  -0.615   1.409  1.00  0.00     0.277 HD
ATOM     18  H41 UNL     1      -3.035  -0.532   1.527  1.00  0.00     0.277 HD
ENDBRANCH  10  15
ENDBRANCH   9  10
ENDBRANCH   4   9
BRANCH   1  19
HETATM   19  N1  UNL     1       3.102   0.651   1.593  1.00  0.00    -0.233 N 
ATOM     20  H12 UNL     1       2.748   1.027   2.473  1.00  0.00     0.174 HD
ATOM     21  H11 UNL     1       4.118   0.689   1.680  1.00  0.00     0.174 HD
ENDBRANCH   1  19
TORSDOF 5
