REMARK  6 active torsions:
REMARK  status: ('A' for Active; 'I' for Inactive)
REMARK    1  A    between atoms: N1_1  and  C1_4 
REMARK    2  A    between atoms: N4_9  and  C2_10 
REMARK    3  A    between atoms: C2_10  and  S1_11 
REMARK    4  A    between atoms: S1_11  and  C3_12 
REMARK    5  A    between atoms: C3_12  and  N5_13 
REMARK    6  A    between atoms: C3_12  and  N6_17 
ROOT
HETATM    1  C2  UNL     1      -0.493   0.108  -1.440  1.00  0.00     0.247 C 
ENDROOT
BRANCH   1   2
HETATM    2  N4  UNL     1      -1.466  -0.456  -0.539  1.00  0.00    -0.098 N 
HETATM    3  C1  UNL     1      -1.976  -0.110   0.649  1.00  0.00     0.710 A 
HETATM    4  N2  UNL     1      -2.749  -1.213   0.637  1.00  0.00    -0.116 N 
HETATM    5  N3  UNL     1      -2.234  -1.526  -0.522  1.00  0.00    -0.211 N 
ATOM      6  H2  UNL     1      -3.440  -1.626   1.264  1.00  0.00     0.207 HD
ATOM      7  H3  UNL     1      -2.373  -2.303  -1.168  1.00  0.00     0.209 HD
BRANCH   3   8
HETATM    8  N1  UNL     1      -1.856   0.845   1.521  1.00  0.00    -0.232 N 
ATOM      9  H12 UNL     1      -2.245   1.109   2.426  1.00  0.00     0.174 HD
ATOM     10  H11 UNL     1      -1.271   1.680   1.530  1.00  0.00     0.174 HD
ENDBRANCH   3   8
ENDBRANCH   1   2
BRANCH   1  11
HETATM   11  S1  UNL     1       1.188  -0.491  -1.114  1.00  0.00    -0.086 SA
BRANCH  11  12
HETATM   12  C3  UNL     1       1.707   0.132   0.507  1.00  0.00     0.441 C 
BRANCH  12  13
HETATM   13  N5  UNL     1       3.061  -0.348   0.786  1.00  0.00    -0.041 N 
ATOM     14  H53 UNL     1       3.137  -1.363   0.716  1.00  0.00     0.277 HD
ATOM     15  H52 UNL     1       3.720  -0.106   0.046  1.00  0.00     0.277 HD
ATOM     16  H51 UNL     1       3.353   0.003   1.698  1.00  0.00     0.277 HD
ENDBRANCH  12  13
BRANCH  12  17
HETATM   17  N6  UNL     1       1.682   1.580   0.417  1.00  0.00    -0.041 N 
ATOM     18  H63 UNL     1       2.239   1.947  -0.355  1.00  0.00     0.277 HD
ATOM     19  H62 UNL     1       0.783   1.951   0.110  1.00  0.00     0.277 HD
ATOM     20  H61 UNL     1       1.974   1.931   1.329  1.00  0.00     0.277 HD
ENDBRANCH  12  17
ENDBRANCH  11  12
ENDBRANCH   1  11
TORSDOF 6
