REMARK  5 active torsions:
REMARK  status: ('A' for Active; 'I' for Inactive)
REMARK    1  A    between atoms: N1_1  and  C1_5 
REMARK    2  A    between atoms: C1_5  and  C2_6 
REMARK    3  A    between atoms: C2_6  and  C3_7 
REMARK    4  A    between atoms: C3_7  and  N2_8 
REMARK    5  A    between atoms: C3_7  and  C4_12 
ROOT
HETATM    1  C3  UNL     1      -0.336   1.073   0.638  1.00  0.00     0.253 C 
ENDROOT
BRANCH   1   2
HETATM    2  C2  UNL     1      -1.517   0.150   0.680  1.00  0.00     0.068 C 
BRANCH   2   3
HETATM    3  C1  UNL     1      -2.067  -0.205  -0.661  1.00  0.00     0.232 C 
BRANCH   3   4
HETATM    4  N1  UNL     1      -3.202  -1.102  -0.440  1.00  0.00    -0.079 N 
ATOM      5  H13 UNL     1      -2.962  -1.919   0.122  1.00  0.00     0.274 HD
ATOM      6  H12 UNL     1      -3.904  -0.711   0.189  1.00  0.00     0.274 HD
ATOM      7  H11 UNL     1      -3.578  -1.345  -1.357  1.00  0.00     0.274 HD
ENDBRANCH   3   4
ENDBRANCH   2   3
ENDBRANCH   1   2
BRANCH   1   8
HETATM    8  N2  UNL     1      -0.574   2.329   0.030  1.00  0.00    -0.068 N 
ATOM      9  H23 UNL     1      -0.951   2.199  -0.909  1.00  0.00     0.275 HD
ATOM     10  H22 UNL     1      -1.365   2.791   0.478  1.00  0.00     0.275 HD
ATOM     11  H21 UNL     1       0.229   2.957   0.001  1.00  0.00     0.275 HD
ENDBRANCH   1   8
BRANCH   1  12
HETATM   12  C4  UNL     1       0.795   0.405  -0.056  1.00  0.00     0.129 A 
HETATM   13  N3  UNL     1       1.008   0.299  -1.375  1.00  0.00    -0.285 N 
HETATM   14  N4  UNL     1       2.124  -0.368  -1.594  1.00  0.00    -0.272 N 
ATOM     15  H3  UNL     1       0.399   0.677  -2.100  1.00  0.00     0.188 HD
HETATM   16  C5  UNL     1       2.645  -0.701  -0.401  1.00  0.00     0.208 A 
ATOM     17  H4  UNL     1       2.521  -0.591  -2.507  1.00  0.00     0.189 HD
HETATM   18  N5  UNL     1       3.839  -1.422  -0.117  1.00  0.00    -0.062 NA
HETATM   19  N6  UNL     1       1.827  -0.225   0.556  1.00  0.00    -0.316 N 
ATOM     20  H6  UNL     1       1.960  -0.321   1.563  1.00  0.00     0.170 HD
ENDBRANCH   1  12
TORSDOF 5
