REMARK  2 active torsions:
REMARK  status: ('A' for Active; 'I' for Inactive)
REMARK    1  A    between atoms: C3_6  and  N3_7 
REMARK       I    between atoms: N3_7  and  C4_9 
REMARK       I    between atoms: C4_9  and  N4_10 
REMARK       I    between atoms: C4_9  and  N5_14 
REMARK    2  A    between atoms: C5_20  and  N7_21 
ROOT
HETATM    1  N1  UNL     1       4.286   2.083  -2.425  1.00  0.00    -0.188 NA
HETATM    2  C1  UNL     1       3.500   1.537  -1.765  1.00  0.00     0.138 C 
HETATM    3  C2  UNL     1       2.535   0.877  -0.931  1.00  0.00     0.217 A 
HETATM    4  N2  UNL     1       1.239   0.800  -1.255  1.00  0.00    -0.166 N 
ATOM      5  H2  UNL     1       0.925   1.226  -2.127  1.00  0.00     0.186 HD
HETATM    6  C3  UNL     1       0.321   0.172  -0.462  1.00  0.00     0.697 A 
HETATM    7  N6  UNL     1       0.749  -0.380   0.674  1.00  0.00    -0.022 N 
ATOM      8  H6  UNL     1       0.078  -0.854   1.279  1.00  0.00     0.203 HD
HETATM    9  C5  UNL     1       2.061  -0.328   1.049  1.00  0.00     0.692 A 
HETATM   10  N8  UNL     1       2.909   0.302   0.226  1.00  0.00    -0.166 N 
ATOM     11  H8  UNL     1       3.893   0.348   0.491  1.00  0.00     0.186 HD
ENDROOT
BRANCH   6  12
HETATM   12  N3  UNL     1      -1.019   0.123  -0.872  1.00  0.00    -0.173 N 
HETATM   13  C4  UNL     1      -2.021  -0.519  -0.069  1.00  0.00     0.494 C 
HETATM   14  N4  UNL     1      -2.181   0.187   1.163  1.00  0.00    -0.032 N 
HETATM   15  N5  UNL     1      -3.282  -0.667  -0.780  1.00  0.00    -0.032 N 
ATOM     16  H43 UNL     1      -1.298   0.291   1.663  1.00  0.00     0.278 HD
ATOM     17  H42 UNL     1      -2.384   1.176   1.015  1.00  0.00     0.278 HD
ATOM     18  H41 UNL     1      -2.893  -0.269   1.734  1.00  0.00     0.278 HD
ATOM     19  H53 UNL     1      -3.613   0.230  -1.136  1.00  0.00     0.278 HD
ATOM     20  H52 UNL     1      -3.151  -1.154  -1.666  1.00  0.00     0.278 HD
ATOM     21  H51 UNL     1      -3.994  -1.123  -0.209  1.00  0.00     0.278 HD
ATOM     22  H3  UNL     1      -1.287   0.552  -1.758  1.00  0.00     0.181 HD
ENDBRANCH   6  12
BRANCH   9  23
HETATM   23  N7  UNL     1       2.410  -0.880   2.157  1.00  0.00    -0.234 N 
ATOM     24  H72 UNL     1       1.764  -1.360   2.784  1.00  0.00     0.174 HD
ATOM     25  H71 UNL     1       3.390  -0.841   2.437  1.00  0.00     0.174 HD
ENDBRANCH   9  23
TORSDOF 2
