REMARK  4 active torsions:
REMARK  status: ('A' for Active; 'I' for Inactive)
REMARK    1  A    between atoms: N1_2  and  N2_3 
REMARK    2  A    between atoms: N1_2  and  C2_6 
REMARK    3  A    between atoms: C2_6  and  C3_7 
REMARK    4  A    between atoms: C3_7  and  C4_8 
ROOT
HETATM    1  C4  UNL     1       1.218   0.564  -0.014  1.00  0.00     0.387 C 
HETATM    2  N3  UNL     1       2.396   1.012   0.698  1.00  0.00    -0.022 N 
ATOM      3  H31 UNL     1       2.422   1.016   1.718  1.00  0.00     0.281 HD
ATOM      4  H32 UNL     1       2.661   1.997   0.707  1.00  0.00     0.281 HD
HETATM    5  C5  UNL     1       3.160   0.040  -0.065  1.00  0.00     0.467 C 
HETATM    6  N4  UNL     1       2.093   0.064  -1.056  1.00  0.00    -0.022 N 
ATOM      7  H41 UNL     1       2.204   0.568  -1.936  1.00  0.00     0.281 HD
ATOM      8  H42 UNL     1       1.852  -0.771  -1.589  1.00  0.00     0.281 HD
ENDROOT
BRANCH   1   9
HETATM    9  C3  UNL     1       0.465  -0.525   0.745  1.00  0.00     0.079 C 
BRANCH   9  10
HETATM   10  C2  UNL     1      -0.746  -0.972  -0.007  1.00  0.00     0.116 C 
BRANCH  10  11
HETATM   11  N1  UNL     1      -1.687   0.104  -0.240  1.00  0.00    -0.242 NA
HETATM   12  C1  UNL     1      -2.850  -0.297  -0.954  1.00  0.00     0.135 C 
BRANCH  11  13
HETATM   13  N2  UNL     1      -1.909   0.901   0.859  1.00  0.00    -0.364 NA
ATOM     14  H22 UNL     1      -2.572   1.659   0.695  1.00  0.00     0.171 HD
ATOM     15  H21 UNL     1      -1.075   1.189   1.371  1.00  0.00     0.171 HD
ENDBRANCH  11  13
ENDBRANCH  10  11
ENDBRANCH   9  10
ENDBRANCH   1   9
TORSDOF 4
