REMARK  6 active torsions:
REMARK  status: ('A' for Active; 'I' for Inactive)
REMARK    1  A    between atoms: N1_1  and  C1_5 
REMARK    2  A    between atoms: C1_5  and  C2_6 
REMARK    3  A    between atoms: C3_8  and  C4_9 
REMARK    4  A    between atoms: C4_9  and  N2_10 
REMARK    5  A    between atoms: N2_10  and  N3_11 
REMARK    6  A    between atoms: C5_14  and  N4_15 
ROOT
HETATM    1  C2  UNL     1       1.415   0.063  -0.334  1.00  0.00     0.180 C 
HETATM    2  O1  UNL     1       0.370   0.694   0.436  1.00  0.00    -0.373 OA
HETATM    3  C3  UNL     1      -0.482   0.030  -0.381  1.00  0.00     0.171 C 
HETATM    4  C5  UNL     1       0.500  -1.060  -0.588  1.00  0.00     0.243 C 
ENDROOT
BRANCH   1   5
HETATM    5  C1  UNL     1       2.630  -0.047   0.485  1.00  0.00     0.263 C 
BRANCH   5   6
HETATM    6  N1  UNL     1       3.084   1.316   0.820  1.00  0.00    -0.077 N 
ATOM      7  H13 UNL     1       3.217   1.900  -0.005  1.00  0.00     0.274 HD
ATOM      8  H12 UNL     1       2.357   1.874   1.268  1.00  0.00     0.274 HD
ATOM      9  H11 UNL     1       3.927   1.240   1.389  1.00  0.00     0.274 HD
ENDBRANCH   5   6
ENDBRANCH   1   5
BRANCH   4  10
HETATM   10  N4  UNL     1       0.518  -2.195   0.272  1.00  0.00    -0.070 N 
ATOM     11  H43 UNL     1       1.471  -2.556   0.312  1.00  0.00     0.274 HD
ATOM     12  H42 UNL     1       0.382  -1.877   1.231  1.00  0.00     0.274 HD
ATOM     13  H41 UNL     1      -0.117  -2.974   0.096  1.00  0.00     0.274 HD
ENDBRANCH   4  10
BRANCH   3  14
HETATM   14  C4  UNL     1      -1.821  -0.294   0.114  1.00  0.00     0.168 C 
BRANCH  14  15
HETATM   15  N2  UNL     1      -2.384   1.024   0.541  1.00  0.00    -0.146 NA
BRANCH  15  16
HETATM   16  N3  UNL     1      -3.433   1.313  -0.411  1.00  0.00    -0.348 N 
ATOM     17  H32 UNL     1      -3.717   0.732  -1.200  1.00  0.00     0.172 HD
ATOM     18  H31 UNL     1      -3.817   2.212  -0.120  1.00  0.00     0.172 HD
ENDBRANCH  15  16
ENDBRANCH  14  15
ENDBRANCH   3  14
TORSDOF 6
