REMARK  1 active torsions:
REMARK  status: ('A' for Active; 'I' for Inactive)
REMARK    1  A    between atoms: N3_10  and  C7_11 
ROOT
HETATM    1  C1  UNL     1      -0.181  -0.772  -2.763  1.00  0.00     0.047 C 
HETATM    2  C2  UNL     1      -0.536  -0.113  -1.466  1.00  0.00    -0.042 C 
HETATM    3  C3  UNL     1      -1.577   0.669  -1.641  1.00  0.00     0.030 C 
HETATM    4  C4  UNL     1      -2.327   1.552  -0.666  1.00  0.00     0.272 C 
HETATM    5  N1  UNL     1      -2.605   2.802  -1.184  1.00  0.00    -0.056 NA
HETATM    6  O1  UNL     1      -1.375   3.131  -1.768  1.00  0.00    -0.223 OA
HETATM    7  C5  UNL     1      -0.418   3.490  -0.794  1.00  0.00     0.345 C 
HETATM    8  N2  UNL     1       0.523   2.612  -0.383  1.00  0.00    -0.388 NA
HETATM    9  C6  UNL     1       1.367   1.844  -0.014  1.00  0.00     0.281 C 
HETATM   10  N3  UNL     1       1.430   0.389  -0.063  1.00  0.00    -0.306 N 
HETATM   11  C13 UNL     1       0.330  -0.479  -0.299  1.00  0.00     0.221 C 
HETATM   12  N4  UNL     1      -0.460  -0.825   0.864  1.00  0.00    -0.362 N 
ATOM     13  H4  UNL     1       0.148  -1.013   1.661  1.00  0.00     0.162 HD
HETATM   14  C14 UNL     1      -1.835  -0.985   1.240  1.00  0.00     0.063 A 
HETATM   15  C15 UNL     1      -1.871  -1.988   2.187  1.00  0.00     0.032 A 
HETATM   16  C16 UNL     1      -3.102  -2.328   2.686  1.00  0.00     0.002 A 
HETATM   17  C17 UNL     1      -4.259  -1.695   2.260  1.00  0.00     0.003 A 
HETATM   18  C18 UNL     1      -4.234  -0.681   1.305  1.00  0.00     0.039 A 
HETATM   19  C19 UNL     1      -2.983  -0.350   0.813  1.00  0.00     0.098 A 
HETATM   20  O2  UNL     1      -3.274   0.696  -0.117  1.00  0.00    -0.321 OA
ENDROOT
BRANCH  10  21
HETATM   21  C7  UNL     1       2.715  -0.223   0.117  1.00  0.00     0.038 A 
HETATM   22  C8  UNL     1       3.861   0.499  -0.106  1.00  0.00     0.033 A 
HETATM   23  C9  UNL     1       5.128  -0.061   0.074  1.00  0.00     0.044 A 
HETATM   24  C10 UNL     1       5.243  -1.367   0.484  1.00  0.00     0.116 A 
HETATM   25  F1  UNL     1       6.492  -1.920   0.661  1.00  0.00    -0.206 F 
HETATM   26  C11 UNL     1       4.115  -2.102   0.711  1.00  0.00     0.044 A 
HETATM   27  C12 UNL     1       2.869  -1.521   0.525  1.00  0.00     0.033 A 
ENDBRANCH  10  21
TORSDOF 1
