REMARK  1 active torsions:
REMARK  status: ('A' for Active; 'I' for Inactive)
REMARK    1  A    between atoms: C7_9  and  O3_10 
ROOT
HETATM    1  C1  UNL     1       5.197  -1.207   0.976  1.00  0.00     0.076 C 
HETATM    2  C2  UNL     1       4.195  -0.258   0.469  1.00  0.00     0.042 C 
HETATM    3  C3  UNL     1       3.988   0.904   1.076  1.00  0.00     0.040 C 
HETATM    4  C4  UNL     1       2.960   1.745   0.459  1.00  0.00     0.195 C 
HETATM    5  O1  UNL     1       2.410   2.726   1.233  1.00  0.00    -0.231 OA
HETATM    6  O2  UNL     1       1.336   3.057   0.506  1.00  0.00    -0.234 OA
HETATM    7  C5  UNL     1       0.691   1.829   0.209  1.00  0.00     0.172 C 
HETATM    8  C6  UNL     1      -0.029   1.986  -1.057  1.00  0.00     0.067 C 
HETATM    9  C7  UNL     1      -1.290   2.777  -0.904  1.00  0.00     0.120 C 
HETATM   10  C8  UNL     1      -2.320   2.141  -0.035  1.00  0.00     0.032 C 
HETATM   11  C9  UNL     1      -2.759   0.779  -0.491  1.00  0.00     0.007 C 
HETATM   12  C10 UNL     1      -2.642  -0.169   0.657  1.00  0.00    -0.015 C 
HETATM   13  C11 UNL     1      -3.953  -0.145   1.460  1.00  0.00     0.010 C 
HETATM   14  C12 UNL     1      -2.390  -1.584   0.285  1.00  0.00    -0.015 C 
HETATM   15  C13 UNL     1      -3.636  -2.191  -0.281  1.00  0.00     0.010 C 
HETATM   16  C14 UNL     1      -1.211  -1.810  -0.601  1.00  0.00     0.008 C 
HETATM   17  C15 UNL     1       0.099  -1.526   0.147  1.00  0.00     0.046 C 
HETATM   18  C16 UNL     1       1.255  -1.407  -0.778  1.00  0.00     0.127 C 
HETATM   19  C17 UNL     1       2.156  -2.628  -0.524  1.00  0.00     0.054 C 
HETATM   20  F1  UNL     1       0.771  -1.634  -2.078  1.00  0.00    -0.241 F 
HETATM   21  C18 UNL     1       2.022  -0.129  -0.728  1.00  0.00     0.177 C 
HETATM   22  O4  UNL     1       3.399  -0.475  -0.651  1.00  0.00    -0.347 OA
HETATM   23  C19 UNL     1       1.725   0.817   0.332  1.00  0.00     0.086 C 
ENDROOT
BRANCH   9  24
HETATM   24  O3  UNL     1      -1.884   3.077  -2.129  1.00  0.00    -0.395 OA
ATOM     25  H3  UNL     1      -2.685   3.579  -2.032  1.00  0.00     0.210 HD
ENDBRANCH   9  24
TORSDOF 1
