REMARK  3 active torsions:
REMARK  status: ('A' for Active; 'I' for Inactive)
REMARK    1  A    between atoms: N6_20  and  C12_21 
REMARK    2  A    between atoms: C12_21  and  C15_24 
REMARK    3  A    between atoms: C16_25  and  C17_26 
ROOT
HETATM    1  C1  UNL     1      -2.280  -4.182   0.016  1.00  0.00     0.070 C 
HETATM    2  C2  UNL     1      -2.295  -2.737  -0.298  1.00  0.00     0.029 A 
HETATM    3  N1  UNL     1      -1.446  -1.927   0.308  1.00  0.00    -0.344 N 
ATOM      4  H1  UNL     1      -0.800  -2.338   0.982  1.00  0.00     0.167 HD
HETATM    5  C3  UNL     1      -1.371  -0.591   0.100  1.00  0.00     0.124 A 
HETATM    6  C4  UNL     1      -2.265  -0.057  -0.827  1.00  0.00     0.065 A 
HETATM    7  C5  UNL     1      -3.177  -0.833  -1.497  1.00  0.00     0.085 A 
HETATM    8  N2  UNL     1      -4.078  -0.264  -2.438  1.00  0.00    -0.100 NA
HETATM    9  C6  UNL     1      -3.173  -2.204  -1.210  1.00  0.00     0.092 A 
HETATM   10  C7  UNL     1      -4.105  -3.023  -1.889  1.00  0.00     0.103 C 
HETATM   11  N3  UNL     1      -4.861  -3.707  -2.445  1.00  0.00    -0.191 NA
HETATM   12  C8  UNL     1      -1.963   1.286  -0.834  1.00  0.00     0.093 A 
HETATM   13  N4  UNL     1      -2.297   2.481  -1.390  1.00  0.00    -0.297 N 
ATOM     14  H4  UNL     1      -3.031   2.614  -2.086  1.00  0.00     0.187 HD
HETATM   15  N5  UNL     1      -1.548   3.431  -0.909  1.00  0.00    -0.302 N 
ATOM     16  H5  UNL     1      -1.610   4.414  -1.174  1.00  0.00     0.186 HD
HETATM   17  C9  UNL     1      -0.659   2.918   0.010  1.00  0.00     0.051 A 
HETATM   18  C10 UNL     1       0.338   3.701   0.752  1.00  0.00     0.072 C 
HETATM   19  C11 UNL     1      -0.928   1.574   0.049  1.00  0.00     0.090 A 
HETATM   20  N6  UNL     1      -0.585   0.378   0.613  1.00  0.00    -0.308 N 
ENDROOT
BRANCH  20  21
HETATM   21  C12 UNL     1       0.449   0.218   1.585  1.00  0.00     0.096 C 
HETATM   22  C13 UNL     1       0.309   1.077   2.821  1.00  0.00     0.053 C 
HETATM   23  C14 UNL     1       0.431  -1.212   2.116  1.00  0.00     0.053 C 
BRANCH  21  24
HETATM   24  C15 UNL     1       1.804   0.345   0.977  1.00  0.00    -0.072 C 
HETATM   25  C16 UNL     1       2.899   0.470   0.481  1.00  0.00    -0.061 C 
BRANCH  25  26
HETATM   26  C17 UNL     1       4.212   0.608  -0.138  1.00  0.00     0.159 C 
HETATM   27  C18 UNL     1       4.924  -0.720  -0.260  1.00  0.00     0.066 C 
HETATM   28  C19 UNL     1       3.998   1.142  -1.535  1.00  0.00     0.066 C 
HETATM   29  F1  UNL     1       5.045   1.453   0.572  1.00  0.00    -0.230 F 
ENDBRANCH  25  26
ENDBRANCH  21  24
ENDBRANCH  20  21
TORSDOF 3
