REMARK  3 active torsions:
REMARK  status: ('A' for Active; 'I' for Inactive)
REMARK    1  A    between atoms: C2_2  and  O2_4 
REMARK    2  A    between atoms: O2_4  and  C3_5 
REMARK    3  A    between atoms: C14_18  and  O5_19 
ROOT
HETATM    1  C3  UNL     1      -0.074   0.509  -0.216  1.00  0.00     0.188 C 
HETATM    2  O3  UNL     1      -0.551  -0.652  -0.788  1.00  0.00    -0.343 OA
HETATM    3  C4  UNL     1      -1.852  -0.779  -1.101  1.00  0.00     0.057 C 
HETATM    4  C5  UNL     1      -2.481  -2.068  -0.527  1.00  0.00     0.045 C 
HETATM    5  C6  UNL     1      -2.152  -0.928  -2.598  1.00  0.00     0.045 C 
HETATM    6  C7  UNL     1      -2.753   0.334  -0.628  1.00  0.00     0.038 C 
HETATM    7  C8  UNL     1      -2.399   0.609   0.790  1.00  0.00     0.013 C 
HETATM    8  C9  UNL     1      -0.929   0.888   1.028  1.00  0.00     0.050 C 
HETATM    9  C10 UNL     1      -0.472   0.360   2.317  1.00  0.00     0.013 C 
HETATM   10  C11 UNL     1       0.421  -0.807   2.349  1.00  0.00     0.039 C 
HETATM   11  C12 UNL     1       1.359  -0.949   1.213  1.00  0.00     0.075 C 
HETATM   12  C13 UNL     1       1.235  -2.273   0.592  1.00  0.00     0.047 C 
HETATM   13  O4  UNL     1       2.717  -0.819   1.615  1.00  0.00    -0.331 OA
HETATM   14  C14 UNL     1       3.399  -0.724   0.403  1.00  0.00     0.246 C 
HETATM   15 CL1  UNL     1       4.822   0.288   0.673  1.00  0.00    -0.057 Cl
HETATM   16  C15 UNL     1       2.405  -0.087  -0.584  1.00  0.00     0.104 C 
HETATM   17  C16 UNL     1       1.287   0.265   0.321  1.00  0.00     0.051 C 
HETATM   18  C17 UNL     1       1.801   1.452   1.151  1.00  0.00     0.024 C 
ENDROOT
BRANCH   1  19
HETATM   19  O2  UNL     1      -0.250   1.645  -0.981  1.00  0.00    -0.282 OA
BRANCH  19  20
HETATM   20  C2  UNL     1       0.128   2.033  -2.198  1.00  0.00     0.257 C 
HETATM   21  C1  UNL     1      -0.229   3.362  -2.743  1.00  0.00     0.126 C 
HETATM   22  O1  UNL     1       0.789   1.187  -2.805  1.00  0.00    -0.266 OA
ENDBRANCH  19  20
ENDBRANCH   1  19
BRANCH  14  23
HETATM   23  O5  UNL     1       3.862  -1.952  -0.064  1.00  0.00    -0.353 OA
ATOM     24  H5  UNL     1       4.327  -1.887  -0.890  1.00  0.00     0.214 HD
ENDBRANCH  14  23
TORSDOF 3
