REMARK  12 active torsions:
REMARK  status: ('A' for Active; 'I' for Inactive)
REMARK    1  A    between atoms: C1_2  and  C2_3 
REMARK    2  A    between atoms: C2_3  and  C3_4 
REMARK    3  A    between atoms: C3_4  and  C4_5 
REMARK    4  A    between atoms: C4_5  and  C5_6 
REMARK    5  A    between atoms: C5_6  and  C6_7 
REMARK    6  A    between atoms: C6_7  and  N2_8 
REMARK    7  A    between atoms: C9_12  and  N3_13 
REMARK    8  A    between atoms: C18_30  and  N8_31 
REMARK       I    between atoms: N8_31  and  C19_33 
REMARK    9  A    between atoms: C19_33  and  C20_35 
REMARK   10  A    between atoms: C20_35  and  N9_36 
REMARK   11  A    between atoms: C20_35  and  N10_40 
REMARK   12  A    between atoms: N13_50  and  O5_52 
ROOT
HETATM    1  N2  UNL     1       1.316   0.549  -0.515  1.00  0.00    -0.264 N 
HETATM    2  C7  UNL     1       0.984  -0.759  -0.341  1.00  0.00     0.282 A 
HETATM    3  O1  UNL     1       1.732  -1.765  -0.448  1.00  0.00    -0.265 OA
HETATM    4  C8  UNL     1      -0.344  -0.814  -0.018  1.00  0.00     0.159 A 
HETATM    5  C9  UNL     1      -1.186  -1.878   0.262  1.00  0.00     0.160 A 
HETATM    6  N6  UNL     1      -2.454  -1.549   0.543  1.00  0.00    -0.332 N 
ATOM      7  H6  UNL     1      -3.096  -2.313   0.753  1.00  0.00     0.168 HD
HETATM    8  C16 UNL     1      -2.955  -0.306   0.573  1.00  0.00     0.149 A 
HETATM    9  C17 UNL     1      -4.272  -0.042   0.871  1.00  0.00     0.290 A 
HETATM   10  O2  UNL     1      -5.019  -1.028   1.121  1.00  0.00    -0.265 OA
HETATM   11  N7  UNL     1      -4.739   1.214   0.892  1.00  0.00    -0.154 N 
ATOM     12  H7  UNL     1      -5.718   1.395   1.114  1.00  0.00     0.187 HD
HETATM   13  C18 UNL     1      -3.908   2.230   0.618  1.00  0.00     0.689 A 
HETATM   14  N11 UNL     1      -2.607   2.004   0.322  1.00  0.00    -0.173 N 
ATOM     15  H11 UNL     1      -1.997   2.796   0.118  1.00  0.00     0.186 HD
HETATM   16  C21 UNL     1      -2.101   0.762   0.291  1.00  0.00     0.165 A 
HETATM   17  N12 UNL     1      -0.810   0.529  -0.003  1.00  0.00    -0.237 N 
HETATM   18  C22 UNL     1       0.231   1.323  -0.311  1.00  0.00     0.338 A 
HETATM   19  O4  UNL     1       0.262   2.575  -0.409  1.00  0.00    -0.246 OA
ENDROOT
BRANCH  13  20
HETATM   20  N8  UNL     1      -4.310   3.439   0.627  1.00  0.00    -0.156 N 
HETATM   21  C19 UNL     1      -5.615   3.876   0.909  1.00  0.00     0.294 C 
HETATM   22  O3  UNL     1      -6.100   3.656   2.050  1.00  0.00    -0.268 OA
ATOM     23  H8  UNL     1      -3.619   4.157   0.409  1.00  0.00     0.187 HD
BRANCH  21  24
HETATM   24  C20 UNL     1      -6.471   4.593  -0.072  1.00  0.00     0.469 C 
BRANCH  24  25
HETATM   25  N9  UNL     1      -5.745   4.757  -1.332  1.00  0.00    -0.042 N 
ATOM     26  H93 UNL     1      -4.844   5.217  -1.199  1.00  0.00     0.277 HD
ATOM     27  H92 UNL     1      -5.404   3.868  -1.697  1.00  0.00     0.277 HD
ATOM     28  H91 UNL     1      -6.332   5.249  -2.005  1.00  0.00     0.277 HD
ENDBRANCH  24  25
BRANCH  24  29
HETATM   29  N10 UNL     1      -7.683   3.876  -0.381  1.00  0.00    -0.042 N 
ATOM     30 3H10 UNL     1      -7.477   2.929  -0.698  1.00  0.00     0.277 HD
ATOM     31 2H10 UNL     1      -8.204   3.656   0.468  1.00  0.00     0.277 HD
ATOM     32 1H10 UNL     1      -8.270   4.368  -1.054  1.00  0.00     0.277 HD
ENDBRANCH  24  29
ENDBRANCH  21  24
ENDBRANCH  13  20
BRANCH   5  33
HETATM   33  N3  UNL     1      -0.711  -3.220   0.245  1.00  0.00    -0.219 N 
HETATM   34  N4  UNL     1       0.098  -3.829   1.096  1.00  0.00    -0.013 NA
HETATM   35  N5  UNL     1       0.315  -5.086   0.750  1.00  0.00    -0.281 N 
HETATM   36  C10 UNL     1      -0.371  -5.338  -0.377  1.00  0.00     0.074 A 
ATOM     37  H5  UNL     1       0.903  -5.751   1.253  1.00  0.00     0.184 HD
HETATM   38  C11 UNL     1      -0.514  -6.455  -1.170  1.00  0.00     0.033 A 
HETATM   39  C15 UNL     1      -1.017  -4.161  -0.693  1.00  0.00     0.084 A 
HETATM   40  C12 UNL     1      -1.321  -6.346  -2.282  1.00  0.00     0.002 A 
HETATM   41  C13 UNL     1      -1.974  -5.179  -2.614  1.00  0.00     0.002 A 
HETATM   42  C14 UNL     1      -1.819  -4.060  -1.801  1.00  0.00     0.034 A 
ENDBRANCH   5  33
BRANCH   1  43
HETATM   43  C6  UNL     1       2.643   0.996  -0.867  1.00  0.00     0.137 C 
BRANCH  43  44
HETATM   44  C5  UNL     1       3.494   1.270   0.356  1.00  0.00     0.020 C 
BRANCH  44  45
HETATM   45  C4  UNL     1       4.853   1.729  -0.122  1.00  0.00     0.002 C 
BRANCH  45  46
HETATM   46  C3  UNL     1       5.773   2.021   1.035  1.00  0.00     0.007 C 
BRANCH  46  47
HETATM   47  C2  UNL     1       6.039   0.853   1.930  1.00  0.00     0.075 C 
BRANCH  47  48
HETATM   48  C1  UNL     1       6.691  -0.298   1.313  1.00  0.00     0.113 C 
HETATM   49  N1  UNL     1       6.139  -1.089   0.294  1.00  0.00    -0.086 NA
HETATM   50  N13 UNL     1       7.885  -0.611   1.747  1.00  0.00    -0.260 N 
ATOM     51  H13 UNL     1       8.315  -0.055   2.486  1.00  0.00     0.195 HD
BRANCH  50  52
HETATM   52  O5  UNL     1       8.555  -1.663   1.226  1.00  0.00    -0.289 OA
ATOM     53  H5  UNL     1       9.422  -1.890   1.541  1.00  0.00     0.244 HD
ENDBRANCH  50  52
ENDBRANCH  47  48
ENDBRANCH  46  47
ENDBRANCH  45  46
ENDBRANCH  44  45
ENDBRANCH  43  44
ENDBRANCH   1  43
TORSDOF 12
