REMARK  10 active torsions:
REMARK  status: ('A' for Active; 'I' for Inactive)
REMARK    1  A    between atoms: O1_2  and  C2_3 
REMARK    2  A    between atoms: C4_5  and  C5_6 
REMARK    3  A    between atoms: C5_6  and  C6_7 
REMARK    4  A    between atoms: C6_7  and  O2_8 
REMARK    5  A    between atoms: C6_7  and  C9_20 
REMARK    6  A    between atoms: O2_8  and  N1_9 
REMARK       I    between atoms: C7_11  and  N3_13 
REMARK       I    between atoms: N3_13  and  C8_15 
REMARK    7  A    between atoms: C10_21  and  O3_22 
REMARK    8  A    between atoms: C14_29  and  C15_30 
REMARK       I    between atoms: C15_30  and  N7_32 
REMARK    9  A    between atoms: N7_32  and  S1_34 
REMARK   10  A    between atoms: C18_46  and  O8_47 
ROOT
HETATM    1  C6  UNL     1      -0.120   0.233  -0.170  1.00  0.00     0.196 C 
ENDROOT
BRANCH   1   2
HETATM    2  C5  UNL     1      -0.068  -1.186   0.235  1.00  0.00     0.098 C 
BRANCH   2   3
HETATM    3  C4  UNL     1      -1.461  -1.757   0.322  1.00  0.00     0.031 A 
HETATM    4  C3  UNL     1      -2.240  -1.691   1.450  1.00  0.00     0.068 A 
HETATM    5  C2  UNL     1      -3.512  -2.277   1.484  1.00  0.00     0.122 A 
HETATM    6  C18 UNL     1      -3.957  -2.922   0.350  1.00  0.00     0.191 A 
HETATM    7  N10 UNL     1      -3.159  -2.960  -0.729  1.00  0.00    -0.278 N 
HETATM    8  N9  UNL     1      -1.940  -2.394  -0.750  1.00  0.00    -0.303 N 
ATOM      9  H10 UNL     1      -3.491  -3.438  -1.567  1.00  0.00     0.189 HD
ATOM     10  H9  UNL     1      -1.373  -2.452  -1.596  1.00  0.00     0.186 HD
BRANCH   5  11
HETATM   11  O1  UNL     1      -4.340  -2.247   2.577  1.00  0.00    -0.352 OA
HETATM   12  C1  UNL     1      -4.087  -1.653   3.814  1.00  0.00     0.210 C 
ENDBRANCH   5  11
BRANCH   6  13
HETATM   13  O8  UNL     1      -5.213  -3.535   0.294  1.00  0.00    -0.338 OA
HETATM   14  C19 UNL     1      -5.636  -4.182  -0.873  1.00  0.00     0.211 C 
ENDBRANCH   6  13
ENDBRANCH   2   3
ENDBRANCH   1   2
BRANCH   1  15
HETATM   15  O2  UNL     1      -0.729   0.413  -1.448  1.00  0.00    -0.267 OA
BRANCH  15  16
HETATM   16  N1  UNL     1      -1.725   1.115  -1.840  1.00  0.00    -0.237 N 
HETATM   17  C7  UNL     1      -2.929   1.290  -1.945  1.00  0.00     0.214 C 
HETATM   18  N2  UNL     1      -4.033   0.507  -1.523  1.00  0.00    -0.061 NA
HETATM   19  N3  UNL     1      -3.343   2.519  -2.615  1.00  0.00    -0.303 N 
HETATM   20  C8  UNL     1      -3.498   3.683  -1.827  1.00  0.00     0.188 C 
ATOM     21  H3  UNL     1      -3.515   2.538  -3.620  1.00  0.00     0.171 HD
HETATM   22  N4  UNL     1      -4.365   3.697  -0.876  1.00  0.00    -0.373 N 
HETATM   23  N5  UNL     1      -2.721   4.833  -2.058  1.00  0.00    -0.064 NA
ATOM     24  H42 UNL     1      -4.928   2.863  -0.709  1.00  0.00     0.158 HD
ATOM     25  H41 UNL     1      -4.477   4.537  -0.308  1.00  0.00     0.158 HD
ATOM     26  H1  UNL     1      -1.306   1.932  -2.284  1.00  0.00     0.197 HD
ENDBRANCH  15  16
ENDBRANCH   1  15
BRANCH   1  27
HETATM   27  C9  UNL     1       1.099   1.033  -0.033  1.00  0.00     0.035 A 
HETATM   28  C10 UNL     1       0.988   2.444  -0.049  1.00  0.00     0.077 A 
HETATM   29  C11 UNL     1       2.065   3.279   0.034  1.00  0.00     0.039 A 
HETATM   30  C12 UNL     1       3.305   2.716   0.139  1.00  0.00     0.035 A 
HETATM   31  C13 UNL     1       3.473   1.330   0.161  1.00  0.00     0.060 A 
HETATM   32  N6  UNL     1       4.706   0.806   0.262  1.00  0.00    -0.349 N 
HETATM   33  C17 UNL     1       2.351   0.490   0.074  1.00  0.00     0.070 A 
HETATM   34  C14 UNL     1       4.896  -0.529   0.281  1.00  0.00     0.117 A 
ATOM     35  H6  UNL     1       5.512   1.428   0.325  1.00  0.00     0.166 HD
HETATM   36  C16 UNL     1       3.773  -1.326   0.193  1.00  0.00     0.123 A 
HETATM   37  N8  UNL     1       2.538  -0.836   0.092  1.00  0.00    -0.361 N 
ATOM     38  H8  UNL     1       1.739  -1.467   0.029  1.00  0.00     0.165 HD
BRANCH  28  39
HETATM   39  O3  UNL     1      -0.282   3.002  -0.154  1.00  0.00    -0.360 OA
ATOM     40  H3  UNL     1      -0.356   3.949  -0.165  1.00  0.00     0.217 HD
ENDBRANCH  28  39
BRANCH  34  41
HETATM   41  C15 UNL     1       6.235  -1.097   0.381  1.00  0.00     0.284 C 
HETATM   42  O4  UNL     1       6.413  -2.320   0.424  1.00  0.00    -0.265 OA
HETATM   43  N7  UNL     1       7.357  -0.231   0.430  1.00  0.00    -0.230 N 
ATOM     44  H7  UNL     1       7.204   0.777   0.395  1.00  0.00     0.184 HD
BRANCH  43  45
HETATM   45  S1  UNL     1       8.976  -0.828   0.547  1.00  0.00     0.211 S 
HETATM   46  O5  UNL     1       9.662  -0.303   1.775  1.00  0.00    -0.578 OA
HETATM   47  O6  UNL     1       9.778  -0.374  -0.657  1.00  0.00    -0.578 OA
HETATM   48  O7  UNL     1       9.003  -2.506   0.527  1.00  0.00    -0.578 OA
ENDBRANCH  43  45
ENDBRANCH  34  41
ENDBRANCH   1  27
TORSDOF 10
