REMARK  11 active torsions:
REMARK  status: ('A' for Active; 'I' for Inactive)
REMARK    1  A    between atoms: N1_2  and  O1_4 
REMARK    2  A    between atoms: O1_4  and  S1_5 
REMARK    3  A    between atoms: S1_5  and  C3_8 
REMARK    4  A    between atoms: C4_9  and  C5_10 
REMARK    5  A    between atoms: C9_14  and  C10_15 
REMARK       I    between atoms: C10_15  and  N2_17 
REMARK    6  A    between atoms: N2_17  and  C11_19 
REMARK    7  A    between atoms: C12_20  and  N3_21 
REMARK    8  A    between atoms: N3_21  and  N4_23 
REMARK    9  A    between atoms: C14_29  and  C15_30 
REMARK   10  A    between atoms: C15_30  and  C16_31 
REMARK   11  A    between atoms: C18_38  and  O6_39 
ROOT
HETATM    1  C11 UNL     1       1.805   0.920  -1.450  1.00  0.00     0.151 A 
HETATM    2  C12 UNL     1       2.337   1.741  -0.480  1.00  0.00     0.154 A 
HETATM    3  N5  UNL     1       3.490   1.398   0.120  1.00  0.00    -0.323 N 
ATOM      4  H5  UNL     1       3.871   2.016   0.836  1.00  0.00     0.169 HD
HETATM    5  C13 UNL     1       4.163   0.273  -0.185  1.00  0.00     0.144 A 
HETATM    6  C14 UNL     1       5.338  -0.269   0.291  1.00  0.00     0.029 A 
HETATM    7  C19 UNL     1       5.545  -1.453  -0.394  1.00  0.00     0.123 A 
HETATM    8  N8  UNL     1       4.505  -1.568  -1.237  1.00  0.00    -0.300 N 
ATOM      9  H8  UNL     1       4.375  -2.347  -1.883  1.00  0.00     0.186 HD
HETATM   10  N9  UNL     1       3.671  -0.549  -1.127  1.00  0.00    -0.201 N 
HETATM   11  C20 UNL     1       2.503  -0.227  -1.752  1.00  0.00     0.299 A 
HETATM   12  O7  UNL     1       2.058  -0.998  -2.623  1.00  0.00    -0.263 OA
ENDROOT
BRANCH   1  13
HETATM   13  N2  UNL     1       0.570   1.242  -2.121  1.00  0.00    -0.315 N 
HETATM   14  C10 UNL     1      -0.671   0.797  -1.609  1.00  0.00     0.256 C 
HETATM   15  O4  UNL     1      -0.661   0.117  -0.558  1.00  0.00    -0.267 OA
ATOM     16  H2  UNL     1       0.592   1.798  -2.976  1.00  0.00     0.169 HD
BRANCH  14  17
HETATM   17  C9  UNL     1      -1.944   1.090  -2.242  1.00  0.00     0.033 A 
HETATM   18  C8  UNL     1      -1.991   1.918  -3.327  1.00  0.00     0.017 A 
HETATM   19  C7  UNL     1      -3.205   2.189  -3.926  1.00  0.00     0.002 A 
HETATM   20  C6  UNL     1      -4.335   1.619  -3.414  1.00  0.00     0.011 A 
HETATM   21  C5  UNL     1      -4.316   0.760  -2.293  1.00  0.00    -0.035 A 
HETATM   22  C21 UNL     1      -3.096   0.501  -1.708  1.00  0.00     0.028 A 
BRANCH  21  23
HETATM   23  C4  UNL     1      -5.567   0.214  -1.837  1.00  0.00     0.025 C 
HETATM   24  C3  UNL     1      -5.946  -0.564  -0.907  1.00  0.00     0.141 C 
BRANCH  24  25
HETATM   25  S1  UNL     1      -5.187  -1.432   0.363  1.00  0.00     0.304 S 
HETATM   26  O2  UNL     1      -4.208  -2.453  -0.174  1.00  0.00    -0.193 OA
HETATM   27  O3  UNL     1      -4.471  -0.574   1.354  1.00  0.00    -0.193 OA
BRANCH  25  28
HETATM   28  O1  UNL     1      -6.359  -2.310   1.264  1.00  0.00    -0.175 OA
BRANCH  28  29
HETATM   29  N1  UNL     1      -7.075  -1.469   2.039  1.00  0.00    -0.187 NA
HETATM   30  C1  UNL     1      -7.127  -1.924   3.420  1.00  0.00     0.144 C 
HETATM   31  C2  UNL     1      -8.404  -1.237   1.510  1.00  0.00     0.144 C 
ENDBRANCH  28  29
ENDBRANCH  25  28
ENDBRANCH  24  25
ENDBRANCH  21  23
ENDBRANCH  14  17
ENDBRANCH   1  13
BRANCH   2  32
HETATM   32  N3  UNL     1       1.636   2.937  -0.145  1.00  0.00    -0.290 N 
ATOM     33  H3  UNL     1       0.760   3.183  -0.606  1.00  0.00     0.188 HD
BRANCH  32  34
HETATM   34  N4  UNL     1       2.191   3.757   0.835  1.00  0.00    -0.344 N 
ATOM     35  H42 UNL     1       3.068   3.497   1.287  1.00  0.00     0.176 HD
ATOM     36  H41 UNL     1       1.690   4.612   1.075  1.00  0.00     0.176 HD
ENDBRANCH  32  34
ENDBRANCH   2  32
BRANCH   6  37
HETATM   37  C15 UNL     1       6.152   0.210   1.226  1.00  0.00     0.051 C 
BRANCH  37  38
HETATM   38  C16 UNL     1       7.349  -0.498   1.602  1.00  0.00     0.088 A 
HETATM   39  N6  UNL     1       8.373  -0.883   0.814  1.00  0.00    -0.305 N 
HETATM   40  C17 UNL     1       9.278  -1.515   1.580  1.00  0.00     0.326 A 
ATOM     41  H6  UNL     1       8.448  -0.722  -0.190  1.00  0.00     0.171 HD
HETATM   42  O5  UNL     1      10.369  -2.018   1.207  1.00  0.00    -0.247 OA
HETATM   43  N7  UNL     1       8.862  -1.550   2.862  1.00  0.00    -0.287 N 
HETATM   44  C18 UNL     1       7.666  -0.921   2.886  1.00  0.00     0.171 A 
ATOM     45  H7  UNL     1       9.351  -1.967   3.654  1.00  0.00     0.172 HD
BRANCH  44  46
HETATM   46  O6  UNL     1       6.860  -0.721   4.021  1.00  0.00    -0.344 OA
ATOM     47  H6  UNL     1       7.077  -1.010   4.899  1.00  0.00     0.219 HD
ENDBRANCH  44  46
ENDBRANCH  37  38
ENDBRANCH   6  37
TORSDOF 11
