REMARK  7 active torsions:
REMARK  status: ('A' for Active; 'I' for Inactive)
REMARK    1  A    between atoms: N2_4  and  C3_6 
REMARK    2  A    between atoms: C3_6  and  C5_8 
REMARK    3  A    between atoms: C5_8  and  N3_10 
REMARK       I    between atoms: N3_10  and  C7_12 
REMARK    4  A    between atoms: C7_12  and  C8_14 
REMARK    5  A    between atoms: C8_14  and  N4_15 
REMARK    6  A    between atoms: C8_14  and  C9_19 
REMARK    7  A    between atoms: C9_19  and  C10_20 
ROOT
HETATM    1  N3  UNL     1      -0.479  -0.995  -0.282  1.00  0.00    -0.353 N 
ATOM      2  H3  UNL     1      -0.461  -0.557  -1.203  1.00  0.00     0.163 HD
HETATM    3  C7  UNL     1      -1.744  -1.163   0.344  1.00  0.00     0.249 C 
HETATM    4  O1  UNL     1      -1.822  -1.693   1.471  1.00  0.00    -0.271 OA
ENDROOT
BRANCH   1   5
HETATM    5  C5  UNL     1       0.769  -1.396   0.287  1.00  0.00     0.102 C 
HETATM    6  C6  UNL     1       1.420  -2.533  -0.467  1.00  0.00     0.034 C 
BRANCH   5   7
HETATM    7  C3  UNL     1       1.667  -0.216   0.446  1.00  0.00     0.100 C 
HETATM    8  C4  UNL     1       0.894   0.909   1.088  1.00  0.00     0.034 C 
BRANCH   7   9
HETATM    9  N2  UNL     1       2.878  -0.520   1.166  1.00  0.00    -0.376 N 
HETATM   10  C2  UNL     1       3.941   0.209   1.135  1.00  0.00     0.085 C 
HETATM   11  C1  UNL     1       3.980   1.468   0.316  1.00  0.00     0.085 C 
HETATM   12  N1  UNL     1       5.099  -0.141   1.862  1.00  0.00    -0.088 NA
ATOM     13  H2  UNL     1       2.895  -1.366   1.736  1.00  0.00     0.160 HD
ENDBRANCH   7   9
ENDBRANCH   5   7
ENDBRANCH   1   5
BRANCH   3  14
HETATM   14  C8  UNL     1      -2.989  -0.714  -0.325  1.00  0.00     0.283 C 
BRANCH  14  15
HETATM   15  N4  UNL     1      -4.114  -1.007   0.540  1.00  0.00    -0.066 N 
ATOM     16  H43 UNL     1      -4.150  -1.989   0.813  1.00  0.00     0.275 HD
ATOM     17  H42 UNL     1      -4.005  -0.605   1.471  1.00  0.00     0.275 HD
ATOM     18  H41 UNL     1      -4.970  -0.698   0.080  1.00  0.00     0.275 HD
ENDBRANCH  14  15
BRANCH  14  19
HETATM   19  C9  UNL     1      -2.920   0.807  -0.512  1.00  0.00     0.142 C 
BRANCH  19  20
HETATM   20  C10 UNL     1      -4.170   1.273  -1.185  1.00  0.00     0.233 C 
HETATM   21  N5  UNL     1      -4.340   2.635  -1.467  1.00  0.00    -0.062 NA
HETATM   22  O2  UNL     1      -5.088   0.479  -1.513  1.00  0.00    -0.277 OA
ENDBRANCH  19  20
ENDBRANCH  14  19
ENDBRANCH   3  14
TORSDOF 7
