REMARK  5 active torsions:
REMARK  status: ('A' for Active; 'I' for Inactive)
REMARK    1  A    between atoms: C3_8  and  C4_9 
REMARK    2  A    between atoms: C4_9  and  C5_10 
REMARK    3  A    between atoms: N3_13  and  C8_14 
REMARK    4  A    between atoms: C8_14  and  C9_15 
REMARK    5  A    between atoms: C9_15  and  O2_16 
ROOT
HETATM    1  O1  UNL     1       6.625  -1.362  -0.322  1.00  0.00    -0.245 OA
HETATM    2  C1  UNL     1       5.412  -1.056  -0.210  1.00  0.00     0.341 A 
HETATM    3  N1  UNL     1       4.471  -2.017  -0.167  1.00  0.00    -0.251 N 
ATOM      4  H1  UNL     1       4.743  -2.998  -0.226  1.00  0.00     0.191 HD
HETATM    5  N2  UNL     1       3.212  -1.697  -0.050  1.00  0.00    -0.292 N 
ATOM      6  H2  UNL     1       2.515  -2.441  -0.018  1.00  0.00     0.187 HD
HETATM    7  C2  UNL     1       2.793  -0.385   0.032  1.00  0.00     0.116 A 
HETATM    8  C3  UNL     1       1.377  -0.122   0.160  1.00  0.00     0.039 C 
HETATM    9  C10 UNL     1       3.746   0.576  -0.012  1.00  0.00     0.277 A 
HETATM   10  O3  UNL     1       3.473   1.786   0.055  1.00  0.00    -0.266 OA
HETATM   11  N5  UNL     1       5.062   0.236  -0.134  1.00  0.00    -0.272 N 
ATOM     12  H5  UNL     1       5.777   0.963  -0.167  1.00  0.00     0.173 HD
ENDROOT
BRANCH   8  13
HETATM   13  C4  UNL     1       0.743   1.000   0.253  1.00  0.00     0.033 C 
BRANCH  13  14
HETATM   14  C5  UNL     1      -0.734   1.069   0.379  1.00  0.00     0.049 A 
HETATM   15  C6  UNL     1      -1.501   2.209   0.484  1.00  0.00     0.049 A 
HETATM   16  C7  UNL     1      -2.823   1.834   0.580  1.00  0.00     0.112 A 
HETATM   17  N3  UNL     1      -2.855   0.510   0.535  1.00  0.00    -0.301 N 
HETATM   18  N4  UNL     1      -1.606   0.049   0.414  1.00  0.00    -0.299 N 
ATOM     19  H4  UNL     1      -1.352  -0.937   0.356  1.00  0.00     0.187 HD
BRANCH  17  20
HETATM   20  C8  UNL     1      -4.018  -0.382   0.599  1.00  0.00     0.174 C 
BRANCH  20  21
HETATM   21  C9  UNL     1      -4.468  -0.580  -0.845  1.00  0.00     0.185 C 
BRANCH  21  22
HETATM   22  O2  UNL     1      -3.398  -1.151  -1.527  1.00  0.00    -0.399 OA
ATOM     23  H2  UNL     1      -3.678  -1.274  -2.426  1.00  0.00     0.209 HD
ENDBRANCH  21  22
ENDBRANCH  20  21
ENDBRANCH  17  20
ENDBRANCH  13  14
ENDBRANCH   8  13
TORSDOF 5
