REMARK  5 active torsions:
REMARK  status: ('A' for Active; 'I' for Inactive)
REMARK    1  A    between atoms: C3_3  and  C4_4 
REMARK    2  A    between atoms: C4_4  and  N1_5 
REMARK       I    between atoms: C5_7  and  N3_9 
REMARK    3  A    between atoms: N3_9  and  N4_11 
REMARK       I    between atoms: N4_11  and  C6_13 
REMARK       I    between atoms: C6_13  and  N6_19 
REMARK    4  A    between atoms: N5_14  and  C7_16 
REMARK    5  A    between atoms: N6_19  and  N7_21 
ROOT
HETATM    1  C1  UNL     1       5.733   1.176  -1.287  1.00  0.00     0.097 C 
HETATM    2  C2  UNL     1       5.297   0.679  -0.259  1.00  0.00    -0.186 C 
HETATM    3  C3  UNL     1       4.772   0.078   0.967  1.00  0.00     0.099 C 
ENDROOT
BRANCH   3   4
HETATM    4  C4  UNL     1       3.950  -1.152   0.615  1.00  0.00     0.133 C 
BRANCH   4   5
HETATM    5  N1  UNL     1       2.839  -0.854  -0.236  1.00  0.00    -0.363 N 
HETATM    6  C5  UNL     1       1.766  -0.285   0.185  1.00  0.00     0.203 C 
HETATM    7  N2  UNL     1       1.600   0.096   1.551  1.00  0.00    -0.062 NA
HETATM    8  N3  UNL     1       0.709  -0.026  -0.733  1.00  0.00    -0.259 N 
ATOM      9  H3  UNL     1       0.691   0.819  -1.304  1.00  0.00     0.190 HD
ATOM     10  H1  UNL     1       2.901  -1.105  -1.223  1.00  0.00     0.162 HD
BRANCH   8  11
HETATM   11  N4  UNL     1      -0.303  -0.987  -0.814  1.00  0.00    -0.128 N 
HETATM   12  C6  UNL     1      -1.689  -0.659  -0.629  1.00  0.00     0.712 C 
HETATM   13  N5  UNL     1      -1.949   0.504  -0.172  1.00  0.00    -0.220 N 
HETATM   14  N6  UNL     1      -2.643  -1.633  -0.961  1.00  0.00    -0.071 N 
ATOM     15  H5  UNL     1      -1.167   1.126   0.034  1.00  0.00     0.178 HD
ATOM     16  H6  UNL     1      -3.391  -1.420  -1.620  1.00  0.00     0.212 HD
ATOM     17  H4  UNL     1      -0.048  -1.955  -1.011  1.00  0.00     0.205 HD
BRANCH  13  18
HETATM   18  C7  UNL     1      -3.291   0.990   0.071  1.00  0.00     0.091 C 
HETATM   19  C8  UNL     1      -3.311   2.163   1.001  1.00  0.00     0.032 C 
HETATM   20  C9  UNL     1      -3.974   1.366  -1.219  1.00  0.00     0.032 C 
ENDBRANCH  13  18
BRANCH  14  21
HETATM   21  N7  UNL     1      -2.555  -2.887  -0.382  1.00  0.00    -0.024 N 
HETATM   22  O1  UNL     1      -2.073  -3.863  -1.029  1.00  0.00    -0.516 OA
HETATM   23  O2  UNL     1      -2.980  -3.143   0.904  1.00  0.00    -0.516 OA
ENDBRANCH  14  21
ENDBRANCH   8  11
ENDBRANCH   4   5
ENDBRANCH   3   4
TORSDOF 5
