REMARK  6 active torsions:
REMARK  status: ('A' for Active; 'I' for Inactive)
REMARK    1  A    between atoms: N1_1  and  C1_4 
REMARK    2  A    between atoms: C2_10  and  C3_11 
REMARK    3  A    between atoms: C3_11  and  C4_12 
REMARK    4  A    between atoms: C4_12  and  C5_13 
REMARK    5  A    between atoms: C5_13  and  N4_14 
REMARK    6  A    between atoms: C5_13  and  N5_18 
ROOT
HETATM    1  C3  UNL     1      -0.503   0.666   1.036  1.00  0.00     0.067 C 
ENDROOT
BRANCH   1   2
HETATM    2  C2  UNL     1      -1.319  -0.368   0.409  1.00  0.00     0.079 A 
HETATM    3  C1  UNL     1      -2.198  -0.239  -0.642  1.00  0.00     0.146 A 
HETATM    4  N2  UNL     1      -2.728  -1.476  -0.878  1.00  0.00    -0.224 N 
HETATM    5  O1  UNL     1      -2.193  -2.296  -0.013  1.00  0.00    -0.155 OA
ATOM      6  H2  UNL     1      -3.413  -1.715  -1.595  1.00  0.00     0.198 HD
HETATM    7  N3  UNL     1      -1.354  -1.661   0.761  1.00  0.00    -0.242 N 
ATOM      8  H3  UNL     1      -0.811  -2.083   1.515  1.00  0.00     0.196 HD
BRANCH   3   9
HETATM    9  N1  UNL     1      -2.494   0.818  -1.305  1.00  0.00    -0.382 N 
ATOM     10  H12 UNL     1      -3.145   0.914  -2.084  1.00  0.00     0.157 HD
ATOM     11  H11 UNL     1      -2.098   1.741  -1.129  1.00  0.00     0.157 HD
ENDBRANCH   3   9
ENDBRANCH   1   2
BRANCH   1  12
HETATM   12  C4  UNL     1       0.707   1.066   0.229  1.00  0.00     0.068 C 
BRANCH  12  13
HETATM   13  C5  UNL     1       1.657  -0.057  -0.034  1.00  0.00     0.378 C 
BRANCH  13  14
HETATM   14  N4  UNL     1       2.144  -0.595   1.196  1.00  0.00    -0.051 N 
ATOM     15  H43 UNL     1       2.561   0.125   1.787  1.00  0.00     0.276 HD
ATOM     16  H42 UNL     1       1.384  -0.877   1.815  1.00  0.00     0.276 HD
ATOM     17  H41 UNL     1       2.792  -1.362   1.016  1.00  0.00     0.276 HD
ENDBRANCH  13  14
BRANCH  13  18
HETATM   18  N5  UNL     1       2.793   0.484  -0.757  1.00  0.00    -0.051 N 
ATOM     19  H53 UNL     1       2.522   0.981  -1.606  1.00  0.00     0.276 HD
ATOM     20  H52 UNL     1       3.231   1.269  -0.275  1.00  0.00     0.276 HD
ATOM     21  H51 UNL     1       3.441  -0.283  -0.937  1.00  0.00     0.276 HD
ENDBRANCH  13  18
ENDBRANCH  12  13
ENDBRANCH   1  12
TORSDOF 6
