REMARK  3 active torsions:
REMARK  status: ('A' for Active; 'I' for Inactive)
REMARK    1  A    between atoms: N1_2  and  N2_4 
REMARK    2  A    between atoms: C2_6  and  C3_7 
REMARK    3  A    between atoms: C4_10  and  N4_11 
ROOT
HETATM    1  C3  UNL     1      -0.944  -0.491  -0.578  1.00  0.00     0.152 A 
HETATM    2  N3  UNL     1      -1.470   0.402   0.296  1.00  0.00    -0.173 N 
ATOM      3  H3  UNL     1      -0.933   1.000   0.924  1.00  0.00     0.186 HD
HETATM    4  C4  UNL     1      -2.794   0.376   0.206  1.00  0.00     0.692 A 
HETATM    5  N5  UNL     1      -3.084  -0.537  -0.729  1.00  0.00    -0.131 N 
ATOM      6  H5  UNL     1      -4.028  -0.784  -1.025  1.00  0.00     0.205 HD
HETATM    7  N6  UNL     1      -1.980  -1.073  -1.215  1.00  0.00    -0.270 N 
ATOM      8  H6  UNL     1      -1.922  -1.792  -1.936  1.00  0.00     0.189 HD
ENDROOT
BRANCH   1   9
HETATM    9  C2  UNL     1       0.480  -0.739  -0.759  1.00  0.00     0.157 C 
HETATM   10  N2  UNL     1       1.326  -0.099  -0.073  1.00  0.00    -0.313 N 
ATOM     11  H2  UNL     1       0.934   0.574   0.586  1.00  0.00     0.185 HD
BRANCH  10  12
HETATM   12  N1  UNL     1       2.684  -0.178  -0.086  1.00  0.00    -0.341 N 
HETATM   13  C1  UNL     1       3.515   0.944   0.268  1.00  0.00     0.167 C 
ATOM     14  H1  UNL     1       3.126  -1.057  -0.354  1.00  0.00     0.179 HD
ENDBRANCH  10  12
ENDBRANCH   1   9
BRANCH   4  15
HETATM   15  N4  UNL     1      -3.645   1.094   0.887  1.00  0.00    -0.233 N 
ATOM     16  H42 UNL     1      -3.424   1.790   1.599  1.00  0.00     0.174 HD
ATOM     17  H41 UNL     1      -4.662   1.074   0.818  1.00  0.00     0.174 HD
ENDBRANCH   4  15
TORSDOF 3
