REMARK  5 active torsions:
REMARK  status: ('A' for Active; 'I' for Inactive)
REMARK    1  A    between atoms: C2_2  and  N2_6 
REMARK       I    between atoms: N2_6  and  C5_8 
REMARK    2  A    between atoms: C5_8  and  C6_10 
REMARK       I    between atoms: N3_16  and  C12_17 
REMARK    3  A    between atoms: C12_17  and  C13_19 
REMARK       I    between atoms: N4_23  and  C17_24 
REMARK    4  A    between atoms: C17_24  and  C18_26 
REMARK    5  A    between atoms: C22_31  and  C23_32 
ROOT
HETATM    1  C1  UNL     1       6.730   1.219   2.050  1.00  0.00     0.055 C 
HETATM    2  C2  UNL     1       6.152   1.654   0.721  1.00  0.00     0.114 C 
HETATM    3  C3  UNL     1       6.301   3.142   0.603  1.00  0.00     0.055 C 
HETATM    4  C4  UNL     1       6.927   1.045  -0.353  1.00  0.00     0.090 C 
HETATM    5  N1  UNL     1       7.527   0.573  -1.209  1.00  0.00    -0.195 NA
ENDROOT
BRANCH   2   6
HETATM    6  N2  UNL     1       4.769   1.268   0.564  1.00  0.00    -0.339 N 
HETATM    7  C5  UNL     1       4.340  -0.089   0.609  1.00  0.00     0.225 C 
HETATM    8  O1  UNL     1       5.221  -0.964   0.796  1.00  0.00    -0.273 OA
ATOM      9  H2  UNL     1       4.071   1.997   0.415  1.00  0.00     0.164 HD
BRANCH   7  10
HETATM   10  C6  UNL     1       2.928  -0.393   0.440  1.00  0.00     0.103 C 
HETATM   11  C7  UNL     1       2.602  -1.866   0.558  1.00  0.00     0.041 C 
HETATM   12  C8  UNL     1       1.659  -2.155  -0.583  1.00  0.00     0.088 C 
HETATM   13  C9  UNL     1       2.535  -2.314  -1.818  1.00  0.00     0.027 C 
HETATM   14  N3  UNL     1       1.113  -0.823  -0.826  1.00  0.00    -0.340 N 
HETATM   15  C10 UNL     1       3.033  -0.889  -2.015  1.00  0.00     0.028 C 
HETATM   16  C11 UNL     1       2.389  -0.077  -0.938  1.00  0.00     0.101 C 
HETATM   17  C12 UNL     1      -0.187  -0.346  -0.920  1.00  0.00     0.243 C 
HETATM   18  O2  UNL     1      -0.385   0.866  -1.146  1.00  0.00    -0.271 OA
BRANCH  17  19
HETATM   19  C13 UNL     1      -1.336  -1.260  -0.753  1.00  0.00     0.179 C 
HETATM   20  C14 UNL     1      -1.430  -2.314  -1.797  1.00  0.00     0.037 C 
HETATM   21  C15 UNL     1      -2.668  -2.033  -2.581  1.00  0.00     0.022 C 
HETATM   22  C16 UNL     1      -3.029  -0.608  -2.156  1.00  0.00     0.127 C 
HETATM   23  N4  UNL     1      -2.600  -0.562  -0.769  1.00  0.00    -0.338 N 
HETATM   24  C17 UNL     1      -3.271   0.043   0.313  1.00  0.00     0.225 C 
HETATM   25  O3  UNL     1      -2.652  -0.035   1.444  1.00  0.00    -0.273 OA
BRANCH  24  26
HETATM   26  C18 UNL     1      -4.544   0.731   0.329  1.00  0.00     0.095 C 
HETATM   27  C19 UNL     1      -5.777  -0.041   0.068  1.00  0.00     0.052 C 
HETATM   28  C20 UNL     1      -6.901   0.831   0.648  1.00  0.00     0.171 C 
HETATM   29  F1  UNL     1      -7.773   1.265  -0.322  1.00  0.00    -0.249 F 
HETATM   30  C21 UNL     1      -6.218   2.053   1.229  1.00  0.00     0.053 C 
HETATM   31  C22 UNL     1      -4.821   1.499   1.594  1.00  0.00     0.102 C 
BRANCH  31  32
HETATM   32  C23 UNL     1      -5.035   0.684   2.788  1.00  0.00     0.177 C 
HETATM   33  O4  UNL     1      -5.061  -0.548   2.889  1.00  0.00    -0.648 OA
HETATM   34  O5  UNL     1      -5.240   1.398   3.986  1.00  0.00    -0.648 OA
ENDBRANCH  31  32
ENDBRANCH  24  26
ENDBRANCH  17  19
ENDBRANCH   7  10
ENDBRANCH   2   6
TORSDOF 5
