REMARK  7 active torsions:
REMARK  status: ('A' for Active; 'I' for Inactive)
REMARK    1  A    between atoms: C2_2  and  C3_3 
REMARK    2  A    between atoms: C2_2  and  N2_13 
REMARK       I    between atoms: C3_3  and  N1_5 
REMARK    3  A    between atoms: N1_5  and  C4_7 
REMARK    4  A    between atoms: C4_7  and  C6_9 
REMARK    5  A    between atoms: C10_14  and  C11_15 
REMARK       I    between atoms: C11_15  and  N3_17 
REMARK    6  A    between atoms: N3_17  and  C12_19 
REMARK    7  A    between atoms: C16_23  and  C17_25 
REMARK       I    between atoms: C17_25  and  N4_27 
ROOT
HETATM    1  N2  UNL     1      -0.175  -0.647  -0.888  1.00  0.00    -0.347 N 
HETATM    2  C10 UNL     1      -1.499  -0.180  -0.549  1.00  0.00     0.235 C 
HETATM    3  C16 UNL     1      -2.342  -0.759  -1.693  1.00  0.00     0.274 C 
HETATM    4  F1  UNL     1      -2.060  -0.092  -2.845  1.00  0.00    -0.221 F 
HETATM    5  C20 UNL     1      -1.683  -2.118  -1.717  1.00  0.00     0.206 C 
HETATM    6  O4  UNL     1      -2.196  -3.200  -1.750  1.00  0.00    -0.291 OA
HETATM    7  C21 UNL     1      -0.194  -1.765  -1.687  1.00  0.00     0.091 C 
HETATM    8  C22 UNL     1       0.197  -1.734  -3.119  1.00  0.00     0.047 C 
HETATM    9  C23 UNL     1       0.555  -2.934  -1.067  1.00  0.00     0.047 C 
ENDROOT
BRANCH   1  10
HETATM   10  C2  UNL     1       0.899  -0.177  -0.141  1.00  0.00     0.073 C 
HETATM   11  C1  UNL     1       1.018  -0.595   1.307  1.00  0.00     0.074 C 
BRANCH  10  12
HETATM   12  C3  UNL     1       2.188   0.093  -0.805  1.00  0.00     0.263 C 
HETATM   13  O1  UNL     1       2.221   0.162  -2.080  1.00  0.00    -0.266 OA
HETATM   14  N1  UNL     1       3.440   0.292  -0.192  1.00  0.00    -0.351 N 
ATOM     15  H1  UNL     1       3.501   0.246   0.825  1.00  0.00     0.163 HD
BRANCH  14  16
HETATM   16  C4  UNL     1       4.653   0.561  -0.957  1.00  0.00     0.088 C 
HETATM   17  C5  UNL     1       5.690  -0.536  -0.743  1.00  0.00     0.033 C 
BRANCH  16  18
HETATM   18  C6  UNL     1       5.236   1.849  -0.431  1.00  0.00    -0.031 C 
HETATM   19  C7  UNL     1       5.555   1.630   1.054  1.00  0.00     0.016 C 
HETATM   20  C8  UNL     1       4.115   2.885  -0.460  1.00  0.00     0.016 C 
HETATM   21  C9  UNL     1       6.441   2.315  -1.179  1.00  0.00     0.016 C 
ENDBRANCH  16  18
ENDBRANCH  14  16
ENDBRANCH  10  12
ENDBRANCH   1  10
BRANCH   2  22
HETATM   22  C11 UNL     1      -2.017  -0.619   0.734  1.00  0.00     0.245 C 
HETATM   23  O2  UNL     1      -1.846  -1.774   1.147  1.00  0.00    -0.271 OA
HETATM   24  N3  UNL     1      -2.742   0.290   1.556  1.00  0.00    -0.351 N 
ATOM     25  H3  UNL     1      -2.878   1.239   1.207  1.00  0.00     0.163 HD
BRANCH  24  26
HETATM   26  C12 UNL     1      -3.293  -0.033   2.837  1.00  0.00     0.022 C 
HETATM   27  C13 UNL     1      -3.976   1.204   3.419  1.00  0.00     0.037 C 
HETATM   28  C14 UNL     1      -4.397  -1.052   2.678  1.00  0.00     0.037 C 
HETATM   29  C15 UNL     1      -2.300  -0.509   3.855  1.00  0.00     0.037 C 
ENDBRANCH  24  26
ENDBRANCH   2  22
BRANCH   3  30
HETATM   30  C17 UNL     1      -3.762  -0.901  -1.425  1.00  0.00     0.269 C 
HETATM   31  O3  UNL     1      -4.186  -2.088  -1.169  1.00  0.00    -0.269 OA
HETATM   32  N4  UNL     1      -4.750   0.088  -1.407  1.00  0.00    -0.358 N 
HETATM   33  C18 UNL     1      -6.123  -0.239  -1.125  1.00  0.00     0.152 C 
HETATM   34  C19 UNL     1      -4.434   1.460  -1.679  1.00  0.00     0.152 C 
ENDBRANCH   3  30
TORSDOF 7
