REMARK  7 active torsions:
REMARK  status: ('A' for Active; 'I' for Inactive)
REMARK    1  A    between atoms: C3_3  and  C4_4 
REMARK    2  A    between atoms: C4_4  and  N1_5 
REMARK    3  A    between atoms: C4_4  and  C7_10 
REMARK       I    between atoms: N1_5  and  C5_7 
REMARK       I    between atoms: C7_10  and  N2_12 
REMARK    4  A    between atoms: C11_17  and  N3_18 
REMARK    5  A    between atoms: N3_18  and  N4_19 
REMARK    6  A    between atoms: N3_18  and  C16_25 
REMARK    7  A    between atoms: N4_19  and  C12_21 
ROOT
HETATM    1  C1  UNL     1       5.300  -0.651   3.073  1.00  0.00     0.012 C 
HETATM    2  C2  UNL     1       4.721   0.216   2.472  1.00  0.00    -0.115 C 
HETATM    3  C3  UNL     1       4.008   1.265   1.754  1.00  0.00     0.128 C 
ENDROOT
BRANCH   3   4
HETATM    4  C4  UNL     1       3.893   0.859   0.312  1.00  0.00     0.188 C 
BRANCH   4   5
HETATM    5  N1  UNL     1       5.207   0.686  -0.252  1.00  0.00    -0.347 N 
HETATM    6  C5  UNL     1       5.714   1.476  -1.316  1.00  0.00     0.214 C 
HETATM    7  C6  UNL     1       7.077   1.245  -1.850  1.00  0.00     0.117 C 
HETATM    8  O1  UNL     1       4.963   2.368  -1.776  1.00  0.00    -0.274 OA
ATOM      9  H1  UNL     1       5.805  -0.044   0.134  1.00  0.00     0.163 HD
ENDBRANCH   4   5
BRANCH   4  10
HETATM   10  C7  UNL     1       3.033  -0.314   0.128  1.00  0.00     0.245 C 
HETATM   11  O2  UNL     1       3.455  -1.333  -0.476  1.00  0.00    -0.271 OA
HETATM   12  N2  UNL     1       1.711  -0.334   0.622  1.00  0.00    -0.330 N 
HETATM   13  C8  UNL     1       0.728   0.363   0.171  1.00  0.00     0.021 A 
ATOM     14  H2  UNL     1       1.518  -0.957   1.407  1.00  0.00     0.168 HD
HETATM   15  C9  UNL     1       0.200   1.370  -0.802  1.00  0.00     0.060 A 
HETATM   16  C11 UNL     1      -0.682   0.712   0.266  1.00  0.00     0.164 A 
HETATM   17  C10 UNL     1       0.511   2.818  -0.648  1.00  0.00     0.018 C 
BRANCH  16  18
HETATM   18  N3  UNL     1      -1.724  -0.094  -0.346  1.00  0.00    -0.272 N 
BRANCH  18  19
HETATM   19  N4  UNL     1      -1.354  -1.221  -1.029  1.00  0.00    -0.323 N 
ATOM     20  H4  UNL     1      -0.812  -1.155  -1.890  1.00  0.00     0.181 HD
BRANCH  19  21
HETATM   21  C12 UNL     1      -1.741  -2.479  -0.513  1.00  0.00     0.035 C 
HETATM   22  C13 UNL     1      -3.216  -2.734  -0.419  1.00  0.00     0.039 C 
HETATM   23  C14 UNL     1      -1.145  -2.816   0.836  1.00  0.00     0.039 C 
HETATM   24  C15 UNL     1      -1.191  -3.544  -1.475  1.00  0.00     0.039 C 
ENDBRANCH  19  21
ENDBRANCH  18  19
BRANCH  18  25
HETATM   25  C16 UNL     1      -3.053   0.367  -0.184  1.00  0.00     0.108 C 
HETATM   26  N5  UNL     1      -3.881   0.402  -1.165  1.00  0.00    -0.271 N 
HETATM   27  S1  UNL     1      -5.509   0.950  -1.038  1.00  0.00     0.249 S 
ATOM     28  H5  UNL     1      -3.554   0.085  -2.078  1.00  0.00     0.180 HD
HETATM   29  O3  UNL     1      -5.630   2.189  -1.880  1.00  0.00    -0.204 OA
HETATM   30  O4  UNL     1      -6.500  -0.095  -1.398  1.00  0.00    -0.204 OA
HETATM   31  C17 UNL     1      -5.744   1.475   0.665  1.00  0.00     0.225 C 
HETATM   32 CL1  UNL     1      -7.448   1.384   1.107  1.00  0.00    -0.107 Cl
HETATM   33  C18 UNL     1      -4.893   0.502   1.494  1.00  0.00     0.045 C 
HETATM   34  C19 UNL     1      -3.458   0.816   1.170  1.00  0.00     0.081 C 
ENDBRANCH  18  25
ENDBRANCH  16  18
ENDBRANCH   4  10
ENDBRANCH   3   4
TORSDOF 7
