REMARK  8 active torsions:
REMARK  status: ('A' for Active; 'I' for Inactive)
REMARK    1  A    between atoms: C2_2  and  C3_3 
REMARK    2  A    between atoms: C3_3  and  C4_4 
REMARK    3  A    between atoms: C3_3  and  N1_6 
REMARK    4  A    between atoms: C3_3  and  C12_18 
REMARK       I    between atoms: N1_6  and  C6_8 
REMARK       I    between atoms: C6_8  and  N2_10 
REMARK    5  A    between atoms: C10_14  and  O2_16 
REMARK    6  A    between atoms: C12_18  and  O3_19 
REMARK    7  A    between atoms: C12_18  and  N3_21 
REMARK    8  A    between atoms: C16_25  and  C17_26 
REMARK       I    between atoms: C17_26  and  N4_28 
ROOT
HETATM    1  C17 UNL     1       2.576   1.460  -0.561  1.00  0.00     0.244 C 
HETATM    2  O4  UNL     1       1.859   2.518  -0.570  1.00  0.00    -0.271 OA
HETATM    3  N4  UNL     1       3.663   1.435   0.321  1.00  0.00    -0.330 N 
HETATM    4  C18 UNL     1       4.583   0.356   0.523  1.00  0.00     0.164 C 
HETATM    5  C19 UNL     1       5.904   0.985   0.928  1.00  0.00     0.191 C 
HETATM    6  F1  UNL     1       6.819   0.949  -0.104  1.00  0.00    -0.248 F 
HETATM    7  C20 UNL     1       5.565   2.374   1.359  1.00  0.00     0.079 C 
HETATM    8  C21 UNL     1       4.066   2.503   1.199  1.00  0.00     0.197 C 
HETATM    9  C22 UNL     1       3.375   2.367   2.494  1.00  0.00     0.085 C 
HETATM   10  N5  UNL     1       2.842   2.246   3.517  1.00  0.00    -0.195 NA
ENDROOT
BRANCH   1  11
HETATM   11  C16 UNL     1       2.214   0.316  -1.481  1.00  0.00     0.178 C 
HETATM   12  N3  UNL     1       0.941   0.488  -2.068  1.00  0.00    -0.350 N 
HETATM   13  C13 UNL     1       1.173   1.580  -3.071  1.00  0.00     0.126 C 
HETATM   14  C14 UNL     1       2.575   1.493  -3.507  1.00  0.00     0.022 C 
HETATM   15  C15 UNL     1       3.135   0.337  -2.701  1.00  0.00     0.037 C 
BRANCH  12  16
HETATM   16  C12 UNL     1      -0.323  -0.010  -1.827  1.00  0.00     0.143 C 
BRANCH  16  17
HETATM   17  C3  UNL     1      -0.913  -1.128  -1.107  1.00  0.00     0.098 C 
BRANCH  17  18
HETATM   18  C2  UNL     1      -1.695  -1.921  -2.175  1.00  0.00     0.035 C 
HETATM   19  C1  UNL     1      -2.446  -3.099  -1.783  1.00  0.00     0.008 C 
ENDBRANCH  17  18
BRANCH  17  20
HETATM   20  C4  UNL     1       0.011  -2.095  -0.514  1.00  0.00     0.035 C 
HETATM   21  C5  UNL     1       0.879  -2.775  -1.541  1.00  0.00     0.008 C 
ENDBRANCH  17  20
BRANCH  17  22
HETATM   22  N1  UNL     1      -1.880  -0.538  -0.196  1.00  0.00    -0.326 N 
HETATM   23  C6  UNL     1      -2.677  -1.057   0.804  1.00  0.00     0.321 C 
HETATM   24  O1  UNL     1      -2.652  -2.266   1.111  1.00  0.00    -0.247 OA
HETATM   25  N2  UNL     1      -3.586  -0.238   1.556  1.00  0.00    -0.302 N 
HETATM   26  C7  UNL     1      -3.768   1.186   1.359  1.00  0.00     0.131 C 
HETATM   27  C10 UNL     1      -4.449  -0.692   2.613  1.00  0.00     0.133 C 
HETATM   28  C8  UNL     1      -4.853   1.593   2.322  1.00  0.00     0.025 C 
HETATM   29  C9  UNL     1      -5.593   0.293   2.554  1.00  0.00     0.062 C 
HETATM   30  C11 UNL     1      -3.693  -0.536   3.911  1.00  0.00     0.071 C 
ATOM     31  H1  UNL     1      -1.993   0.468  -0.322  1.00  0.00     0.165 HD
BRANCH  27  32
HETATM   32  O2  UNL     1      -4.873  -2.000   2.411  1.00  0.00    -0.371 OA
ATOM     33  H2  UNL     1      -5.443  -2.300   3.109  1.00  0.00     0.212 HD
ENDBRANCH  27  32
ENDBRANCH  17  22
ENDBRANCH  16  17
BRANCH  16  34
HETATM   34  O3  UNL     1      -1.264   0.764  -2.421  1.00  0.00    -0.347 OA
ATOM     35  H3  UNL     1      -0.879   1.494  -2.891  1.00  0.00     0.219 HD
ENDBRANCH  16  34
ENDBRANCH  12  16
ENDBRANCH   1  11
TORSDOF 8
