REMARK  5 active torsions:
REMARK  status: ('A' for Active; 'I' for Inactive)
REMARK    1  A    between atoms: N2_5  and  C4_6 
REMARK    2  A    between atoms: C4_6  and  C5_7 
REMARK       I    between atoms: C5_7  and  N3_9 
REMARK    3  A    between atoms: N3_9  and  C6_11 
REMARK    4  A    between atoms: C11_16  and  C12_17 
REMARK    5  A    between atoms: C17_25  and  C18_26 
ROOT
HETATM    1  C18 UNL     1       4.876   0.592  -1.518  1.00  0.00     0.150 C 
HETATM    2  C19 UNL     1       4.380   1.681  -2.358  1.00  0.00     0.061 C 
HETATM    3  N5  UNL     1       4.000   2.560  -3.042  1.00  0.00    -0.197 NA
ENDROOT
BRANCH   1   4
HETATM    4  C17 UNL     1       3.712  -0.068  -0.770  1.00  0.00     0.125 C 
HETATM    5  N2  UNL     1       3.031   0.843   0.062  1.00  0.00    -0.376 N 
HETATM    6  C3  UNL     1       3.345   0.837   1.435  1.00  0.00     0.089 C 
HETATM    7  C2  UNL     1       4.628   0.146   1.787  1.00  0.00     0.316 C 
HETATM    8  N1  UNL     1       4.736  -1.145   1.198  1.00  0.00     0.090 N 
HETATM    9  C1  UNL     1       6.110  -1.622   1.319  1.00  0.00     0.310 C 
HETATM   10  C20 UNL     1       4.208  -1.314  -0.102  1.00  0.00     0.298 C 
BRANCH   5  11
HETATM   11  C4  UNL     1       1.730   1.250  -0.320  1.00  0.00     0.225 C 
BRANCH  11  12
HETATM   12  C5  UNL     1       0.705   0.272   0.096  1.00  0.00     0.235 C 
HETATM   13  O1  UNL     1       1.025  -0.779   0.709  1.00  0.00    -0.272 OA
HETATM   14  N3  UNL     1      -0.667   0.484  -0.180  1.00  0.00    -0.353 N 
ATOM     15  H3  UNL     1      -0.965   1.325  -0.674  1.00  0.00     0.163 HD
BRANCH  14  16
HETATM   16  C6  UNL     1      -1.631  -0.481   0.235  1.00  0.00     0.107 C 
HETATM   17  C7  UNL     1      -2.572   0.143   1.268  1.00  0.00     0.011 C 
HETATM   18  C8  UNL     1      -3.406  -0.989   1.817  1.00  0.00     0.011 C 
HETATM   19  C13 UNL     1      -3.417   1.182   0.588  1.00  0.00     0.025 C 
HETATM   20  C9  UNL     1      -4.148  -1.656   0.697  1.00  0.00    -0.011 C 
HETATM   21  C10 UNL     1      -5.062  -0.628   0.068  1.00  0.00     0.023 C 
HETATM   22  C16 UNL     1      -3.250  -2.198  -0.378  1.00  0.00     0.027 C 
HETATM   23  C11 UNL     1      -4.268   0.526  -0.476  1.00  0.00     0.041 C 
HETATM   24  C14 UNL     1      -3.335  -0.022  -1.541  1.00  0.00     0.042 C 
HETATM   25  C15 UNL     1      -2.433  -1.046  -0.918  1.00  0.00     0.040 C 
HETATM   26 BR1  UNL     1      -1.220  -1.734  -2.239  1.00  0.00    -0.083 Br
BRANCH  23  27
HETATM   27  C12 UNL     1      -5.186   1.536  -1.018  1.00  0.00     0.239 C 
HETATM   28  N4  UNL     1      -4.704   2.729  -1.602  1.00  0.00    -0.061 NA
HETATM   29  O2  UNL     1      -6.444   1.330  -0.961  1.00  0.00    -0.276 OA
ENDBRANCH  23  27
ENDBRANCH  14  16
ENDBRANCH  11  12
ENDBRANCH   5  11
ENDBRANCH   1   4
TORSDOF 5
