REMARK  7 active torsions:
REMARK  status: ('A' for Active; 'I' for Inactive)
REMARK    1  A    between atoms: O1_2  and  C2_3 
REMARK    2  A    between atoms: C5_6  and  N1_7 
REMARK    3  A    between atoms: N1_7  and  C6_8 
REMARK       I    between atoms: N1_7  and  C13_22 
REMARK    4  A    between atoms: C6_8  and  C7_9 
REMARK    5  A    between atoms: C7_9  and  O2_10 
REMARK    6  A    between atoms: N2_12  and  C8_14 
REMARK    7  A    between atoms: C13_22  and  C14_24 
ROOT
HETATM    1  N1  UNL     1      -0.030  -0.432  -0.711  1.00  0.00    -0.305 N 
HETATM    2  C13 UNL     1      -0.592  -1.572  -1.294  1.00  0.00     0.276 C 
HETATM    3  O3  UNL     1       0.122  -2.255  -2.129  1.00  0.00    -0.265 OA
ENDROOT
BRANCH   1   4
HETATM    4  C5  UNL     1      -0.696   0.522   0.101  1.00  0.00     0.038 A 
HETATM    5  C4  UNL     1      -1.721   1.288  -0.495  1.00  0.00     0.032 A 
HETATM    6  C3  UNL     1      -2.355   2.248   0.240  1.00  0.00     0.039 A 
HETATM    7  C2  UNL     1      -2.048   2.515   1.546  1.00  0.00     0.068 A 
HETATM    8  C20 UNL     1      -1.062   1.786   2.140  1.00  0.00     0.039 A 
HETATM    9  C19 UNL     1      -0.401   0.797   1.402  1.00  0.00     0.032 A 
BRANCH   7  10
HETATM   10  O1  UNL     1      -2.757   3.519   2.203  1.00  0.00    -0.356 OA
HETATM   11  C1  UNL     1      -2.499   3.871   3.560  1.00  0.00     0.210 C 
ENDBRANCH   7  10
ENDBRANCH   1   4
BRANCH   1  12
HETATM   12  C6  UNL     1       1.384  -0.122  -1.016  1.00  0.00     0.216 C 
BRANCH  12  13
HETATM   13  C7  UNL     1       2.299  -0.853  -0.110  1.00  0.00     0.135 C 
HETATM   14  N2  UNL     1       3.646  -0.810   0.017  1.00  0.00    -0.325 N 
ATOM     15  H2  UNL     1       3.952  -1.443   0.756  1.00  0.00     0.169 HD
BRANCH  13  16
HETATM   16  O2  UNL     1       1.695  -1.682   0.710  1.00  0.00    -0.348 OA
ATOM     17  H2  UNL     1       2.282  -2.151   1.291  1.00  0.00     0.219 HD
ENDBRANCH  13  16
BRANCH  14  18
HETATM   18  C8  UNL     1       4.624  -0.235  -0.492  1.00  0.00     0.106 A 
HETATM   19  C9  UNL     1       4.518   0.669  -1.509  1.00  0.00     0.050 A 
HETATM   20  C10 UNL     1       5.647   1.300  -2.026  1.00  0.00     0.024 A 
HETATM   21  C11 UNL     1       6.878   1.016  -1.516  1.00  0.00     0.026 A 
HETATM   22 BR1  UNL     1       8.418   1.880  -2.222  1.00  0.00    -0.050 Br
HETATM   23  C12 UNL     1       6.952   0.110  -0.502  1.00  0.00     0.108 A 
HETATM   24  N3  UNL     1       5.894  -0.501   0.005  1.00  0.00    -0.351 N 
ATOM     25  H3  UNL     1       6.011  -1.171   0.765  1.00  0.00     0.166 HD
ENDBRANCH  14  18
ENDBRANCH  12  13
ENDBRANCH   1  12
BRANCH   2  26
HETATM   26  C14 UNL     1      -1.924  -2.104  -1.067  1.00  0.00     0.116 A 
HETATM   27  C15 UNL     1      -2.360  -3.251  -1.735  1.00  0.00     0.042 A 
HETATM   28  C16 UNL     1      -3.610  -3.796  -1.554  1.00  0.00     0.078 A 
HETATM   29  C17 UNL     1      -4.466  -3.178  -0.674  1.00  0.00     0.261 A 
HETATM   30  O4  UNL     1      -5.636  -3.634  -0.464  1.00  0.00    -0.267 OA
HETATM   31  N4  UNL     1      -4.047  -2.066  -0.027  1.00  0.00    -0.262 N 
HETATM   32  C18 UNL     1      -4.975  -1.427   0.919  1.00  0.00     0.181 C 
HETATM   33  N5  UNL     1      -2.835  -1.583  -0.235  1.00  0.00    -0.291 N 
ATOM     34  H5  UNL     1      -2.571  -0.744   0.281  1.00  0.00     0.187 HD
ENDBRANCH   2  26
TORSDOF 7
