REMARK  7 active torsions:
REMARK  status: ('A' for Active; 'I' for Inactive)
REMARK    1  A    between atoms: N1_5  and  C3_6 
REMARK    2  A    between atoms: C3_6  and  C4_7 
REMARK    3  A    between atoms: N2_14  and  C9_15 
REMARK    4  A    between atoms: C9_15  and  C10_16 
REMARK    5  A    between atoms: C10_16  and  N3_17 
REMARK    6  A    between atoms: C12_19  and  C13_20 
REMARK    7  A    between atoms: C14_21  and  C15_22 
ROOT
HETATM    1  C10 UNL     1      -0.807  -1.973  -1.976  1.00  0.00     0.168 C 
ENDROOT
BRANCH   1   2
HETATM    2  C9  UNL     1      -1.645  -2.227  -0.775  1.00  0.00     0.159 C 
BRANCH   2   3
HETATM    3  N2  UNL     1      -2.256  -1.062  -0.204  1.00  0.00    -0.260 N 
HETATM    4  C1  UNL     1      -1.765  -0.199   0.830  1.00  0.00     0.320 A 
HETATM    5  O1  UNL     1      -0.659  -0.391   1.407  1.00  0.00    -0.262 OA
HETATM    6  C2  UNL     1      -2.742   0.851   1.048  1.00  0.00     0.320 A 
HETATM    7  O2  UNL     1      -2.653   1.789   1.878  1.00  0.00    -0.262 OA
HETATM    8  N1  UNL     1      -3.822   0.632   0.153  1.00  0.00    -0.255 N 
HETATM    9  C8  UNL     1      -3.528  -0.530  -0.609  1.00  0.00     0.335 A 
HETATM   10  O4  UNL     1      -4.255  -1.046  -1.514  1.00  0.00    -0.246 OA
BRANCH   8  11
HETATM   11  C3  UNL     1      -5.025   1.407  -0.006  1.00  0.00     0.202 C 
BRANCH  11  12
HETATM   12  C4  UNL     1      -6.116   0.921   0.886  1.00  0.00     0.071 A 
HETATM   13  C5  UNL     1      -7.391   1.422   0.998  1.00  0.00     0.036 A 
HETATM   14  C6  UNL     1      -8.046   0.660   1.942  1.00  0.00     0.027 A 
HETATM   15  C7  UNL     1      -7.125  -0.276   2.361  1.00  0.00     0.142 A 
HETATM   16  O3  UNL     1      -6.001  -0.092   1.718  1.00  0.00    -0.325 OA
ENDBRANCH  11  12
ENDBRANCH   8  11
ENDBRANCH   2   3
ENDBRANCH   1   2
BRANCH   1  17
HETATM   17  N3  UNL     1       0.292  -1.071  -1.742  1.00  0.00    -0.301 N 
HETATM   18  C11 UNL     1       1.540  -1.364  -1.335  1.00  0.00     0.132 A 
HETATM   19  C12 UNL     1       2.267  -0.211  -1.256  1.00  0.00     0.052 A 
HETATM   20  C21 UNL     1       1.415   0.812  -1.632  1.00  0.00     0.129 A 
HETATM   21  N4  UNL     1       0.242   0.262  -1.916  1.00  0.00    -0.309 N 
ATOM     22  H4  UNL     1      -0.583   0.778  -2.223  1.00  0.00     0.186 HD
BRANCH  19  23
HETATM   23  C13 UNL     1       3.649  -0.096  -0.858  1.00  0.00    -0.059 C 
HETATM   24  C14 UNL     1       4.801   0.009  -0.507  1.00  0.00    -0.061 C 
BRANCH  24  25
HETATM   25  C15 UNL     1       6.162   0.147  -0.070  1.00  0.00     0.018 A 
HETATM   26  C16 UNL     1       7.175   0.511  -0.936  1.00  0.00     0.022 A 
HETATM   27  C17 UNL     1       8.485   0.646  -0.523  1.00  0.00     0.020 A 
HETATM   28  C18 UNL     1       8.834   0.417   0.791  1.00  0.00     0.011 A 
HETATM   29 BR1  UNL     1      10.659   0.603   1.376  1.00  0.00    -0.051 Br
HETATM   30  C19 UNL     1       7.840   0.053   1.670  1.00  0.00     0.020 A 
HETATM   31  C20 UNL     1       6.534  -0.078   1.246  1.00  0.00     0.022 A 
ENDBRANCH  24  25
ENDBRANCH  19  23
ENDBRANCH   1  17
TORSDOF 7
