REMARK  8 active torsions:
REMARK  status: ('A' for Active; 'I' for Inactive)
REMARK    1  A    between atoms: O1_2  and  C2_3 
REMARK    2  A    between atoms: C2_3  and  C3_5 
REMARK    3  A    between atoms: C5_7  and  C6_8 
REMARK    4  A    between atoms: C6_8  and  N2_15 
REMARK    5  A    between atoms: N1_9  and  S1_11 
REMARK    6  A    between atoms: N3_18  and  C10_19 
REMARK    7  A    between atoms: C21_30  and  C22_31 
REMARK    8  A    between atoms: C22_31  and  N4_32 
ROOT
HETATM    1  N2  UNL     1       1.101   0.384  -0.790  1.00  0.00    -0.360 N 
HETATM    2  C8  UNL     1       0.674  -0.983  -0.929  1.00  0.00     0.144 C 
HETATM    3  C9  UNL     1      -0.864  -1.087  -0.901  1.00  0.00     0.137 C 
HETATM    4  N3  UNL     1      -1.466  -0.281   0.088  1.00  0.00    -0.400 N 
HETATM    5  C20 UNL     1      -0.847   0.954   0.388  1.00  0.00     0.144 C 
HETATM    6  C21 UNL     1       0.029   1.293  -0.835  1.00  0.00     0.128 C 
ENDROOT
BRANCH   1   7
HETATM    7  C6  UNL     1       2.483   0.698  -0.609  1.00  0.00     0.094 C 
HETATM    8  N1  UNL     1       2.785   1.879  -0.156  1.00  0.00    -0.274 N 
ATOM      9  H1  UNL     1       1.978   2.476   0.022  1.00  0.00     0.179 HD
BRANCH   7  10
HETATM   10  C5  UNL     1       3.626  -0.174  -0.870  1.00  0.00     0.068 A 
HETATM   11  C3  UNL     1       3.928  -1.235   0.105  1.00  0.00     0.097 A 
HETATM   12  C4  UNL     1       3.643  -1.523  -1.391  1.00  0.00     0.028 A 
BRANCH  11  13
HETATM   13  C2  UNL     1       5.264  -1.688   0.487  1.00  0.00     0.263 C 
HETATM   14  O2  UNL     1       5.443  -2.298   1.562  1.00  0.00    -0.265 OA
BRANCH  13  15
HETATM   15  O1  UNL     1       6.361  -1.457  -0.325  1.00  0.00    -0.326 OA
HETATM   16  C1  UNL     1       7.683  -1.863  -0.027  1.00  0.00     0.213 C 
ENDBRANCH  13  15
ENDBRANCH  11  13
ENDBRANCH   7  10
BRANCH   8  17
HETATM   17  S1  UNL     1       4.260   2.599   0.189  1.00  0.00     0.228 S 
HETATM   18  C7  UNL     1       5.100   2.001   1.620  1.00  0.00     0.186 C 
HETATM   19  O3  UNL     1       3.950   4.076   0.521  1.00  0.00    -0.206 OA
HETATM   20  O4  UNL     1       5.194   2.730  -1.010  1.00  0.00    -0.206 OA
ENDBRANCH   8  17
ENDBRANCH   1   7
BRANCH   6  21
HETATM   21  C22 UNL     1       0.211   2.732  -0.994  1.00  0.00     0.256 C 
BRANCH  21  22
HETATM   22  N4  UNL     1       0.872   3.086  -2.231  1.00  0.00    -0.077 N 
ATOM     23  H43 UNL     1       1.761   2.595  -2.322  1.00  0.00     0.274 HD
ATOM     24  H42 UNL     1       0.380   2.691  -3.032  1.00  0.00     0.274 HD
ATOM     25  H41 UNL     1       0.999   4.092  -2.342  1.00  0.00     0.274 HD
ENDBRANCH  21  22
ENDBRANCH   6  21
BRANCH   4  26
HETATM   26  C10 UNL     1      -2.866  -0.382   0.222  1.00  0.00     0.029 C 
HETATM   27  C11 UNL     1      -3.235  -1.777   0.670  1.00  0.00     0.035 C 
HETATM   28  C12 UNL     1      -4.736  -1.976   0.778  1.00  0.00    -0.012 C 
HETATM   29  C13 UNL     1      -5.359  -1.764  -0.572  1.00  0.00     0.009 C 
HETATM   30  C17 UNL     1      -5.314  -0.997   1.755  1.00  0.00     0.009 C 
HETATM   31  C14 UNL     1      -5.055  -0.357  -1.026  1.00  0.00    -0.012 C 
HETATM   32  C15 UNL     1      -5.611   0.651  -0.074  1.00  0.00     0.009 C 
HETATM   33  C19 UNL     1      -3.558  -0.218  -1.144  1.00  0.00     0.035 C 
HETATM   34  C16 UNL     1      -4.973   0.379   1.272  1.00  0.00    -0.012 C 
HETATM   35  C18 UNL     1      -3.470   0.602   1.188  1.00  0.00     0.035 C 
ENDBRANCH   4  26
TORSDOF 8
