REMARK  5 active torsions:
REMARK  status: ('A' for Active; 'I' for Inactive)
REMARK    1  A    between atoms: C2_2  and  O1_3 
REMARK    2  A    between atoms: C2_2  and  C3_5 
REMARK    3  A    between atoms: C3_5  and  C4_6 
REMARK    4  A    between atoms: C7_10  and  N1_11 
REMARK    5  A    between atoms: N1_11  and  C8_13 
ROOT
HETATM    1  C4  UNL     1       2.663   0.318   0.353  1.00  0.00     0.198 C 
HETATM    2  C5  UNL     1       2.062   1.642   0.008  1.00  0.00     0.107 C 
HETATM    3  S1  UNL     1       0.303   1.559   0.545  1.00  0.00    -0.163 SA
HETATM    4  C6  UNL     1      -0.648   0.518  -0.564  1.00  0.00     0.128 C 
HETATM    5  C7  UNL     1      -1.483  -0.439   0.248  1.00  0.00     0.289 C 
HETATM    6  N2  UNL     1      -0.875  -1.774   0.240  1.00  0.00    -0.052 N 
ATOM      7  H21 UNL     1      -1.239  -2.344   1.004  1.00  0.00     0.279 HD
ATOM      8  H22 UNL     1       0.105  -1.729   0.518  1.00  0.00     0.279 HD
HETATM    9  C13 UNL     1      -1.020  -2.451  -1.019  1.00  0.00     0.254 C 
HETATM   10  C14 UNL     1       0.044  -3.519  -1.161  1.00  0.00     0.150 C 
HETATM   11  N3  UNL     1       1.015  -3.057  -2.126  1.00  0.00    -0.358 N 
ATOM     12  H3  UNL     1       0.729  -3.028  -3.105  1.00  0.00     0.162 HD
HETATM   13  C15 UNL     1       2.329  -2.642  -1.819  1.00  0.00     0.243 C 
HETATM   14  O3  UNL     1       3.234  -2.922  -2.650  1.00  0.00    -0.272 OA
HETATM   15  C16 UNL     1       2.714  -1.906  -0.598  1.00  0.00     0.335 C 
HETATM   16  N4  UNL     1       2.589  -0.502  -0.868  1.00  0.00    -0.062 N 
ATOM     17  H41 UNL     1       3.278  -0.198  -1.556  1.00  0.00     0.278 HD
ATOM     18  H42 UNL     1       1.736  -0.304  -1.391  1.00  0.00     0.278 HD
ENDROOT
BRANCH   5  19
HETATM   19  N1  UNL     1      -2.858  -0.452   0.043  1.00  0.00    -0.389 N 
ATOM     20  H1  UNL     1      -3.266  -1.293  -0.366  1.00  0.00     0.155 HD
BRANCH  19  21
HETATM   21  C8  UNL     1      -3.716   0.593   0.353  1.00  0.00     0.102 C 
HETATM   22  C9  UNL     1      -3.575   1.915  -0.310  1.00  0.00     0.029 C 
HETATM   23  C10 UNL     1      -4.833   2.722  -0.071  1.00  0.00     0.028 C 
HETATM   24  C11 UNL     1      -5.584   2.096   1.079  1.00  0.00     0.167 C 
HETATM   25  O2  UNL     1      -6.016   0.803   0.805  1.00  0.00    -0.389 OA
HETATM   26  C12 UNL     1      -5.154   0.120  -0.016  1.00  0.00     0.192 C 
ENDBRANCH  19  21
ENDBRANCH   5  19
BRANCH   1  27
HETATM   27  C3  UNL     1       4.086   0.351   0.757  1.00  0.00     0.065 C 
BRANCH  27  28
HETATM   28  C2  UNL     1       4.400   1.184   1.956  1.00  0.00     0.116 C 
HETATM   29  C1  UNL     1       5.882   1.128   2.260  1.00  0.00     0.039 C 
BRANCH  28  30
HETATM   30  O1  UNL     1       3.719   0.849   3.097  1.00  0.00    -0.396 OA
ATOM     31  H1  UNL     1       2.789   0.884   2.906  1.00  0.00     0.210 HD
ENDBRANCH  28  30
ENDBRANCH  27  28
ENDBRANCH   1  27
TORSDOF 5
