REMARK  7 active torsions:
REMARK  status: ('A' for Active; 'I' for Inactive)
REMARK    1  A    between atoms: C7_11  and  N3_12 
REMARK    2  A    between atoms: N3_12  and  C8_14 
REMARK    3  A    between atoms: C12_22  and  N7_23 
REMARK    4  A    between atoms: N7_23  and  C13_24 
REMARK    5  A    between atoms: C13_24  and  C14_25 
REMARK    6  A    between atoms: C13_24  and  C15_28 
REMARK    7  A    between atoms: C14_25  and  O2_26 
ROOT
HETATM    1  C1  UNL     1       2.512   1.678  -2.646  1.00  0.00     0.070 C 
HETATM    2  C2  UNL     1       3.493   0.779  -1.997  1.00  0.00     0.035 A 
HETATM    3  N1  UNL     1       4.820   1.073  -2.151  1.00  0.00    -0.324 N 
ATOM      4  H1  UNL     1       5.087   1.895  -2.693  1.00  0.00     0.169 HD
HETATM    5  C3  UNL     1       5.784   0.306  -1.605  1.00  0.00     0.266 A 
HETATM    6  O1  UNL     1       7.009   0.576  -1.744  1.00  0.00    -0.267 OA
HETATM    7  C4  UNL     1       5.454  -0.813  -0.864  1.00  0.00     0.114 A 
HETATM    8  C5  UNL     1       6.484  -1.629  -0.285  1.00  0.00     0.105 C 
HETATM    9  N2  UNL     1       7.314  -2.297   0.205  1.00  0.00    -0.191 NA
HETATM   10  C6  UNL     1       4.108  -1.083  -0.725  1.00  0.00     0.060 A 
HETATM   11  C7  UNL     1       3.105  -0.319  -1.270  1.00  0.00     0.073 A 
ENDROOT
BRANCH  11  12
HETATM   12  N3  UNL     1       1.745  -0.614  -1.096  1.00  0.00    -0.190 N 
ATOM     13  H3  UNL     1       1.307  -1.306  -1.704  1.00  0.00     0.184 HD
BRANCH  12  14
HETATM   14  C8  UNL     1       1.020  -0.028  -0.176  1.00  0.00     0.686 A 
HETATM   15  N4  UNL     1       1.559   0.885   0.642  1.00  0.00    -0.177 N 
HETATM   16  C9  UNL     1       0.838   1.514   1.595  1.00  0.00     0.157 A 
ATOM     17  H4  UNL     1       2.548   1.113   0.542  1.00  0.00     0.185 HD
HETATM   18  N5  UNL     1       1.443   2.482   2.448  1.00  0.00    -0.080 NA
HETATM   19  C10 UNL     1      -0.482   1.227   1.747  1.00  0.00     0.144 A 
HETATM   20  C11 UNL     1      -1.308   1.875   2.753  1.00  0.00     0.108 C 
HETATM   21  C12 UNL     1      -1.086   0.263   0.895  1.00  0.00     0.212 A 
HETATM   22  N6  UNL     1      -1.982   2.399   3.544  1.00  0.00    -0.191 NA
HETATM   23  N8  UNL     1      -0.275  -0.324  -0.043  1.00  0.00    -0.163 N 
ATOM     24  H8  UNL     1      -0.681  -1.020  -0.669  1.00  0.00     0.187 HD
BRANCH  21  25
HETATM   25  N7  UNL     1      -2.252   0.055   1.056  1.00  0.00    -0.420 NA
BRANCH  25  26
HETATM   26  C13 UNL     1      -3.466  -0.453   0.906  1.00  0.00     0.192 C 
BRANCH  26  27
HETATM   27  C14 UNL     1      -4.590   0.614   0.794  1.00  0.00     0.203 C 
BRANCH  27  28
HETATM   28  O2  UNL     1      -4.339   1.409  -0.311  1.00  0.00    -0.398 OA
ATOM     29  H2  UNL     1      -5.026   2.061  -0.379  1.00  0.00     0.209 HD
ENDBRANCH  27  28
ENDBRANCH  26  27
BRANCH  26  30
HETATM   30  C15 UNL     1      -3.750  -1.504  -0.158  1.00  0.00     0.015 C 
HETATM   31  C16 UNL     1      -5.226  -1.869  -0.104  1.00  0.00     0.012 C 
HETATM   32  C17 UNL     1      -3.019  -2.812   0.159  1.00  0.00     0.012 C 
ENDBRANCH  26  30
ENDBRANCH  25  26
ENDBRANCH  21  25
ENDBRANCH  12  14
ENDBRANCH  11  12
TORSDOF 7
