REMARK  6 active torsions:
REMARK  status: ('A' for Active; 'I' for Inactive)
REMARK    1  A    between atoms: C5_8  and  C6_9 
REMARK    2  A    between atoms: C6_9  and  C7_10 
REMARK    3  A    between atoms: C9_14  and  N4_15 
REMARK    4  A    between atoms: N4_15  and  C10_17 
REMARK    5  A    between atoms: C10_17  and  C11_18 
REMARK    6  A    between atoms: C11_18  and  N5_19 
ROOT
HETATM    1  N1  UNL     1      -8.542   0.491  -2.962  1.00  0.00    -0.191 NA
HETATM    2  C1  UNL     1      -7.515   0.083  -2.627  1.00  0.00     0.107 C 
HETATM    3  C2  UNL     1      -6.209  -0.437  -2.230  1.00  0.00     0.089 A 
HETATM    4  C3  UNL     1      -5.734  -0.610  -0.955  1.00  0.00     0.062 A 
HETATM    5  C4  UNL     1      -4.490  -1.109  -0.826  1.00  0.00     0.069 A 
HETATM    6  N2  UNL     1      -3.625  -1.443   0.179  1.00  0.00    -0.343 N 
ATOM      7  H2  UNL     1      -3.827  -1.347   1.174  1.00  0.00     0.167 HD
HETATM    8  C5  UNL     1      -2.478  -1.912  -0.322  1.00  0.00     0.089 A 
HETATM    9  N9  UNL     1      -2.572  -1.894  -1.654  1.00  0.00    -0.338 N 
ATOM     10  H9  UNL     1      -1.855  -2.193  -2.315  1.00  0.00     0.168 HD
HETATM   11  C14 UNL     1      -3.806  -1.402  -1.967  1.00  0.00     0.103 A 
HETATM   12  S1  UNL     1      -4.912  -0.974  -3.196  1.00  0.00    -0.059 SA
ENDROOT
BRANCH   8  13
HETATM   13  C6  UNL     1      -1.273  -2.387   0.434  1.00  0.00     0.153 C 
BRANCH  13  14
HETATM   14  C7  UNL     1      -0.342  -1.272   0.674  1.00  0.00     0.090 A 
HETATM   15  N3  UNL     1       0.664  -0.864  -0.107  1.00  0.00    -0.339 N 
HETATM   16  C8  UNL     1       1.272   0.176   0.457  1.00  0.00     0.122 A 
ATOM     17  H3  UNL     1       0.925  -1.286  -0.998  1.00  0.00     0.167 HD
HETATM   18  C9  UNL     1       2.344   0.989   0.119  1.00  0.00     0.136 A 
HETATM   19  C13 UNL     1       0.616   0.422   1.632  1.00  0.00     0.141 A 
HETATM   20  N6  UNL     1       2.673   1.974   0.972  1.00  0.00    -0.293 N 
HETATM   21  C12 UNL     1       2.023   2.206   2.121  1.00  0.00     0.327 A 
ATOM     22  H6  UNL     1       3.460   2.577   0.732  1.00  0.00     0.172 HD
HETATM   23  O1  UNL     1       2.372   3.147   2.893  1.00  0.00    -0.247 OA
HETATM   24  N7  UNL     1       0.988   1.425   2.454  1.00  0.00    -0.292 N 
ATOM     25  H7  UNL     1       0.483   1.587   3.325  1.00  0.00     0.172 HD
HETATM   26  N8  UNL     1      -0.369  -0.474   1.748  1.00  0.00    -0.330 N 
ATOM     27  H8  UNL     1      -1.029  -0.539   2.523  1.00  0.00     0.168 HD
BRANCH  18  28
HETATM   28  N4  UNL     1       2.964   0.759  -0.990  1.00  0.00    -0.373 N 
ATOM     29  H4  UNL     1       2.633  -0.014  -1.567  1.00  0.00     0.161 HD
BRANCH  28  30
HETATM   30  C10 UNL     1       4.086   1.515  -1.467  1.00  0.00     0.148 C 
BRANCH  30  31
HETATM   31  C11 UNL     1       5.374   1.005  -0.848  1.00  0.00     0.249 C 
BRANCH  31  32
HETATM   32  N5  UNL     1       5.593  -0.386  -1.181  1.00  0.00    -0.078 N 
ATOM     33  H53 UNL     1       4.795  -0.966  -0.921  1.00  0.00     0.274 HD
ATOM     34  H52 UNL     1       5.573  -0.539  -2.189  1.00  0.00     0.274 HD
ATOM     35  H51 UNL     1       6.459  -0.729  -0.765  1.00  0.00     0.274 HD
ENDBRANCH  31  32
ENDBRANCH  30  31
ENDBRANCH  28  30
ENDBRANCH  18  28
ENDBRANCH  13  14
ENDBRANCH   8  13
TORSDOF 6
