REMARK  7 active torsions:
REMARK  status: ('A' for Active; 'I' for Inactive)
REMARK    1  A    between atoms: N1_2  and  N2_4 
REMARK    2  A    between atoms: C2_6  and  C3_7 
REMARK    3  A    between atoms: C4_8  and  N3_9 
REMARK    4  A    between atoms: C10_18  and  N5_19 
REMARK    5  A    between atoms: N5_19  and  C11_21 
REMARK    6  A    between atoms: C14_24  and  N6_25 
REMARK    7  A    between atoms: C17_33  and  N8_34 
ROOT
HETATM    1  C3  UNL     1      -1.974   1.184  -0.333  1.00  0.00     0.069 A 
HETATM    2  C4  UNL     1      -1.453  -0.060  -0.490  1.00  0.00     0.134 A 
HETATM    3  N4  UNL     1      -0.196  -0.302  -0.052  1.00  0.00    -0.176 N 
ATOM      4  H4  UNL     1       0.180  -1.241  -0.179  1.00  0.00     0.186 HD
HETATM    5  C10 UNL     1       0.598   0.625   0.546  1.00  0.00     0.681 A 
HETATM    6  N7  UNL     1       0.056   1.836   0.684  1.00  0.00    -0.176 N 
ATOM      7  H7  UNL     1       0.613   2.567   1.126  1.00  0.00     0.186 HD
HETATM    8  C17 UNL     1      -1.190   2.145   0.270  1.00  0.00     0.130 A 
ENDROOT
BRANCH   5   9
HETATM    9  N5  UNL     1       1.775   0.283   0.924  1.00  0.00    -0.221 N 
ATOM     10  H5  UNL     1       2.053  -0.683   0.751  1.00  0.00     0.178 HD
BRANCH   9  11
HETATM   11  C11 UNL     1       2.731   1.125   1.563  1.00  0.00     0.099 C 
HETATM   12  C12 UNL     1       3.855   1.508   0.596  1.00  0.00     0.027 C 
HETATM   13  C13 UNL     1       4.591   0.302   0.120  1.00  0.00     0.035 C 
HETATM   14  C14 UNL     1       4.947  -0.536   1.328  1.00  0.00     0.183 C 
HETATM   15  C15 UNL     1       4.751   0.168   2.629  1.00  0.00     0.035 C 
HETATM   16  C16 UNL     1       3.312   0.524   2.838  1.00  0.00     0.027 C 
BRANCH  14  17
HETATM   17  N6  UNL     1       6.334  -0.928   1.203  1.00  0.00    -0.075 N 
ATOM     18  H63 UNL     1       6.533  -1.401   0.321  1.00  0.00     0.274 HD
ATOM     19  H62 UNL     1       6.960  -0.133   1.075  1.00  0.00     0.274 HD
ATOM     20  H61 UNL     1       6.574  -1.493   2.018  1.00  0.00     0.274 HD
ENDBRANCH  14  17
ENDBRANCH   9  11
ENDBRANCH   5   9
BRANCH   2  21
HETATM   21  N3  UNL     1      -2.113  -1.161  -1.073  1.00  0.00    -0.365 N 
HETATM   22  C5  UNL     1      -1.823  -1.623  -2.441  1.00  0.00     0.132 C 
HETATM   23  C6  UNL     1      -1.243  -3.040  -2.358  1.00  0.00     0.098 C 
HETATM   24  C7  UNL     1      -2.137  -3.864  -1.534  1.00  0.00     0.130 C 
HETATM   25  O1  UNL     1      -2.614  -4.945  -1.897  1.00  0.00    -0.298 OA
HETATM   26  C8  UNL     1      -2.511  -3.387  -0.160  1.00  0.00     0.098 C 
HETATM   27  C9  UNL     1      -3.114  -1.987  -0.391  1.00  0.00     0.132 C 
ENDBRANCH   2  21
BRANCH   8  28
HETATM   28  N8  UNL     1      -1.603   3.353   0.455  1.00  0.00    -0.384 N 
ATOM     29  H82 UNL     1      -2.545   3.587   0.142  1.00  0.00     0.157 HD
ATOM     30  H81 UNL     1      -1.023   4.064   0.901  1.00  0.00     0.157 HD
ENDBRANCH   8  28
BRANCH   1  31
HETATM   31  C2  UNL     1      -3.293   1.526  -0.768  1.00  0.00     0.125 C 
HETATM   32  N2  UNL     1      -4.170   0.815  -1.337  1.00  0.00    -0.316 N 
ATOM     33  H2  UNL     1      -3.949  -0.160  -1.538  1.00  0.00     0.185 HD
BRANCH  32  34
HETATM   34  N1  UNL     1      -5.423   1.299  -1.702  1.00  0.00    -0.341 N 
HETATM   35  C1  UNL     1      -5.984   2.555  -1.270  1.00  0.00     0.167 C 
ATOM     36  H1  UNL     1      -5.988   0.720  -2.323  1.00  0.00     0.179 HD
ENDBRANCH  32  34
ENDBRANCH   1  31
TORSDOF 7
