REMARK  8 active torsions:
REMARK  status: ('A' for Active; 'I' for Inactive)
REMARK    1  A    between atoms: C2_2  and  N1_3 
REMARK    2  A    between atoms: C3_4  and  C4_5 
REMARK    3  A    between atoms: C5_6  and  N3_9 
REMARK    4  A    between atoms: N3_9  and  N4_11 
REMARK    5  A    between atoms: C8_15  and  C9_16 
REMARK    6  A    between atoms: C9_16  and  N5_17 
REMARK    7  A    between atoms: N5_17  and  C10_19 
REMARK    8  A    between atoms: C11_22  and  N7_23 
ROOT
HETATM    1  C4  UNL     1      -2.793   1.334  -0.078  1.00  0.00     0.072 C 
HETATM    2  C5  UNL     1      -3.473   1.956   0.848  1.00  0.00     0.130 C 
HETATM    3  C6  UNL     1      -3.423   1.596   2.226  1.00  0.00     0.119 C 
HETATM    4  N2  UNL     1      -3.388   1.318   3.366  1.00  0.00    -0.190 NA
ENDROOT
BRANCH   2   5
HETATM    5  N3  UNL     1      -4.297   3.038   0.459  1.00  0.00    -0.297 N 
ATOM      6  H3  UNL     1      -3.888   3.813  -0.062  1.00  0.00     0.187 HD
BRANCH   5   7
HETATM    7  N4  UNL     1      -5.644   3.069   0.769  1.00  0.00    -0.344 N 
ATOM      8  H42 UNL     1      -6.037   2.286   1.291  1.00  0.00     0.176 HD
ATOM      9  H41 UNL     1      -6.238   3.849   0.489  1.00  0.00     0.176 HD
ENDBRANCH   5   7
ENDBRANCH   2   5
BRANCH   1  10
HETATM   10  C3  UNL     1      -1.893   0.192   0.121  1.00  0.00     0.038 A 
HETATM   11  N1  UNL     1      -2.127  -1.066   0.502  1.00  0.00    -0.350 N 
HETATM   12  C16 UNL     1      -0.965  -1.759   0.614  1.00  0.00     0.016 A 
HETATM   13  C8  UNL     1       0.054  -0.904   0.288  1.00  0.00    -0.016 A 
HETATM   14  C17 UNL     1      -0.825  -3.195   1.021  1.00  0.00     0.069 C 
HETATM   15  C7  UNL     1      -0.503   0.304  -0.019  1.00  0.00     0.040 A 
BRANCH  11  16
HETATM   16  C2  UNL     1      -3.418  -1.687   0.719  1.00  0.00     0.124 C 
HETATM   17  C1  UNL     1      -3.888  -2.341  -0.596  1.00  0.00     0.027 C 
ENDBRANCH  11  16
BRANCH  13  18
HETATM   18  C9  UNL     1       1.529  -1.202   0.262  1.00  0.00     0.162 C 
BRANCH  18  19
HETATM   19  N5  UNL     1       2.221  -0.022  -0.133  1.00  0.00    -0.370 N 
ATOM     20  H5  UNL     1       1.644   0.740  -0.488  1.00  0.00     0.161 HD
BRANCH  19  21
HETATM   21  C10 UNL     1       3.479   0.195  -0.096  1.00  0.00     0.141 A 
HETATM   22  N6  UNL     1       4.356  -0.719   0.348  1.00  0.00    -0.176 N 
HETATM   23  C11 UNL     1       5.674  -0.496   0.389  1.00  0.00     0.678 A 
ATOM     24  H6  UNL     1       4.003  -1.621   0.667  1.00  0.00     0.186 HD
HETATM   25  N8  UNL     1       6.136   0.696  -0.035  1.00  0.00    -0.180 N 
HETATM   26  C12 UNL     1       5.291   1.636  -0.486  1.00  0.00     0.154 A 
ATOM     27  H8  UNL     1       7.138   0.886  -0.013  1.00  0.00     0.185 HD
HETATM   28  C13 UNL     1       5.749   2.921  -0.946  1.00  0.00     0.120 C 
HETATM   29  C14 UNL     1       3.922   1.431  -0.539  1.00  0.00     0.126 A 
HETATM   30  N9  UNL     1       6.118   3.957  -1.299  1.00  0.00    -0.190 NA
HETATM   31  C15 UNL     1       3.005   2.429  -1.020  1.00  0.00     0.106 C 
HETATM   32  N10 UNL     1       2.248   3.232  -1.397  1.00  0.00    -0.191 NA
BRANCH  23  33
HETATM   33  N7  UNL     1       6.503  -1.397   0.824  1.00  0.00    -0.234 N 
ATOM     34  H72 UNL     1       6.153  -2.300   1.145  1.00  0.00     0.174 HD
ATOM     35  H71 UNL     1       7.508  -1.227   0.855  1.00  0.00     0.174 HD
ENDBRANCH  23  33
ENDBRANCH  19  21
ENDBRANCH  18  19
ENDBRANCH  13  18
ENDBRANCH   1  10
TORSDOF 8
