REMARK  3 active torsions:
REMARK  status: ('A' for Active; 'I' for Inactive)
REMARK    1  A    between atoms: C1_2  and  C2_4 
REMARK    2  A    between atoms: C4_8  and  C5_9 
REMARK    3  A    between atoms: N3_10  and  N4_12 
ROOT
HETATM    1  C5  UNL     1      -0.887   0.358  -0.289  1.00  0.00     0.156 C 
HETATM    2  N3  UNL     1      -1.598  -0.706  -0.195  1.00  0.00    -0.298 N 
ATOM      3  H3  UNL     1      -1.120  -1.597  -0.060  1.00  0.00     0.186 HD
ENDROOT
BRANCH   1   4
HETATM    4  C4  UNL     1       0.565   0.220  -0.196  1.00  0.00     0.122 A 
HETATM    5  N2  UNL     1       1.277  -0.902  -0.021  1.00  0.00    -0.349 N 
HETATM    6  C3  UNL     1       2.592  -0.644   0.016  1.00  0.00     0.124 A 
ATOM      7  H2  UNL     1       0.870  -1.833   0.072  1.00  0.00     0.167 HD
HETATM    8  C2  UNL     1       2.730   0.716  -0.144  1.00  0.00     0.115 A 
HETATM    9  N7  UNL     1       1.471   1.206  -0.270  1.00  0.00    -0.336 N 
ATOM     10  H7  UNL     1       1.244   2.192  -0.403  1.00  0.00     0.168 HD
BRANCH   8  11
HETATM   11  C1  UNL     1       3.973   1.455  -0.170  1.00  0.00     0.282 C 
HETATM   12  N1  UNL     1       5.200   0.765  -0.021  1.00  0.00    -0.056 NA
HETATM   13  O1  UNL     1       3.963   2.700  -0.323  1.00  0.00    -0.269 OA
ENDBRANCH   8  11
ENDBRANCH   1   4
BRANCH   2  14
HETATM   14  N4  UNL     1      -2.995  -0.706  -0.268  1.00  0.00    -0.224 N 
HETATM   15  C6  UNL     1      -3.764  -1.544  -0.990  1.00  0.00     0.226 A 
HETATM   16  N5  UNL     1      -5.052  -1.215  -0.789  1.00  0.00    -0.292 N 
HETATM   17  N6  UNL     1      -5.131  -0.185   0.044  1.00  0.00    -0.274 N 
ATOM     18  H5  UNL     1      -5.850  -1.687  -1.214  1.00  0.00     0.187 HD
HETATM   19  C7  UNL     1      -3.857   0.117   0.356  1.00  0.00     0.213 A 
ATOM     20  H6  UNL     1      -5.976   0.279   0.377  1.00  0.00     0.189 HD
HETATM   21  S1  UNL     1      -3.371   1.321   1.360  1.00  0.00    -0.037 SA
ENDBRANCH   2  14
TORSDOF 3
