REMARK  3 active torsions:
REMARK  status: ('A' for Active; 'I' for Inactive)
REMARK    1  A    between atoms: O1_2  and  N1_3 
REMARK    2  A    between atoms: C2_5  and  C3_7 
REMARK    3  A    between atoms: C5_9  and  N3_10 
ROOT
HETATM    1  C3  UNL     1      -0.088  -0.534   0.050  1.00  0.00     0.038 A 
HETATM    2  C4  UNL     1      -0.855  -1.704  -0.054  1.00  0.00     0.053 A 
HETATM    3  C5  UNL     1      -2.224  -1.660  -0.163  1.00  0.00     0.104 A 
HETATM    4  C6  UNL     1      -2.813  -0.402  -0.166  1.00  0.00     0.055 A 
HETATM    5  C7  UNL     1      -2.071   0.769  -0.064  1.00  0.00     0.065 A 
HETATM    6  C8  UNL     1      -2.390   2.106  -0.042  1.00  0.00     0.272 A 
HETATM    7  O4  UNL     1      -3.544   2.578  -0.119  1.00  0.00    -0.266 OA
HETATM    8  N4  UNL     1      -1.269   2.825   0.074  1.00  0.00    -0.265 N 
ATOM      9  H4  UNL     1      -1.205   3.842   0.115  1.00  0.00     0.190 HD
HETATM   10  N5  UNL     1      -0.252   1.968   0.126  1.00  0.00    -0.296 N 
ATOM     11  H5  UNL     1       0.728   2.237   0.215  1.00  0.00     0.187 HD
HETATM   12  C9  UNL     1      -0.691   0.701   0.045  1.00  0.00     0.077 A 
ENDROOT
BRANCH   1  13
HETATM   13  C2  UNL     1       1.347  -0.684   0.161  1.00  0.00     0.148 C 
HETATM   14  N1  UNL     1       2.104   0.312   0.258  1.00  0.00    -0.253 N 
ATOM     15  H1  UNL     1       1.645   1.223   0.253  1.00  0.00     0.195 HD
HETATM   16  N2  UNL     1       1.925  -1.980   0.162  1.00  0.00    -0.080 NA
BRANCH  14  17
HETATM   17  O1  UNL     1       3.449   0.329   0.368  1.00  0.00    -0.284 OA
HETATM   18  C1  UNL     1       4.206   1.471   0.058  1.00  0.00     0.237 C 
ENDBRANCH  14  17
ENDBRANCH   1  13
BRANCH   3  19
HETATM   19  N3  UNL     1      -3.024  -2.828  -0.269  1.00  0.00    -0.116 N 
HETATM   20  O2  UNL     1      -4.251  -2.735  -0.366  1.00  0.00    -0.532 OA
HETATM   21  O3  UNL     1      -2.438  -4.059  -0.266  1.00  0.00    -0.532 OA
ENDBRANCH   3  19
TORSDOF 3
