REMARK  8 active torsions:
REMARK  status: ('A' for Active; 'I' for Inactive)
REMARK    1  A    between atoms: N3_8  and  C4_10 
REMARK    2  A    between atoms: C6_14  and  C7_15 
REMARK       I    between atoms: C7_15  and  N5_17 
REMARK    3  A    between atoms: N5_17  and  C8_19 
REMARK    4  A    between atoms: C8_19  and  C9_20 
REMARK    5  A    between atoms: C8_19  and  C10_23 
REMARK    6  A    between atoms: C9_20  and  O2_21 
REMARK    7  A    between atoms: C10_23  and  O3_24 
REMARK    8  A    between atoms: N6_26  and  N7_28 
ROOT
HETATM    1  C4  UNL     1       1.608   1.011   0.945  1.00  0.00     0.079 C 
HETATM    2  N4  UNL     1       1.496   2.079   0.244  1.00  0.00    -0.379 N 
ATOM      3  H4  UNL     1       2.095   2.899   0.342  1.00  0.00     0.160 HD
HETATM    4  C5  UNL     1       0.403   1.967  -0.708  1.00  0.00     0.135 C 
HETATM    5  C6  UNL     1       0.305   0.467  -0.882  1.00  0.00     0.102 C 
HETATM    6  C11 UNL     1       0.577   0.005   0.548  1.00  0.00     0.092 C 
ENDROOT
BRANCH   5   7
HETATM    7  C7  UNL     1      -0.995   0.028  -1.376  1.00  0.00     0.224 C 
HETATM    8  O1  UNL     1      -1.026  -0.598  -2.484  1.00  0.00    -0.273 OA
HETATM    9  N5  UNL     1      -2.214   0.263  -0.687  1.00  0.00    -0.346 N 
ATOM     10  H5  UNL     1      -2.189   0.765   0.201  1.00  0.00     0.163 HD
BRANCH   9  11
HETATM   11  C8  UNL     1      -3.479  -0.180  -1.195  1.00  0.00     0.184 C 
BRANCH  11  12
HETATM   12  C9  UNL     1      -4.384   0.989  -1.525  1.00  0.00     0.197 C 
BRANCH  12  13
HETATM   13  O2  UNL     1      -5.601   0.580  -2.014  1.00  0.00    -0.398 OA
ATOM     14  H2  UNL     1      -6.169   1.313  -2.221  1.00  0.00     0.209 HD
ENDBRANCH  12  13
ENDBRANCH  11  12
BRANCH  11  15
HETATM   15  C10 UNL     1      -4.190  -1.094  -0.299  1.00  0.00     0.155 C 
HETATM   16  N6  UNL     1      -3.734  -1.478   0.851  1.00  0.00    -0.288 N 
ATOM     17  H6  UNL     1      -2.826  -1.126   1.155  1.00  0.00     0.188 HD
BRANCH  15  18
HETATM   18  O3  UNL     1      -5.425  -1.588  -0.685  1.00  0.00    -0.347 OA
ATOM     19  H3  UNL     1      -5.886  -2.181  -0.104  1.00  0.00     0.219 HD
ENDBRANCH  15  18
BRANCH  16  20
HETATM   20  N7  UNL     1      -4.415  -2.339   1.684  1.00  0.00    -0.343 N 
ATOM     21  H72 UNL     1      -5.321  -2.681   1.364  1.00  0.00     0.176 HD
ATOM     22  H71 UNL     1      -4.056  -2.641   2.590  1.00  0.00     0.176 HD
ENDBRANCH  16  20
ENDBRANCH  11  15
ENDBRANCH   9  11
ENDBRANCH   5   7
BRANCH   1  23
HETATM   23  N3  UNL     1       2.572   0.786   1.965  1.00  0.00    -0.325 N 
HETATM   24  C3  UNL     1       3.808   0.451   1.666  1.00  0.00     0.166 A 
HETATM   25  N2  UNL     1       4.351   0.273   0.456  1.00  0.00    -0.279 N 
HETATM   26  S1  UNL     1       5.137   0.130   2.689  1.00  0.00    -0.038 SA
HETATM   27  N1  UNL     1       5.574  -0.052   0.379  1.00  0.00    -0.296 N 
ATOM     28  H2  UNL     1       3.792   0.396  -0.388  1.00  0.00     0.189 HD
HETATM   29  C2  UNL     1       6.294  -0.211   1.479  1.00  0.00     0.066 A 
ATOM     30  H1  UNL     1       6.005  -0.192  -0.535  1.00  0.00     0.187 HD
HETATM   31  C1  UNL     1       7.750  -0.594   1.564  1.00  0.00     0.078 C 
ATOM     32  H3  UNL     1       2.301   0.886   2.943  1.00  0.00     0.169 HD
ENDBRANCH   1  23
TORSDOF 8
