REMARK  7 active torsions:
REMARK  status: ('A' for Active; 'I' for Inactive)
REMARK    1  A    between atoms: C5_14  and  C6_15 
REMARK       I    between atoms: C6_15  and  N5_17 
REMARK    2  A    between atoms: N5_17  and  C7_19 
REMARK    3  A    between atoms: N10_27  and  C8_28 
REMARK    4  A    between atoms: C8_28  and  C9_29 
REMARK    5  A    between atoms: C9_29  and  N11_30 
REMARK    6  A    between atoms: C9_29  and  C10_34 
REMARK    7  A    between atoms: C10_34  and  C11_35 
ROOT
HETATM    1  N1  UNL     1      -3.188  -0.181   3.141  1.00  0.00    -0.383 N 
ATOM      2  H11 UNL     1      -3.546   0.613   2.609  1.00  0.00     0.157 HD
ATOM      3  H12 UNL     1      -3.679  -0.430   4.000  1.00  0.00     0.157 HD
HETATM    4  C1  UNL     1      -2.158  -0.815   2.712  1.00  0.00     0.131 A 
HETATM    5  N2  UNL     1      -1.688  -1.857   3.410  1.00  0.00    -0.337 N 
ATOM      6  H2  UNL     1      -2.150  -2.139   4.275  1.00  0.00     0.168 HD
HETATM    7  C2  UNL     1      -0.605  -2.536   2.974  1.00  0.00     0.183 A 
HETATM    8  N3  UNL     1       0.035  -2.185   1.823  1.00  0.00    -0.336 N 
ATOM      9  H3  UNL     1       0.850  -2.719   1.519  1.00  0.00     0.168 HD
HETATM   10  C3  UNL     1      -0.388  -1.150   1.083  1.00  0.00     0.141 A 
HETATM   11  C4  UNL     1      -1.489  -0.475   1.542  1.00  0.00     0.122 A 
HETATM   12  N4  UNL     1      -1.748   0.478   0.672  1.00  0.00    -0.332 N 
ATOM     13  H4  UNL     1      -2.511   1.151   0.739  1.00  0.00     0.168 HD
HETATM   14  C5  UNL     1      -0.822   0.417  -0.340  1.00  0.00     0.180 A 
HETATM   15  N10 UNL     1       0.033  -0.597  -0.084  1.00  0.00    -0.311 N 
ENDROOT
BRANCH  14  16
HETATM   16  C6  UNL     1      -0.903   1.329  -1.462  1.00  0.00     0.304 C 
HETATM   17  O1  UNL     1      -0.124   1.269  -2.418  1.00  0.00    -0.263 OA
HETATM   18  N5  UNL     1      -1.911   2.335  -1.473  1.00  0.00    -0.150 N 
ATOM     19  H5  UNL     1      -1.813   3.190  -0.925  1.00  0.00     0.188 HD
BRANCH  18  20
HETATM   20  C7  UNL     1      -2.950   2.123  -2.201  1.00  0.00     0.713 A 
HETATM   21  N6  UNL     1      -3.293   1.105  -2.986  1.00  0.00    -0.113 N 
HETATM   22  N7  UNL     1      -4.470   1.325  -3.548  1.00  0.00     0.009 NA
ATOM     23  H6  UNL     1      -2.726   0.270  -3.134  1.00  0.00     0.203 HD
HETATM   24  N8  UNL     1      -4.863   2.507  -3.099  1.00  0.00    -0.212 N 
HETATM   25  N9  UNL     1      -3.971   3.013  -2.287  1.00  0.00    -0.118 N 
ATOM     26  H8  UNL     1      -5.741   2.961  -3.352  1.00  0.00     0.206 HD
ATOM     27  H9  UNL     1      -4.032   3.911  -1.807  1.00  0.00     0.207 HD
ENDBRANCH  18  20
ENDBRANCH  14  16
BRANCH  15  28
HETATM   28  C8  UNL     1       1.165  -1.018  -0.864  1.00  0.00     0.165 C 
BRANCH  28  29
HETATM   29  C9  UNL     1       2.484  -0.454  -0.533  1.00  0.00     0.211 C 
BRANCH  29  30
HETATM   30  N11 UNL     1       2.630   0.980  -0.606  1.00  0.00    -0.073 N 
ATOM     31 3H11 UNL     1       2.348   1.302  -1.532  1.00  0.00     0.274 HD
ATOM     32 2H11 UNL     1       1.918   1.422  -0.025  1.00  0.00     0.274 HD
ATOM     33 1H11 UNL     1       3.544   1.371  -0.377  1.00  0.00     0.274 HD
ENDBRANCH  29  30
BRANCH  29  34
HETATM   34  C10 UNL     1       3.156  -0.972   0.716  1.00  0.00     0.147 C 
BRANCH  34  35
HETATM   35  C11 UNL     1       4.492  -0.289   0.882  1.00  0.00     0.174 C 
HETATM   36  O2  UNL     1       4.560   0.883   1.340  1.00  0.00    -0.648 OA
HETATM   37  O3  UNL     1       5.632  -0.993   0.517  1.00  0.00    -0.648 OA
ENDBRANCH  34  35
ENDBRANCH  29  34
ENDBRANCH  28  29
ENDBRANCH  15  28
TORSDOF 7
