REMARK  10 active torsions:
REMARK  status: ('A' for Active; 'I' for Inactive)
REMARK    1  A    between atoms: C1_4  and  O1_5 
REMARK    2  A    between atoms: C1_4  and  N2_7 
REMARK    3  A    between atoms: N2_7  and  N3_9 
REMARK       I    between atoms: N3_9  and  C2_11 
REMARK    4  A    between atoms: C2_11  and  C3_13 
REMARK    5  A    between atoms: C3_13  and  C4_14 
REMARK    6  A    between atoms: C4_14  and  C5_15 
REMARK    7  A    between atoms: C5_15  and  O3_16 
REMARK    8  A    between atoms: N4_18  and  C6_20 
REMARK    9  A    between atoms: C7_25  and  S1_26 
REMARK   10  A    between atoms: S1_26  and  N7_27 
ROOT
HETATM    1  C5  UNL     1       0.095  -0.465   1.944  1.00  0.00     0.117 C 
HETATM    2  N4  UNL     1       1.442  -0.496   2.072  1.00  0.00    -0.320 N 
ATOM      3  H4  UNL     1       1.764  -0.598   3.034  1.00  0.00     0.169 HD
ENDROOT
BRANCH   1   4
HETATM    4  C4  UNL     1      -0.663  -0.327   0.688  1.00  0.00     0.093 C 
BRANCH   4   5
HETATM    5  C3  UNL     1      -2.149  -0.306   1.036  1.00  0.00     0.112 C 
BRANCH   5   6
HETATM    6  C2  UNL     1      -2.957  -0.166  -0.216  1.00  0.00     0.236 C 
HETATM    7  N3  UNL     1      -4.365  -0.116  -0.115  1.00  0.00    -0.267 N 
ATOM      8  H3  UNL     1      -4.819  -0.175   0.797  1.00  0.00     0.190 HD
HETATM    9  O2  UNL     1      -2.386  -0.094  -1.332  1.00  0.00    -0.272 OA
BRANCH   7  10
HETATM   10  N2  UNL     1      -5.135   0.016  -1.286  1.00  0.00    -0.263 N 
ATOM     11  H2  UNL     1      -4.749  -0.249  -2.192  1.00  0.00     0.190 HD
BRANCH  10  12
HETATM   12  C1  UNL     1      -6.456   0.523  -1.188  1.00  0.00     0.229 C 
HETATM   13  N1  UNL     1      -6.818   1.175  -0.134  1.00  0.00    -0.364 N 
ATOM     14  H12 UNL     1      -7.768   1.540  -0.064  1.00  0.00     0.159 HD
ATOM     15  H11 UNL     1      -6.152   1.323   0.624  1.00  0.00     0.159 HD
BRANCH  12  16
HETATM   16  O1  UNL     1      -7.351   0.324  -2.206  1.00  0.00    -0.332 OA
ATOM     17  H1  UNL     1      -7.085  -0.156  -2.982  1.00  0.00     0.221 HD
ENDBRANCH  12  16
ENDBRANCH  10  12
ENDBRANCH   7  10
ENDBRANCH   5   6
ENDBRANCH   4   5
ENDBRANCH   1   4
BRANCH   1  18
HETATM   18  O3  UNL     1      -0.584  -0.568   3.054  1.00  0.00    -0.349 OA
ATOM     19  H3  UNL     1      -0.095  -0.657   3.864  1.00  0.00     0.219 HD
ENDBRANCH   1  18
BRANCH   2  20
HETATM   20  C6  UNL     1       2.380  -0.422   1.221  1.00  0.00     0.167 A 
HETATM   21  N5  UNL     1       2.457  -0.290  -0.100  1.00  0.00    -0.278 N 
HETATM   22  N6  UNL     1       3.594  -0.247  -0.668  1.00  0.00    -0.281 N 
ATOM     23  H5  UNL     1       1.605  -0.223  -0.657  1.00  0.00     0.189 HD
HETATM   24  C7  UNL     1       4.702  -0.331   0.034  1.00  0.00     0.208 A 
ATOM     25  H6  UNL     1       3.647  -0.146  -1.682  1.00  0.00     0.188 HD
HETATM   26  S2  UNL     1       4.102  -0.483   1.611  1.00  0.00    -0.020 SA
BRANCH  24  27
HETATM   27  S1  UNL     1       6.349  -0.288  -0.594  1.00  0.00     0.280 S 
HETATM   28  O4  UNL     1       7.192  -1.075   0.378  1.00  0.00    -0.199 OA
HETATM   29  O5  UNL     1       6.424  -0.857  -1.969  1.00  0.00    -0.199 OA
BRANCH  27  30
HETATM   30  N7  UNL     1       6.869   1.371  -0.621  1.00  0.00    -0.323 N 
ATOM     31  H72 UNL     1       6.308   2.169  -0.322  1.00  0.00     0.169 HD
ATOM     32  H71 UNL     1       7.822   1.396  -0.984  1.00  0.00     0.169 HD
ENDBRANCH  27  30
ENDBRANCH  24  27
ENDBRANCH   2  20
TORSDOF 10
