REMARK  7 active torsions:
REMARK  status: ('A' for Active; 'I' for Inactive)
REMARK    1  A    between atoms: C2_2  and  N1_3 
REMARK    2  A    between atoms: C2_2  and  C3_7 
REMARK       I    between atoms: C3_7  and  N2_9 
REMARK    3  A    between atoms: N2_9  and  C4_11 
REMARK    4  A    between atoms: C4_11  and  C11_29 
REMARK    5  A    between atoms: C5_12  and  C7_15 
REMARK    6  A    between atoms: C9_22  and  N7_23 
REMARK    7  A    between atoms: C11_29  and  N9_32 
ROOT
HETATM    1  C4  UNL     1      -0.403  -0.910  -0.603  1.00  0.00     0.069 C 
HETATM    2  C5  UNL     1       0.996  -0.571  -0.527  1.00  0.00     0.085 C 
HETATM    3  C6  UNL     1       1.903  -1.306  -1.448  1.00  0.00     0.102 C 
HETATM    4  N3  UNL     1       2.626  -1.855  -2.165  1.00  0.00    -0.191 NA
ENDROOT
BRANCH   2   5
HETATM    5  C7  UNL     1       1.576   0.300   0.239  1.00  0.00     0.052 A 
HETATM    6  C8  UNL     1       1.080   1.143   1.178  1.00  0.00     0.126 A 
HETATM    7  N4  UNL     1       2.092   1.894   1.744  1.00  0.00    -0.288 N 
HETATM    8  N5  UNL     1       3.216   1.534   1.174  1.00  0.00    -0.164 N 
ATOM      9  H4  UNL     1       1.984   2.600   2.472  1.00  0.00     0.188 HD
HETATM   10  N6  UNL     1       4.506   1.783   1.185  1.00  0.00    -0.109 N 
HETATM   11  C10 UNL     1       2.969   0.585   0.266  1.00  0.00     0.174 A 
HETATM   12  C9  UNL     1       5.079   0.983   0.275  1.00  0.00     0.693 A 
ATOM     13  H6  UNL     1       4.984   2.461   1.778  1.00  0.00     0.208 HD
HETATM   14  N8  UNL     1       4.134   0.233  -0.304  1.00  0.00    -0.171 N 
ATOM     15  H8  UNL     1       4.271  -0.467  -1.033  1.00  0.00     0.186 HD
BRANCH  12  16
HETATM   16  N7  UNL     1       6.369   0.970   0.022  1.00  0.00    -0.233 N 
ATOM     17  H72 UNL     1       7.089   1.542   0.463  1.00  0.00     0.174 HD
ATOM     18  H71 UNL     1       6.805   0.361  -0.671  1.00  0.00     0.174 HD
ENDBRANCH  12  16
ENDBRANCH   2   5
BRANCH   1  19
HETATM   19  N2  UNL     1      -1.365   0.019  -0.066  1.00  0.00    -0.325 N 
HETATM   20  C3  UNL     1      -2.032   1.020  -0.836  1.00  0.00     0.252 C 
HETATM   21  O1  UNL     1      -1.824   1.168  -2.067  1.00  0.00    -0.271 OA
ATOM     22  H2  UNL     1      -1.584  -0.042   0.928  1.00  0.00     0.168 HD
BRANCH  20  23
HETATM   23  C2  UNL     1      -3.000   1.920  -0.186  1.00  0.00     0.271 C 
HETATM   24  C1  UNL     1      -2.649   3.378  -0.394  1.00  0.00     0.050 C 
BRANCH  23  25
HETATM   25  N1  UNL     1      -3.163   1.667   1.213  1.00  0.00    -0.067 N 
ATOM     26  H13 UNL     1      -2.346   1.949   1.754  1.00  0.00     0.275 HD
ATOM     27  H12 UNL     1      -3.844   2.293   1.642  1.00  0.00     0.275 HD
ATOM     28  H11 UNL     1      -3.399   0.685   1.353  1.00  0.00     0.275 HD
ENDBRANCH  23  25
ENDBRANCH  20  23
ENDBRANCH   1  19
BRANCH   1  29
HETATM   29  C11 UNL     1      -0.818  -2.284  -0.221  1.00  0.00     0.160 C 
HETATM   30  C12 UNL     1       0.062  -3.407  -0.696  1.00  0.00     0.052 C 
HETATM   31  C13 UNL     1      -2.204  -2.586  -0.821  1.00  0.00     0.052 C 
BRANCH  29  32
HETATM   32  N9  UNL     1      -1.043  -2.407   1.232  1.00  0.00    -0.066 N 
ATOM     33  H93 UNL     1      -0.224  -2.107   1.761  1.00  0.00     0.275 HD
ATOM     34  H92 UNL     1      -1.712  -1.712   1.564  1.00  0.00     0.275 HD
ATOM     35  H91 UNL     1      -1.328  -3.351   1.494  1.00  0.00     0.275 HD
ENDBRANCH  29  32
ENDBRANCH   1  29
TORSDOF 7
