REMARK  6 active torsions:
REMARK  status: ('A' for Active; 'I' for Inactive)
REMARK    1  A    between atoms: C2_2  and  C9_21 
REMARK    2  A    between atoms: N1_3  and  N2_5 
REMARK       I    between atoms: N2_5  and  C3_7 
REMARK    3  A    between atoms: C3_7  and  C4_9 
REMARK    4  A    between atoms: C5_10  and  C6_11 
REMARK       I    between atoms: C9_21  and  N6_23 
REMARK    5  A    between atoms: N6_23  and  C10_24 
REMARK    6  A    between atoms: C10_24  and  C11_25 
ROOT
HETATM    1  C4  UNL     1       5.182  -1.025   0.714  1.00  0.00     0.107 A 
HETATM    2  C5  UNL     1       6.132  -1.333  -0.283  1.00  0.00     0.143 A 
HETATM    3  N3  UNL     1       7.224  -1.694   0.405  1.00  0.00    -0.293 N 
ATOM      4  H3  UNL     1       8.092  -1.976  -0.051  1.00  0.00     0.187 HD
HETATM    5  N4  UNL     1       7.095  -1.658   1.680  1.00  0.00    -0.289 N 
ATOM      6  H4  UNL     1       7.800  -1.893   2.378  1.00  0.00     0.188 HD
HETATM    7  C7  UNL     1       5.809  -1.237   1.908  1.00  0.00     0.146 A 
HETATM    8  C8  UNL     1       5.271  -1.056   3.221  1.00  0.00     0.120 C 
HETATM    9  N5  UNL     1       4.868  -0.906   4.306  1.00  0.00    -0.190 NA
ENDROOT
BRANCH   1  10
HETATM   10  C3  UNL     1       3.859  -0.506   0.471  1.00  0.00     0.275 C 
HETATM   11  N2  UNL     1       2.778  -0.483   1.355  1.00  0.00    -0.265 N 
ATOM     12  H2  UNL     1       2.891  -0.870   2.292  1.00  0.00     0.190 HD
HETATM   13  O1  UNL     1       3.651   0.002  -0.705  1.00  0.00    -0.266 OA
BRANCH  11  14
HETATM   14  N1  UNL     1       1.520   0.069   0.976  1.00  0.00    -0.296 N 
HETATM   15  C2  UNL     1       1.028   1.082   1.581  1.00  0.00     0.104 C 
HETATM   16  C1  UNL     1       1.755   1.704   2.684  1.00  0.00     0.077 C 
ATOM     17  H1  UNL     1       1.001  -0.353   0.206  1.00  0.00     0.187 HD
BRANCH  15  18
HETATM   18  C9  UNL     1      -0.289   1.583   1.140  1.00  0.00     0.338 C 
HETATM   19  O4  UNL     1      -0.733   2.547   1.759  1.00  0.00    -0.250 OA
HETATM   20  N6  UNL     1      -0.970   0.949   0.063  1.00  0.00    -0.382 NA
BRANCH  20  21
HETATM   21  C10 UNL     1      -1.601   0.365  -0.932  1.00  0.00     0.164 C 
BRANCH  21  22
HETATM   22  C11 UNL     1      -2.936  -0.327  -0.696  1.00  0.00     0.038 C 
HETATM   23  C12 UNL     1      -3.444  -0.869  -1.992  1.00  0.00     0.011 C 
HETATM   24  C13 UNL     1      -4.165   0.077  -2.876  1.00  0.00     0.001 C 
HETATM   25  C14 UNL     1      -5.112   1.031  -2.249  1.00  0.00     0.000 C 
HETATM   26  C15 UNL     1      -6.016   0.456  -1.191  1.00  0.00     0.000 C 
HETATM   27  C16 UNL     1      -5.304  -0.147  -0.036  1.00  0.00     0.001 C 
HETATM   28  C17 UNL     1      -3.896   0.423   0.135  1.00  0.00     0.011 C 
ENDBRANCH  21  22
ENDBRANCH  20  21
ENDBRANCH  15  18
ENDBRANCH  11  14
ENDBRANCH   1  10
BRANCH   2  29
HETATM   29  C6  UNL     1       5.994  -1.357  -1.701  1.00  0.00     0.229 C 
HETATM   30  O2  UNL     1       5.127  -1.216  -2.527  1.00  0.00    -0.643 OA
HETATM   31  O3  UNL     1       7.307  -1.639  -2.356  1.00  0.00    -0.643 OA
ENDBRANCH   2  29
TORSDOF 6
