REMARK  9 active torsions:
REMARK  status: ('A' for Active; 'I' for Inactive)
REMARK    1  A    between atoms: C2_2  and  N1_3 
REMARK    2  A    between atoms: C2_2  and  C12_27 
REMARK    3  A    between atoms: N1_3  and  S1_5 
REMARK    4  A    between atoms: S1_5  and  C3_8 
REMARK    5  A    between atoms: C4_9  and  N2_10 
REMARK    6  A    between atoms: N2_10  and  C5_11 
REMARK    7  A    between atoms: N2_10  and  C7_13 
REMARK    8  A    between atoms: C7_13  and  C8_14 
REMARK    9  A    between atoms: C10_19  and  N5_20 
ROOT
HETATM    1  C8  UNL     1      -2.087   2.728   0.186  1.00  0.00     0.143 C 
HETATM    2  C9  UNL     1      -3.235   3.206  -0.542  1.00  0.00     0.060 C 
HETATM    3  N3  UNL     1      -4.158   3.629  -1.129  1.00  0.00    -0.197 NA
ENDROOT
BRANCH   1   4
HETATM    4  C7  UNL     1      -1.362   1.597  -0.415  1.00  0.00     0.138 C 
BRANCH   4   5
HETATM    5  N2  UNL     1      -1.983   0.338  -0.574  1.00  0.00    -0.365 N 
BRANCH   5   6
HETATM    6  C4  UNL     1      -1.571  -0.778   0.230  1.00  0.00     0.148 A 
HETATM    7  C3  UNL     1      -0.563  -1.566  -0.186  1.00  0.00     0.192 A 
HETATM    8  C11 UNL     1      -0.279  -2.680   0.644  1.00  0.00     0.286 A 
HETATM    9  N6  UNL     1      -0.985  -2.900   1.760  1.00  0.00    -0.155 N 
HETATM   10  O3  UNL     1       0.666  -3.451   0.286  1.00  0.00    -0.266 OA
HETATM   11  C10 UNL     1      -1.985  -2.084   2.140  1.00  0.00     0.680 A 
ATOM     12  H6  UNL     1      -0.758  -3.709   2.338  1.00  0.00     0.187 HD
HETATM   13  N4  UNL     1      -2.287  -1.023   1.386  1.00  0.00    -0.175 N 
ATOM     14  H4  UNL     1      -3.043  -0.397   1.663  1.00  0.00     0.186 HD
BRANCH   7  15
HETATM   15  S1  UNL     1       0.437  -1.325  -1.559  1.00  0.00     0.272 S 
HETATM   16  O1  UNL     1      -0.243  -0.510  -2.664  1.00  0.00    -0.200 OA
HETATM   17  O2  UNL     1       0.547  -2.715  -2.216  1.00  0.00    -0.200 OA
BRANCH  15  18
HETATM   18  N1  UNL     1       1.994  -0.736  -1.314  1.00  0.00    -0.284 N 
ATOM     19  H1  UNL     1       2.745  -1.358  -1.612  1.00  0.00     0.178 HD
BRANCH  18  20
HETATM   20  C2  UNL     1       2.413   0.484  -0.761  1.00  0.00     0.018 C 
HETATM   21  C1  UNL     1       2.280   1.591  -1.460  1.00  0.00     0.039 C 
BRANCH  20  22
HETATM   22  C12 UNL     1       3.040   0.581   0.581  1.00  0.00    -0.009 C 
HETATM   23  C13 UNL     1       3.396   2.035   0.909  1.00  0.00     0.021 C 
HETATM   24  C14 UNL     1       4.373  -0.184   0.591  1.00  0.00     0.021 C 
HETATM   25  C15 UNL     1       2.190   0.100   1.708  1.00  0.00     0.021 C 
ENDBRANCH  20  22
ENDBRANCH  18  20
ENDBRANCH  15  18
ENDBRANCH   7  15
BRANCH  11  26
HETATM   26  N5  UNL     1      -2.651  -2.332   3.237  1.00  0.00    -0.234 N 
ATOM     27  H52 UNL     1      -3.409  -1.713   3.525  1.00  0.00     0.174 HD
ATOM     28  H51 UNL     1      -2.420  -3.142   3.813  1.00  0.00     0.174 HD
ENDBRANCH  11  26
ENDBRANCH   5   6
BRANCH   5  29
HETATM   29  C5  UNL     1      -3.056   0.111  -1.492  1.00  0.00     0.120 C 
HETATM   30  C6  UNL     1      -3.523  -1.332  -1.574  1.00  0.00     0.026 C 
ENDBRANCH   5  29
ENDBRANCH   4   5
ENDBRANCH   1   4
TORSDOF 9
