REMARK  8 active torsions:
REMARK  status: ('A' for Active; 'I' for Inactive)
REMARK    1  A    between atoms: C2_2  and  C3_3 
REMARK    2  A    between atoms: C3_3  and  C4_4 
REMARK    3  A    between atoms: C4_4  and  N1_5 
REMARK    4  A    between atoms: N1_5  and  C5_7 
REMARK    5  A    between atoms: C6_10  and  C7_11 
REMARK    6  A    between atoms: C7_11  and  C8_12 
REMARK    7  A    between atoms: C9_19  and  C10_20 
REMARK       I    between atoms: C10_20  and  N6_22 
REMARK    8  A    between atoms: C17_31  and  N8_32 
ROOT
HETATM    1  C5  UNL     1       2.901   1.322   1.341  1.00  0.00     0.694 A 
HETATM    2  N2  UNL     1       2.010   0.323   1.612  1.00  0.00    -0.179 N 
ATOM      3  H2  UNL     1       1.930  -0.464   0.969  1.00  0.00     0.185 HD
HETATM    4  C6  UNL     1       1.251   0.357   2.689  1.00  0.00     0.119 A 
HETATM    5  N7  UNL     1       1.386   1.419   3.520  1.00  0.00    -0.179 N 
ATOM      6  H7  UNL     1       0.808   1.465   4.359  1.00  0.00     0.185 HD
HETATM    7  C17 UNL     1       2.253   2.410   3.275  1.00  0.00     0.691 A 
HETATM    8  N9  UNL     1       3.019   2.374   2.187  1.00  0.00    -0.023 N 
ATOM      9  H9  UNL     1       3.682   3.124   1.994  1.00  0.00     0.203 HD
ENDROOT
BRANCH   4  10
HETATM   10  C7  UNL     1       0.270  -0.671   3.042  1.00  0.00     0.139 C 
BRANCH  10  11
HETATM   11  C8  UNL     1      -1.141  -0.266   2.950  1.00  0.00     0.068 A 
HETATM   12  N3  UNL     1      -1.769   0.296   4.053  1.00  0.00    -0.288 N 
HETATM   13  N4  UNL     1      -2.994   0.651   3.726  1.00  0.00    -0.242 N 
ATOM     14  H3  UNL     1      -1.347   0.415   4.974  1.00  0.00     0.188 HD
HETATM   15  N5  UNL     1      -3.155   0.332   2.463  1.00  0.00    -0.279 N 
ATOM     16  H4  UNL     1      -3.684   1.089   4.336  1.00  0.00     0.208 HD
HETATM   17  C9  UNL     1      -2.046  -0.239   1.930  1.00  0.00     0.142 A 
ATOM     18  H5  UNL     1      -4.016   0.495   1.941  1.00  0.00     0.189 HD
BRANCH  17  19
HETATM   19  C10 UNL     1      -1.818  -0.754   0.590  1.00  0.00     0.277 C 
HETATM   20  O1  UNL     1      -0.677  -1.281   0.334  1.00  0.00    -0.265 OA
HETATM   21  N6  UNL     1      -2.803  -0.692  -0.424  1.00  0.00    -0.326 N 
HETATM   22  C11 UNL     1      -2.225  -1.319  -1.648  1.00  0.00     0.142 C 
HETATM   23  C16 UNL     1      -4.024  -0.095  -0.098  1.00  0.00     0.068 C 
HETATM   24  C12 UNL     1      -2.227  -0.269  -2.823  1.00  0.00     0.100 C 
HETATM   25  C13 UNL     1      -3.477   0.380  -2.702  1.00  0.00    -0.181 C 
HETATM   26  C14 UNL     1      -4.740   0.899  -2.349  1.00  0.00     0.085 C 
HETATM   27  C15 UNL     1      -5.164   0.070  -1.084  1.00  0.00     0.056 C 
ENDBRANCH  17  19
ENDBRANCH  10  11
ENDBRANCH   4  10
BRANCH   1  28
HETATM   28  N1  UNL     1       3.631   1.291   0.301  1.00  0.00    -0.226 N 
ATOM     29  H1  UNL     1       4.273   2.072   0.167  1.00  0.00     0.177 HD
BRANCH  28  30
HETATM   30  C4  UNL     1       3.641   0.276  -0.693  1.00  0.00     0.138 C 
BRANCH  30  31
HETATM   31  C3  UNL     1       4.513  -0.886  -0.307  1.00  0.00     0.020 C 
BRANCH  31  32
HETATM   32  C2  UNL     1       4.487  -1.934  -1.400  1.00  0.00    -0.003 C 
HETATM   33  C1  UNL     1       4.989  -1.379  -2.705  1.00  0.00     0.005 C 
ENDBRANCH  31  32
ENDBRANCH  30  31
ENDBRANCH  28  30
ENDBRANCH   1  28
BRANCH   7  34
HETATM   34  N8  UNL     1       2.377   3.430   4.081  1.00  0.00    -0.234 N 
ATOM     35  H82 UNL     1       1.790   3.458   4.915  1.00  0.00     0.174 HD
ATOM     36  H81 UNL     1       3.037   4.185   3.894  1.00  0.00     0.174 HD
ENDBRANCH   7  34
TORSDOF 8
