REMARK  9 active torsions:
REMARK  status: ('A' for Active; 'I' for Inactive)
REMARK    1  A    between atoms: C3_7  and  N3_8 
REMARK    2  A    between atoms: N3_8  and  C4_10 
REMARK    3  A    between atoms: C10_18  and  O1_19 
REMARK    4  A    between atoms: O1_19  and  C11_20 
REMARK    5  A    between atoms: C11_20  and  C12_21 
REMARK    6  A    between atoms: C12_21  and  O2_22 
REMARK    7  A    between atoms: C12_21  and  C13_24 
REMARK    8  A    between atoms: C13_24  and  N5_25 
REMARK    9  A    between atoms: N5_25  and  C14_28 
ROOT
HETATM    1  C1  UNL     1      -1.997  -4.565   2.044  1.00  0.00     0.147 C 
HETATM    2  N1  UNL     1      -2.472  -3.356   1.543  1.00  0.00    -0.379 N 
ATOM      3  H1  UNL     1      -3.436  -3.186   1.830  1.00  0.00     0.160 HD
HETATM    4  C2  UNL     1      -2.037  -2.427   0.839  1.00  0.00     0.141 A 
HETATM    5  N2  UNL     1      -2.896  -1.392   0.591  1.00  0.00    -0.175 N 
ATOM      6  H2  UNL     1      -3.836  -1.427   0.985  1.00  0.00     0.186 HD
HETATM    7  C3  UNL     1      -2.549  -0.349  -0.142  1.00  0.00     0.682 A 
HETATM    8  N4  UNL     1      -1.306  -0.245  -0.697  1.00  0.00    -0.169 N 
ATOM      9  H4  UNL     1      -1.050   0.565  -1.262  1.00  0.00     0.186 HD
HETATM   10  C10 UNL     1      -0.436  -1.232  -0.480  1.00  0.00     0.182 A 
HETATM   11  C18 UNL     1      -0.787  -2.346   0.295  1.00  0.00     0.140 A 
HETATM   12  C19 UNL     1       0.177  -3.368   0.493  1.00  0.00     0.107 C 
HETATM   13  N6  UNL     1       0.981  -4.189   0.636  1.00  0.00    -0.191 NA
ENDROOT
BRANCH  10  14
HETATM   14  O1  UNL     1       0.834  -1.184  -1.011  1.00  0.00    -0.332 OA
BRANCH  14  15
HETATM   15  C11 UNL     1       1.798  -0.453  -0.249  1.00  0.00     0.210 C 
BRANCH  15  16
HETATM   16  C12 UNL     1       3.141  -0.465  -0.933  1.00  0.00     0.168 C 
BRANCH  16  17
HETATM   17  O2  UNL     1       3.629  -1.749  -1.098  1.00  0.00    -0.392 OA
ATOM     18  H2  UNL     1       4.476  -1.757  -1.529  1.00  0.00     0.210 HD
ENDBRANCH  16  17
BRANCH  16  19
HETATM   19  C13 UNL     1       4.137   0.355  -0.109  1.00  0.00     0.267 C 
BRANCH  19  20
HETATM   20  N5  UNL     1       5.394   0.400  -0.819  1.00  0.00    -0.065 N 
ATOM     21  H52 UNL     1       5.728  -0.536  -1.048  1.00  0.00     0.278 HD
ATOM     22  H51 UNL     1       5.276   0.760  -1.766  1.00  0.00     0.278 HD
BRANCH  20  23
HETATM   23  C14 UNL     1       6.385   1.152  -0.085  1.00  0.00     0.115 C 
HETATM   24  C15 UNL     1       6.715   0.521   1.238  1.00  0.00     0.045 C 
HETATM   25  C16 UNL     1       5.873   2.556   0.180  1.00  0.00     0.045 C 
HETATM   26  C17 UNL     1       7.654   1.199  -0.908  1.00  0.00     0.045 C 
ENDBRANCH  20  23
ENDBRANCH  19  20
ENDBRANCH  16  19
ENDBRANCH  15  16
ENDBRANCH  14  15
ENDBRANCH  10  14
BRANCH   7  27
HETATM   27  N3  UNL     1      -3.345   0.610  -0.363  1.00  0.00    -0.221 N 
ATOM     28  H3  UNL     1      -2.982   1.367  -0.942  1.00  0.00     0.178 HD
BRANCH  27  29
HETATM   29  C4  UNL     1      -4.700   0.764   0.102  1.00  0.00     0.099 C 
HETATM   30  C5  UNL     1      -5.633   0.043  -0.776  1.00  0.00     0.026 C 
HETATM   31  C6  UNL     1      -6.974   0.647  -0.988  1.00  0.00     0.002 C 
HETATM   32  C7  UNL     1      -7.023   2.134  -0.978  1.00  0.00     0.000 C 
HETATM   33  C8  UNL     1      -6.394   2.611   0.338  1.00  0.00     0.002 C 
HETATM   34  C9  UNL     1      -4.945   2.245   0.228  1.00  0.00     0.026 C 
ENDBRANCH  27  29
ENDBRANCH   7  27
TORSDOF 9
