REMARK  8 active torsions:
REMARK  status: ('A' for Active; 'I' for Inactive)
REMARK    1  A    between atoms: C1_2  and  C2_3 
REMARK       I    between atoms: C1_2  and  N3_14 
REMARK    2  A    between atoms: C2_3  and  C3_4 
REMARK    3  A    between atoms: C3_4  and  C4_5 
REMARK    4  A    between atoms: N3_14  and  C9_16 
REMARK    5  A    between atoms: C10_21  and  N6_22 
REMARK    6  A    between atoms: N6_22  and  C11_24 
REMARK    7  A    between atoms: C11_24  and  C12_25 
REMARK    8  A    between atoms: C14_27  and  N7_28 
ROOT
HETATM    1  C9  UNL     1       0.011  -0.240   0.157  1.00  0.00     0.714 A 
HETATM    2  N4  UNL     1       0.299   0.108  -1.107  1.00  0.00    -0.117 N 
ATOM      3  H4  UNL     1      -0.322   0.044  -1.913  1.00  0.00     0.206 HD
HETATM    4  N5  UNL     1       1.545   0.550  -1.103  1.00  0.00    -0.117 N 
ATOM      5  H5  UNL     1       2.048   0.889  -1.923  1.00  0.00     0.206 HD
HETATM    6  C10 UNL     1       2.048   0.487   0.135  1.00  0.00     0.708 A 
HETATM    7  N8  UNL     1       1.115  -0.001   0.942  1.00  0.00    -0.020 N 
ATOM      8  H8  UNL     1       1.199  -0.166   1.945  1.00  0.00     0.203 HD
ENDROOT
BRANCH   1   9
HETATM    9  N3  UNL     1      -1.078  -0.706   0.633  1.00  0.00    -0.158 N 
HETATM   10  C1  UNL     1      -2.216  -0.951  -0.119  1.00  0.00     0.236 C 
HETATM   11  O1  UNL     1      -2.580  -2.146  -0.329  1.00  0.00    -0.273 OA
ATOM     12  H3  UNL     1      -1.113  -0.911   1.632  1.00  0.00     0.187 HD
BRANCH  10  13
HETATM   13  C2  UNL     1      -3.014   0.137  -0.673  1.00  0.00     0.118 C 
BRANCH  13  14
HETATM   14  C3  UNL     1      -4.511  -0.077  -0.719  1.00  0.00    -0.002 A 
HETATM   15  C7  UNL     1      -5.164  -0.742  -1.888  1.00  0.00     0.016 A 
HETATM   16  C8  UNL     1      -5.170   0.757  -1.797  1.00  0.00     0.016 A 
BRANCH  14  17
HETATM   17  C4  UNL     1      -5.216  -0.222   0.571  1.00  0.00    -0.015 A 
HETATM   18  C5  UNL     1      -6.348   0.529   0.924  1.00  0.00     0.116 A 
HETATM   19  N1  UNL     1      -6.701   0.146   2.134  1.00  0.00    -0.312 N 
HETATM   20  N2  UNL     1      -5.889  -0.781   2.575  1.00  0.00    -0.312 N 
ATOM     21  H1  UNL     1      -7.495   0.519   2.654  1.00  0.00     0.186 HD
HETATM   22  C6  UNL     1      -4.950  -1.026   1.607  1.00  0.00     0.116 A 
ATOM     23  H2  UNL     1      -5.945  -1.242   3.483  1.00  0.00     0.186 HD
ENDBRANCH  14  17
ENDBRANCH  13  14
ENDBRANCH  10  13
ENDBRANCH   1   9
BRANCH   6  24
HETATM   24  N6  UNL     1       3.227   0.828   0.528  1.00  0.00    -0.218 N 
ATOM     25  H6  UNL     1       3.491   0.730   1.508  1.00  0.00     0.178 HD
BRANCH  24  26
HETATM   26  C11 UNL     1       4.160   1.344  -0.419  1.00  0.00     0.203 C 
BRANCH  26  27
HETATM   27  C12 UNL     1       5.538   0.868  -0.039  1.00  0.00     0.073 A 
HETATM   28  C13 UNL     1       6.145  -0.300  -0.322  1.00  0.00     0.072 A 
HETATM   29  C14 UNL     1       7.406  -0.316   0.222  1.00  0.00     0.127 A 
HETATM   30  C15 UNL     1       7.508   0.936   0.853  1.00  0.00     0.178 A 
HETATM   31  O4  UNL     1       6.403   1.594   0.680  1.00  0.00    -0.323 OA
BRANCH  29  32
HETATM   32  N7  UNL     1       8.387  -1.342   0.183  1.00  0.00    -0.114 N 
HETATM   33  O2  UNL     1       9.470  -1.170   0.770  1.00  0.00    -0.532 OA
HETATM   34  O3  UNL     1       8.097  -2.492  -0.513  1.00  0.00    -0.532 OA
ENDBRANCH  29  32
ENDBRANCH  26  27
ENDBRANCH  24  26
ENDBRANCH   6  24
TORSDOF 8
