REMARK  2 active torsions:
REMARK  status: ('A' for Active; 'I' for Inactive)
REMARK    1  A    between atoms: N3_4  and  N4_6 
REMARK    2  A    between atoms: N4_6  and  C2_8 
ROOT
HETATM    1  C2  UNL     1      -0.746  -0.382   0.049  1.00  0.00     0.705 A 
HETATM    2  N5  UNL     1      -1.292   0.762  -0.362  1.00  0.00    -0.139 N 
ATOM      3  H5  UNL     1      -0.703   1.576  -0.538  1.00  0.00     0.189 HD
HETATM    4  C3  UNL     1      -2.618   0.841  -0.543  1.00  0.00     0.342 A 
HETATM    5  O1  UNL     1      -3.116   1.921  -0.929  1.00  0.00    -0.246 OA
HETATM    6  N6  UNL     1      -3.387  -0.232  -0.309  1.00  0.00    -0.260 N 
ATOM      7  H6  UNL     1      -4.396  -0.171  -0.447  1.00  0.00     0.175 HD
HETATM    8  C4  UNL     1      -2.830  -1.405   0.112  1.00  0.00     0.342 A 
HETATM    9  O2  UNL     1      -3.533  -2.422   0.336  1.00  0.00    -0.246 OA
HETATM   10  N7  UNL     1      -1.496  -1.478   0.292  1.00  0.00    -0.139 N 
ATOM     11  H7  UNL     1      -1.061  -2.346   0.606  1.00  0.00     0.189 HD
ENDROOT
BRANCH   1  12
HETATM   12  N4  UNL     1       0.521  -0.486   0.231  1.00  0.00    -0.130 N 
ATOM     13  H4  UNL     1       0.931  -1.365   0.546  1.00  0.00     0.205 HD
BRANCH  12  14
HETATM   14  N3  UNL     1       1.324   0.626  -0.010  1.00  0.00    -0.262 N 
HETATM   15  C1  UNL     1       2.581   0.512   0.140  1.00  0.00     0.216 C 
HETATM   16  N1  UNL     1       3.165  -0.697   0.538  1.00  0.00    -0.065 NA
HETATM   17  N2  UNL     1       3.403   1.634  -0.103  1.00  0.00    -0.065 NA
ATOM     18  H3  UNL     1       0.912   1.513  -0.301  1.00  0.00     0.190 HD
ENDBRANCH  12  14
ENDBRANCH   1  12
TORSDOF 2
