REMARK  3 active torsions:
REMARK  status: ('A' for Active; 'I' for Inactive)
REMARK    1  A    between atoms: N1_1  and  N2_4 
REMARK       I    between atoms: N2_4  and  C1_6 
REMARK    2  A    between atoms: C1_6  and  C2_8 
REMARK    3  A    between atoms: C2_8  and  N3_9 
ROOT
HETATM    1  C2  UNL     1      -0.709  -0.220   0.220  1.00  0.00     0.337 A 
HETATM    2  N4  UNL     1      -1.719  -1.157  -0.196  1.00  0.00    -0.296 N 
ATOM      3  H4  UNL     1      -1.852  -2.104   0.159  1.00  0.00     0.167 HD
HETATM    4  C3  UNL     1      -2.492  -0.512  -1.192  1.00  0.00     0.324 A 
HETATM    5  O2  UNL     1      -3.485  -1.002  -1.816  1.00  0.00    -0.247 OA
HETATM    6  N5  UNL     1      -1.946   0.781  -1.360  1.00  0.00    -0.296 N 
ATOM      7  H5  UNL     1      -2.303   1.473  -2.018  1.00  0.00     0.171 HD
HETATM    8  C4  UNL     1      -0.949   0.974  -0.584  1.00  0.00     0.164 A 
HETATM    9  N6  UNL     1      -0.243   2.223  -0.589  1.00  0.00    -0.082 NA
ENDROOT
BRANCH   1  10
HETATM   10  C1  UNL     1       0.646  -0.807  -0.032  1.00  0.00     0.300 C 
HETATM   11  N2  UNL     1       1.835  -0.117   0.277  1.00  0.00    -0.273 N 
ATOM     12  H2  UNL     1       1.794   0.816   0.687  1.00  0.00     0.189 HD
HETATM   13  O1  UNL     1       0.686  -1.952  -0.534  1.00  0.00    -0.266 OA
BRANCH  11  14
HETATM   14  N1  UNL     1       3.058  -0.710   0.022  1.00  0.00    -0.342 N 
ATOM     15  H12 UNL     1       3.082  -1.644  -0.388  1.00  0.00     0.176 HD
ATOM     16  H11 UNL     1       3.919  -0.210   0.246  1.00  0.00     0.176 HD
ENDBRANCH  11  14
ENDBRANCH   1  10
BRANCH   1  17
HETATM   17  N3  UNL     1      -0.877   0.046   1.647  1.00  0.00    -0.036 N 
ATOM     18  H33 UNL     1      -0.708  -0.785   2.214  1.00  0.00     0.278 HD
ATOM     19  H32 UNL     1      -0.130   0.633   2.018  1.00  0.00     0.278 HD
ATOM     20  H31 UNL     1      -1.800   0.446   1.819  1.00  0.00     0.278 HD
ENDBRANCH   1  17
TORSDOF 3
