REMARK  3 active torsions:
REMARK  status: ('A' for Active; 'I' for Inactive)
REMARK    1  A    between atoms: N1_1  and  O1_4 
REMARK    2  A    between atoms: O1_4  and  C1_5 
REMARK       I    between atoms: C1_5  and  N2_7 
REMARK       I    between atoms: C2_9  and  N4_11 
REMARK    3  A    between atoms: N4_11  and  N5_13 
ROOT
HETATM    1  C1  UNL     1      -2.637  -0.061   0.185  1.00  0.00     0.388 C 
HETATM    2  O2  UNL     1      -3.239  -1.030  -0.351  1.00  0.00    -0.236 OA
HETATM    3  N2  UNL     1      -1.290  -0.176   0.600  1.00  0.00    -0.274 N 
ATOM      4  H2  UNL     1      -1.000   0.359   1.419  1.00  0.00     0.173 HD
HETATM    5  C2  UNL     1      -0.414  -0.897   0.027  1.00  0.00     0.211 C 
HETATM    6  N3  UNL     1      -0.790  -1.651  -1.117  1.00  0.00    -0.062 NA
HETATM    7  N4  UNL     1       0.934  -0.999   0.460  1.00  0.00    -0.271 N 
ATOM      8  H4  UNL     1       1.390  -1.907   0.548  1.00  0.00     0.189 HD
ENDROOT
BRANCH   7   9
HETATM    9  N5  UNL     1       1.610   0.171   0.759  1.00  0.00    -0.274 N 
HETATM   10  C3  UNL     1       2.777   0.473   0.311  1.00  0.00     0.215 C 
HETATM   11  N6  UNL     1       3.477  -0.397  -0.549  1.00  0.00    -0.065 NA
HETATM   12  N7  UNL     1       3.341   1.710   0.707  1.00  0.00    -0.065 NA
ATOM     13  H5  UNL     1       1.151   0.840   1.377  1.00  0.00     0.189 HD
ENDBRANCH   7   9
BRANCH   1  14
HETATM   14  O1  UNL     1      -3.325   1.126   0.360  1.00  0.00    -0.188 OA
BRANCH  14  15
HETATM   15  N1  UNL     1      -4.632   1.310  -0.018  1.00  0.00    -0.301 N 
ATOM     16  H12 UNL     1      -5.107   0.518  -0.450  1.00  0.00     0.184 HD
ATOM     17  H11 UNL     1      -5.139   2.185   0.111  1.00  0.00     0.184 HD
ENDBRANCH  14  15
ENDBRANCH   1  14
TORSDOF 3
