REMARK  4 active torsions:
REMARK  status: ('A' for Active; 'I' for Inactive)
REMARK    1  A    between atoms: C2_2  and  N1_3 
REMARK    2  A    between atoms: C2_2  and  C3_7 
REMARK       I    between atoms: C3_7  and  N2_9 
REMARK    3  A    between atoms: N2_9  and  N3_11 
REMARK       I    between atoms: N3_11  and  C4_13 
REMARK       I    between atoms: C4_13  and  N5_17 
REMARK    4  A    between atoms: N5_17  and  N6_19 
ROOT
HETATM    1  N3  UNL     1       1.173   1.120  -0.141  1.00  0.00    -0.129 N 
ATOM      2  H3  UNL     1       1.121   2.057  -0.542  1.00  0.00     0.205 HD
HETATM    3  C4  UNL     1       2.456   0.572   0.067  1.00  0.00     0.704 C 
HETATM    4  N4  UNL     1       3.159   1.020   1.037  1.00  0.00    -0.232 N 
ATOM      5  H41 UNL     1       4.087   0.624   1.187  1.00  0.00     0.174 HD
ATOM      6  H42 UNL     1       2.761   1.763   1.611  1.00  0.00     0.174 HD
HETATM    7  N5  UNL     1       3.009  -0.461  -0.731  1.00  0.00    -0.138 N 
ATOM      8  H5  UNL     1       2.760  -0.504  -1.719  1.00  0.00     0.205 HD
ENDROOT
BRANCH   1   9
HETATM    9  N2  UNL     1      -0.027   0.484   0.157  1.00  0.00    -0.254 N 
HETATM   10  C3  UNL     1      -1.038   0.393  -0.843  1.00  0.00     0.266 C 
HETATM   11  O1  UNL     1      -0.865   0.887  -2.005  1.00  0.00    -0.269 OA
ATOM     12  H2  UNL     1      -0.182   0.086   1.083  1.00  0.00     0.190 HD
BRANCH  10  13
HETATM   13  C2  UNL     1      -2.333  -0.288  -0.533  1.00  0.00     0.272 C 
HETATM   14  C1  UNL     1      -3.312   0.808  -0.125  1.00  0.00     0.050 C 
BRANCH  13  15
HETATM   15  N1  UNL     1      -2.162  -1.186   0.624  1.00  0.00    -0.067 N 
ATOM     16  H13 UNL     1      -1.876  -0.693   1.470  1.00  0.00     0.275 HD
ATOM     17  H12 UNL     1      -3.046  -1.554   0.975  1.00  0.00     0.275 HD
ATOM     18  H11 UNL     1      -1.507  -1.919   0.351  1.00  0.00     0.275 HD
ENDBRANCH  13  15
ENDBRANCH  10  13
ENDBRANCH   1   9
BRANCH   7  19
HETATM   19  N6  UNL     1       3.882  -1.422  -0.214  1.00  0.00    -0.331 N 
ATOM     20  H62 UNL     1       4.120  -1.364   0.776  1.00  0.00     0.177 HD
ATOM     21  H61 UNL     1       4.280  -2.165  -0.788  1.00  0.00     0.177 HD
ENDBRANCH   7  19
TORSDOF 4
