REMARK  2 active torsions:
REMARK  status: ('A' for Active; 'I' for Inactive)
REMARK       I    between atoms: N1_2  and  C2_4 
REMARK       I    between atoms: C2_4  and  N2_6 
REMARK    1  A    between atoms: N2_6  and  N3_8 
REMARK       I    between atoms: N3_8  and  C3_10 
REMARK    2  A    between atoms: C3_10  and  C4_12 
ROOT
HETATM    1  C1  UNL     1      -3.655   0.292   1.117  1.00  0.00     0.151 C 
HETATM    2  N1  UNL     1      -2.733   0.400   0.014  1.00  0.00    -0.346 N 
ATOM      3  H1  UNL     1      -3.091   0.420  -0.941  1.00  0.00     0.163 HD
HETATM    4  C2  UNL     1      -1.334   0.479   0.239  1.00  0.00     0.334 C 
HETATM    5  O1  UNL     1      -0.906   0.451   1.438  1.00  0.00    -0.246 OA
HETATM    6  N2  UNL     1      -0.423   0.587  -0.847  1.00  0.00    -0.249 N 
ATOM      7  H2  UNL     1      -0.790   0.607  -1.798  1.00  0.00     0.192 HD
ENDROOT
BRANCH   6   8
HETATM    8  N3  UNL     1       0.958   0.667  -0.655  1.00  0.00    -0.258 N 
HETATM    9  C3  UNL     1       1.733  -0.401  -0.140  1.00  0.00     0.325 C 
HETATM   10  O2  UNL     1       1.175  -1.486   0.168  1.00  0.00    -0.261 OA
ATOM     11  H3  UNL     1       1.432   1.537  -0.898  1.00  0.00     0.190 HD
BRANCH   9  12
HETATM   12  C4  UNL     1       3.168  -0.290   0.049  1.00  0.00     0.324 C 
HETATM   13  N4  UNL     1       3.973  -1.337   0.560  1.00  0.00    -0.053 NA
HETATM   14  O3  UNL     1       3.725   0.790  -0.256  1.00  0.00    -0.266 OA
ENDBRANCH   9  12
ENDBRANCH   6   8
TORSDOF 2
