REMARK  3 active torsions:
REMARK  status: ('A' for Active; 'I' for Inactive)
REMARK    1  A    between atoms: C3_5  and  C4_6 
REMARK    2  A    between atoms: C4_6  and  N2_7 
REMARK    3  A    between atoms: N2_7  and  N3_9 
ROOT
HETATM    1  C1  UNL     1      -3.037  -1.440   0.479  1.00  0.00     0.047 C 
HETATM    2  C2  UNL     1      -2.029  -0.568   0.336  1.00  0.00     0.080 A 
HETATM    3  N1  UNL     1      -0.749  -0.953   0.475  1.00  0.00    -0.339 N 
ATOM      4  H1  UNL     1      -0.563  -1.932   0.694  1.00  0.00     0.167 HD
HETATM    5  C3  UNL     1       0.288  -0.132   0.344  1.00  0.00     0.125 A 
HETATM    6  N4  UNL     1       0.045   1.154   0.057  1.00  0.00    -0.305 N 
ATOM      7  H4  UNL     1       0.826   1.802  -0.048  1.00  0.00     0.170 HD
HETATM    8  C5  UNL     1      -1.220   1.605  -0.096  1.00  0.00     0.299 A 
HETATM    9  O1  UNL     1      -1.470   2.790  -0.362  1.00  0.00    -0.264 OA
HETATM   10  C6  UNL     1      -2.307   0.738   0.042  1.00  0.00     0.265 A 
HETATM   11  O2  UNL     1      -3.477   1.185  -0.106  1.00  0.00    -0.280 OA
ENDROOT
BRANCH   5  12
HETATM   12  C4  UNL     1       1.538  -0.552   0.490  1.00  0.00     0.155 C 
BRANCH  12  13
HETATM   13  N2  UNL     1       2.639   0.305   0.354  1.00  0.00    -0.315 N 
ATOM     14  H2  UNL     1       2.765   1.079   1.006  1.00  0.00     0.185 HD
BRANCH  13  15
HETATM   15  N3  UNL     1       3.556   0.103  -0.665  1.00  0.00    -0.345 N 
ATOM     16  H32 UNL     1       3.415  -0.675  -1.309  1.00  0.00     0.176 HD
ATOM     17  H31 UNL     1       4.357   0.727  -0.764  1.00  0.00     0.176 HD
ENDBRANCH  13  15
ENDBRANCH  12  13
ENDBRANCH   5  12
TORSDOF 3
