REMARK  5 active torsions:
REMARK  status: ('A' for Active; 'I' for Inactive)
REMARK    1  A    between atoms: N1_1  and  C1_4 
REMARK    2  A    between atoms: C2_7  and  C3_8 
REMARK    3  A    between atoms: C3_8  and  N3_9 
REMARK    4  A    between atoms: C3_8  and  N4_13 
REMARK    5  A    between atoms: C5_21  and  N6_22 
ROOT
HETATM    1  C1  UNL     1       1.283   1.366  -0.429  1.00  0.00     0.690 C 
HETATM    2  N2  UNL     1      -0.033   1.038  -0.285  1.00  0.00    -0.186 N 
ATOM      3  H2  UNL     1      -0.687   1.799  -0.469  1.00  0.00     0.184 HD
HETATM    4  C2  UNL     1      -0.606  -0.127   0.060  1.00  0.00     0.152 C 
HETATM    5  C4  UNL     1       0.059  -1.223   0.566  1.00  0.00     0.286 C 
HETATM    6  O1  UNL     1      -0.654  -2.159   0.999  1.00  0.00    -0.265 OA
HETATM    7  N5  UNL     1       1.387  -1.476   0.683  1.00  0.00    -0.154 N 
ATOM      8  H5  UNL     1       1.657  -2.298   1.223  1.00  0.00     0.187 HD
HETATM    9  C5  UNL     1       2.383  -0.738   0.149  1.00  0.00     0.693 C 
HETATM   10  N7  UNL     1       2.340   0.550  -0.267  1.00  0.00    -0.023 N 
ATOM     11  H7  UNL     1       3.245   0.963  -0.491  1.00  0.00     0.203 HD
ENDROOT
BRANCH   4  12
HETATM   12  C3  UNL     1      -2.075  -0.259  -0.115  1.00  0.00     0.433 C 
BRANCH  12  13
HETATM   13  N3  UNL     1      -2.475   0.276  -1.428  1.00  0.00    -0.045 N 
ATOM     14  H33 UNL     1      -2.158   1.236  -1.562  1.00  0.00     0.277 HD
ATOM     15  H32 UNL     1      -1.958  -0.159  -2.192  1.00  0.00     0.277 HD
ATOM     16  H31 UNL     1      -3.484   0.185  -1.548  1.00  0.00     0.277 HD
ENDBRANCH  12  13
BRANCH  12  17
HETATM   17  N4  UNL     1      -2.790   0.451   0.920  1.00  0.00    -0.045 N 
ATOM     18  H43 UNL     1      -2.495   0.155   1.850  1.00  0.00     0.277 HD
ATOM     19  H42 UNL     1      -2.505   1.429   0.970  1.00  0.00     0.277 HD
ATOM     20  H41 UNL     1      -3.799   0.360   0.800  1.00  0.00     0.277 HD
ENDBRANCH  12  17
ENDBRANCH   4  12
BRANCH   1  21
HETATM   21  N1  UNL     1       1.567   2.582  -0.755  1.00  0.00    -0.234 N 
ATOM     22  H12 UNL     1       0.765   3.201  -0.878  1.00  0.00     0.174 HD
ATOM     23  H11 UNL     1       2.551   2.827  -0.863  1.00  0.00     0.174 HD
ENDBRANCH   1  21
BRANCH   9  24
HETATM   24  N6  UNL     1       3.543  -1.295  -0.001  1.00  0.00    -0.234 N 
ATOM     25  H62 UNL     1       3.575  -2.265   0.312  1.00  0.00     0.174 HD
ATOM     26  H61 UNL     1       4.296  -0.737  -0.405  1.00  0.00     0.174 HD
ENDBRANCH   9  24
TORSDOF 5
