REMARK  3 active torsions:
REMARK  status: ('A' for Active; 'I' for Inactive)
REMARK    1  A    between atoms: C1_4  and  O1_6 
REMARK    2  A    between atoms: O1_6  and  C2_7 
REMARK    3  A    between atoms: C2_7  and  C3_8 
ROOT
HETATM    1  C2  UNL     1      -0.052   0.124   0.004  1.00  0.00     0.335 C 
HETATM    2  C4  UNL     1      -1.168   0.305   1.038  1.00  0.00     0.311 C 
HETATM    3  N4  UNL     1      -1.369  -0.974   1.664  1.00  0.00    -0.069 N 
ATOM      4  H41 UNL     1      -1.907  -0.875   2.525  1.00  0.00     0.277 HD
ATOM      5  H42 UNL     1      -0.495  -1.329   2.051  1.00  0.00     0.277 HD
HETATM    6  C5  UNL     1      -1.976  -1.951   0.790  1.00  0.00     0.260 C 
HETATM    7  C6  UNL     1      -1.478  -1.720  -0.595  1.00  0.00     0.264 C 
HETATM    8  N5  UNL     1      -0.129  -1.160  -0.633  1.00  0.00    -0.030 N 
ATOM      9  H51 UNL     1       0.550  -1.809  -0.236  1.00  0.00     0.281 HD
ATOM     10  H52 UNL     1       0.225  -1.118  -1.589  1.00  0.00     0.281 HD
ENDROOT
BRANCH   1  11
HETATM   11  O1  UNL     1       1.147   0.365   0.671  1.00  0.00    -0.275 OA
BRANCH  11  12
HETATM   12  C1  UNL     1       2.357   0.406   0.003  1.00  0.00     0.227 C 
HETATM   13  N1  UNL     1       2.330   0.139  -1.246  1.00  0.00    -0.368 N 
ATOM     14  H12 UNL     1       3.223   0.169  -1.739  1.00  0.00     0.159 HD
ATOM     15  H11 UNL     1       1.442  -0.088  -1.693  1.00  0.00     0.159 HD
HETATM   16  N2  UNL     1       3.594   0.722   0.625  1.00  0.00    -0.057 NA
ENDBRANCH  11  12
ENDBRANCH   1  11
BRANCH   1  17
HETATM   17  C3  UNL     1      -0.278   1.181  -1.027  1.00  0.00     0.297 C 
HETATM   18  N3  UNL     1      -0.266   2.566  -0.721  1.00  0.00    -0.058 NA
HETATM   19  O2  UNL     1      -0.496   0.878  -2.241  1.00  0.00    -0.271 OA
ENDBRANCH   1  17
TORSDOF 3
