REMARK  2 active torsions:
REMARK  status: ('A' for Active; 'I' for Inactive)
REMARK    1  A    between atoms: C5_10  and  N5_11 
REMARK       I    between atoms: N5_11  and  C6_13 
REMARK       I    between atoms: C6_13  and  N7_17 
REMARK    2  A    between atoms: N7_17  and  N8_19 
ROOT
HETATM    1  N1  UNL     1       0.758  -3.167  -0.201  1.00  0.00    -0.170 NA
HETATM    2  C1  UNL     1       0.145  -2.198  -0.048  1.00  0.00     0.217 C 
HETATM    3  N2  UNL     1      -0.591  -0.995   0.127  1.00  0.00    -0.020 N 
HETATM    4  N3  UNL     1      -1.622  -1.128   1.044  1.00  0.00    -0.109 NA
HETATM    5  C2  UNL     1      -2.839  -0.613   0.502  1.00  0.00     0.138 C 
HETATM    6  C3  UNL     1      -2.787   0.906   0.643  1.00  0.00     0.038 C 
HETATM    7  C4  UNL     1      -2.266   1.455  -0.637  1.00  0.00     0.139 C 
HETATM    8  N4  UNL     1      -0.907   1.143  -0.932  1.00  0.00    -0.223 N 
ATOM      9  H4  UNL     1      -0.419   1.848  -1.485  1.00  0.00     0.177 HD
HETATM   10  C5  UNL     1      -0.196   0.123  -0.618  1.00  0.00     0.720 C 
ENDROOT
BRANCH  10  11
HETATM   11  N5  UNL     1       1.149   0.094  -1.064  1.00  0.00    -0.019 N 
HETATM   12  C6  UNL     1       2.221   0.714  -0.385  1.00  0.00     0.704 C 
HETATM   13  N6  UNL     1       2.070   1.810   0.269  1.00  0.00    -0.233 N 
HETATM   14  N7  UNL     1       3.500   0.110  -0.428  1.00  0.00    -0.139 N 
ATOM     15  H62 UNL     1       1.148   2.245   0.300  1.00  0.00     0.174 HD
ATOM     16  H61 UNL     1       2.844   2.258   0.759  1.00  0.00     0.174 HD
ATOM     17  H7  UNL     1       4.183   0.382  -1.135  1.00  0.00     0.205 HD
ATOM     18  H5  UNL     1       1.356  -0.406  -1.929  1.00  0.00     0.203 HD
BRANCH  14  19
HETATM   19  N8  UNL     1       3.803  -0.865   0.519  1.00  0.00    -0.331 N 
ATOM     20  H82 UNL     1       3.109  -1.126   1.220  1.00  0.00     0.177 HD
ATOM     21  H81 UNL     1       4.725  -1.300   0.488  1.00  0.00     0.177 HD
ENDBRANCH  14  19
ENDBRANCH  10  11
TORSDOF 2
