REMARK  2 active torsions:
REMARK  status: ('A' for Active; 'I' for Inactive)
REMARK    1  A    between atoms: C2_3  and  N2_4 
REMARK    2  A    between atoms: C3_9  and  N4_10 
REMARK       I    between atoms: N4_10  and  C4_12 
ROOT
HETATM    1  C1  UNL     1      -3.395   0.732  -0.595  1.00  0.00     0.180 C 
HETATM    2  N1  UNL     1      -2.053   0.248  -0.252  1.00  0.00    -0.136 N 
HETATM    3  C2  UNL     1      -1.881  -0.788   0.596  1.00  0.00     0.696 A 
HETATM    4  N3  UNL     1      -0.624  -1.185   0.871  1.00  0.00    -0.022 N 
ATOM      5  H3  UNL     1      -0.495  -1.968   1.511  1.00  0.00     0.203 HD
HETATM    6  C3  UNL     1       0.463  -0.610   0.352  1.00  0.00     0.703 A 
HETATM    7  N7  UNL     1       0.289   0.424  -0.493  1.00  0.00    -0.140 N 
ATOM      8  H7  UNL     1       1.094   0.891  -0.910  1.00  0.00     0.189 HD
HETATM    9  C5  UNL     1      -0.961   0.834  -0.780  1.00  0.00     0.354 A 
HETATM   10  O1  UNL     1      -1.083   1.807  -1.577  1.00  0.00    -0.245 OA
ENDROOT
BRANCH   6  11
HETATM   11  N4  UNL     1       1.776  -1.074   0.680  1.00  0.00    -0.163 N 
HETATM   12  C4  UNL     1       2.912  -0.446   0.115  1.00  0.00     0.200 C 
HETATM   13  N5  UNL     1       3.632  -1.026  -0.782  1.00  0.00    -0.373 N 
HETATM   14  N6  UNL     1       3.311   0.858   0.517  1.00  0.00    -0.063 NA
ATOM     15  H52 UNL     1       3.346  -1.962  -1.070  1.00  0.00     0.158 HD
ATOM     16  H51 UNL     1       4.450  -0.574  -1.189  1.00  0.00     0.158 HD
ATOM     17  H4  UNL     1       1.894  -1.858   1.322  1.00  0.00     0.187 HD
ENDBRANCH   6  11
BRANCH   3  18
HETATM   18  N2  UNL     1      -2.919  -1.363   1.112  1.00  0.00    -0.234 N 
ATOM     19  H22 UNL     1      -3.871  -1.062   0.904  1.00  0.00     0.174 HD
ATOM     20  H21 UNL     1      -2.789  -2.146   1.753  1.00  0.00     0.174 HD
ENDBRANCH   3  18
TORSDOF 2
