REMARK  3 active torsions:
REMARK  status: ('A' for Active; 'I' for Inactive)
REMARK    1  A    between atoms: N1_1  and  C1_4 
REMARK    2  A    between atoms: C2_7  and  N3_8 
REMARK    3  A    between atoms: C7_17  and  N6_18 
ROOT
HETATM    1  C1  UNL     1       2.829  -0.998  -0.658  1.00  0.00     0.705 A 
HETATM    2  N2  UNL     1       1.484  -0.835  -0.827  1.00  0.00    -0.022 N 
ATOM      3  H2  UNL     1       1.003  -1.363  -1.555  1.00  0.00     0.203 HD
HETATM    4  C2  UNL     1       0.783   0.009  -0.051  1.00  0.00     0.709 A 
HETATM    5  N5  UNL     1       1.447   0.683   0.889  1.00  0.00    -0.022 N 
ATOM      6  H5  UNL     1       0.930   1.328   1.486  1.00  0.00     0.203 HD
HETATM    7  C7  UNL     1       2.788   0.544   1.083  1.00  0.00     0.705 A 
HETATM    8  N7  UNL     1       3.475  -0.306   0.297  1.00  0.00    -0.022 N 
ATOM      9  H7  UNL     1       4.480  -0.424   0.425  1.00  0.00     0.203 HD
ENDROOT
BRANCH   4  10
HETATM   10  N3  UNL     1      -0.620   0.202  -0.200  1.00  0.00    -0.214 N 
HETATM   11  C3  UNL     1      -1.328   1.125   0.664  1.00  0.00     0.160 C 
HETATM   12  C4  UNL     1      -2.813   0.924   0.481  1.00  0.00     0.134 C 
HETATM   13  N4  UNL     1      -3.196  -0.452   0.467  1.00  0.00    -0.418 N 
HETATM   14  C5  UNL     1      -2.477  -1.270  -0.456  1.00  0.00     0.134 C 
ATOM     15  H4  UNL     1      -3.929  -0.823   1.072  1.00  0.00     0.153 HD
HETATM   16  C6  UNL     1      -1.403  -0.495  -1.198  1.00  0.00     0.160 C 
ENDBRANCH   4  10
BRANCH   1  17
HETATM   17  N1  UNL     1       3.492  -1.817  -1.416  1.00  0.00    -0.234 N 
ATOM     18  H12 UNL     1       3.002  -2.342  -2.140  1.00  0.00     0.174 HD
ATOM     19  H11 UNL     1       4.497  -1.939  -1.290  1.00  0.00     0.174 HD
ENDBRANCH   1  17
BRANCH   7  20
HETATM   20  N6  UNL     1       3.414   1.205   1.998  1.00  0.00    -0.234 N 
ATOM     21  H62 UNL     1       2.893   1.849   2.594  1.00  0.00     0.174 HD
ATOM     22  H61 UNL     1       4.418   1.101   2.143  1.00  0.00     0.174 HD
ENDBRANCH   7  20
TORSDOF 3
