REMARK  4 active torsions:
REMARK  status: ('A' for Active; 'I' for Inactive)
REMARK    1  A    between atoms: C4_7  and  N3_8 
REMARK    2  A    between atoms: N3_8  and  N4_10 
REMARK       I    between atoms: N4_10  and  C5_12 
REMARK       I    between atoms: C5_12  and  N6_16 
REMARK    3  A    between atoms: N6_16  and  N7_18 
REMARK    4  A    between atoms: N7_18  and  N8_19 
ROOT
HETATM    1  N4  UNL     1       0.875   0.953  -0.767  1.00  0.00    -0.117 N 
ATOM      2  H4  UNL     1       0.559   1.001  -1.736  1.00  0.00     0.206 HD
HETATM    3  C5  UNL     1       2.031   1.691  -0.388  1.00  0.00     0.704 C 
HETATM    4  N5  UNL     1       1.986   2.973  -0.514  1.00  0.00    -0.232 N 
ATOM      5  H51 UNL     1       2.815   3.502  -0.242  1.00  0.00     0.174 HD
ATOM      6  H52 UNL     1       1.145   3.425  -0.873  1.00  0.00     0.174 HD
HETATM    7  N6  UNL     1       3.203   1.061   0.113  1.00  0.00    -0.116 N 
ATOM      8  H6  UNL     1       3.793   1.569   0.772  1.00  0.00     0.203 HD
ENDROOT
BRANCH   1   9
HETATM    9  N3  UNL     1       0.156   0.165   0.136  1.00  0.00    -0.118 N 
ATOM     10  H3  UNL     1       0.666  -0.483   0.736  1.00  0.00     0.206 HD
BRANCH   9  11
HETATM   11  C4  UNL     1      -1.272   0.234   0.250  1.00  0.00     0.690 A 
HETATM   12  N1  UNL     1      -2.127  -0.898   0.294  1.00  0.00    -0.220 N 
HETATM   13  C1  UNL     1      -1.678  -2.271   0.222  1.00  0.00     0.168 C 
HETATM   14  C2  UNL     1      -3.505  -0.492   0.418  1.00  0.00     0.161 A 
HETATM   15  C3  UNL     1      -3.400   1.007   0.433  1.00  0.00     0.158 A 
HETATM   16  N2  UNL     1      -1.990   1.280   0.328  1.00  0.00    -0.223 N 
ATOM     17  H2  UNL     1      -1.604   2.224   0.317  1.00  0.00     0.177 HD
ENDBRANCH   9  11
ENDBRANCH   1   9
BRANCH   7  18
HETATM   18  N7  UNL     1       3.570  -0.219  -0.264  1.00  0.00    -0.015 NA
BRANCH  18  19
HETATM   19  N8  UNL     1       4.276  -0.885   0.768  1.00  0.00    -0.328 N 
ATOM     20  H82 UNL     1       4.481  -0.460   1.672  1.00  0.00     0.174 HD
ATOM     21  H81 UNL     1       4.546  -1.828   0.490  1.00  0.00     0.174 HD
ENDBRANCH  18  19
ENDBRANCH   7  18
TORSDOF 4
