REMARK  2 active torsions:
REMARK  status: ('A' for Active; 'I' for Inactive)
REMARK    1  A    between atoms: N1_1  and  C1_4 
REMARK    2  A    between atoms: C3_9  and  N4_10 
ROOT
HETATM    1  C1  UNL     1       3.112   0.185  -0.381  1.00  0.00     0.680 A 
HETATM    2  N2  UNL     1       2.457   0.695   0.676  1.00  0.00    -0.177 N 
ATOM      3  H2  UNL     1       2.982   1.139   1.429  1.00  0.00     0.185 HD
HETATM    4  C2  UNL     1       1.098   0.625   0.751  1.00  0.00     0.165 A 
HETATM    5  N3  UNL     1       0.382   1.160   1.864  1.00  0.00    -0.079 NA
HETATM    6  C3  UNL     1       0.357   0.031  -0.249  1.00  0.00     0.159 A 
HETATM    7  C6  UNL     1       1.040  -0.489  -1.327  1.00  0.00     0.291 A 
HETATM    8  O1  UNL     1       0.385  -1.043  -2.264  1.00  0.00    -0.265 OA
HETATM    9  N7  UNL     1       2.377  -0.391  -1.348  1.00  0.00    -0.154 N 
ATOM     10  H7  UNL     1       2.870  -0.780  -2.152  1.00  0.00     0.187 HD
ENDROOT
BRANCH   6  11
HETATM   11  N4  UNL     1      -1.056  -0.033  -0.152  1.00  0.00    -0.270 N 
HETATM   12  C4  UNL     1      -1.799  -1.115   0.462  1.00  0.00     0.164 C 
HETATM   13  C5  UNL     1      -3.159  -0.471   0.639  1.00  0.00     0.153 C 
HETATM   14  N5  UNL     1      -3.223   0.323  -0.591  1.00  0.00    -0.124 NA
HETATM   15  N6  UNL     1      -1.952   0.928  -0.629  1.00  0.00    -0.029 NA
ENDBRANCH   6  11
BRANCH   1  16
HETATM   16  N1  UNL     1       4.400   0.254  -0.448  1.00  0.00    -0.234 N 
ATOM     17  H12 UNL     1       4.958   0.691   0.286  1.00  0.00     0.174 HD
ATOM     18  H11 UNL     1       4.897  -0.133  -1.250  1.00  0.00     0.174 HD
ENDBRANCH   1  16
TORSDOF 2
