REMARK  4 active torsions:
REMARK  status: ('A' for Active; 'I' for Inactive)
REMARK    1  A    between atoms: N1_1  and  C1_4 
REMARK    2  A    between atoms: C2_7  and  C3_8 
REMARK       I    between atoms: C3_8  and  N3_10 
REMARK    3  A    between atoms: N3_10  and  N4_12 
REMARK    4  A    between atoms: C5_21  and  N7_22 
ROOT
HETATM    1  C1  UNL     1      -1.394  -1.020   0.439  1.00  0.00     0.145 C 
HETATM    2  N2  UNL     1      -0.056  -0.777   0.488  1.00  0.00    -0.321 N 
ATOM      3  H2  UNL     1       0.524  -1.572   0.756  1.00  0.00     0.169 HD
HETATM    4  C2  UNL     1       0.609   0.364   0.233  1.00  0.00     0.181 C 
HETATM    5  N5  UNL     1       0.046   1.552  -0.043  1.00  0.00    -0.290 N 
ATOM      6  H5  UNL     1       0.685   2.347  -0.006  1.00  0.00     0.172 HD
HETATM    7  C4  UNL     1      -1.237   1.867  -0.364  1.00  0.00     0.327 C 
HETATM    8  O2  UNL     1      -1.478   3.012  -0.822  1.00  0.00    -0.247 OA
HETATM    9  N6  UNL     1      -2.334   1.097  -0.257  1.00  0.00    -0.292 N 
ATOM     10  H6  UNL     1      -3.223   1.586  -0.361  1.00  0.00     0.172 HD
HETATM   11  C5  UNL     1      -2.427  -0.237  -0.030  1.00  0.00     0.147 C 
ENDROOT
BRANCH   4  12
HETATM   12  C3  UNL     1       2.071   0.308   0.259  1.00  0.00     0.303 C 
HETATM   13  O1  UNL     1       2.703   1.369   0.022  1.00  0.00    -0.263 OA
HETATM   14  N3  UNL     1       2.786  -0.878   0.535  1.00  0.00    -0.270 N 
ATOM     15  H3  UNL     1       2.277  -1.741   0.727  1.00  0.00     0.189 HD
BRANCH  14  16
HETATM   16  N4  UNL     1       4.177  -0.881   0.548  1.00  0.00    -0.342 N 
ATOM     17  H42 UNL     1       4.670  -0.009   0.354  1.00  0.00     0.176 HD
ATOM     18  H41 UNL     1       4.693  -1.738   0.747  1.00  0.00     0.176 HD
ENDBRANCH  14  16
ENDBRANCH   4  12
BRANCH   1  19
HETATM   19  N1  UNL     1      -1.769  -2.158   0.899  1.00  0.00    -0.382 N 
ATOM     20  H12 UNL     1      -1.005  -2.737   1.246  1.00  0.00     0.157 HD
ATOM     21  H11 UNL     1      -2.772  -2.340   0.862  1.00  0.00     0.157 HD
ENDBRANCH   1  19
BRANCH  11  22
HETATM   22  N7  UNL     1      -3.561  -0.796  -0.272  1.00  0.00    -0.382 N 
ATOM     23  H72 UNL     1      -3.631  -1.799  -0.101  1.00  0.00     0.157 HD
ATOM     24  H71 UNL     1      -4.325  -0.217  -0.619  1.00  0.00     0.157 HD
ENDBRANCH  11  22
TORSDOF 4
