REMARK  4 active torsions:
REMARK  status: ('A' for Active; 'I' for Inactive)
REMARK    1  A    between atoms: N1_1  and  C1_4 
REMARK    2  A    between atoms: C3_13  and  C4_14 
REMARK       I    between atoms: C4_14  and  N6_16 
REMARK    3  A    between atoms: N6_16  and  N7_18 
REMARK    4  A    between atoms: N7_18  and  N8_19 
ROOT
HETATM    1  C1  UNL     1      -1.918   0.708   0.493  1.00  0.00     0.146 A 
HETATM    2  N2  UNL     1      -3.240   0.642   0.120  1.00  0.00    -0.268 N 
ATOM      3  H2  UNL     1      -3.964   1.324   0.345  1.00  0.00     0.190 HD
HETATM    4  N3  UNL     1      -3.400  -0.455  -0.577  1.00  0.00    -0.219 N 
ATOM      5  H3  UNL     1      -4.283  -0.763  -0.984  1.00  0.00     0.210 HD
HETATM    6  N4  UNL     1      -2.252  -1.107  -0.678  1.00  0.00    -0.178 N 
HETATM    7  N5  UNL     1      -1.706  -2.212  -1.180  1.00  0.00    -0.288 N 
ATOM      8  H5  UNL     1      -2.202  -2.921  -1.720  1.00  0.00     0.188 HD
HETATM    9  C2  UNL     1      -0.403  -2.248  -0.865  1.00  0.00     0.129 A 
HETATM   10  C3  UNL     1      -0.095  -1.110  -0.121  1.00  0.00     0.084 A 
HETATM   11  C5  UNL     1      -1.272  -0.418  -0.020  1.00  0.00     0.138 A 
ENDROOT
BRANCH  10  12
HETATM   12  C4  UNL     1       1.234  -0.788   0.333  1.00  0.00     0.272 C 
HETATM   13  O1  UNL     1       2.020  -1.710   0.770  1.00  0.00    -0.266 OA
HETATM   14  N6  UNL     1       1.821   0.522   0.355  1.00  0.00    -0.250 N 
ATOM     15  H6  UNL     1       1.265   1.304   0.009  1.00  0.00     0.187 HD
BRANCH  14  16
HETATM   16  N7  UNL     1       3.099   0.784   0.819  1.00  0.00    -0.027 NA
BRANCH  16  17
HETATM   17  N8  UNL     1       3.788   1.609  -0.060  1.00  0.00    -0.329 N 
ATOM     18  H82 UNL     1       3.391   1.967  -0.929  1.00  0.00     0.174 HD
ATOM     19  H81 UNL     1       4.729   1.802   0.282  1.00  0.00     0.174 HD
ENDBRANCH  16  17
ENDBRANCH  14  16
ENDBRANCH  10  12
BRANCH   1  20
HETATM   20  N1  UNL     1      -1.385   1.604   1.193  1.00  0.00    -0.382 N 
ATOM     21  H12 UNL     1      -1.857   2.427   1.568  1.00  0.00     0.157 HD
ATOM     22  H11 UNL     1      -0.404   1.653   1.470  1.00  0.00     0.157 HD
ENDBRANCH   1  20
TORSDOF 4
