REMARK  4 active torsions:
REMARK  status: ('A' for Active; 'I' for Inactive)
REMARK    1  A    between atoms: O1_2  and  C2_3 
REMARK    2  A    between atoms: C2_3  and  C3_5 
REMARK    3  A    between atoms: C3_5  and  O3_6 
REMARK    4  A    between atoms: C5_14  and  O5_15 
ROOT
HETATM    1  C3  UNL     1      -0.264   0.004   0.517  1.00  0.00     0.252 C 
HETATM    2  C4  UNL     1      -0.102   1.476   0.399  1.00  0.00     0.137 C 
HETATM    3  N1  UNL     1      -1.189   2.211  -0.083  1.00  0.00    -0.292 N 
ATOM      4  H1  UNL     1      -1.120   3.226  -0.159  1.00  0.00     0.187 HD
HETATM    5  N2  UNL     1      -2.323   1.590  -0.446  1.00  0.00    -0.203 N 
ATOM      6  H2  UNL     1      -3.104   2.126  -0.825  1.00  0.00     0.216 HD
HETATM    7  O4  UNL     1      -2.420   0.289  -0.310  1.00  0.00    -0.205 OA
HETATM    8  C5  UNL     1      -1.280  -0.440  -0.515  1.00  0.00     0.325 C 
HETATM    9  C6  UNL     1      -1.597  -1.855  -0.242  1.00  0.00     0.135 C 
HETATM   10  N3  UNL     1      -1.848  -2.960  -0.010  1.00  0.00    -0.191 NA
ENDROOT
BRANCH   8  11
HETATM   11  O5  UNL     1      -0.756  -0.338  -1.791  1.00  0.00    -0.350 OA
ATOM     12  H5  UNL     1      -1.393  -0.616  -2.438  1.00  0.00     0.214 HD
ENDBRANCH   8  11
BRANCH   1  13
HETATM   13  C2  UNL     1       1.063  -0.672   0.295  1.00  0.00     0.305 C 
HETATM   14  O2  UNL     1       1.537  -1.402   1.208  1.00  0.00    -0.261 OA
BRANCH  13  15
HETATM   15  O1  UNL     1       1.759  -0.504  -0.877  1.00  0.00    -0.324 OA
HETATM   16  C1  UNL     1       3.018  -1.126  -1.126  1.00  0.00     0.213 C 
ENDBRANCH  13  15
ENDBRANCH   1  13
BRANCH   1  17
HETATM   17  O3  UNL     1      -0.755  -0.323   1.767  1.00  0.00    -0.369 OA
ATOM     18  H3  UNL     1      -1.592   0.104   1.907  1.00  0.00     0.212 HD
ENDBRANCH   1  17
TORSDOF 4
