REMARK  4 active torsions:
REMARK  status: ('A' for Active; 'I' for Inactive)
REMARK       I    between atoms: C2_2  and  N1_4 
REMARK    1  A    between atoms: N1_4  and  O2_6 
REMARK    2  A    between atoms: O2_6  and  C3_7 
REMARK       I    between atoms: C3_7  and  N2_9 
REMARK    3  A    between atoms: N4_13  and  O5_14 
REMARK    4  A    between atoms: O5_14  and  N5_15 
ROOT
HETATM    1  C3  UNL     1       0.058  -0.440   0.682  1.00  0.00     0.427 C 
HETATM    2  O3  UNL     1       0.608  -1.174   1.578  1.00  0.00    -0.232 OA
HETATM    3  N2  UNL     1      -1.308  -0.500   0.402  1.00  0.00    -0.074 N 
HETATM    4  O4  UNL     1      -2.238  -1.275   0.995  1.00  0.00    -0.238 OA
HETATM    5  C4  UNL     1      -3.083  -1.657  -0.053  1.00  0.00     0.336 C 
HETATM    6  N3  UNL     1      -2.679  -0.859  -1.215  1.00  0.00    -0.085 NA
HETATM    7  N4  UNL     1      -2.011   0.218  -0.553  1.00  0.00     0.050 NA
ENDROOT
BRANCH   1   8
HETATM    8  O2  UNL     1       0.921   0.419   0.014  1.00  0.00    -0.176 OA
BRANCH   8   9
HETATM    9  N1  UNL     1       2.247   0.456   0.308  1.00  0.00    -0.225 N 
HETATM   10  C2  UNL     1       3.288   0.352  -0.634  1.00  0.00     0.237 C 
HETATM   11  C1  UNL     1       4.701   0.394  -0.208  1.00  0.00     0.119 C 
HETATM   12  O1  UNL     1       3.025   0.220  -1.854  1.00  0.00    -0.272 OA
ATOM     13  H1  UNL     1       2.509   0.568   1.288  1.00  0.00     0.198 HD
ENDBRANCH   8   9
ENDBRANCH   1   8
BRANCH   7  14
HETATM   14  O5  UNL     1      -3.007   0.866   0.135  1.00  0.00    -0.149 OA
BRANCH  14  15
HETATM   15  N5  UNL     1      -3.163   2.125  -0.311  1.00  0.00    -0.288 N 
ATOM     16  H52 UNL     1      -2.606   2.531  -1.063  1.00  0.00     0.186 HD
ATOM     17  H51 UNL     1      -3.903   2.606   0.200  1.00  0.00     0.186 HD
ENDBRANCH  14  15
ENDBRANCH   7  14
TORSDOF 4
