REMARK  3 active torsions:
REMARK  status: ('A' for Active; 'I' for Inactive)
REMARK    1  A    between atoms: N1_2  and  N2_4 
REMARK    2  A    between atoms: N2_4  and  C2_6 
REMARK    3  A    between atoms: N5_11  and  N6_12 
ROOT
HETATM    1  C2  UNL     1      -0.507   0.348  -0.396  1.00  0.00     0.153 A 
HETATM    2  C3  UNL     1       0.224  -0.737   0.030  1.00  0.00     0.135 A 
HETATM    3  N3  UNL     1      -0.379  -2.011   0.149  1.00  0.00    -0.095 NA
HETATM    4  C4  UNL     1       1.580  -0.643   0.361  1.00  0.00     0.170 A 
HETATM    5  N4  UNL     1       2.319  -1.770   0.799  1.00  0.00    -0.078 NA
HETATM    6  N5  UNL     1       2.152   0.567   0.247  1.00  0.00    -0.196 N 
HETATM    7  C5  UNL     1       1.439   1.637  -0.172  1.00  0.00     0.350 A 
HETATM    8  O1  UNL     1       2.044   2.743  -0.256  1.00  0.00    -0.244 OA
HETATM    9  N7  UNL     1       0.146   1.549  -0.489  1.00  0.00    -0.285 N 
HETATM   10  C6  UNL     1      -0.626   2.676  -0.934  1.00  0.00     0.163 C 
ENDROOT
BRANCH   1  11
HETATM   11  N2  UNL     1      -1.754   0.312  -0.711  1.00  0.00    -0.288 N 
ATOM     12  H2  UNL     1      -2.203   1.176  -1.015  1.00  0.00     0.188 HD
BRANCH  11  13
HETATM   13  N1  UNL     1      -2.509  -0.835  -0.657  1.00  0.00    -0.339 N 
HETATM   14  C1  UNL     1      -3.508  -0.960   0.420  1.00  0.00     0.167 C 
ATOM     15  H1  UNL     1      -2.382  -1.579  -1.343  1.00  0.00     0.179 HD
ENDBRANCH  11  13
ENDBRANCH   1  11
BRANCH   6  16
HETATM   16  N6  UNL     1       3.506   0.664   0.577  1.00  0.00    -0.333 N 
ATOM     17  H62 UNL     1       4.044  -0.143   0.893  1.00  0.00     0.177 HD
ATOM     18  H61 UNL     1       3.940   1.583   0.490  1.00  0.00     0.177 HD
ENDBRANCH   6  16
TORSDOF 3
