REMARK  5 active torsions:
REMARK  status: ('A' for Active; 'I' for Inactive)
REMARK    1  A    between atoms: N1_2  and  C2_4 
REMARK    2  A    between atoms: C2_4  and  C3_5 
REMARK    3  A    between atoms: N2_6  and  C4_8 
REMARK    4  A    between atoms: C5_11  and  N4_12 
REMARK    5  A    between atoms: N8_21  and  N9_23 
REMARK       I    between atoms: N9_23  and  C7_25 
ROOT
HETATM    1  C3  UNL     1       0.449   0.958  -0.517  1.00  0.00     0.155 C 
HETATM    2  N2  UNL     1      -0.699   0.921  -1.020  1.00  0.00    -0.197 N 
ATOM      3  H2  UNL     1      -0.817   1.536  -1.825  1.00  0.00     0.183 HD
ENDROOT
BRANCH   2   4
HETATM    4  C4  UNL     1      -1.842   0.202  -0.690  1.00  0.00     0.699 A 
HETATM    5  N3  UNL     1      -1.972  -1.102  -0.969  1.00  0.00    -0.022 N 
HETATM    6  C5  UNL     1      -3.099  -1.794  -0.647  1.00  0.00     0.692 A 
ATOM      7  H3  UNL     1      -1.206  -1.589  -1.435  1.00  0.00     0.203 HD
HETATM    8  N5  UNL     1      -4.097  -1.149  -0.036  1.00  0.00    -0.163 N 
HETATM    9  C6  UNL     1      -4.002   0.141   0.255  1.00  0.00     0.221 A 
ATOM     10  H5  UNL     1      -4.946  -1.658   0.211  1.00  0.00     0.187 HD
HETATM   11  N6  UNL     1      -5.083   0.778   0.901  1.00  0.00    -0.062 NA
HETATM   12  N7  UNL     1      -2.865   0.819  -0.075  1.00  0.00    -0.162 N 
ATOM     13  H7  UNL     1      -2.790   1.811   0.149  1.00  0.00     0.187 HD
BRANCH   6  14
HETATM   14  N4  UNL     1      -3.234  -3.049  -0.911  1.00  0.00    -0.234 N 
ATOM     15  H42 UNL     1      -2.472  -3.541  -1.377  1.00  0.00     0.174 HD
ATOM     16  H41 UNL     1      -4.079  -3.568  -0.670  1.00  0.00     0.174 HD
ENDBRANCH   6  14
ENDBRANCH   2   4
BRANCH   1  17
HETATM   17  C2  UNL     1       0.987   0.245   0.607  1.00  0.00     0.131 C 
HETATM   18  N8  UNL     1       2.213   0.387   1.019  1.00  0.00    -0.282 N 
ATOM     19  H8  UNL     1       2.517  -0.157   1.826  1.00  0.00     0.188 HD
BRANCH  17  20
HETATM   20  N1  UNL     1       0.200  -0.669   1.343  1.00  0.00    -0.379 N 
HETATM   21  C1  UNL     1       0.605  -2.032   1.633  1.00  0.00     0.147 C 
ATOM     22  H1  UNL     1      -0.705  -0.352   1.691  1.00  0.00     0.160 HD
ENDBRANCH  17  20
BRANCH  18  23
HETATM   23  N9  UNL     1       3.129   1.240   0.418  1.00  0.00    -0.269 N 
HETATM   24  C7  UNL     1       4.175   0.751  -0.395  1.00  0.00     0.232 C 
HETATM   25  C8  UNL     1       5.172   1.629  -1.053  1.00  0.00     0.119 C 
HETATM   26  O1  UNL     1       4.276  -0.484  -0.577  1.00  0.00    -0.272 OA
ATOM     27  H9  UNL     1       3.044   2.245   0.568  1.00  0.00     0.190 HD
ENDBRANCH  18  23
ENDBRANCH   1  17
TORSDOF 5
