REMARK  3 active torsions:
REMARK  status: ('A' for Active; 'I' for Inactive)
REMARK       I    between atoms: C1_4  and  N2_5 
REMARK       I    between atoms: C1_4  and  N4_15 
REMARK    1  A    between atoms: N2_5  and  N3_7 
REMARK    2  A    between atoms: C4_11  and  C5_12 
REMARK    3  A    between atoms: N4_15  and  N5_17 
ROOT
HETATM    1  N1  UNL     1       0.905  -1.185  -1.097  1.00  0.00    -0.232 N 
ATOM      2  H11 UNL     1       1.572  -1.149  -1.868  1.00  0.00     0.174 HD
ATOM      3  H12 UNL     1       0.281  -1.980  -0.955  1.00  0.00     0.174 HD
HETATM    4  C1  UNL     1       0.807  -0.223  -0.250  1.00  0.00     0.705 C 
HETATM    5  N2  UNL     1      -0.121  -0.273   0.823  1.00  0.00    -0.128 N 
ATOM      6  H2  UNL     1       0.160   0.019   1.759  1.00  0.00     0.206 HD
HETATM    7  N4  UNL     1       1.685   0.896  -0.450  1.00  0.00    -0.123 N 
ATOM      8  H4  UNL     1       1.300   1.776  -0.792  1.00  0.00     0.206 HD
ENDROOT
BRANCH   5   9
HETATM    9  N3  UNL     1      -1.394  -0.715   0.593  1.00  0.00    -0.267 N 
HETATM   10  C2  UNL     1      -1.751  -1.994   1.024  1.00  0.00     0.156 C 
HETATM   11  S1  UNL     1      -3.549  -2.034   0.639  1.00  0.00    -0.120 SA
HETATM   12  C3  UNL     1      -3.503  -0.651  -0.540  1.00  0.00     0.118 C 
HETATM   13  C4  UNL     1      -2.084  -0.197  -0.485  1.00  0.00     0.218 C 
BRANCH  13  14
HETATM   14  C5  UNL     1      -2.122   1.286  -0.404  1.00  0.00     0.199 C 
HETATM   15  O1  UNL     1      -2.670   2.019  -1.260  1.00  0.00    -0.646 OA
HETATM   16  O2  UNL     1      -1.519   1.902   0.680  1.00  0.00    -0.646 OA
ENDBRANCH  13  14
ENDBRANCH   5   9
BRANCH   7  17
HETATM   17  N5  UNL     1       3.048   0.807  -0.188  1.00  0.00    -0.231 N 
HETATM   18  C6  UNL     1       3.969   1.766  -0.330  1.00  0.00     0.224 A 
HETATM   19  N6  UNL     1       5.188   1.307   0.022  1.00  0.00    -0.293 N 
HETATM   20  N7  UNL     1       5.048   0.049   0.391  1.00  0.00    -0.293 N 
ATOM     21  H6  UNL     1       6.059   1.837   0.006  1.00  0.00     0.187 HD
HETATM   22  C7  UNL     1       3.732  -0.274   0.266  1.00  0.00     0.224 A 
ATOM     23  H7  UNL     1       5.792  -0.570   0.712  1.00  0.00     0.187 HD
ENDBRANCH   7  17
TORSDOF 3
