REMARK  4 active torsions:
REMARK  status: ('A' for Active; 'I' for Inactive)
REMARK    1  A    between atoms: N1_1  and  C1_4 
REMARK    2  A    between atoms: C2_9  and  C3_10 
REMARK       I    between atoms: C3_10  and  N4_12 
REMARK    3  A    between atoms: N4_12  and  N5_14 
REMARK       I    between atoms: N5_14  and  C4_16 
REMARK    4  A    between atoms: C4_16  and  C5_18 
ROOT
HETATM    1  C3  UNL     1       2.245   0.792   0.295  1.00  0.00     0.312 C 
HETATM    2  O1  UNL     1       2.116   1.944   0.804  1.00  0.00    -0.262 OA
HETATM    3  N4  UNL     1       1.078   0.143  -0.164  1.00  0.00    -0.260 N 
ATOM      4  H4  UNL     1       1.163  -0.786  -0.576  1.00  0.00     0.190 HD
ENDROOT
BRANCH   3   5
HETATM    5  N5  UNL     1      -0.176   0.719  -0.076  1.00  0.00    -0.262 N 
HETATM    6  C4  UNL     1      -1.325  -0.103   0.006  1.00  0.00     0.289 C 
HETATM    7  O2  UNL     1      -1.174  -1.348  -0.004  1.00  0.00    -0.264 OA
ATOM      8  H5  UNL     1      -0.273   1.734  -0.070  1.00  0.00     0.190 HD
BRANCH   6   9
HETATM    9  C5  UNL     1      -2.657   0.502   0.099  1.00  0.00     0.142 A 
HETATM   10  N6  UNL     1      -2.843   1.831   0.109  1.00  0.00    -0.294 N 
HETATM   11  N7  UNL     1      -4.050   2.368   0.193  1.00  0.00    -0.311 N 
ATOM     12  H6  UNL     1      -2.031   2.445   0.050  1.00  0.00     0.187 HD
HETATM   13  C6  UNL     1      -5.184   1.653   0.274  1.00  0.00     0.109 A 
ATOM     14  H7  UNL     1      -4.123   3.385   0.196  1.00  0.00     0.186 HD
HETATM   15  C7  UNL     1      -5.059   0.281   0.268  1.00  0.00     0.047 A 
HETATM   16  C8  UNL     1      -3.786  -0.280   0.180  1.00  0.00     0.081 A 
HETATM   17  N8  UNL     1      -3.622  -1.680   0.172  1.00  0.00    -0.100 NA
ENDBRANCH   6   9
ENDBRANCH   3   5
BRANCH   1  18
HETATM   18  C2  UNL     1       3.539   0.141   0.177  1.00  0.00     0.236 A 
HETATM   19  N3  UNL     1       3.765  -1.066  -0.343  1.00  0.00    -0.272 N 
HETATM   20  N2  UNL     1       5.058  -1.359  -0.297  1.00  0.00    -0.263 N 
ATOM     21  H3  UNL     1       3.044  -1.679  -0.723  1.00  0.00     0.189 HD
HETATM   22  C1  UNL     1       5.630  -0.287   0.273  1.00  0.00     0.238 A 
ATOM     23  H2  UNL     1       5.516  -2.210  -0.623  1.00  0.00     0.190 HD
HETATM   24  O3  UNL     1       4.701   0.624   0.561  1.00  0.00    -0.254 OA
BRANCH  22  25
HETATM   25  N1  UNL     1       6.876  -0.087   0.539  1.00  0.00    -0.364 N 
ATOM     26  H12 UNL     1       7.587  -0.784   0.319  1.00  0.00     0.159 HD
ATOM     27  H11 UNL     1       7.311   0.728   0.972  1.00  0.00     0.159 HD
ENDBRANCH  22  25
ENDBRANCH   1  18
TORSDOF 4
