REMARK  8 active torsions:
REMARK  status: ('A' for Active; 'I' for Inactive)
REMARK    1  A    between atoms: N1_2  and  N2_3 
REMARK    2  A    between atoms: N1_2  and  C2_7 
REMARK    3  A    between atoms: N2_3  and  O1_5 
REMARK    4  A    between atoms: C2_7  and  O2_8 
REMARK    5  A    between atoms: C2_7  and  C3_10 
REMARK    6  A    between atoms: C4_11  and  O3_12 
REMARK    7  A    between atoms: C5_15  and  C6_16 
REMARK       I    between atoms: C6_16  and  N3_18 
REMARK    8  A    between atoms: C8_22  and  C9_23 
ROOT
HETATM    1  C6  UNL     1      -2.640   0.858  -1.042  1.00  0.00     0.289 C 
HETATM    2  O5  UNL     1      -3.097   1.926  -1.537  1.00  0.00    -0.264 OA
HETATM    3  N3  UNL     1      -3.495  -0.054  -0.431  1.00  0.00    -0.258 N 
ATOM      4  H3  UNL     1      -3.147  -0.929  -0.039  1.00  0.00     0.181 HD
HETATM    5  C7  UNL     1      -4.881   0.287  -0.376  1.00  0.00     0.184 C 
HETATM    6  N4  UNL     1      -5.991   0.564  -0.319  1.00  0.00    -0.172 NA
ENDROOT
BRANCH   1   7
HETATM    7  C5  UNL     1      -1.201   0.627  -1.146  1.00  0.00     0.163 A 
HETATM    8  O4  UNL     1      -0.477   1.055  -2.180  1.00  0.00    -0.281 OA
HETATM    9  C4  UNL     1       0.763   0.751  -2.078  1.00  0.00     0.199 A 
HETATM   10  C3  UNL     1       0.940   0.043  -0.856  1.00  0.00     0.093 A 
HETATM   11  C8  UNL     1      -0.314  -0.012  -0.308  1.00  0.00     0.088 A 
BRANCH   9  12
HETATM   12  O3  UNL     1       1.806   1.041  -2.982  1.00  0.00    -0.340 OA
ATOM     13  H3  UNL     1       1.688   1.514  -3.798  1.00  0.00     0.220 HD
ENDBRANCH   9  12
BRANCH  10  14
HETATM   14  C2  UNL     1       2.232  -0.476  -0.511  1.00  0.00     0.174 C 
BRANCH  14  15
HETATM   15  N1  UNL     1       2.823  -0.631   0.721  1.00  0.00    -0.255 N 
HETATM   16  C1  UNL     1       2.339  -0.258   2.006  1.00  0.00     0.182 C 
BRANCH  15  17
HETATM   17  N2  UNL     1       4.133  -1.273   0.793  1.00  0.00    -0.206 N 
ATOM     18  H2  UNL     1       4.395  -1.829   1.607  1.00  0.00     0.216 HD
BRANCH  17  19
HETATM   19  O1  UNL     1       4.922  -1.130  -0.154  1.00  0.00    -0.274 OA
ATOM     20  H1  UNL     1       5.774  -1.548  -0.107  1.00  0.00     0.246 HD
ENDBRANCH  17  19
ENDBRANCH  15  17
ENDBRANCH  14  15
BRANCH  14  21
HETATM   21  O2  UNL     1       2.985  -0.857  -1.511  1.00  0.00    -0.344 OA
ATOM     22  H2  UNL     1       2.577  -0.750  -2.362  1.00  0.00     0.219 HD
ENDBRANCH  14  21
ENDBRANCH  10  14
BRANCH  11  23
HETATM   23  C9  UNL     1      -0.729  -0.708   0.897  1.00  0.00     0.269 C 
HETATM   24  N5  UNL     1      -1.435  -0.030   1.964  1.00  0.00    -0.057 NA
HETATM   25  O6  UNL     1      -0.510  -1.940   1.119  1.00  0.00    -0.271 OA
ENDBRANCH  11  23
ENDBRANCH   1   7
TORSDOF 8
