REMARK  4 active torsions:
REMARK  status: ('A' for Active; 'I' for Inactive)
REMARK       I    between atoms: C2_2  and  N1_4 
REMARK    1  A    between atoms: N1_4  and  C3_6 
REMARK    2  A    between atoms: C3_6  and  C8_20 
REMARK    3  A    between atoms: N2_7  and  N3_9 
REMARK    4  A    between atoms: C6_13  and  C7_14 
ROOT
HETATM    1  C3  UNL     1      -1.597  -0.724   0.350  1.00  0.00     0.170 C 
HETATM    2  N2  UNL     1      -0.839  -1.575  -0.261  1.00  0.00    -0.281 N 
ATOM      3  H2  UNL     1      -1.301  -2.275  -0.841  1.00  0.00     0.188 HD
ENDROOT
BRANCH   1   4
HETATM    4  N1  UNL     1      -2.974  -0.824   0.173  1.00  0.00    -0.309 N 
HETATM    5  C2  UNL     1      -4.016  -0.052   0.730  1.00  0.00     0.219 C 
HETATM    6  C1  UNL     1      -5.457  -0.326   0.397  1.00  0.00     0.117 C 
HETATM    7  O1  UNL     1      -3.760   0.874   1.511  1.00  0.00    -0.274 OA
ATOM      8  H1  UNL     1      -3.276  -1.569  -0.455  1.00  0.00     0.170 HD
ENDBRANCH   1   4
BRANCH   1   9
HETATM    9  C8  UNL     1      -0.949   0.261   1.176  1.00  0.00     0.183 A 
HETATM   10  N6  UNL     1       0.015   0.002   2.133  1.00  0.00    -0.266 N 
HETATM   11  N7  UNL     1       0.417   1.135   2.664  1.00  0.00    -0.226 N 
ATOM     12  H6  UNL     1       0.360  -0.924   2.387  1.00  0.00     0.190 HD
HETATM   13  N8  UNL     1      -0.229   2.124   2.111  1.00  0.00    -0.226 N 
ATOM     14  H7  UNL     1       1.123   1.227   3.394  1.00  0.00     0.210 HD
HETATM   15  N9  UNL     1      -1.045   1.598   1.222  1.00  0.00    -0.266 N 
ATOM     16  H8  UNL     1      -0.122   3.115   2.326  1.00  0.00     0.210 HD
ATOM     17  H9  UNL     1      -1.677   2.144   0.636  1.00  0.00     0.190 HD
ENDBRANCH   1   9
BRANCH   2  18
HETATM   18  N3  UNL     1       0.523  -1.620  -0.199  1.00  0.00    -0.282 N 
HETATM   19  C4  UNL     1       1.353  -0.860  -0.776  1.00  0.00     0.143 A 
HETATM   20  C5  UNL     1       2.727  -0.888  -0.727  1.00  0.00     0.096 A 
HETATM   21  N5  UNL     1       1.023   0.162  -1.582  1.00  0.00    -0.243 N 
HETATM   22  C6  UNL     1       3.168   0.153  -1.532  1.00  0.00     0.167 A 
HETATM   23  O3  UNL     1       2.107   0.739  -2.011  1.00  0.00    -0.231 OA
ATOM     24  H5  UNL     1       0.072   0.442  -1.820  1.00  0.00     0.196 HD
ATOM     25  H3  UNL     1       0.921  -2.357   0.384  1.00  0.00     0.188 HD
BRANCH  22  26
HETATM   26  C7  UNL     1       4.549   0.498  -1.775  1.00  0.00     0.290 C 
HETATM   27  N4  UNL     1       5.610  -0.233  -1.182  1.00  0.00    -0.055 NA
HETATM   28  O2  UNL     1       4.860   1.458  -2.520  1.00  0.00    -0.269 OA
ENDBRANCH  22  26
ENDBRANCH   2  18
TORSDOF 4
