REMARK  4 active torsions:
REMARK  status: ('A' for Active; 'I' for Inactive)
REMARK    1  A    between atoms: N1_1  and  C1_4 
REMARK    2  A    between atoms: C2_7  and  N3_8 
REMARK       I    between atoms: N3_8  and  C3_10 
REMARK       I    between atoms: C3_10  and  N4_12 
REMARK    3  A    between atoms: N4_12  and  N5_14 
REMARK    4  A    between atoms: N5_14  and  O2_15 
ROOT
HETATM    1  C1  UNL     1      -0.754  -1.680  -0.030  1.00  0.00     0.679 A 
HETATM    2  N2  UNL     1       0.338  -0.883  -0.140  1.00  0.00    -0.174 N 
ATOM      3  H2  UNL     1       1.262  -1.316  -0.146  1.00  0.00     0.186 HD
HETATM    4  C2  UNL     1       0.251   0.456  -0.242  1.00  0.00     0.163 A 
HETATM    5  C4  UNL     1      -1.007   1.019  -0.233  1.00  0.00     0.170 A 
HETATM    6  O3  UNL     1      -1.409   2.258  -0.313  1.00  0.00    -0.253 OA
HETATM    7  C5  UNL     1      -2.697   2.304  -0.262  1.00  0.00     0.371 A 
HETATM    8  O4  UNL     1      -3.451   3.334  -0.312  1.00  0.00    -0.238 OA
HETATM    9  N6  UNL     1      -3.172   1.051  -0.143  1.00  0.00    -0.285 N 
ATOM     10  H6  UNL     1      -4.154   0.782  -0.080  1.00  0.00     0.172 HD
HETATM   11  C6  UNL     1      -2.122   0.222  -0.122  1.00  0.00     0.163 A 
HETATM   12  N7  UNL     1      -1.979  -1.123  -0.022  1.00  0.00    -0.174 N 
ATOM     13  H7  UNL     1      -2.805  -1.716   0.060  1.00  0.00     0.186 HD
ENDROOT
BRANCH   4  14
HETATM   14  N3  UNL     1       1.270   1.236  -0.347  1.00  0.00    -0.291 N 
HETATM   15  C3  UNL     1       2.613   0.771  -0.367  1.00  0.00     0.339 C 
HETATM   16  O1  UNL     1       3.314   0.816  -1.420  1.00  0.00    -0.245 OA
HETATM   17  N4  UNL     1       3.142   0.253   0.841  1.00  0.00    -0.229 N 
ATOM     18  H4  UNL     1       2.580   0.216   1.691  1.00  0.00     0.189 HD
ATOM     19  H3  UNL     1       1.105   2.240  -0.420  1.00  0.00     0.172 HD
BRANCH  17  20
HETATM   20  N5  UNL     1       4.482  -0.212   0.825  1.00  0.00     0.022 NA
BRANCH  20  21
HETATM   21  O2  UNL     1       4.598  -1.465   0.702  1.00  0.00    -0.277 OA
ATOM     22  H2  UNL     1       5.495  -1.776   0.691  1.00  0.00     0.240 HD
ENDBRANCH  20  21
ENDBRANCH  17  20
ENDBRANCH   4  14
BRANCH   1  23
HETATM   23  N1  UNL     1      -0.616  -2.957   0.065  1.00  0.00    -0.234 N 
ATOM     24  H12 UNL     1       0.313  -3.379   0.059  1.00  0.00     0.174 HD
ATOM     25  H11 UNL     1      -1.437  -3.556   0.148  1.00  0.00     0.174 HD
ENDBRANCH   1  23
TORSDOF 4
