REMARK  3 active torsions:
REMARK  status: ('A' for Active; 'I' for Inactive)
REMARK    1  A    between atoms: N1_1  and  C1_4 
REMARK    2  A    between atoms: C6_18  and  N6_19 
REMARK    3  A    between atoms: N6_19  and  C7_21 
ROOT
HETATM    1  C1  UNL     1       3.784  -0.247  -0.426  1.00  0.00     0.118 A 
HETATM    2  C2  UNL     1       2.881  -1.045  -1.088  1.00  0.00     0.100 A 
HETATM    3  C3  UNL     1       1.506  -0.902  -0.899  1.00  0.00     0.134 A 
HETATM    4  N2  UNL     1       0.413  -1.513  -1.387  1.00  0.00    -0.325 N 
ATOM      5  H2  UNL     1       0.404  -2.279  -2.061  1.00  0.00     0.169 HD
HETATM    6  C4  UNL     1      -0.667  -0.935  -0.829  1.00  0.00     0.155 A 
HETATM    7  N3  UNL     1      -1.991  -1.158  -0.965  1.00  0.00    -0.174 N 
ATOM      8  H3  UNL     1      -2.330  -1.887  -1.592  1.00  0.00     0.186 HD
HETATM    9  C5  UNL     1      -2.855  -0.409  -0.265  1.00  0.00     0.679 A 
HETATM   10  N4  UNL     1      -4.118  -0.636  -0.407  1.00  0.00    -0.234 N 
ATOM     11  H41 UNL     1      -4.775  -0.066   0.126  1.00  0.00     0.174 HD
ATOM     12  H42 UNL     1      -4.426  -1.373  -1.042  1.00  0.00     0.174 HD
HETATM   13  N5  UNL     1      -2.443   0.578   0.585  1.00  0.00    -0.174 N 
ATOM     14  H5  UNL     1      -3.136   1.124   1.097  1.00  0.00     0.186 HD
HETATM   15  C6  UNL     1      -1.136   0.838   0.755  1.00  0.00     0.156 A 
HETATM   16  C8  UNL     1      -0.241   0.075   0.042  1.00  0.00     0.149 A 
HETATM   17  N7  UNL     1       1.112   0.050  -0.042  1.00  0.00    -0.218 N 
HETATM   18  N8  UNL     1       1.986   0.816   0.592  1.00  0.00    -0.232 N 
ATOM     19  H8  UNL     1       1.645   1.530   1.235  1.00  0.00     0.209 HD
HETATM   20  N9  UNL     1       3.300   0.680   0.413  1.00  0.00    -0.271 N 
ATOM     21  H9  UNL     1       3.944   1.288   0.920  1.00  0.00     0.190 HD
ENDROOT
BRANCH  15  22
HETATM   22  N6  UNL     1      -0.734   1.763   1.552  1.00  0.00    -0.318 N 
ATOM     23  H6  UNL     1       0.272   1.909   1.635  1.00  0.00     0.169 HD
BRANCH  22  24
HETATM   24  C7  UNL     1      -1.570   2.585   2.314  1.00  0.00     0.354 C 
HETATM   25  O1  UNL     1      -1.256   3.772   2.537  1.00  0.00    -0.283 OA
ENDBRANCH  22  24
ENDBRANCH  15  22
BRANCH   1  26
HETATM   26  N1  UNL     1       5.045  -0.414  -0.632  1.00  0.00    -0.384 N 
ATOM     27  H12 UNL     1       5.413  -1.119  -1.270  1.00  0.00     0.157 HD
ATOM     28  H11 UNL     1       5.715   0.178  -0.141  1.00  0.00     0.157 HD
ENDBRANCH   1  26
TORSDOF 3
