REMARK  6 active torsions:
REMARK  status: ('A' for Active; 'I' for Inactive)
REMARK    1  A    between atoms: N2_6  and  N3_8 
REMARK    2  A    between atoms: N3_8  and  C4_10 
REMARK    3  A    between atoms: C4_10  and  N4_12 
REMARK    4  A    between atoms: N4_12  and  N5_14 
REMARK    5  A    between atoms: N6_17  and  N7_18 
REMARK    6  A    between atoms: C5_21  and  N8_22 
ROOT
HETATM    1  C1  UNL     1      -3.820  -1.339   0.869  1.00  0.00     0.073 C 
HETATM    2  C2  UNL     1      -2.453  -0.801   0.764  1.00  0.00     0.075 A 
HETATM    3  N1  UNL     1      -1.376  -1.264   1.444  1.00  0.00    -0.189 N 
ATOM      4  H1  UNL     1      -1.372  -2.036   2.110  1.00  0.00     0.184 HD
HETATM    5  C3  UNL     1      -0.315  -0.523   1.083  1.00  0.00     0.720 A 
HETATM    6  N2  UNL     1       0.901  -0.633   1.496  1.00  0.00    -0.128 N 
ATOM      7  H2  UNL     1       1.131  -1.356   2.178  1.00  0.00     0.205 HD
HETATM    8  N6  UNL     1      -0.726   0.395   0.185  1.00  0.00    -0.067 N 
HETATM    9  C5  UNL     1      -2.052   0.247  -0.034  1.00  0.00     0.234 A 
ENDROOT
BRANCH   6  10
HETATM   10  N3  UNL     1       1.910   0.212   1.033  1.00  0.00    -0.261 N 
ATOM     11  H3  UNL     1       1.905   1.197   1.299  1.00  0.00     0.190 HD
BRANCH  10  12
HETATM   12  C4  UNL     1       2.945  -0.285   0.195  1.00  0.00     0.205 C 
HETATM   13  S1  UNL     1       2.957  -1.860  -0.233  1.00  0.00    -0.038 SA
BRANCH  12  14
HETATM   14  N4  UNL     1       3.968   0.565  -0.277  1.00  0.00    -0.282 N 
ATOM     15  H4  UNL     1       3.962   1.550  -0.011  1.00  0.00     0.189 HD
BRANCH  14  16
HETATM   16  N5  UNL     1       4.986   0.086  -1.099  1.00  0.00    -0.343 N 
ATOM     17  H52 UNL     1       4.977  -0.901  -1.355  1.00  0.00     0.176 HD
ATOM     18  H51 UNL     1       5.725   0.700  -1.440  1.00  0.00     0.176 HD
ENDBRANCH  14  16
ENDBRANCH  12  14
ENDBRANCH  10  12
ENDBRANCH   6  10
BRANCH   8  19
HETATM   19  N7  UNL     1       0.019   1.377  -0.465  1.00  0.00    -0.322 N 
ATOM     20  H72 UNL     1       1.019   1.489  -0.300  1.00  0.00     0.178 HD
ATOM     21  H71 UNL     1      -0.292   2.071  -1.144  1.00  0.00     0.178 HD
ENDBRANCH   8  19
BRANCH   9  22
HETATM   22  N8  UNL     1      -2.897   0.990  -0.895  1.00  0.00    -0.093 N 
HETATM   23  O1  UNL     1      -2.463   1.930  -1.590  1.00  0.00    -0.530 OA
HETATM   24  O2  UNL     1      -4.226   0.697  -0.990  1.00  0.00    -0.530 OA
ENDBRANCH   9  22
TORSDOF 6
