REMARK  2 active torsions:
REMARK  status: ('A' for Active; 'I' for Inactive)
REMARK    1  A    between atoms: N4_13  and  N5_15 
REMARK    2  A    between atoms: N6_17  and  C7_19 
ROOT
HETATM    1  C1  UNL     1      -1.381  -2.527  -0.350  1.00  0.00     0.047 C 
HETATM    2  C2  UNL     1      -1.514  -1.220  -0.271  1.00  0.00     0.070 C 
HETATM    3  N1  UNL     1      -2.809  -0.664  -0.190  1.00  0.00    -0.342 N 
ATOM      4  H1  UNL     1      -3.547  -1.355  -0.053  1.00  0.00     0.167 HD
HETATM    5  C3  UNL     1      -3.284   0.684  -0.264  1.00  0.00     0.122 C 
HETATM    6  N2  UNL     1      -4.662   0.892  -0.077  1.00  0.00    -0.083 NA
HETATM    7  C4  UNL     1      -2.530   1.765  -0.497  1.00  0.00     0.119 C 
HETATM    8  C5  UNL     1      -1.101   1.880  -0.727  1.00  0.00     0.250 C 
HETATM    9  O1  UNL     1      -0.698   3.017  -1.058  1.00  0.00    -0.268 OA
HETATM   10  N3  UNL     1      -0.090   0.895  -0.633  1.00  0.00    -0.307 N 
ATOM     11  H3  UNL     1       0.859   1.204  -0.843  1.00  0.00     0.170 HD
HETATM   12  C6  UNL     1      -0.241  -0.489  -0.277  1.00  0.00     0.150 C 
HETATM   13  N4  UNL     1       0.819  -1.142   0.063  1.00  0.00    -0.269 N 
ATOM     14  H4  UNL     1       0.775  -2.127   0.325  1.00  0.00     0.190 HD
ENDROOT
BRANCH  13  15
HETATM   15  N5  UNL     1       2.030  -0.444   0.057  1.00  0.00    -0.227 N 
HETATM   16  N6  UNL     1       2.703  -0.292   1.121  1.00  0.00    -0.115 N 
ATOM     17  H6  UNL     1       2.383  -0.672   2.012  1.00  0.00     0.207 HD
ATOM     18  H5  UNL     1       2.378  -0.051  -0.817  1.00  0.00     0.209 HD
BRANCH  16  19
HETATM   19  C7  UNL     1       3.921   0.430   1.020  1.00  0.00     0.726 A 
HETATM   20  N7  UNL     1       4.063   1.759   1.090  1.00  0.00    -0.112 N 
HETATM   21  N8  UNL     1       5.362   2.006   0.948  1.00  0.00     0.009 NA
ATOM     22  H7  UNL     1       3.322   2.446   1.225  1.00  0.00     0.203 HD
HETATM   23  N9  UNL     1       6.029   0.870   0.792  1.00  0.00    -0.211 N 
HETATM   24  N10 UNL     1       5.155  -0.113   0.834  1.00  0.00    -0.117 N 
ATOM     25  H9  UNL     1       7.036   0.776   0.663  1.00  0.00     0.206 HD
ATOM     26  H10 UNL     1       5.365  -1.107   0.743  1.00  0.00     0.207 HD
ENDBRANCH  16  19
ENDBRANCH  13  15
TORSDOF 2
