REMARK  6 active torsions:
REMARK  status: ('A' for Active; 'I' for Inactive)
REMARK    1  A    between atoms: N1_2  and  C2_4 
REMARK    2  A    between atoms: C3_7  and  O1_8 
REMARK    3  A    between atoms: C4_10  and  N3_11 
REMARK    4  A    between atoms: C5_14  and  N4_15 
REMARK    5  A    between atoms: N4_15  and  O4_17 
REMARK    6  A    between atoms: O4_17  and  C6_18 
ROOT
HETATM    1  C2  UNL     1      -1.513   0.685  -0.051  1.00  0.00     0.681 A 
HETATM    2  N2  UNL     1      -2.086  -0.510  -0.245  1.00  0.00    -0.168 N 
ATOM      3  H2  UNL     1      -3.043  -0.550  -0.596  1.00  0.00     0.186 HD
HETATM    4  C3  UNL     1      -1.435  -1.656   0.010  1.00  0.00     0.192 A 
HETATM    5  C4  UNL     1      -0.155  -1.655   0.481  1.00  0.00     0.200 A 
HETATM    6  C5  UNL     1       0.423  -0.409   0.676  1.00  0.00     0.178 A 
HETATM    7  N7  UNL     1      -0.260   0.714   0.409  1.00  0.00    -0.172 N 
ATOM      8  H7  UNL     1       0.191   1.616   0.562  1.00  0.00     0.186 HD
ENDROOT
BRANCH   6   9
HETATM    9  N4  UNL     1       1.651  -0.374   1.128  1.00  0.00    -0.239 N 
ATOM     10  H4  UNL     1       2.167  -1.230   1.330  1.00  0.00     0.196 HD
BRANCH   9  11
HETATM   11  O4  UNL     1       2.215   0.860   1.318  1.00  0.00    -0.203 OA
BRANCH  11  12
HETATM   12  C6  UNL     1       3.470   1.111   0.793  1.00  0.00     0.249 C 
HETATM   13  N5  UNL     1       4.185   0.093   0.460  1.00  0.00    -0.366 N 
ATOM     14  H52 UNL     1       3.875  -0.873   0.563  1.00  0.00     0.159 HD
ATOM     15  H51 UNL     1       5.110   0.278   0.073  1.00  0.00     0.159 HD
HETATM   16  N6  UNL     1       3.900   2.452   0.650  1.00  0.00    -0.055 NA
ENDBRANCH  11  12
ENDBRANCH   9  11
ENDBRANCH   6   9
BRANCH   5  17
HETATM   17  N3  UNL     1       0.564  -2.819   0.761  1.00  0.00    -0.107 N 
HETATM   18  O2  UNL     1       1.724  -2.789   1.188  1.00  0.00    -0.531 OA
HETATM   19  O3  UNL     1      -0.026  -4.049   0.561  1.00  0.00    -0.531 OA
ENDBRANCH   5  17
BRANCH   4  20
HETATM   20  O1  UNL     1      -2.049  -2.885  -0.199  1.00  0.00    -0.344 OA
ATOM     21  H1  UNL     1      -1.588  -3.696  -0.019  1.00  0.00     0.219 HD
ENDBRANCH   4  20
BRANCH   1  22
HETATM   22  N1  UNL     1      -2.165   1.776  -0.306  1.00  0.00    -0.230 N 
HETATM   23  C1  UNL     1      -3.506   1.694  -0.799  1.00  0.00     0.165 C 
ATOM     24  H1  UNL     1      -1.726   2.685  -0.157  1.00  0.00     0.177 HD
ENDBRANCH   1  22
TORSDOF 6
