REMARK  5 active torsions:
REMARK  status: ('A' for Active; 'I' for Inactive)
REMARK    1  A    between atoms: O1_2  and  C2_3 
REMARK    2  A    between atoms: C2_3  and  C3_7 
REMARK    3  A    between atoms: C5_11  and  N3_12 
REMARK    4  A    between atoms: C6_17  and  N5_18 
REMARK    5  A    between atoms: N5_18  and  C7_20 
ROOT
HETATM    1  C3  UNL     1      -1.099   0.416   0.256  1.00  0.00     0.075 A 
HETATM    2  C4  UNL     1      -1.911   1.371   0.864  1.00  0.00     0.125 A 
HETATM    3  N2  UNL     1      -1.549   2.660   0.916  1.00  0.00    -0.201 N 
ATOM      4  H2  UNL     1      -2.167   3.333   1.370  1.00  0.00     0.183 HD
HETATM    5  C5  UNL     1      -0.390   3.087   0.384  1.00  0.00     0.677 A 
HETATM    6  N4  UNL     1       0.385   2.181  -0.196  1.00  0.00    -0.175 N 
ATOM      7  H4  UNL     1       1.266   2.497  -0.602  1.00  0.00     0.186 HD
HETATM    8  C6  UNL     1       0.085   0.873  -0.284  1.00  0.00     0.152 A 
ENDROOT
BRANCH   8   9
HETATM    9  N5  UNL     1       0.963  -0.045  -0.921  1.00  0.00    -0.172 N 
ATOM     10  H5  UNL     1       0.588  -0.669  -1.635  1.00  0.00     0.186 HD
BRANCH   9  11
HETATM   11  C7  UNL     1       2.223  -0.117  -0.627  1.00  0.00     0.715 A 
HETATM   12  N6  UNL     1       2.953   0.568   0.249  1.00  0.00    -0.115 N 
HETATM   13  N7  UNL     1       4.216   0.125   0.184  1.00  0.00    -0.213 N 
ATOM     14  H6  UNL     1       2.610   1.305   0.865  1.00  0.00     0.207 HD
HETATM   15  N8  UNL     1       4.286  -0.822  -0.715  1.00  0.00    -0.213 N 
ATOM     16  H7  UNL     1       4.995   0.470   0.744  1.00  0.00     0.210 HD
HETATM   17  N9  UNL     1       3.062  -0.983  -1.225  1.00  0.00    -0.115 N 
ATOM     18  H8  UNL     1       5.123  -1.343  -0.979  1.00  0.00     0.210 HD
ATOM     19  H9  UNL     1       2.805  -1.653  -1.950  1.00  0.00     0.207 HD
ENDBRANCH   9  11
ENDBRANCH   8   9
BRANCH   1  20
HETATM   20  C2  UNL     1      -1.493  -0.987   0.200  1.00  0.00     0.151 C 
HETATM   21  N1  UNL     1      -0.685  -1.804  -0.381  1.00  0.00    -0.379 N 
ATOM     22  H12 UNL     1      -0.961  -2.785  -0.420  1.00  0.00     0.158 HD
ATOM     23  H11 UNL     1       0.187  -1.452  -0.776  1.00  0.00     0.158 HD
BRANCH  20  24
HETATM   24  O1  UNL     1      -2.662  -1.459   0.729  1.00  0.00    -0.340 OA
HETATM   25  C1  UNL     1      -3.151  -2.773   0.543  1.00  0.00     0.211 C 
ENDBRANCH  20  24
ENDBRANCH   1  20
BRANCH   5  26
HETATM   26  N3  UNL     1      -0.088   4.346   0.462  1.00  0.00    -0.234 N 
ATOM     27  H32 UNL     1      -0.684   5.043   0.908  1.00  0.00     0.174 HD
ATOM     28  H31 UNL     1       0.791   4.670   0.059  1.00  0.00     0.174 HD
ENDBRANCH   5  26
TORSDOF 5
