REMARK  6 active torsions:
REMARK  status: ('A' for Active; 'I' for Inactive)
REMARK    1  A    between atoms: C2_2  and  O1_3 
REMARK    2  A    between atoms: O1_3  and  C3_4 
REMARK    3  A    between atoms: C3_4  and  N1_5 
REMARK    4  A    between atoms: N3_9  and  N4_11 
REMARK    5  A    between atoms: C6_17  and  N6_18 
REMARK    6  A    between atoms: C8_23  and  N8_24 
ROOT
HETATM    1  N1  UNL     1       0.846   0.670   0.344  1.00  0.00    -0.261 N 
HETATM    2  N2  UNL     1       0.286   1.857   0.584  1.00  0.00    -0.278 N 
ATOM      3  H2  UNL     1       0.809   2.721   0.728  1.00  0.00     0.189 HD
HETATM    4  C4  UNL     1      -1.048   1.770   0.611  1.00  0.00     0.164 A 
HETATM    5  N3  UNL     1      -1.931   2.686   0.811  1.00  0.00    -0.289 N 
ATOM      6  H3  UNL     1      -2.923   2.448   0.798  1.00  0.00     0.188 HD
HETATM    7  C5  UNL     1      -1.378   0.445   0.373  1.00  0.00     0.128 A 
HETATM    8  N5  UNL     1      -2.568  -0.168   0.294  1.00  0.00    -0.186 N 
ATOM      9  H5  UNL     1      -3.437   0.351   0.419  1.00  0.00     0.184 HD
HETATM   10  C6  UNL     1      -2.577  -1.493   0.044  1.00  0.00     0.679 A 
HETATM   11  N7  UNL     1      -1.417  -2.156  -0.119  1.00  0.00    -0.175 N 
ATOM     12  H7  UNL     1      -1.456  -3.158  -0.308  1.00  0.00     0.186 HD
HETATM   13  C8  UNL     1      -0.210  -1.569  -0.046  1.00  0.00     0.145 A 
HETATM   14  C9  UNL     1      -0.165  -0.206   0.212  1.00  0.00     0.128 A 
ENDROOT
BRANCH   5  15
HETATM   15  N4  UNL     1      -1.530   4.018   1.048  1.00  0.00    -0.344 N 
ATOM     16  H42 UNL     1      -0.534   4.239   1.058  1.00  0.00     0.176 HD
ATOM     17  H41 UNL     1      -2.229   4.743   1.206  1.00  0.00     0.176 HD
ENDBRANCH   5  15
BRANCH   1  18
HETATM   18  C3  UNL     1       2.279   0.399   0.256  1.00  0.00     0.317 C 
BRANCH  18  19
HETATM   19  O1  UNL     1       2.635   0.533  -1.067  1.00  0.00    -0.371 OA
BRANCH  19  20
HETATM   20  C2  UNL     1       3.973   0.305  -1.309  1.00  0.00     0.165 C 
HETATM   21  C1  UNL     1       4.439  -1.068  -0.930  1.00  0.00     0.033 C 
ENDBRANCH  19  20
ENDBRANCH  18  19
ENDBRANCH   1  18
BRANCH  10  22
HETATM   22  N6  UNL     1      -3.684  -2.150  -0.046  1.00  0.00    -0.230 N 
HETATM   23  C7  UNL     1      -4.946  -1.448   0.127  1.00  0.00     0.165 C 
ATOM     24  H6  UNL     1      -3.674  -3.152  -0.237  1.00  0.00     0.177 HD
ENDBRANCH  10  22
BRANCH  13  25
HETATM   25  N8  UNL     1       0.887  -2.210  -0.206  1.00  0.00    -0.383 N 
ATOM     26  H82 UNL     1       0.854  -3.212  -0.396  1.00  0.00     0.157 HD
ATOM     27  H81 UNL     1       1.803  -1.765  -0.151  1.00  0.00     0.157 HD
ENDBRANCH  13  25
TORSDOF 6
