REMARK  6 active torsions:
REMARK  status: ('A' for Active; 'I' for Inactive)
REMARK    1  A    between atoms: C4_5  and  N1_6 
REMARK    2  A    between atoms: C5_11  and  N4_12 
REMARK    3  A    between atoms: C6_15  and  C8_17 
REMARK    4  A    between atoms: C8_17  and  O2_18 
REMARK    5  A    between atoms: C8_17  and  C9_20 
REMARK    6  A    between atoms: C9_20  and  O3_22 
ROOT
HETATM    1  C1  UNL     1       0.528   4.151  -0.410  1.00  0.00     0.017 C 
HETATM    2  C2  UNL     1       0.839   2.992  -0.408  1.00  0.00    -0.057 C 
HETATM    3  C3  UNL     1       1.228   1.570  -0.419  1.00  0.00     0.345 C 
HETATM    4  O1  UNL     1       1.073   0.985   0.830  1.00  0.00    -0.320 OA
HETATM    5  C4  UNL     1       0.752  -0.342   0.527  1.00  0.00     0.305 C 
HETATM    6  C6  UNL     1      -0.175  -0.159  -0.620  1.00  0.00     0.135 C 
HETATM    7  C7  UNL     1      -0.432  -1.379  -1.426  1.00  0.00     0.054 C 
HETATM    8  O4  UNL     1       0.519   0.853  -1.350  1.00  0.00    -0.332 OA
ENDROOT
BRANCH   5   9
HETATM    9  N1  UNL     1       1.969  -1.031   0.195  1.00  0.00    -0.075 N 
HETATM   10  N2  UNL     1       2.560  -1.558  -0.858  1.00  0.00    -0.209 N 
HETATM   11  N3  UNL     1       3.583  -1.921  -0.132  1.00  0.00    -0.116 N 
ATOM     12  H2  UNL     1       2.316  -1.647  -1.844  1.00  0.00     0.209 HD
HETATM   13  C5  UNL     1       3.006  -1.394   0.959  1.00  0.00     0.712 A 
ATOM     14  H3  UNL     1       4.461  -2.406  -0.318  1.00  0.00     0.207 HD
BRANCH  13  15
HETATM   15  N4  UNL     1       3.343  -1.292   2.225  1.00  0.00    -0.232 N 
ATOM     16  H42 UNL     1       2.904  -0.891   3.054  1.00  0.00     0.174 HD
ATOM     17  H41 UNL     1       4.133  -1.569   2.807  1.00  0.00     0.174 HD
ENDBRANCH  13  15
ENDBRANCH   5   9
BRANCH   6  18
HETATM   18  C8  UNL     1      -1.418   0.524  -0.131  1.00  0.00     0.185 C 
BRANCH  18  19
HETATM   19  O2  UNL     1      -2.142   1.050  -1.252  1.00  0.00    -0.390 OA
ATOM     20  H2  UNL     1      -2.929   1.483  -0.942  1.00  0.00     0.210 HD
ENDBRANCH  18  19
BRANCH  18  21
HETATM   21  C9  UNL     1      -2.426  -0.367   0.538  1.00  0.00     0.146 C 
HETATM   22  C10 UNL     1      -3.577   0.576   0.937  1.00  0.00     0.042 C 
BRANCH  21  23
HETATM   23  O3  UNL     1      -2.023  -1.007   1.669  1.00  0.00    -0.393 OA
ATOM     24  H3  UNL     1      -2.660  -1.570   2.092  1.00  0.00     0.210 HD
ENDBRANCH  21  23
ENDBRANCH  18  21
ENDBRANCH   6  18
TORSDOF 6
