REMARK  6 active torsions:
REMARK  status: ('A' for Active; 'I' for Inactive)
REMARK    1  A    between atoms: C2_3  and  C3_4 
REMARK    2  A    between atoms: C3_4  and  S1_5 
REMARK    3  A    between atoms: S1_5  and  N2_6 
REMARK    4  A    between atoms: C4_11  and  N3_12 
REMARK    5  A    between atoms: C5_15  and  N4_16 
REMARK    6  A    between atoms: C6_21  and  N6_22 
ROOT
HETATM    1  C1  UNL     1       0.512   2.245  -0.153  1.00  0.00     0.175 C 
HETATM    2  N1  UNL     1      -0.483   1.164  -0.189  1.00  0.00    -0.188 N 
HETATM    3  C2  UNL     1      -0.122  -0.091   0.151  1.00  0.00     0.081 A 
HETATM    4  C4  UNL     1      -1.151  -1.016   0.250  1.00  0.00     0.171 A 
HETATM    5  C5  UNL     1      -2.473  -0.668  -0.002  1.00  0.00     0.150 A 
HETATM    6  N5  UNL     1      -2.787   0.589  -0.342  1.00  0.00    -0.175 N 
ATOM      7  H5  UNL     1      -3.756   0.849  -0.523  1.00  0.00     0.186 HD
HETATM    8  C6  UNL     1      -1.804   1.505  -0.441  1.00  0.00     0.679 A 
ENDROOT
BRANCH   3   9
HETATM    9  C3  UNL     1       1.221  -0.491   0.566  1.00  0.00     0.223 C 
BRANCH   9  10
HETATM   10  S1  UNL     1       2.502  -0.535  -0.585  1.00  0.00     0.229 S 
HETATM   11  O1  UNL     1       2.429  -2.022  -1.221  1.00  0.00    -0.206 OA
HETATM   12  O2  UNL     1       2.611   0.342  -1.725  1.00  0.00    -0.206 OA
BRANCH  10  13
HETATM   13  N2  UNL     1       4.074  -0.713   0.180  1.00  0.00    -0.328 N 
ATOM     14  H22 UNL     1       4.197  -0.781   1.190  1.00  0.00     0.168 HD
ATOM     15  H21 UNL     1       4.832  -0.739  -0.501  1.00  0.00     0.168 HD
ENDBRANCH  10  13
ENDBRANCH   9  10
ENDBRANCH   3   9
BRANCH   4  16
HETATM   16  N3  UNL     1      -0.912  -2.382   0.530  1.00  0.00    -0.110 N 
HETATM   17  O3  UNL     1      -0.680  -2.784   1.668  1.00  0.00    -0.532 OA
HETATM   18  O4  UNL     1      -0.912  -3.283  -0.498  1.00  0.00    -0.532 OA
ENDBRANCH   4  16
BRANCH   8  19
HETATM   19  N6  UNL     1      -2.084   2.700  -0.761  1.00  0.00    -0.234 N 
ATOM     20  H62 UNL     1      -1.340   3.393  -0.836  1.00  0.00     0.174 HD
ATOM     21  H61 UNL     1      -3.055   2.951  -0.946  1.00  0.00     0.174 HD
ENDBRANCH   8  19
BRANCH   5  22
HETATM   22  N4  UNL     1      -3.435  -1.561   0.077  1.00  0.00    -0.383 N 
ATOM     23  H42 UNL     1      -3.196  -2.518   0.336  1.00  0.00     0.157 HD
ATOM     24  H41 UNL     1      -4.405  -1.306  -0.108  1.00  0.00     0.157 HD
ENDBRANCH   5  22
TORSDOF 6
