REMARK  7 active torsions:
REMARK  status: ('A' for Active; 'I' for Inactive)
REMARK    1  A    between atoms: C2_2  and  N1_3 
REMARK    2  A    between atoms: C2_2  and  C4_7 
REMARK    3  A    between atoms: N1_3  and  C3_5 
REMARK    4  A    between atoms: C4_7  and  O2_8 
REMARK    5  A    between atoms: C4_7  and  N2_10 
REMARK    6  A    between atoms: N2_10  and  C5_12 
REMARK    7  A    between atoms: C9_22  and  N6_23 
ROOT
HETATM    1  C5  UNL     1      -0.498  -0.300  -0.104  1.00  0.00     0.119 A 
HETATM    2  C6  UNL     1      -0.913  -1.496  -0.625  1.00  0.00     0.138 A 
HETATM    3  N3  UNL     1      -2.243  -1.782  -0.740  1.00  0.00    -0.347 N 
ATOM      4  H3  UNL     1      -2.536  -2.677  -1.131  1.00  0.00     0.167 HD
HETATM    5  C7  UNL     1      -3.173  -0.890  -0.341  1.00  0.00     0.137 A 
HETATM    6  N4  UNL     1      -4.493  -1.150  -0.444  1.00  0.00    -0.337 N 
ATOM      7  H4  UNL     1      -4.777  -2.048  -0.836  1.00  0.00     0.168 HD
HETATM    8  C8  UNL     1      -5.448  -0.300  -0.063  1.00  0.00     0.183 A 
HETATM    9  N5  UNL     1      -5.059   0.875   0.450  1.00  0.00    -0.337 N 
ATOM     10  H5  UNL     1      -5.773   1.539   0.748  1.00  0.00     0.168 HD
HETATM   11  C9  UNL     1      -3.740   1.221   0.591  1.00  0.00     0.131 A 
HETATM   12  C10 UNL     1      -2.777   0.324   0.189  1.00  0.00     0.122 A 
HETATM   13  N7  UNL     1      -1.454   0.576   0.289  1.00  0.00    -0.335 N 
ATOM     14  H7  UNL     1      -1.160   1.471   0.680  1.00  0.00     0.168 HD
ENDROOT
BRANCH   1  15
HETATM   15  N2  UNL     1       0.753  -0.038   0.001  1.00  0.00    -0.347 N 
ATOM     16  H2  UNL     1       1.022   0.864   0.395  1.00  0.00     0.163 HD
BRANCH  15  17
HETATM   17  C4  UNL     1       1.800  -0.937  -0.402  1.00  0.00     0.241 C 
BRANCH  17  18
HETATM   18  C2  UNL     1       3.162  -0.485   0.062  1.00  0.00     0.128 C 
HETATM   19  C1  UNL     1       3.284  -0.414   1.546  1.00  0.00     0.036 C 
BRANCH  18  20
HETATM   20  N1  UNL     1       3.501   0.775  -0.529  1.00  0.00    -0.360 N 
ATOM     21  H1  UNL     1       2.941   1.597  -0.303  1.00  0.00     0.162 HD
BRANCH  20  22
HETATM   22  C3  UNL     1       4.600   0.909  -1.424  1.00  0.00     0.348 C 
HETATM   23  O1  UNL     1       5.314  -0.085  -1.725  1.00  0.00    -0.284 OA
ENDBRANCH  20  22
ENDBRANCH  18  20
ENDBRANCH  17  18
BRANCH  17  24
HETATM   24  O2  UNL     1       1.807  -1.073  -1.789  1.00  0.00    -0.375 OA
ATOM     25  H2  UNL     1       0.949  -1.358  -2.081  1.00  0.00     0.212 HD
ENDBRANCH  17  24
ENDBRANCH  15  17
ENDBRANCH   1  15
BRANCH  11  26
HETATM   26  N6  UNL     1      -3.427   2.348   1.082  1.00  0.00    -0.383 N 
ATOM     27  H62 UNL     1      -4.141   3.013   1.380  1.00  0.00     0.157 HD
ATOM     28  H61 UNL     1      -2.446   2.605   1.187  1.00  0.00     0.157 HD
ENDBRANCH  11  26
TORSDOF 7
