REMARK  6 active torsions:
REMARK  status: ('A' for Active; 'I' for Inactive)
REMARK       I    between atoms: N1_2  and  C2_4 
REMARK    1  A    between atoms: C2_4  and  C3_6 
REMARK    2  A    between atoms: C3_6  and  O3_8 
REMARK    3  A    between atoms: O3_8  and  C4_9 
REMARK    4  A    between atoms: C5_10  and  N2_11 
REMARK    5  A    between atoms: C8_16  and  N4_17 
REMARK    6  A    between atoms: C9_22  and  N6_23 
ROOT
HETATM    1  C4  UNL     1      -0.516  -0.738   0.650  1.00  0.00     0.168 A 
HETATM    2  C5  UNL     1      -1.666  -0.229   0.126  1.00  0.00     0.156 A 
HETATM    3  N3  UNL     1      -2.676  -1.136  -0.060  1.00  0.00    -0.174 N 
ATOM      4  H3  UNL     1      -3.560  -0.808  -0.450  1.00  0.00     0.186 HD
HETATM    5  C8  UNL     1      -2.554  -2.435   0.248  1.00  0.00     0.679 A 
HETATM    6  N5  UNL     1      -1.398  -2.903   0.767  1.00  0.00    -0.174 N 
ATOM      7  H5  UNL     1      -1.317  -3.893   0.999  1.00  0.00     0.186 HD
HETATM    8  C9  UNL     1      -0.363  -2.093   0.981  1.00  0.00     0.152 A 
ENDROOT
BRANCH   1   9
HETATM    9  O3  UNL     1       0.571   0.131   0.869  1.00  0.00    -0.263 OA
BRANCH   9  10
HETATM   10  C3  UNL     1       1.675   0.039   0.020  1.00  0.00     0.356 C 
HETATM   11  O2  UNL     1       1.626  -0.818  -0.891  1.00  0.00    -0.253 OA
BRANCH  10  12
HETATM   12  C2  UNL     1       2.843   0.877   0.150  1.00  0.00     0.317 C 
HETATM   13  N1  UNL     1       3.926   0.725  -0.748  1.00  0.00    -0.357 N 
HETATM   14  C1  UNL     1       5.128   1.524  -0.681  1.00  0.00     0.149 C 
ATOM     15  H1  UNL     1       3.855   0.017  -1.478  1.00  0.00     0.162 HD
HETATM   16  O1  UNL     1       2.927   1.748   1.048  1.00  0.00    -0.262 OA
ENDBRANCH  10  12
ENDBRANCH   9  10
ENDBRANCH   1   9
BRANCH   2  17
HETATM   17  N2  UNL     1      -1.847   1.118  -0.194  1.00  0.00    -0.373 N 
HETATM   18  C6  UNL     1      -0.944   2.207  -0.027  1.00  0.00     0.150 C 
HETATM   19  C7  UNL     1      -3.161   1.470  -0.791  1.00  0.00     0.150 C 
ENDBRANCH   2  17
BRANCH   8  20
HETATM   20  N6  UNL     1       0.747  -2.489   1.468  1.00  0.00    -0.383 N 
ATOM     21  H62 UNL     1       1.540  -1.869   1.632  1.00  0.00     0.157 HD
ATOM     22  H61 UNL     1       0.858  -3.474   1.709  1.00  0.00     0.157 HD
ENDBRANCH   8  20
BRANCH   5  23
HETATM   23  N4  UNL     1      -3.510  -3.266   0.069  1.00  0.00    -0.234 N 
ATOM     24  H42 UNL     1      -4.383  -2.913  -0.323  1.00  0.00     0.174 HD
ATOM     25  H41 UNL     1      -3.417  -4.254   0.303  1.00  0.00     0.174 HD
ENDBRANCH   5  23
TORSDOF 6
