REMARK  3 active torsions:
REMARK  status: ('A' for Active; 'I' for Inactive)
REMARK       I    between atoms: C1_4  and  N2_5 
REMARK       I    between atoms: C1_4  and  N4_10 
REMARK    1  A    between atoms: N2_5  and  N3_7 
REMARK       I    between atoms: N4_10  and  C2_12 
REMARK    2  A    between atoms: C2_12  and  C3_14 
REMARK    3  A    between atoms: N5_15  and  O2_17 
ROOT
HETATM    1  N1  UNL     1      -2.132  -0.732  -1.802  1.00  0.00    -0.233 N 
ATOM      2  H11 UNL     1      -1.740  -1.315  -2.542  1.00  0.00     0.174 HD
ATOM      3  H12 UNL     1      -3.134  -0.553  -1.742  1.00  0.00     0.174 HD
HETATM    4  C1  UNL     1      -1.335  -0.225  -0.942  1.00  0.00     0.692 C 
HETATM    5  N2  UNL     1      -1.878   0.582   0.083  1.00  0.00    -0.139 N 
ATOM      6  H2  UNL     1      -1.600   1.560   0.161  1.00  0.00     0.205 HD
HETATM    7  N4  UNL     1       0.046  -0.471  -1.025  1.00  0.00    -0.154 N 
ATOM      8  H4  UNL     1       0.394  -1.059  -1.782  1.00  0.00     0.187 HD
HETATM    9  C2  UNL     1       0.977   0.068  -0.095  1.00  0.00     0.276 C 
HETATM   10  O1  UNL     1       0.604   0.800   0.857  1.00  0.00    -0.266 OA
ENDROOT
BRANCH   5  11
HETATM   11  N3  UNL     1      -2.802   0.039   0.998  1.00  0.00    -0.331 N 
ATOM     12  H32 UNL     1      -3.069  -0.941   0.906  1.00  0.00     0.177 HD
ATOM     13  H31 UNL     1      -3.194   0.622   1.738  1.00  0.00     0.177 HD
ENDBRANCH   5  11
BRANCH   9  14
HETATM   14  C3  UNL     1       2.402  -0.207  -0.212  1.00  0.00     0.188 C 
HETATM   15  N5  UNL     1       3.263   0.260   0.604  1.00  0.00    -0.275 N 
ATOM     16  H5  UNL     1       2.961   0.853   1.377  1.00  0.00     0.193 HD
BRANCH  15  17
HETATM   17  O2  UNL     1       4.583  -0.030   0.448  1.00  0.00    -0.290 OA
ATOM     18  H2  UNL     1       5.225   0.318   1.056  1.00  0.00     0.244 HD
ENDBRANCH  15  17
ENDBRANCH   9  14
TORSDOF 3
