REMARK  1 active torsions:
REMARK  status: ('A' for Active; 'I' for Inactive)
REMARK    1  A    between atoms: N1_1  and  N2_4 
ROOT
HETATM    1  N2  UNL     1      -0.925  -0.334  -0.339  1.00  0.00    -0.039 NA
HETATM    2  N3  UNL     1       0.145  -1.209  -0.499  1.00  0.00    -0.234 N 
ATOM      3  H3  UNL     1       0.023  -2.092  -0.994  1.00  0.00     0.189 HD
HETATM    4  C1  UNL     1       1.412  -0.851   0.039  1.00  0.00     0.341 C 
HETATM    5  O1  UNL     1       2.253  -1.753   0.302  1.00  0.00    -0.245 OA
HETATM    6  N4  UNL     1       1.703   0.536   0.272  1.00  0.00    -0.259 N 
ATOM      7  H4  UNL     1       2.597   0.841   0.657  1.00  0.00     0.175 HD
HETATM    8  C2  UNL     1       0.677   1.461  -0.063  1.00  0.00     0.341 C 
HETATM    9  O2  UNL     1       0.889   2.705   0.125  1.00  0.00    -0.245 OA
HETATM   10  N5  UNL     1      -0.533   0.970  -0.591  1.00  0.00    -0.234 N 
ATOM     11  H5  UNL     1      -1.122   1.577  -1.161  1.00  0.00     0.189 HD
ENDROOT
BRANCH   1  12
HETATM   12  N1  UNL     1      -1.430  -0.371   0.970  1.00  0.00    -0.327 NA
ATOM     13  H12 UNL     1      -1.719  -1.332   1.156  1.00  0.00     0.174 HD
ATOM     14  H11 UNL     1      -2.214   0.270   1.087  1.00  0.00     0.174 HD
ENDBRANCH   1  12
TORSDOF 1
