REMARK  1 active torsions:
REMARK  status: ('A' for Active; 'I' for Inactive)
REMARK       I    between atoms: C1_4  and  N3_6 
REMARK    1  A    between atoms: N5_8  and  N6_9 
ROOT
HETATM    1  N1  UNL     1       2.106   1.392   0.510  1.00  0.00    -0.372 N 
ATOM      2  H11 UNL     1       1.384   2.048   0.809  1.00  0.00     0.158 HD
ATOM      3  H12 UNL     1       3.095   1.637   0.551  1.00  0.00     0.158 HD
HETATM    4  C1  UNL     1       1.795   0.226   0.068  1.00  0.00     0.210 C 
HETATM    5  N2  UNL     1       2.798  -0.686  -0.347  1.00  0.00    -0.062 NA
HETATM    6  N3  UNL     1       0.416  -0.115   0.011  1.00  0.00    -0.161 N 
HETATM    7  N4  UNL     1      -0.696   0.654   0.376  1.00  0.00     0.007 NA
HETATM    8  N5  UNL     1      -1.634   0.277  -0.585  1.00  0.00    -0.026 NA
HETATM    9  N7  UNL     1      -1.537  -1.117  -0.550  1.00  0.00    -0.234 N 
ATOM     10  H7  UNL     1      -2.290  -1.804  -0.590  1.00  0.00     0.189 HD
HETATM   11  C2  UNL     1      -0.125  -1.351  -0.445  1.00  0.00     0.359 C 
HETATM   12  O1  UNL     1       0.536  -2.380  -0.685  1.00  0.00    -0.244 OA
ENDROOT
BRANCH   8  13
HETATM   13  N6  UNL     1      -2.918   0.728  -0.310  1.00  0.00    -0.329 NA
ATOM     14  H62 UNL     1      -2.989   1.745  -0.336  1.00  0.00     0.174 HD
ATOM     15  H61 UNL     1      -3.604   0.452  -1.013  1.00  0.00     0.174 HD
ENDBRANCH   8  13
TORSDOF 1
