REMARK  2 active torsions:
REMARK  status: ('A' for Active; 'I' for Inactive)
REMARK       I    between atoms: C1_4  and  N2_5 
REMARK       I    between atoms: C1_4  and  N4_10 
REMARK    1  A    between atoms: N2_5  and  N3_7 
REMARK    2  A    between atoms: N6_15  and  O2_16 
ROOT
HETATM    1  N1  UNL     1       1.085   1.391  -1.254  1.00  0.00    -0.232 N 
ATOM      2  H11 UNL     1       0.411   2.076  -1.596  1.00  0.00     0.174 HD
ATOM      3  H12 UNL     1       2.064   1.528  -1.505  1.00  0.00     0.174 HD
HETATM    4  C1  UNL     1       0.688   0.397  -0.530  1.00  0.00     0.714 C 
HETATM    5  N2  UNL     1       1.622  -0.552  -0.056  1.00  0.00    -0.137 N 
ATOM      6  H2  UNL     1       1.714  -1.465  -0.502  1.00  0.00     0.205 HD
HETATM    7  N4  UNL     1      -0.659   0.208  -0.185  1.00  0.00    -0.007 N 
HETATM    8  C2  UNL     1      -1.656   0.938   0.523  1.00  0.00     0.373 C 
HETATM    9  O1  UNL     1      -1.664   1.842   1.417  1.00  0.00    -0.243 OA
HETATM   10  N5  UNL     1      -2.587   0.187  -0.232  1.00  0.00    -0.226 N 
ATOM     11  H5  UNL     1      -3.554   0.310  -0.531  1.00  0.00     0.190 HD
HETATM   12  N6  UNL     1      -1.612  -0.791  -0.389  1.00  0.00     0.026 NA
ENDROOT
BRANCH   5  13
HETATM   13  N3  UNL     1       2.411  -0.208   1.033  1.00  0.00    -0.331 N 
ATOM     14  H32 UNL     1       2.307   0.709   1.468  1.00  0.00     0.177 HD
ATOM     15  H31 UNL     1       3.085  -0.893   1.375  1.00  0.00     0.177 HD
ENDBRANCH   5  13
BRANCH  12  16
HETATM   16  O2  UNL     1      -1.549  -1.673   0.655  1.00  0.00    -0.275 OA
ATOM     17  H2  UNL     1      -2.198  -2.353   0.516  1.00  0.00     0.241 HD
ENDBRANCH  12  16
TORSDOF 2
