REMARK  10 active torsions:
REMARK  status: ('A' for Active; 'I' for Inactive)
REMARK    1  A    between atoms: N1_1  and  C1_5 
REMARK    2  A    between atoms: C1_5  and  C2_6 
REMARK    3  A    between atoms: C2_6  and  C3_7 
REMARK    4  A    between atoms: C3_7  and  C5_17 
REMARK    5  A    between atoms: N2_8  and  N3_10 
REMARK    6  A    between atoms: N3_10  and  C4_12 
REMARK    7  A    between atoms: C4_12  and  N4_14 
REMARK    8  A    between atoms: N5_21  and  C9_22 
REMARK    9  A    between atoms: C9_22  and  O3_23 
REMARK   10  A    between atoms: N6_25  and  C10_27 
ROOT
HETATM    1  C5  UNL     1      -1.248   0.456   0.907  1.00  0.00     0.023 A 
HETATM    2  C6  UNL     1      -1.214   0.944   2.222  1.00  0.00     0.017 A 
HETATM    3  C7  UNL     1      -0.033   1.139   2.906  1.00  0.00     0.019 A 
HETATM    4  C8  UNL     1       1.149   0.853   2.295  1.00  0.00     0.101 A 
HETATM    5  N5  UNL     1       1.128   0.385   1.030  1.00  0.00    -0.281 N 
HETATM    6  C16 UNL     1      -0.041   0.189   0.343  1.00  0.00     0.101 A 
HETATM    7 BR1  UNL     1       0.156  -0.379  -1.466  1.00  0.00    -0.030 Br
ENDROOT
BRANCH   1   8
HETATM    8  C3  UNL     1      -2.547   0.224   0.335  1.00  0.00     0.040 C 
HETATM    9  N2  UNL     1      -3.613   0.678   0.986  1.00  0.00    -0.302 N 
ATOM     10  H2  UNL     1      -3.458   1.242   1.822  1.00  0.00     0.186 HD
BRANCH   8  11
HETATM   11  C2  UNL     1      -2.901  -0.577  -0.855  1.00  0.00     0.086 C 
BRANCH  11  12
HETATM   12  C1  UNL     1      -2.723  -2.040  -0.504  1.00  0.00     0.235 C 
BRANCH  12  13
HETATM   13  N1  UNL     1      -2.995  -2.925  -1.617  1.00  0.00    -0.079 N 
ATOM     14  H13 UNL     1      -3.924  -2.753  -2.001  1.00  0.00     0.274 HD
ATOM     15  H12 UNL     1      -2.431  -2.674  -2.429  1.00  0.00     0.274 HD
ATOM     16  H11 UNL     1      -2.875  -3.910  -1.381  1.00  0.00     0.274 HD
ENDBRANCH  12  13
ENDBRANCH  11  12
ENDBRANCH   8  11
BRANCH   9  17
HETATM   17  N3  UNL     1      -4.911   0.435   0.604  1.00  0.00    -0.271 N 
ATOM     18  H3  UNL     1      -5.313  -0.474   0.834  1.00  0.00     0.189 HD
BRANCH  17  19
HETATM   19  C4  UNL     1      -5.728   1.363  -0.088  1.00  0.00     0.257 C 
HETATM   20  S1  UNL     1      -5.156   2.836  -0.490  1.00  0.00    -0.033 SA
BRANCH  19  21
HETATM   21  N4  UNL     1      -7.045   1.024  -0.437  1.00  0.00    -0.085 N 
HETATM   22  O1  UNL     1      -7.775   1.824  -1.043  1.00  0.00    -0.530 OA
HETATM   23  O2  UNL     1      -7.534  -0.209  -0.104  1.00  0.00    -0.530 OA
ENDBRANCH  19  21
ENDBRANCH  17  19
ENDBRANCH   9  17
ENDBRANCH   1   8
BRANCH   5  24
HETATM   24  C9  UNL     1       2.361   0.091   0.407  1.00  0.00     0.229 C 
HETATM   25  N6  UNL     1       3.400   0.852   0.514  1.00  0.00    -0.322 N 
ATOM     26  H6  UNL     1       3.328   1.703   1.072  1.00  0.00     0.169 HD
BRANCH  24  27
HETATM   27  O3  UNL     1       2.495  -1.058  -0.361  1.00  0.00    -0.332 OA
ATOM     28  H3  UNL     1       3.324  -1.256  -0.780  1.00  0.00     0.221 HD
ENDBRANCH  24  27
BRANCH  25  29
HETATM   29  C10 UNL     1       4.636   0.552  -0.114  1.00  0.00     0.036 A 
HETATM   30  C11 UNL     1       4.773   0.653  -1.493  1.00  0.00     0.029 A 
HETATM   31  C12 UNL     1       5.961   0.368  -2.133  1.00  0.00     0.004 A 
HETATM   32  C13 UNL     1       7.070  -0.035  -1.393  1.00  0.00     0.019 A 
HETATM   33  C14 UNL     1       6.946  -0.139  -0.023  1.00  0.00     0.014 A 
HETATM   34  S2  UNL     1       8.404  -0.664   0.898  1.00  0.00    -0.052 SA
HETATM   35  C15 UNL     1       5.751   0.150   0.592  1.00  0.00     0.049 A 
ENDBRANCH  25  29
ENDBRANCH   5  24
TORSDOF 10
