REMARK  7 active torsions:
REMARK  status: ('A' for Active; 'I' for Inactive)
REMARK    1  A    between atoms: O1_2  and  C2_3 
REMARK    2  A    between atoms: C2_3  and  C3_5 
REMARK    3  A    between atoms: C3_5  and  N1_7 
REMARK    4  A    between atoms: C3_5  and  C15_28 
REMARK       I    between atoms: N1_7  and  C5_9 
REMARK    5  A    between atoms: C5_9  and  C6_11 
REMARK    6  A    between atoms: C10_20  and  N3_21 
REMARK    7  A    between atoms: C15_28  and  C16_30 
ROOT
HETATM    1  C6  UNL     1       0.804   0.425   0.945  1.00  0.00     0.193 C 
HETATM    2  N2  UNL     1       1.222   0.259   2.286  1.00  0.00    -0.301 N 
ATOM      3  H2  UNL     1       0.699   0.659   3.065  1.00  0.00     0.173 HD
HETATM    4  S1  UNL     1       2.641  -0.641   2.531  1.00  0.00     0.260 S 
HETATM    5  O4  UNL     1       3.298  -0.128   3.799  1.00  0.00    -0.200 OA
HETATM    6  O5  UNL     1       2.393  -2.100   2.752  1.00  0.00    -0.200 OA
HETATM    7  C7  UNL     1       3.655  -0.353   1.142  1.00  0.00     0.086 A 
HETATM    8  C8  UNL     1       5.024  -0.239   1.190  1.00  0.00     0.028 A 
HETATM    9  C9  UNL     1       5.769  -0.004   0.026  1.00  0.00     0.037 A 
HETATM   10  C10 UNL     1       5.119   0.114  -1.178  1.00  0.00     0.103 A 
HETATM   11  C11 UNL     1       3.750  -0.004  -1.197  1.00  0.00     0.045 A 
HETATM   12  C12 UNL     1       2.995  -0.236  -0.062  1.00  0.00    -0.026 A 
HETATM   13  C13 UNL     1       1.531  -0.362  -0.103  1.00  0.00     0.049 C 
HETATM   14  C14 UNL     1       1.101  -1.816  -0.151  1.00  0.00     0.017 C 
ENDROOT
BRANCH   1  15
HETATM   15  C5  UNL     1      -0.672   0.205   0.879  1.00  0.00     0.243 C 
HETATM   16  N1  UNL     1      -1.391   0.300  -0.341  1.00  0.00    -0.335 N 
ATOM     17  H1  UNL     1      -0.859   0.525  -1.182  1.00  0.00     0.164 HD
HETATM   18  O3  UNL     1      -1.327  -0.077   1.937  1.00  0.00    -0.271 OA
BRANCH  16  19
HETATM   19  C3  UNL     1      -2.810   0.105  -0.489  1.00  0.00     0.179 C 
HETATM   20  C4  UNL     1      -3.099  -1.263   0.153  1.00  0.00     0.058 C 
BRANCH  19  21
HETATM   21  C2  UNL     1      -3.627   1.072   0.265  1.00  0.00     0.294 C 
HETATM   22  O2  UNL     1      -3.022   1.969   0.918  1.00  0.00    -0.262 OA
BRANCH  21  23
HETATM   23  O1  UNL     1      -4.991   1.085   0.321  1.00  0.00    -0.324 OA
HETATM   24  C1  UNL     1      -5.677   2.076   1.092  1.00  0.00     0.213 C 
ENDBRANCH  21  23
ENDBRANCH  19  21
BRANCH  19  25
HETATM   25  C15 UNL     1      -3.162  -0.019  -1.902  1.00  0.00     0.174 C 
HETATM   26  O8  UNL     1      -2.260   0.048  -2.723  1.00  0.00    -0.294 OA
BRANCH  25  27
HETATM   27  C16 UNL     1      -4.524  -0.221  -2.443  1.00  0.00     0.166 C 
HETATM   28 BR1  UNL     1      -5.395   1.456  -2.891  1.00  0.00    -0.088 Br
ENDBRANCH  25  27
ENDBRANCH  19  25
ENDBRANCH  16  19
ENDBRANCH   1  15
BRANCH  10  29
HETATM   29  N3  UNL     1       5.870   0.354  -2.377  1.00  0.00    -0.116 N 
HETATM   30  O6  UNL     1       7.107   0.455  -2.314  1.00  0.00    -0.532 OA
HETATM   31  O7  UNL     1       5.271   0.479  -3.603  1.00  0.00    -0.532 OA
ENDBRANCH  10  29
TORSDOF 7
