REMARK  6 active torsions:
REMARK  status: ('A' for Active; 'I' for Inactive)
REMARK    1  A    between atoms: O1_2  and  C2_3 
REMARK    2  A    between atoms: C4_5  and  C5_6 
REMARK    3  A    between atoms: C5_6  and  N1_7 
REMARK    4  A    between atoms: C8_10  and  O2_11 
REMARK    5  A    between atoms: C10_13  and  O3_14 
REMARK    6  A    between atoms: C12_16  and  O4_17 
ROOT
HETATM    1  N1  UNL     1       0.705   0.367   0.838  1.00  0.00    -0.254 N 
HETATM    2  C6  UNL     1      -0.495  -0.139   0.226  1.00  0.00     0.063 A 
HETATM    3  C7  UNL     1      -0.399  -1.309  -0.496  1.00  0.00     0.071 A 
HETATM    4  C8  UNL     1      -1.464  -1.839  -1.182  1.00  0.00     0.106 A 
HETATM    5  C10 UNL     1      -2.672  -1.174  -1.146  1.00  0.00     0.136 A 
HETATM    6  C12 UNL     1      -2.817   0.020  -0.424  1.00  0.00     0.117 A 
HETATM    7  C14 UNL     1      -1.738   0.517   0.253  1.00  0.00     0.065 A 
HETATM    8  C15 UNL     1      -1.855   1.692   1.132  1.00  0.00     0.236 C 
HETATM    9  N2  UNL     1      -3.117   2.260   1.418  1.00  0.00    -0.303 N 
ATOM     10  H2  UNL     1      -3.987   2.177   0.892  1.00  0.00     0.167 HD
HETATM   11  C16 UNL     1      -2.862   3.007   2.672  1.00  0.00     0.325 C 
HETATM   12  O5  UNL     1      -3.412   4.077   3.029  1.00  0.00    -0.247 OA
HETATM   13  N3  UNL     1      -1.868   2.261   3.383  1.00  0.00    -0.275 N 
ATOM     14  H3  UNL     1      -1.452   2.482   4.288  1.00  0.00     0.173 HD
HETATM   15  C17 UNL     1      -1.584   1.125   2.536  1.00  0.00     0.281 C 
HETATM   16  O6  UNL     1      -1.223   0.004   2.906  1.00  0.00    -0.268 OA
HETATM   17  N4  UNL     1      -0.845   2.622   0.792  1.00  0.00    -0.257 N 
HETATM   18  C18 UNL     1      -1.063   3.997   0.885  1.00  0.00     0.168 C 
HETATM   19  S1  UNL     1       0.682   2.060   1.274  1.00  0.00     0.326 S 
HETATM   20  O7  UNL     1       1.779   2.816   0.531  1.00  0.00    -0.182 OA
HETATM   21  O8  UNL     1       0.998   2.250   2.726  1.00  0.00    -0.182 OA
ENDROOT
BRANCH   1  22
HETATM   22  C5  UNL     1       1.841  -0.453   1.071  1.00  0.00     0.182 C 
BRANCH  22  23
HETATM   23  C4  UNL     1       2.875  -0.419   0.009  1.00  0.00    -0.036 A 
HETATM   24  C3  UNL     1       4.103  -1.058   0.187  1.00  0.00     0.048 A 
HETATM   25  C2  UNL     1       5.091  -1.047  -0.770  1.00  0.00     0.107 A 
HETATM   26  C21 UNL     1       4.895  -0.383  -1.974  1.00  0.00     0.149 A 
HETATM   27  C20 UNL     1       3.688   0.252  -2.166  1.00  0.00     0.046 A 
HETATM   28  F1  UNL     1       5.862  -0.372  -2.911  1.00  0.00    -0.203 F 
HETATM   29  C19 UNL     1       2.709   0.229  -1.193  1.00  0.00     0.012 A 
BRANCH  25  30
HETATM   30  O1  UNL     1       6.308  -1.686  -0.579  1.00  0.00    -0.353 OA
HETATM   31  C1  UNL     1       6.516  -2.361   0.639  1.00  0.00     0.210 C 
ENDBRANCH  25  30
ENDBRANCH  22  23
ENDBRANCH   1  22
BRANCH   4  32
HETATM   32  O2  UNL     1      -1.403  -3.014  -1.917  1.00  0.00    -0.353 OA
HETATM   33  C9  UNL     1      -0.222  -3.784  -2.029  1.00  0.00     0.210 C 
ENDBRANCH   4  32
BRANCH   6  34
HETATM   34  O4  UNL     1      -4.097   0.617  -0.469  1.00  0.00    -0.352 OA
HETATM   35  C13 UNL     1      -4.261   1.445  -1.656  1.00  0.00     0.210 C 
ENDBRANCH   6  34
BRANCH   5  36
HETATM   36  O3  UNL     1      -3.797  -1.652  -1.820  1.00  0.00    -0.351 OA
HETATM   37  C11 UNL     1      -4.670  -2.534  -1.136  1.00  0.00     0.210 C 
ENDBRANCH   5  36
TORSDOF 6
