REMARK  8 active torsions:
REMARK  status: ('A' for Active; 'I' for Inactive)
REMARK    1  A    between atoms: C10_13  and  C12_15 
REMARK    2  A    between atoms: C12_15  and  O3_16 
REMARK    3  A    between atoms: O3_16  and  C13_17 
REMARK    4  A    between atoms: C13_17  and  C14_19 
REMARK    5  A    between atoms: C15_21  and  C16_22 
REMARK    6  A    between atoms: C16_22  and  N1_23 
REMARK       I    between atoms: N1_23  and  C17_25 
REMARK    7  A    between atoms: C17_25  and  O7_27 
REMARK    8  A    between atoms: O7_27  and  C18_28 
ROOT
HETATM    1  C13 UNL     1       0.097  -2.592   1.123  1.00  0.00     0.290 C 
HETATM    2  O4  UNL     1       0.258  -3.859   1.039  1.00  0.00    -0.262 OA
ENDROOT
BRANCH   1   3
HETATM    3  O3  UNL     1       0.923  -1.863   0.302  1.00  0.00    -0.319 OA
BRANCH   3   4
HETATM    4  C12 UNL     1       1.878  -2.445  -0.567  1.00  0.00     0.189 C 
BRANCH   4   5
HETATM    5  C10 UNL     1       2.646  -1.435  -1.350  1.00  0.00     0.000 C 
HETATM    6  C5  UNL     1       3.371  -0.532  -0.452  1.00  0.00     0.038 C 
HETATM    7  C4  UNL     1       4.521  -0.922   0.326  1.00  0.00     0.161 A 
HETATM    8  C6  UNL     1       3.793   0.558  -1.433  1.00  0.00     0.057 C 
HETATM    9  C3  UNL     1       5.023   0.350   1.033  1.00  0.00     0.182 A 
HETATM   10  O1  UNL     1       5.811  -0.242   0.056  1.00  0.00    -0.370 OA
HETATM   11  C2  UNL     1       4.206   1.534   0.708  1.00  0.00    -0.029 C 
HETATM   12  C1  UNL     1       3.911   2.386   1.675  1.00  0.00     0.019 C 
HETATM   13  C7  UNL     1       3.684   1.841  -0.653  1.00  0.00     0.159 C 
HETATM   14  O2  UNL     1       2.285   1.637  -0.789  1.00  0.00    -0.374 OA
HETATM   15  C8  UNL     1       2.467   0.918  -1.997  1.00  0.00     0.145 C 
HETATM   16  C9  UNL     1       1.747  -0.425  -2.050  1.00  0.00     0.098 C 
HETATM   17 BR1  UNL     1       1.612  -0.895  -3.938  1.00  0.00    -0.088 Br
HETATM   18  C11 UNL     1       3.518  -2.161  -2.346  1.00  0.00     0.019 C 
ENDBRANCH   4   5
ENDBRANCH   3   4
ENDBRANCH   1   3
BRANCH   1  19
HETATM   19  C14 UNL     1      -0.918  -2.058   2.054  1.00  0.00     0.252 A 
HETATM   20  O5  UNL     1      -0.448  -1.051   2.900  1.00  0.00    -0.363 OA
HETATM   21  C15 UNL     1      -1.559  -0.807   2.042  1.00  0.00     0.179 A 
BRANCH  21  22
HETATM   22  C16 UNL     1      -1.380   0.265   1.009  1.00  0.00     0.160 C 
BRANCH  22  23
HETATM   23  N1  UNL     1      -2.533   0.471   0.162  1.00  0.00    -0.334 N 
HETATM   24  C17 UNL     1      -3.792   0.875   0.654  1.00  0.00     0.361 C 
HETATM   25  O6  UNL     1      -3.977   1.083   1.866  1.00  0.00    -0.239 OA
ATOM     26  H1  UNL     1      -2.431   0.317  -0.841  1.00  0.00     0.164 HD
BRANCH  24  27
HETATM   27  O7  UNL     1      -4.882   1.058  -0.209  1.00  0.00    -0.295 OA
BRANCH  27  28
HETATM   28  C18 UNL     1      -6.145   1.462   0.275  1.00  0.00     0.184 C 
HETATM   29  C19 UNL     1      -7.222   0.526  -0.247  1.00  0.00     0.266 C 
HETATM   30  N2  UNL     1      -8.032   1.661  -0.636  1.00  0.00    -0.070 N 
HETATM   31  C20 UNL     1      -6.855   2.500  -0.543  1.00  0.00     0.266 C 
ATOM     32  H22 UNL     1      -8.581   1.634  -1.495  1.00  0.00     0.277 HD
ATOM     33  H21 UNL     1      -8.877   1.896  -0.115  1.00  0.00     0.277 HD
ENDBRANCH  27  28
ENDBRANCH  24  27
ENDBRANCH  22  23
ENDBRANCH  21  22
ENDBRANCH   1  19
TORSDOF 8
