REMARK  9 active torsions:
REMARK  status: ('A' for Active; 'I' for Inactive)
REMARK    1  A    between atoms: C3_4  and  O1_5 
REMARK    2  A    between atoms: O1_5  and  C4_6 
REMARK    3  A    between atoms: C4_6  and  C5_7 
REMARK    4  A    between atoms: C6_8  and  C7_9 
REMARK    5  A    between atoms: C7_9  and  C8_10 
REMARK    6  A    between atoms: C8_10  and  N2_11 
REMARK    7  A    between atoms: N2_11  and  C10_13 
REMARK    8  A    between atoms: C10_13  and  C11_14 
REMARK    9  A    between atoms: C11_14  and  O2_15 
ROOT
HETATM    1  C1  UNL     1      -1.858  -2.477   0.220  1.00  0.00     0.041 C 
HETATM    2  C2  UNL     1      -2.761  -1.529   0.175  1.00  0.00     0.042 C 
HETATM    3  N1  UNL     1      -2.524  -0.115   0.224  1.00  0.00    -0.339 N 
HETATM    4  C3  UNL     1      -1.365   0.602  -0.268  1.00  0.00     0.249 C 
HETATM    5  C12 UNL     1      -1.680   1.073  -1.678  1.00  0.00     0.229 C 
HETATM    6  O3  UNL     1      -2.713   1.998  -1.692  1.00  0.00    -0.346 OA
HETATM    7  C13 UNL     1      -3.867   2.202  -0.997  1.00  0.00     0.077 A 
HETATM    8  C14 UNL     1      -4.622   3.229  -1.575  1.00  0.00     0.039 A 
HETATM    9  C15 UNL     1      -5.818   3.594  -1.032  1.00  0.00     0.022 A 
HETATM   10  C16 UNL     1      -6.278   2.949   0.086  1.00  0.00     0.011 A 
HETATM   11 BR1  UNL     1      -7.949   3.467   0.841  1.00  0.00    -0.051 Br
HETATM   12  C17 UNL     1      -5.523   1.925   0.659  1.00  0.00     0.031 A 
HETATM   13  C18 UNL     1      -4.316   1.542   0.127  1.00  0.00     0.005 A 
HETATM   14  C19 UNL     1      -3.688   0.476   0.876  1.00  0.00     0.172 C 
HETATM   15  C20 UNL     1      -4.625  -0.637   1.112  1.00  0.00     0.060 C 
HETATM   16  N3  UNL     1      -5.670  -1.111   1.660  1.00  0.00    -0.304 N 
ATOM     17  H3  UNL     1      -6.288  -0.574   2.268  1.00  0.00     0.171 HD
HETATM   18  C21 UNL     1      -5.875  -2.470   1.327  1.00  0.00     0.366 C 
HETATM   19  O4  UNL     1      -6.822  -3.221   1.696  1.00  0.00    -0.238 OA
HETATM   20  O5  UNL     1      -4.817  -2.818   0.504  1.00  0.00    -0.280 OA
HETATM   21  C22 UNL     1      -4.216  -1.670   0.072  1.00  0.00     0.150 C 
HETATM   22  C23 UNL     1      -4.716  -1.262  -1.314  1.00  0.00     0.060 C 
ENDROOT
BRANCH   4  23
HETATM   23  O1  UNL     1      -0.180  -0.101  -0.212  1.00  0.00    -0.353 OA
BRANCH  23  24
HETATM   24  C4  UNL     1       0.711   0.616   0.577  1.00  0.00     0.264 C 
BRANCH  24  25
HETATM   25  C5  UNL     1       1.996  -0.025   0.699  1.00  0.00    -0.080 C 
HETATM   26  C6  UNL     1       3.081  -0.541   0.802  1.00  0.00    -0.099 C 
BRANCH  26  27
HETATM   27  C7  UNL     1       4.423  -1.144   0.929  1.00  0.00     0.138 C 
BRANCH  27  28
HETATM   28  C8  UNL     1       5.216  -0.661  -0.267  1.00  0.00     0.070 C 
BRANCH  28  29
HETATM   29  N2  UNL     1       6.543  -1.134  -0.312  1.00  0.00    -0.395 N 
HETATM   30  C9  UNL     1       6.744  -2.521  -0.539  1.00  0.00     0.148 C 
BRANCH  29  31
HETATM   31  C10 UNL     1       7.531  -0.445   0.431  1.00  0.00     0.147 C 
BRANCH  31  32
HETATM   32  C11 UNL     1       7.799   0.920  -0.149  1.00  0.00     0.183 C 
BRANCH  32  33
HETATM   33  O2  UNL     1       8.780   1.604   0.587  1.00  0.00    -0.399 OA
ATOM     34  H2  UNL     1       8.949   2.464   0.221  1.00  0.00     0.209 HD
ENDBRANCH  32  33
ENDBRANCH  31  32
ENDBRANCH  29  31
ENDBRANCH  28  29
ENDBRANCH  27  28
ENDBRANCH  26  27
ENDBRANCH  24  25
ENDBRANCH  23  24
ENDBRANCH   4  23
TORSDOF 9
