REMARK  7 active torsions:
REMARK  status: ('A' for Active; 'I' for Inactive)
REMARK    1  A    between atoms: C6_10  and  N3_11 
REMARK    2  A    between atoms: N4_14  and  C9_15 
REMARK    3  A    between atoms: C9_15  and  C10_16 
REMARK    4  A    between atoms: C10_16  and  O1_17 
REMARK    5  A    between atoms: C10_16  and  C11_19 
REMARK    6  A    between atoms: C11_19  and  N5_20 
REMARK    7  A    between atoms: N6_24  and  C15_25 
ROOT
HETATM    1  N1  UNL     1       8.498  -2.930  -0.630  1.00  0.00    -0.191 NA
HETATM    2  C1  UNL     1       8.355  -1.802  -0.331  1.00  0.00     0.103 C 
HETATM    3  C2  UNL     1       8.212  -0.427   0.043  1.00  0.00     0.089 A 
HETATM    4  C3  UNL     1       9.350   0.381   0.131  1.00  0.00     0.047 A 
HETATM    5  C4  UNL     1       9.263   1.706   0.493  1.00  0.00     0.028 A 
HETATM    6 BR1  UNL     1      10.812   2.811   0.600  1.00  0.00    -0.050 Br
HETATM    7  C5  UNL     1       7.988   2.192   0.765  1.00  0.00     0.108 A 
HETATM    8  N2  UNL     1       6.892   1.429   0.684  1.00  0.00    -0.350 N 
ATOM      9  H2  UNL     1       5.980   1.836   0.894  1.00  0.00     0.166 HD
HETATM   10  C6  UNL     1       6.975   0.110   0.323  1.00  0.00     0.124 A 
ENDROOT
BRANCH  10  11
HETATM   11  N3  UNL     1       5.817  -0.687   0.210  1.00  0.00    -0.363 N 
HETATM   12  C7  UNL     1       5.411  -1.344  -1.019  1.00  0.00     0.154 C 
HETATM   13  C8  UNL     1       4.019  -0.971  -1.391  1.00  0.00     0.292 C 
HETATM   14  N4  UNL     1       3.094  -0.709  -0.334  1.00  0.00     0.094 N 
HETATM   15  C23 UNL     1       3.571  -0.365   0.935  1.00  0.00     0.292 C 
HETATM   16  C24 UNL     1       4.933  -0.888   1.315  1.00  0.00     0.154 C 
BRANCH  14  17
HETATM   17  C9  UNL     1       2.258   0.390  -0.845  1.00  0.00     0.305 C 
BRANCH  17  18
HETATM   18  C10 UNL     1       0.975   0.608  -0.092  1.00  0.00     0.174 C 
BRANCH  18  19
HETATM   19  O1  UNL     1       1.221   0.919   1.221  1.00  0.00    -0.392 OA
ATOM     20  H1  UNL     1       0.410   1.057   1.697  1.00  0.00     0.210 HD
ENDBRANCH  18  19
BRANCH  18  21
HETATM   21  C11 UNL     1       0.079  -0.552  -0.329  1.00  0.00     0.305 C 
BRANCH  21  22
HETATM   22  N5  UNL     1      -1.260  -0.524   0.144  1.00  0.00     0.092 N 
HETATM   23  C12 UNL     1      -1.856  -1.785  -0.273  1.00  0.00     0.274 C 
HETATM   24  C13 UNL     1      -3.023  -2.213   0.517  1.00  0.00     0.060 C 
HETATM   25  C14 UNL     1      -4.339  -1.594   0.188  1.00  0.00     0.275 C 
HETATM   26  N6  UNL     1      -4.321  -0.131   0.238  1.00  0.00     0.094 N 
HETATM   27  C21 UNL     1      -3.328   0.330  -0.770  1.00  0.00     0.303 C 
HETATM   28  C22 UNL     1      -2.000   0.644  -0.140  1.00  0.00     0.302 C 
BRANCH  26  29
HETATM   29  C15 UNL     1      -5.616   0.335  -0.222  1.00  0.00     0.223 C 
HETATM   30  C16 UNL     1      -6.710  -0.226   0.655  1.00  0.00     0.036 C 
HETATM   31  C17 UNL     1      -8.030   0.411   0.566  1.00  0.00     0.002 C 
HETATM   32  C18 UNL     1      -8.175   1.726  -0.079  1.00  0.00     0.000 C 
HETATM   33  C19 UNL     1      -6.921   2.302  -0.671  1.00  0.00     0.002 C 
HETATM   34  C20 UNL     1      -5.684   1.843   0.067  1.00  0.00     0.036 C 
ENDBRANCH  26  29
ENDBRANCH  21  22
ENDBRANCH  18  21
ENDBRANCH  17  18
ENDBRANCH  14  17
ENDBRANCH  10  11
TORSDOF 7
