REMARK  7 active torsions:
REMARK  status: ('A' for Active; 'I' for Inactive)
REMARK    1  A    between atoms: C2_2  and  O1_3 
REMARK    2  A    between atoms: O1_3  and  C3_4 
REMARK    3  A    between atoms: C8_10  and  N1_11 
REMARK    4  A    between atoms: C15_22  and  O5_23 
REMARK    5  A    between atoms: O5_23  and  C16_24 
REMARK    6  A    between atoms: C18_27  and  C19_28 
REMARK    7  A    between atoms: C20_29  and  C21_30 
ROOT
HETATM    1  C3  UNL     1      -2.201  -2.056  -0.171  1.00  0.00     0.151 C 
HETATM    2  C4  UNL     1      -0.943  -2.834   0.147  1.00  0.00     0.200 C 
HETATM    3  O2  UNL     1      -0.017  -2.913  -0.829  1.00  0.00    -0.383 OA
HETATM    4  C5  UNL     1       0.152  -1.921  -1.722  1.00  0.00     0.127 C 
HETATM    5  C6  UNL     1      -1.137  -1.199  -2.140  1.00  0.00     0.041 C 
HETATM    6  C7  UNL     1      -1.767  -0.758  -0.824  1.00  0.00     0.043 C 
HETATM    7  C8  UNL     1      -0.809   0.037   0.030  1.00  0.00     0.107 C 
HETATM    8  C14 UNL     1       0.490   0.325  -0.659  1.00  0.00     0.047 C 
HETATM    9  C15 UNL     1       1.701   0.244   0.323  1.00  0.00     0.146 C 
HETATM   10  C18 UNL     1       2.028  -1.109  -0.174  1.00  0.00     0.045 C 
HETATM   11  C23 UNL     1       1.103  -0.823  -1.356  1.00  0.00     0.033 C 
ENDROOT
BRANCH   7  12
HETATM   12  N1  UNL     1      -1.452   1.285   0.351  1.00  0.00    -0.303 N 
HETATM   13  C9  UNL     1      -1.808   2.168  -0.599  1.00  0.00     0.108 A 
HETATM   14  C10 UNL     1      -2.428   3.366  -0.261  1.00  0.00     0.022 A 
HETATM   15  C11 UNL     1      -2.813   4.329  -1.333  1.00  0.00     0.056 C 
HETATM   16  C12 UNL     1      -2.683   3.659   1.068  1.00  0.00     0.256 A 
HETATM   17  O3  UNL     1      -3.244   4.742   1.386  1.00  0.00    -0.267 OA
HETATM   18  N2  UNL     1      -2.307   2.740   1.993  1.00  0.00    -0.275 N 
HETATM   19  C13 UNL     1      -1.707   1.585   1.630  1.00  0.00     0.329 A 
ATOM     20  H2  UNL     1      -2.481   2.925   2.981  1.00  0.00     0.173 HD
HETATM   21  O4  UNL     1      -1.378   0.768   2.525  1.00  0.00    -0.246 OA
ENDBRANCH   7  12
BRANCH   1  22
HETATM   22  O1  UNL     1      -2.919  -1.834   0.973  1.00  0.00    -0.384 OA
BRANCH  22  23
HETATM   23  C2  UNL     1      -4.188  -2.347   0.993  1.00  0.00     0.163 C 
HETATM   24  C1  UNL     1      -4.295  -3.819   0.833  1.00  0.00     0.033 C 
ENDBRANCH  22  23
ENDBRANCH   1  22
BRANCH   9  25
HETATM   25  O5  UNL     1       2.561   1.308   0.062  1.00  0.00    -0.315 OA
BRANCH  25  26
HETATM   26  C16 UNL     1       2.824   2.299   1.011  1.00  0.00     0.255 C 
HETATM   27  C17 UNL     1       3.735   3.432   0.744  1.00  0.00     0.126 C 
HETATM   28  O6  UNL     1       2.249   2.194   2.124  1.00  0.00    -0.266 OA
ENDBRANCH  25  26
ENDBRANCH   9  25
BRANCH  10  29
HETATM   29  C19 UNL     1       3.397  -1.461  -0.582  1.00  0.00    -0.019 C 
HETATM   30  C20 UNL     1       4.511  -0.875  -0.273  1.00  0.00    -0.003 C 
BRANCH  30  31
HETATM   31  C21 UNL     1       5.769  -1.421  -0.814  1.00  0.00     0.007 C 
HETATM   32  C22 UNL     1       6.897  -0.827  -0.500  1.00  0.00     0.056 C 
HETATM   33 BR1  UNL     1       8.546  -1.502  -1.180  1.00  0.00    -0.064 Br
ENDBRANCH  30  31
ENDBRANCH  10  29
TORSDOF 7
