REMARK  12 active torsions:
REMARK  status: ('A' for Active; 'I' for Inactive)
REMARK    1  A    between atoms: C1_2  and  C2_4 
REMARK    2  A    between atoms: C2_4  and  N2_5 
REMARK    3  A    between atoms: C2_4  and  C3_9 
REMARK    4  A    between atoms: C2_4  and  C11_25 
REMARK       I    between atoms: C3_9  and  N3_11 
REMARK    5  A    between atoms: N3_11  and  N4_13 
REMARK    6  A    between atoms: C4_15  and  C5_16 
REMARK    7  A    between atoms: C9_20  and  N5_21 
REMARK    8  A    between atoms: N8_31  and  N9_33 
REMARK    9  A    between atoms: C13_35  and  C14_36 
REMARK   10  A    between atoms: C17_39  and  O5_40 
REMARK   11  A    between atoms: C18_42  and  O6_43 
REMARK   12  A    between atoms: C19_45  and  O7_46 
ROOT
HETATM    1  C11 UNL     1       0.193   0.436   1.505  1.00  0.00     0.124 A 
HETATM    2  N6  UNL     1       1.199  -0.419   1.370  1.00  0.00    -0.292 N 
ATOM      3  H6  UNL     1       1.262  -1.231   1.984  1.00  0.00     0.187 HD
HETATM    4  N7  UNL     1       2.082  -0.231   0.481  1.00  0.00    -0.278 N 
ATOM      5  H7  UNL     1       2.857  -0.885   0.375  1.00  0.00     0.189 HD
HETATM    6  C12 UNL     1       1.982   0.837  -0.315  1.00  0.00     0.179 A 
HETATM    7  N8  UNL     1       2.776   1.215  -1.286  1.00  0.00    -0.279 N 
ATOM      8  H8  UNL     1       2.582   2.062  -1.820  1.00  0.00     0.189 HD
HETATM    9  S1  UNL     1       0.554   1.570   0.272  1.00  0.00    -0.033 SA
ENDROOT
BRANCH   1  10
HETATM   10  C2  UNL     1      -0.950   0.408   2.481  1.00  0.00     0.330 C 
BRANCH  10  11
HETATM   11  C1  UNL     1      -1.072   1.803   2.994  1.00  0.00     0.284 C 
HETATM   12  N1  UNL     1      -1.381   2.915   2.162  1.00  0.00    -0.059 NA
HETATM   13  O1  UNL     1      -0.905   2.093   4.227  1.00  0.00    -0.273 OA
ENDBRANCH  10  11
BRANCH  10  14
HETATM   14  N2  UNL     1      -0.622  -0.420   3.625  1.00  0.00    -0.046 N 
ATOM     15  H23 UNL     1       0.204  -0.101   4.132  1.00  0.00     0.276 HD
ATOM     16  H22 UNL     1      -1.285  -0.328   4.395  1.00  0.00     0.276 HD
ATOM     17  H21 UNL     1      -0.539  -1.374   3.274  1.00  0.00     0.276 HD
ENDBRANCH  10  14
BRANCH  10  18
HETATM   18  C3  UNL     1      -2.188  -0.080   1.850  1.00  0.00     0.288 C 
HETATM   19  O2  UNL     1      -2.794  -1.052   2.333  1.00  0.00    -0.268 OA
HETATM   20  N3  UNL     1      -2.687   0.558   0.696  1.00  0.00    -0.267 N 
ATOM     21  H3  UNL     1      -2.188   1.355   0.302  1.00  0.00     0.190 HD
BRANCH  20  22
HETATM   22  N4  UNL     1      -3.873   0.100   0.083  1.00  0.00    -0.308 N 
HETATM   23  C4  UNL     1      -5.008   0.439   0.579  1.00  0.00     0.118 C 
ATOM     24  H4  UNL     1      -3.829  -0.494  -0.745  1.00  0.00     0.186 HD
BRANCH  23  25
HETATM   25  C5  UNL     1      -6.231  -0.029  -0.048  1.00  0.00    -0.017 A 
HETATM   26  C6  UNL     1      -7.450   0.331   0.478  1.00  0.00     0.013 A 
HETATM   27  C7  UNL     1      -8.632  -0.113  -0.116  1.00  0.00     0.003 A 
HETATM   28  C8  UNL     1      -8.577  -0.916  -1.235  1.00  0.00     0.036 A 
HETATM   29  C9  UNL     1      -7.366  -1.301  -1.795  1.00  0.00     0.103 A 
HETATM   30  C10 UNL     1      -6.222  -0.837  -1.173  1.00  0.00     0.048 A 
BRANCH  29  31
HETATM   31  N5  UNL     1      -7.291  -2.124  -2.941  1.00  0.00    -0.116 N 
HETATM   32  O3  UNL     1      -8.326  -2.525  -3.478  1.00  0.00    -0.532 OA
HETATM   33  O4  UNL     1      -6.077  -2.470  -3.447  1.00  0.00    -0.532 OA
ENDBRANCH  29  31
ENDBRANCH  23  25
ENDBRANCH  20  22
ENDBRANCH  10  18
ENDBRANCH   1  10
BRANCH   7  34
HETATM   34  N9  UNL     1       3.874   0.443  -1.566  1.00  0.00    -0.309 N 
HETATM   35  C13 UNL     1       4.922   0.519  -0.823  1.00  0.00     0.121 C 
ATOM     36  H9  UNL     1       3.860  -0.192  -2.364  1.00  0.00     0.186 HD
BRANCH  35  37
HETATM   37  C14 UNL     1       6.063  -0.328  -1.170  1.00  0.00     0.017 A 
HETATM   38  C15 UNL     1       5.974  -1.173  -2.276  1.00  0.00     0.018 A 
HETATM   39  C16 UNL     1       7.030  -1.984  -2.631  1.00  0.00     0.040 A 
HETATM   40  C17 UNL     1       8.211  -2.009  -1.931  1.00  0.00     0.101 A 
HETATM   41  C18 UNL     1       8.305  -1.179  -0.839  1.00  0.00     0.133 A 
HETATM   42  C19 UNL     1       7.244  -0.349  -0.464  1.00  0.00     0.113 A 
BRANCH  40  43
HETATM   43  O5  UNL     1       9.247  -2.844  -2.326  1.00  0.00    -0.358 OA
ATOM     44  H5  UNL     1      10.064  -2.861  -1.842  1.00  0.00     0.217 HD
ENDBRANCH  40  43
BRANCH  41  45
HETATM   45  O6  UNL     1       9.485  -1.178  -0.108  1.00  0.00    -0.356 OA
ATOM     46  H6  UNL     1       9.550  -0.604   0.647  1.00  0.00     0.218 HD
ENDBRANCH  41  45
BRANCH  42  47
HETATM   47  O7  UNL     1       7.378   0.469   0.636  1.00  0.00    -0.357 OA
ATOM     48  H7  UNL     1       8.193   0.455   1.123  1.00  0.00     0.217 HD
ENDBRANCH  42  47
ENDBRANCH  35  37
ENDBRANCH   7  34
TORSDOF 12
