REMARK  14 active torsions:
REMARK  status: ('A' for Active; 'I' for Inactive)
REMARK    1  A    between atoms: C3_8  and  C4_9 
REMARK    2  A    between atoms: C4_9  and  O1_10 
REMARK    3  A    between atoms: C4_9  and  N3_12 
REMARK    4  A    between atoms: N3_12  and  N4_14 
REMARK    5  A    between atoms: N4_14  and  C5_15 
REMARK    6  A    between atoms: C5_15  and  C6_16 
REMARK    7  A    between atoms: C5_15  and  C17_37 
REMARK    8  A    between atoms: C7_18  and  C8_19 
REMARK    9  A    between atoms: C8_19  and  C9_20 
REMARK   10  A    between atoms: C8_19  and  N7_27 
REMARK   11  A    between atoms: C14_30  and  C15_31 
REMARK   12  A    between atoms: C16_34  and  O4_35 
REMARK   13  A    between atoms: C17_37  and  N9_38 
REMARK   14  A    between atoms: C17_37  and  N10_42 
ROOT
HETATM    1  C5  UNL     1       1.456   1.186   0.647  1.00  0.00     0.202 C 
ENDROOT
BRANCH   1   2
HETATM    2  N4  UNL     1       2.523   1.347   0.172  1.00  0.00    -0.321 NA
BRANCH   2   3
HETATM    3  N3  UNL     1       3.682   1.458  -0.419  1.00  0.00    -0.211 N 
ATOM      4  H3  UNL     1       3.765   2.123  -1.188  1.00  0.00     0.204 HD
BRANCH   3   5
HETATM    5  C4  UNL     1       4.838   0.708  -0.057  1.00  0.00     0.186 C 
BRANCH   5   6
HETATM    6  C3  UNL     1       6.168   0.746  -0.632  1.00  0.00     0.099 A 
HETATM    7  C2  UNL     1       6.767   1.442  -1.635  1.00  0.00     0.045 A 
HETATM    8  C1  UNL     1       6.032   2.471  -2.476  1.00  0.00     0.071 C 
HETATM    9  N1  UNL     1       8.029   1.202  -1.874  1.00  0.00    -0.298 N 
HETATM   10  N2  UNL     1       8.673   0.333  -1.175  1.00  0.00    -0.269 N 
ATOM     11  H1  UNL     1       8.508   1.707  -2.620  1.00  0.00     0.187 HD
HETATM   12  S1  UNL     1       7.527  -0.234  -0.097  1.00  0.00     0.008 SA
ATOM     13  H2  UNL     1       9.651   0.056  -1.259  1.00  0.00     0.195 HD
ENDBRANCH   5   6
BRANCH   5  14
HETATM   14  O1  UNL     1       4.675  -0.126   0.930  1.00  0.00    -0.344 OA
ATOM     15  H1  UNL     1       3.803  -0.151   1.307  1.00  0.00     0.219 HD
ENDBRANCH   5  14
ENDBRANCH   3   5
ENDBRANCH   2   3
ENDBRANCH   1   2
BRANCH   1  16
HETATM   16  C6  UNL     1       0.439   0.198   0.157  1.00  0.00     0.152 A 
HETATM   17  O2  UNL     1      -0.740  -0.020   0.620  1.00  0.00    -0.305 OA
HETATM   18  C7  UNL     1      -1.377  -0.956  -0.042  1.00  0.00     0.100 A 
HETATM   19  C14 UNL     1      -0.509  -1.391  -1.045  1.00  0.00     0.097 A 
HETATM   20  C16 UNL     1       0.653  -0.660  -0.928  1.00  0.00     0.120 A 
BRANCH  18  21
HETATM   21  C8  UNL     1      -2.764  -1.452   0.226  1.00  0.00     0.184 C 
BRANCH  21  22
HETATM   22  C9  UNL     1      -3.153  -0.961   1.600  1.00  0.00     0.027 C 
HETATM   23  C10 UNL     1      -3.161   0.503   1.792  1.00  0.00     0.137 C 
HETATM   24  S2  UNL     1      -4.594   0.680   2.905  1.00  0.00    -0.091 SA
HETATM   25  C11 UNL     1      -5.112  -1.028   2.821  1.00  0.00     0.154 C 
HETATM   26  N5  UNL     1      -6.259  -1.631   3.400  1.00  0.00    -0.075 NA
HETATM   27  N6  UNL     1      -4.261  -1.627   2.139  1.00  0.00    -0.343 N 
ATOM     28  H6  UNL     1      -4.373  -2.626   1.968  1.00  0.00     0.167 HD
ENDBRANCH  21  22
BRANCH  21  29
HETATM   29  N7  UNL     1      -3.582  -1.104  -0.832  1.00  0.00    -0.406 N 
HETATM   30  C12 UNL     1      -4.917  -1.622  -0.740  1.00  0.00     0.143 C 
HETATM   31  C13 UNL     1      -3.541   0.104  -1.510  1.00  0.00     0.143 C 
ENDBRANCH  21  29
ENDBRANCH  18  21
BRANCH  19  32
HETATM   32  C15 UNL     1      -0.730  -2.426  -2.035  1.00  0.00     0.270 C 
HETATM   33  N8  UNL     1       0.208  -2.813  -3.016  1.00  0.00    -0.057 NA
HETATM   34  O3  UNL     1      -1.813  -3.039  -2.053  1.00  0.00    -0.271 OA
ENDBRANCH  19  32
BRANCH  20  35
HETATM   35  O4  UNL     1       1.813  -0.686  -1.653  1.00  0.00    -0.357 OA
ATOM     36  H4  UNL     1       1.958  -1.268  -2.389  1.00  0.00     0.218 HD
ENDBRANCH  20  35
ENDBRANCH   1  16
BRANCH   1  37
HETATM   37  C17 UNL     1       0.953   1.970   1.859  1.00  0.00     0.446 C 
BRANCH  37  38
HETATM   38  N9  UNL     1       0.720   1.104   2.980  1.00  0.00    -0.043 N 
ATOM     39  H93 UNL     1       0.087   0.341   2.739  1.00  0.00     0.277 HD
ATOM     40  H92 UNL     1       1.549   0.554   3.207  1.00  0.00     0.277 HD
ATOM     41  H91 UNL     1       0.384   1.627   3.789  1.00  0.00     0.277 HD
ENDBRANCH  37  38
BRANCH  37  42
HETATM   42  N10 UNL     1       1.851   3.010   2.233  1.00  0.00    -0.043 N 
ATOM     43 3H10 UNL     1       2.791   2.648   2.391  1.00  0.00     0.277 HD
ATOM     44 2H10 UNL     1       2.047   3.630   1.447  1.00  0.00     0.277 HD
ATOM     45 1H10 UNL     1       1.515   3.533   3.042  1.00  0.00     0.277 HD
ENDBRANCH  37  42
ENDBRANCH   1  37
TORSDOF 14
