REMARK  15 active torsions:
REMARK  status: ('A' for Active; 'I' for Inactive)
REMARK    1  A    between atoms: C2_2  and  O1_3 
REMARK    2  A    between atoms: C2_2  and  C3_5 
REMARK    3  A    between atoms: C5_7  and  O2_8 
REMARK    4  A    between atoms: N1_10  and  N2_11 
REMARK    5  A    between atoms: N2_11  and  N3_13 
REMARK    6  A    between atoms: N3_13  and  C6_14 
REMARK    7  A    between atoms: C6_14  and  N4_15 
REMARK    8  A    between atoms: C6_14  and  C13_26 
REMARK    9  A    between atoms: C7_17  and  C8_18 
REMARK   10  A    between atoms: C13_26  and  N7_27 
REMARK   11  A    between atoms: C13_26  and  C14_31 
REMARK   12  A    between atoms: C14_31  and  N8_32 
REMARK   13  A    between atoms: C14_31  and  S1_36 
REMARK   14  A    between atoms: N8_32  and  N9_33 
REMARK   15  A    between atoms: S1_36  and  C15_39 
ROOT
HETATM    1  C6  UNL     1       0.112   0.304   1.047  1.00  0.00     0.236 C 
ENDROOT
BRANCH   1   2
HETATM    2  N3  UNL     1      -1.175  -0.225   1.462  1.00  0.00    -0.096 NA
BRANCH   2   3
HETATM    3  N2  UNL     1      -1.492  -1.426   0.874  1.00  0.00    -0.221 N 
ATOM      4  H2  UNL     1      -0.758  -1.924   0.371  1.00  0.00     0.206 HD
BRANCH   3   5
HETATM    5  N1  UNL     1      -2.761  -2.002   0.926  1.00  0.00    -0.165 N 
HETATM    6  C5  UNL     1      -3.193  -2.990   0.119  1.00  0.00     0.162 A 
HETATM    7  C4  UNL     1      -4.432  -3.296   0.488  1.00  0.00     0.149 A 
HETATM    8  C3  UNL     1      -4.828  -2.301   1.771  1.00  0.00     0.067 A 
HETATM    9  N11 UNL     1      -3.768  -1.862   1.641  1.00  0.00    -0.278 N 
ATOM     10  H11 UNL     1      -3.607  -1.128   2.330  1.00  0.00     0.189 HD
BRANCH   6  11
HETATM   11  O2  UNL     1      -2.403  -3.541  -0.907  1.00  0.00    -0.347 OA
ATOM     12  H2  UNL     1      -1.517  -3.322  -1.171  1.00  0.00     0.219 HD
ENDBRANCH   6  11
BRANCH   8  13
HETATM   13  C2  UNL     1      -6.213  -2.877   1.935  1.00  0.00     0.080 C 
HETATM   14  C1  UNL     1      -7.138  -3.625   1.230  1.00  0.00     0.052 C 
BRANCH  13  15
HETATM   15  O1  UNL     1      -6.611  -2.509   3.159  1.00  0.00    -0.359 OA
ATOM     16  H1  UNL     1      -5.976  -1.995   3.643  1.00  0.00     0.217 HD
ENDBRANCH  13  15
ENDBRANCH   8  13
ENDBRANCH   3   5
ENDBRANCH   2   3
ENDBRANCH   1   2
BRANCH   1  17
HETATM   17  N4  UNL     1       0.225   1.692   1.426  1.00  0.00    -0.377 N 
HETATM   18  C7  UNL     1      -0.541   2.609   0.933  1.00  0.00     0.099 C 
ATOM     19  H4  UNL     1       0.935   1.959   2.108  1.00  0.00     0.160 HD
BRANCH  18  20
HETATM   20  C8  UNL     1      -0.388   3.994   1.346  1.00  0.00     0.018 A 
HETATM   21  C9  UNL     1       0.575   4.397   2.285  1.00  0.00     0.102 A 
HETATM   22  N5  UNL     1       0.700   5.683   2.640  1.00  0.00    -0.374 N 
HETATM   23  C10 UNL     1      -0.063   6.662   2.141  1.00  0.00     0.089 A 
ATOM     24  H5  UNL     1       1.414   5.928   3.326  1.00  0.00     0.164 HD
HETATM   25  C11 UNL     1      -1.026   6.334   1.216  1.00  0.00     0.044 A 
HETATM   26  C12 UNL     1      -1.168   5.006   0.837  1.00  0.00     0.060 A 
HETATM   27  N6  UNL     1      -2.168   4.637  -0.136  1.00  0.00    -0.101 NA
ENDBRANCH  18  20
ENDBRANCH   1  17
BRANCH   1  28
HETATM   28  C13 UNL     1       0.544  -0.044  -0.317  1.00  0.00     0.301 C 
BRANCH  28  29
HETATM   29  N7  UNL     1      -0.426   0.385  -1.332  1.00  0.00    -0.064 N 
ATOM     30  H73 UNL     1      -1.356   0.015  -1.134  1.00  0.00     0.275 HD
ATOM     31  H72 UNL     1      -0.628   1.382  -1.252  1.00  0.00     0.275 HD
ATOM     32  H71 UNL     1      -0.127   0.144  -2.277  1.00  0.00     0.275 HD
ENDBRANCH  28  29
BRANCH  28  33
HETATM   33  C14 UNL     1       1.818   0.693  -0.683  1.00  0.00     0.240 C 
BRANCH  33  34
HETATM   34  N8  UNL     1       1.811   1.517  -1.615  1.00  0.00    -0.323 NA
BRANCH  34  35
HETATM   35  N9  UNL     1       1.731   2.322  -2.552  1.00  0.00    -0.279 N 
ATOM     36  H92 UNL     1       0.800   1.922  -2.438  1.00  0.00     0.191 HD
ATOM     37  H91 UNL     1       1.725   2.998  -3.316  1.00  0.00     0.191 HD
ENDBRANCH  34  35
ENDBRANCH  33  34
BRANCH  33  38
HETATM   38  S1  UNL     1       3.295   0.409   0.185  1.00  0.00     0.235 S 
HETATM   39  O3  UNL     1       3.109   0.299   1.653  1.00  0.00    -0.215 OA
HETATM   40  O4  UNL     1       4.196   1.643  -0.002  1.00  0.00    -0.215 OA
BRANCH  38  41
HETATM   41  C15 UNL     1       4.134  -0.998  -0.448  1.00  0.00     0.066 A 
HETATM   42  C16 UNL     1       5.094  -0.907  -1.449  1.00  0.00     0.026 A 
HETATM   43  C17 UNL     1       5.744  -2.021  -1.930  1.00  0.00     0.028 A 
HETATM   44  C18 UNL     1       5.483  -3.285  -1.451  1.00  0.00     0.046 A 
HETATM   45  N10 UNL     1       6.139  -4.454  -1.932  1.00  0.00    -0.102 NA
HETATM   46  C19 UNL     1       4.518  -3.382  -0.446  1.00  0.00     0.028 A 
HETATM   47  C20 UNL     1       3.871  -2.263   0.031  1.00  0.00     0.026 A 
ENDBRANCH  38  41
ENDBRANCH  33  38
ENDBRANCH  28  33
ENDBRANCH   1  28
TORSDOF 15
