REMARK  12 active torsions:
REMARK  status: ('A' for Active; 'I' for Inactive)
REMARK    1  A    between atoms: C2_2  and  O1_3 
REMARK    2  A    between atoms: O1_3  and  C3_4 
REMARK    3  A    between atoms: C5_8  and  N2_9 
REMARK    4  A    between atoms: N2_9  and  C6_10 
REMARK    5  A    between atoms: N2_9  and  C8_25 
REMARK    6  A    between atoms: C6_10  and  C7_16 
REMARK    7  A    between atoms: N3_11  and  N4_13 
REMARK    8  A    between atoms: N11_32  and  C10_33 
REMARK    9  A    between atoms: C13_38  and  C14_39 
REMARK   10  A    between atoms: C14_39  and  N13_40 
REMARK   11  A    between atoms: C16_45  and  O2_46 
REMARK   12  A    between atoms: C17_50  and  N16_51 
ROOT
HETATM    1  N2  UNL     1      -0.450  -1.887   0.265  1.00  0.00    -0.259 N 
ENDROOT
BRANCH   1   2
HETATM    2  C5  UNL     1      -1.434  -0.860   0.249  1.00  0.00     0.132 A 
HETATM    3  C4  UNL     1      -1.622  -0.029   1.332  1.00  0.00     0.139 A 
HETATM    4  N1  UNL     1      -2.564   0.939   1.343  1.00  0.00    -0.340 N 
HETATM    5  C3  UNL     1      -3.375   1.143   0.287  1.00  0.00     0.187 A 
ATOM      6  H1  UNL     1      -2.663   1.529   2.169  1.00  0.00     0.167 HD
HETATM    7  C17 UNL     1      -3.191   0.315  -0.795  1.00  0.00     0.156 A 
HETATM    8  N15 UNL     1      -2.258  -0.647  -0.812  1.00  0.00    -0.324 N 
ATOM      9  H15 UNL     1      -2.164  -1.234  -1.641  1.00  0.00     0.169 HD
BRANCH   5  10
HETATM   10  O1  UNL     1      -4.345   2.143   0.306  1.00  0.00    -0.333 OA
BRANCH  10  11
HETATM   11  C2  UNL     1      -4.583   3.009   1.360  1.00  0.00     0.173 C 
HETATM   12  C1  UNL     1      -3.436   3.887   1.761  1.00  0.00     0.034 C 
ENDBRANCH  10  11
ENDBRANCH   5  10
BRANCH   7  13
HETATM   13  N16 UNL     1      -4.031   0.498  -1.920  1.00  0.00    -0.372 N 
HETATM   14  C18 UNL     1      -4.134   1.701  -2.701  1.00  0.00     0.150 C 
HETATM   15  C19 UNL     1      -4.849  -0.672  -2.275  1.00  0.00     0.150 C 
ENDBRANCH   7  13
ENDBRANCH   1   2
BRANCH   1  16
HETATM   16  C6  UNL     1      -0.908  -3.197   0.514  1.00  0.00     0.177 C 
HETATM   17  N3  UNL     1      -0.900  -4.051  -0.436  1.00  0.00    -0.288 N 
ATOM     18  H3  UNL     1      -0.555  -3.726  -1.339  1.00  0.00     0.188 HD
BRANCH  17  19
HETATM   19  N4  UNL     1      -1.309  -5.368  -0.369  1.00  0.00    -0.344 N 
ATOM     20  H42 UNL     1      -1.651  -5.675   0.542  1.00  0.00     0.176 HD
ATOM     21  H41 UNL     1      -1.303  -6.050  -1.128  1.00  0.00     0.176 HD
ENDBRANCH  17  19
BRANCH  16  22
HETATM   22  C7  UNL     1      -1.378  -3.567   1.832  1.00  0.00     0.184 A 
HETATM   23  N5  UNL     1      -2.322  -4.503   2.149  1.00  0.00    -0.266 N 
HETATM   24  N6  UNL     1      -2.479  -4.557   3.440  1.00  0.00    -0.226 N 
ATOM     25  H5  UNL     1      -2.829  -5.075   1.473  1.00  0.00     0.190 HD
HETATM   26  N7  UNL     1      -1.672  -3.689   3.982  1.00  0.00    -0.226 N 
ATOM     27  H6  UNL     1      -3.121  -5.171   3.940  1.00  0.00     0.210 HD
HETATM   28  N8  UNL     1      -0.999  -3.081   3.028  1.00  0.00    -0.266 N 
ATOM     29  H7  UNL     1      -1.577  -3.510   4.982  1.00  0.00     0.210 HD
ATOM     30  H8  UNL     1      -0.299  -2.354   3.173  1.00  0.00     0.190 HD
ENDBRANCH  16  22
ENDBRANCH   1  16
BRANCH   1  31
HETATM   31  C8  UNL     1       0.941  -1.645   0.052  1.00  0.00     0.183 A 
HETATM   32  N9  UNL     1       1.897  -2.614   0.070  1.00  0.00    -0.171 N 
HETATM   33  C9  UNL     1       3.078  -2.053  -0.159  1.00  0.00     0.686 A 
ATOM     34  H9  UNL     1       1.733  -3.607   0.233  1.00  0.00     0.186 HD
HETATM   35  N10 UNL     1       4.226  -2.680  -0.212  1.00  0.00    -0.234 N 
HETATM   36  N11 UNL     1       2.945  -0.709  -0.335  1.00  0.00    -0.121 N 
ATOM     37 2H10 UNL     1       4.326  -3.687  -0.080  1.00  0.00     0.174 HD
ATOM     38 1H10 UNL     1       5.134  -2.249  -0.388  1.00  0.00     0.174 HD
HETATM   39  C16 UNL     1       1.627  -0.487  -0.201  1.00  0.00     0.209 A 
BRANCH  36  40
HETATM   40  C10 UNL     1       4.009   0.194  -0.595  1.00  0.00     0.075 A 
HETATM   41  C11 UNL     1       4.726   0.068  -1.781  1.00  0.00     0.118 A 
HETATM   42  N12 UNL     1       5.739   0.912  -2.049  1.00  0.00    -0.372 N 
HETATM   43  C12 UNL     1       6.080   1.881  -1.195  1.00  0.00     0.102 A 
ATOM     44  H12 UNL     1       6.257   0.810  -2.922  1.00  0.00     0.164 HD
HETATM   45  C13 UNL     1       5.405   2.063   0.008  1.00  0.00     0.022 A 
HETATM   46  C15 UNL     1       4.370   1.204   0.284  1.00  0.00     0.048 A 
BRANCH  45  47
HETATM   47  C14 UNL     1       5.808   3.141   0.917  1.00  0.00     0.121 C 
HETATM   48  N14 UNL     1       6.878   4.010   0.582  1.00  0.00    -0.082 NA
BRANCH  47  49
HETATM   49  N13 UNL     1       5.195   3.302   2.014  1.00  0.00    -0.387 N 
ATOM     50 2H13 UNL     1       4.426   2.677   2.255  1.00  0.00     0.157 HD
ATOM     51 1H13 UNL     1       5.475   4.052   2.646  1.00  0.00     0.157 HD
ENDBRANCH  47  49
ENDBRANCH  45  47
ENDBRANCH  36  40
BRANCH  39  52
HETATM   52  O2  UNL     1       1.013   0.771  -0.304  1.00  0.00    -0.343 OA
ATOM     53  H2  UNL     1       1.489   1.574  -0.480  1.00  0.00     0.219 HD
ENDBRANCH  39  52
ENDBRANCH   1  31
TORSDOF 12
