REMARK  1 active torsions:
REMARK  status: ('A' for Active; 'I' for Inactive)
REMARK    1  A    between atoms: N1_1  and  C1_4 
ROOT
HETATM    1  C1  UNL     1       1.434  -0.855   0.000  1.00  0.00     0.150 C 
HETATM    2  N2  UNL     1       1.281   0.486   0.164  1.00  0.00    -0.299 N 
ATOM      3  H2  UNL     1       2.126   0.974   0.463  1.00  0.00     0.171 HD
HETATM    4  C2  UNL     1       0.219   1.273   0.002  1.00  0.00     0.315 C 
HETATM    5  O1  UNL     1       0.525   2.468  -0.344  1.00  0.00    -0.262 OA
HETATM    6  C3  UNL     1      -1.087   1.022   0.139  1.00  0.00     0.317 C 
HETATM    7  O2  UNL     1      -1.787   2.042   0.498  1.00  0.00    -0.262 OA
HETATM    8  N3  UNL     1      -1.881  -0.047  -0.004  1.00  0.00    -0.280 N 
ATOM      9  H3  UNL     1      -2.878   0.146   0.093  1.00  0.00     0.173 HD
HETATM   10  C4  UNL     1      -1.574  -1.356  -0.259  1.00  0.00     0.294 C 
HETATM   11  O3  UNL     1      -2.474  -2.147  -0.587  1.00  0.00    -0.259 OA
HETATM   12  S1  UNL     1       0.059  -1.902  -0.125  1.00  0.00     0.007 SA
ENDROOT
BRANCH   1  13
HETATM   13  N1  UNL     1       2.618  -1.359  -0.064  1.00  0.00    -0.379 N 
ATOM     14  H12 UNL     1       3.427  -0.743   0.010  1.00  0.00     0.158 HD
ATOM     15  H11 UNL     1       2.733  -2.365  -0.187  1.00  0.00     0.158 HD
ENDBRANCH   1  13
TORSDOF 1
