REMARK  3 active torsions:
REMARK  status: ('A' for Active; 'I' for Inactive)
REMARK    1  A    between atoms: N1_1  and  C1_4 
REMARK    2  A    between atoms: C2_9  and  N4_10 
REMARK    3  A    between atoms: N5_16  and  N6_17 
ROOT
HETATM    1  C1  UNL     1      -2.966   0.141  -0.119  1.00  0.00     0.727 A 
HETATM    2  N2  UNL     1      -2.804   1.360  -0.672  1.00  0.00    -0.116 N 
ATOM      3  H2  UNL     1      -3.553   2.006  -0.923  1.00  0.00     0.206 HD
HETATM    4  N3  UNL     1      -1.509   1.576  -0.833  1.00  0.00    -0.115 N 
ATOM      5  H3  UNL     1      -1.104   2.423  -1.232  1.00  0.00     0.206 HD
HETATM    6  C2  UNL     1      -0.800   0.514  -0.393  1.00  0.00     0.738 A 
HETATM    7  N5  UNL     1      -1.704  -0.366   0.044  1.00  0.00     0.086 N 
ENDROOT
BRANCH   6   8
HETATM    8  N4  UNL     1       0.611   0.339  -0.379  1.00  0.00    -0.147 N 
HETATM    9  C3  UNL     1       1.443  -0.800  -0.565  1.00  0.00     0.151 C 
HETATM   10  C4  UNL     1       2.753  -0.466   0.115  1.00  0.00     0.030 C 
HETATM   11  C5  UNL     1       2.681   0.966   0.590  1.00  0.00     0.105 C 
HETATM   12  C6  UNL     1       1.493   1.461  -0.123  1.00  0.00     0.238 C 
HETATM   13  O1  UNL     1       1.297   2.654  -0.444  1.00  0.00    -0.273 OA
ENDBRANCH   6   8
BRANCH   7  14
HETATM   14  N6  UNL     1      -1.497  -1.625   0.595  1.00  0.00    -0.309 N 
ATOM     15  H62 UNL     1      -2.188  -2.297   0.929  1.00  0.00     0.178 HD
ATOM     16  H61 UNL     1      -0.557  -2.003   0.716  1.00  0.00     0.178 HD
ENDBRANCH   7  14
BRANCH   1  17
HETATM   17  N1  UNL     1      -4.073  -0.446   0.204  1.00  0.00    -0.231 N 
ATOM     18  H12 UNL     1      -5.013  -0.068   0.083  1.00  0.00     0.174 HD
ATOM     19  H11 UNL     1      -4.196  -1.368   0.622  1.00  0.00     0.174 HD
ENDBRANCH   1  17
TORSDOF 3
