REMARK  3 active torsions:
REMARK  status: ('A' for Active; 'I' for Inactive)
REMARK    1  A    between atoms: N1_1  and  N2_4 
REMARK    2  A    between atoms: N2_4  and  C1_6 
REMARK    3  A    between atoms: C5_10  and  C6_11 
ROOT
HETATM    1  C1  UNL     1      -2.257  -0.359  -0.181  1.00  0.00     0.119 A 
HETATM    2  C2  UNL     1      -2.532  -1.650   0.173  1.00  0.00     0.050 A 
HETATM    3  C3  UNL     1      -1.444  -2.472   0.478  1.00  0.00     0.006 A 
HETATM    4  C4  UNL     1      -0.156  -1.965   0.413  1.00  0.00     0.033 A 
HETATM    5  C5  UNL     1       0.065  -0.657   0.050  1.00  0.00     0.079 A 
HETATM    6  N6  UNL     1      -1.001   0.106  -0.237  1.00  0.00    -0.338 N 
ATOM      7  H6  UNL     1      -0.850   1.078  -0.508  1.00  0.00     0.167 HD
ENDROOT
BRANCH   5   8
HETATM    8  C6  UNL     1       1.415  -0.116  -0.021  1.00  0.00     0.141 C 
HETATM    9  N3  UNL     1       2.498  -0.796  -0.312  1.00  0.00    -0.286 N 
HETATM   10  N4  UNL     1       3.609   0.051  -0.286  1.00  0.00    -0.120 NA
ATOM     11  H3  UNL     1       2.525  -1.793  -0.525  1.00  0.00     0.184 HD
HETATM   12  C7  UNL     1       3.086   1.393  -0.434  1.00  0.00     0.257 C 
HETATM   13  N5  UNL     1       1.782   1.246   0.215  1.00  0.00    -0.359 N 
ATOM     14  H5  UNL     1       1.254   1.956   0.722  1.00  0.00     0.162 HD
ENDBRANCH   5   8
BRANCH   1  15
HETATM   15  N2  UNL     1      -3.235   0.440  -0.473  1.00  0.00    -0.292 N 
ATOM     16  H2  UNL     1      -4.193   0.092  -0.433  1.00  0.00     0.188 HD
BRANCH  15  17
HETATM   17  N1  UNL     1      -3.005   1.770  -0.842  1.00  0.00    -0.344 N 
ATOM     18  H12 UNL     1      -2.041   2.102  -0.877  1.00  0.00     0.176 HD
ATOM     19  H11 UNL     1      -3.775   2.399  -1.072  1.00  0.00     0.176 HD
ENDBRANCH  15  17
ENDBRANCH   1  15
TORSDOF 3
