REMARK  2 active torsions:
REMARK  status: ('A' for Active; 'I' for Inactive)
REMARK    1  A    between atoms: C3_4  and  N2_5 
REMARK    2  A    between atoms: N3_7  and  N4_9 
ROOT
HETATM    1  N1  UNL     1       0.840   3.304  -0.032  1.00  0.00    -0.191 NA
HETATM    2  C1  UNL     1       0.302   2.273  -0.017  1.00  0.00     0.109 C 
HETATM    3  C2  UNL     1      -0.348   0.993  -0.006  1.00  0.00     0.158 A 
HETATM    4  C3  UNL     1       0.122   0.004   0.833  1.00  0.00     0.151 A 
HETATM    5  N5  UNL     1      -0.502  -1.173   0.821  1.00  0.00    -0.292 N 
ATOM      6  H5  UNL     1      -0.163  -1.912   1.437  1.00  0.00     0.172 HD
HETATM    7  C4  UNL     1      -1.576  -1.432   0.019  1.00  0.00     0.328 A 
HETATM    8  O1  UNL     1      -2.152  -2.551   0.022  1.00  0.00    -0.247 OA
HETATM    9  N6  UNL     1      -2.027  -0.459  -0.795  1.00  0.00    -0.274 N 
ATOM     10  H6  UNL     1      -2.830  -0.647  -1.396  1.00  0.00     0.173 HD
HETATM   11  C5  UNL     1      -1.448   0.755  -0.838  1.00  0.00     0.274 A 
HETATM   12  O2  UNL     1      -1.847   1.680  -1.587  1.00  0.00    -0.266 OA
ENDROOT
BRANCH   4  13
HETATM   13  N2  UNL     1       1.242   0.304   1.655  1.00  0.00    -0.270 N 
HETATM   14  N3  UNL     1       2.416   0.154   1.207  1.00  0.00    -0.248 N 
ATOM     15  H3  UNL     1       3.220   0.369   1.796  1.00  0.00     0.207 HD
ATOM     16  H2  UNL     1       1.099   0.641   2.607  1.00  0.00     0.190 HD
BRANCH  14  17
HETATM   17  N4  UNL     1       2.606  -0.308  -0.098  1.00  0.00    -0.331 N 
ATOM     18  H42 UNL     1       1.791  -0.519  -0.674  1.00  0.00     0.178 HD
ATOM     19  H41 UNL     1       3.552  -0.429  -0.459  1.00  0.00     0.178 HD
ENDBRANCH  14  17
ENDBRANCH   4  13
TORSDOF 2
