REMARK  2 active torsions:
REMARK  status: ('A' for Active; 'I' for Inactive)
REMARK    1  A    between atoms: C2_3  and  C3_4 
REMARK    2  A    between atoms: C4_7  and  N3_8 
ROOT
HETATM    1  N1  UNL     1      -3.180  -0.744   1.552  1.00  0.00    -0.197 NA
HETATM    2  C1  UNL     1      -2.630  -0.531   0.574  1.00  0.00     0.065 C 
HETATM    3  C2  UNL     1      -1.894  -0.235  -0.679  1.00  0.00     0.183 C 
ENDROOT
BRANCH   3   4
HETATM    4  C3  UNL     1      -0.476  -0.068  -0.312  1.00  0.00     0.066 A 
HETATM    5  N2  UNL     1       0.410  -1.037  -0.507  1.00  0.00    -0.193 N 
HETATM    6  C4  UNL     1       1.719  -0.929  -0.176  1.00  0.00     0.679 A 
ATOM      7  H2  UNL     1       0.088  -1.909  -0.928  1.00  0.00     0.184 HD
HETATM    8  N4  UNL     1       2.152   0.214   0.377  1.00  0.00    -0.155 N 
HETATM    9  C5  UNL     1       1.280   1.218   0.588  1.00  0.00     0.282 A 
ATOM     10  H4  UNL     1       3.133   0.321   0.635  1.00  0.00     0.187 HD
HETATM   11  O1  UNL     1       1.638   2.322   1.110  1.00  0.00    -0.266 OA
HETATM   12  C6  UNL     1      -0.052   1.117   0.256  1.00  0.00     0.137 A 
HETATM   13  C7  UNL     1      -0.967   2.228   0.499  1.00  0.00     0.107 C 
HETATM   14  N5  UNL     1      -1.699   3.111   0.673  1.00  0.00    -0.191 NA
BRANCH   6  15
HETATM   15  N3  UNL     1       2.552  -1.888  -0.374  1.00  0.00    -0.234 N 
ATOM     16  H32 UNL     1       2.223  -2.757  -0.794  1.00  0.00     0.174 HD
ATOM     17  H31 UNL     1       3.538  -1.807  -0.125  1.00  0.00     0.174 HD
ENDBRANCH   6  15
ENDBRANCH   3   4
TORSDOF 2
