REMARK  1 active torsions:
REMARK  status: ('A' for Active; 'I' for Inactive)
REMARK    1  A    between atoms: N5_15  and  C5_16 
ROOT
HETATM    1  N1  UNL     1      -0.410  -2.219  -0.324  1.00  0.00    -0.383 N 
ATOM      2  H11 UNL     1      -1.427  -2.147  -0.342  1.00  0.00     0.157 HD
ATOM      3  H12 UNL     1       0.072  -3.111  -0.436  1.00  0.00     0.157 HD
HETATM    4  C1  UNL     1       0.253  -1.152  -0.155  1.00  0.00     0.134 A 
HETATM    5  N2  UNL     1       1.616  -1.249  -0.131  1.00  0.00    -0.293 N 
ATOM      6  H2  UNL     1       2.067  -2.157  -0.247  1.00  0.00     0.172 HD
HETATM    7  C2  UNL     1       2.357  -0.148   0.045  1.00  0.00     0.326 A 
HETATM    8  O1  UNL     1       3.613  -0.229   0.068  1.00  0.00    -0.247 OA
HETATM    9  N3  UNL     1       1.728   1.027   0.193  1.00  0.00    -0.305 N 
ATOM     10  H3  UNL     1       2.300   1.861   0.327  1.00  0.00     0.171 HD
HETATM   11  C3  UNL     1       0.405   1.176   0.177  1.00  0.00     0.086 A 
HETATM   12  C4  UNL     1      -0.457   2.246   0.303  1.00  0.00     0.140 A 
HETATM   13  N4  UNL     1      -1.698   1.808   0.207  1.00  0.00    -0.300 N 
ATOM     14  H4  UNL     1      -2.539   2.383   0.264  1.00  0.00     0.186 HD
HETATM   15  N5  UNL     1      -1.668   0.470   0.020  1.00  0.00    -0.226 N 
HETATM   16  C6  UNL     1      -0.396   0.049  -0.004  1.00  0.00     0.131 A 
ENDROOT
BRANCH  15  17
HETATM   17  C5  UNL     1      -2.842  -0.308  -0.122  1.00  0.00     0.376 C 
HETATM   18  O2  UNL     1      -2.953  -1.525  -0.297  1.00  0.00    -0.281 OA
ENDBRANCH  15  17
TORSDOF 1
