REMARK  2 active torsions:
REMARK  status: ('A' for Active; 'I' for Inactive)
REMARK    1  A    between atoms: N1_1  and  N2_4 
REMARK       I    between atoms: N2_4  and  C1_6 
REMARK    2  A    between atoms: C1_6  and  C2_8 
ROOT
HETATM    1  C2  UNL     1       0.794   0.163   0.584  1.00  0.00     0.121 A 
HETATM    2  C3  UNL     1       0.615   0.926   1.735  1.00  0.00     0.125 A 
HETATM    3  N3  UNL     1      -0.682   1.086   1.931  1.00  0.00    -0.352 N 
ATOM      4  H3  UNL     1      -1.107   1.603   2.701  1.00  0.00     0.166 HD
HETATM    5  C4  UNL     1      -1.341   0.462   0.959  1.00  0.00     0.101 A 
HETATM    6  N4  UNL     1      -0.432  -0.109   0.126  1.00  0.00    -0.328 N 
HETATM    7  C5  UNL     1      -0.977  -0.829  -0.991  1.00  0.00     0.150 C 
HETATM    8  C6  UNL     1      -2.105  -0.011  -1.576  1.00  0.00     0.134 C 
HETATM    9  N5  UNL     1      -3.157   0.265  -0.660  1.00  0.00    -0.413 N 
ATOM     10  H5  UNL     1      -4.120   0.409  -0.964  1.00  0.00     0.153 HD
HETATM   11  C7  UNL     1      -2.775   0.327   0.709  1.00  0.00     0.190 C 
ENDROOT
BRANCH   1  12
HETATM   12  C1  UNL     1       2.034  -0.264  -0.013  1.00  0.00     0.287 C 
HETATM   13  N2  UNL     1       3.312   0.096   0.554  1.00  0.00    -0.271 N 
ATOM     14  H2  UNL     1       3.312   0.668   1.399  1.00  0.00     0.189 HD
HETATM   15  O1  UNL     1       2.049  -0.957  -1.037  1.00  0.00    -0.264 OA
BRANCH  13  16
HETATM   16  N1  UNL     1       4.523  -0.276   0.038  1.00  0.00    -0.342 N 
ATOM     17  H12 UNL     1       4.504  -0.848  -0.807  1.00  0.00     0.176 HD
ATOM     18  H11 UNL     1       5.426  -0.022   0.439  1.00  0.00     0.176 HD
ENDBRANCH  13  16
ENDBRANCH   1  12
TORSDOF 2
