REMARK  6 active torsions:
REMARK  status: ('A' for Active; 'I' for Inactive)
REMARK       I    between atoms: C1_2  and  N1_3 
REMARK    1  A    between atoms: C1_2  and  C14_20 
REMARK    2  A    between atoms: N1_3  and  C2_5 
REMARK    3  A    between atoms: C2_5  and  C3_6 
REMARK       I    between atoms: C3_6  and  N2_8 
REMARK    4  A    between atoms: N2_8  and  C4_10 
REMARK    5  A    between atoms: C17_26  and  C18_27 
REMARK    6  A    between atoms: C18_27  and  C19_28 
ROOT
HETATM    1  O1  UNL     1       0.815  -3.199   0.542  1.00  0.00    -0.273 OA
HETATM    2  C1  UNL     1       0.872  -2.390  -0.420  1.00  0.00     0.224 C 
HETATM    3  N1  UNL     1      -0.175  -1.463  -0.646  1.00  0.00    -0.343 N 
ATOM      4  H1  UNL     1      -0.084  -0.829  -1.440  1.00  0.00     0.163 HD
ENDROOT
BRANCH   3   5
HETATM    5  C2  UNL     1      -1.373  -1.353   0.177  1.00  0.00     0.113 C 
HETATM    6  C10 UNL     1      -2.219  -2.580   0.168  1.00  0.00     0.041 C 
HETATM    7  C11 UNL     1      -2.302  -3.104   1.565  1.00  0.00     0.003 C 
HETATM    8  C12 UNL     1      -1.895  -1.969   2.448  1.00  0.00     0.003 C 
HETATM    9  C13 UNL     1      -1.054  -1.070   1.602  1.00  0.00     0.041 C 
BRANCH   5  10
HETATM   10  C3  UNL     1      -2.188  -0.255  -0.404  1.00  0.00     0.246 C 
HETATM   11  O2  UNL     1      -1.788   0.401  -1.403  1.00  0.00    -0.271 OA
HETATM   12  N2  UNL     1      -3.427   0.092   0.135  1.00  0.00    -0.354 N 
ATOM     13  H2  UNL     1      -3.764  -0.430   0.944  1.00  0.00     0.162 HD
BRANCH  12  14
HETATM   14  C4  UNL     1      -4.267   1.161  -0.394  1.00  0.00     0.084 C 
HETATM   15  C5  UNL     1      -5.623   0.644  -0.815  1.00  0.00     0.025 C 
HETATM   16  C6  UNL     1      -6.326   1.817  -1.508  1.00  0.00     0.002 C 
HETATM   17  C7  UNL     1      -6.493   2.943  -0.540  1.00  0.00     0.000 C 
HETATM   18  C8  UNL     1      -5.216   3.339   0.130  1.00  0.00     0.002 C 
HETATM   19  C9  UNL     1      -4.496   2.145   0.733  1.00  0.00     0.025 C 
ENDBRANCH  12  14
ENDBRANCH   5  10
ENDBRANCH   3   5
BRANCH   2  20
HETATM   20  C14 UNL     1       2.031  -2.397  -1.331  1.00  0.00     0.109 C 
HETATM   21  C15 UNL     1       3.060  -3.419  -0.989  1.00  0.00     0.246 C 
HETATM   22  N3  UNL     1       4.309  -2.931  -1.544  1.00  0.00    -0.074 N 
HETATM   23  C16 UNL     1       4.090  -1.588  -1.989  1.00  0.00     0.237 C 
ATOM     24  H32 UNL     1       5.091  -3.011  -0.893  1.00  0.00     0.277 HD
ATOM     25  H31 UNL     1       4.681  -3.536  -2.276  1.00  0.00     0.277 HD
HETATM   26  C17 UNL     1       2.848  -1.106  -1.224  1.00  0.00     0.026 C 
BRANCH  26  27
HETATM   27  C18 UNL     1       3.268  -0.840   0.190  1.00  0.00     0.011 C 
BRANCH  27  28
HETATM   28  C19 UNL     1       4.058   0.415   0.272  1.00  0.00    -0.014 C 
HETATM   29  C20 UNL     1       3.335   1.660  -0.181  1.00  0.00     0.005 C 
HETATM   30  C21 UNL     1       4.386   2.736  -0.361  1.00  0.00     0.000 C 
HETATM   31  C22 UNL     1       5.228   2.974   0.841  1.00  0.00     0.000 C 
HETATM   32  C23 UNL     1       5.677   1.709   1.528  1.00  0.00     0.000 C 
HETATM   33  C24 UNL     1       4.561   0.708   1.673  1.00  0.00     0.005 C 
ENDBRANCH  27  28
ENDBRANCH  26  27
ENDBRANCH   2  20
TORSDOF 6
