REMARK  8 active torsions:
REMARK  status: ('A' for Active; 'I' for Inactive)
REMARK    1  A    between atoms: C1_2  and  C2_3 
REMARK       I    between atoms: C1_2  and  N6_27 
REMARK    2  A    between atoms: C2_3  and  C3_4 
REMARK    3  A    between atoms: C3_4  and  C4_5 
REMARK    4  A    between atoms: C4_5  and  C12_20 
REMARK    5  A    between atoms: N1_6  and  N2_8 
REMARK    6  A    between atoms: N2_8  and  C5_10 
REMARK    7  A    between atoms: C5_10  and  N3_12 
REMARK    8  A    between atoms: N3_12  and  C6_14 
ROOT
HETATM    1  C4  UNL     1       0.105   0.130   0.337  1.00  0.00     0.054 C 
HETATM    2  N1  UNL     1       0.924   0.867  -0.299  1.00  0.00    -0.300 N 
ATOM      3  H1  UNL     1       0.763   1.873  -0.262  1.00  0.00     0.186 HD
ENDROOT
BRANCH   1   4
HETATM    4  C3  UNL     1      -1.000   0.759   1.072  1.00  0.00     0.070 C 
BRANCH   4   5
HETATM    5  C2  UNL     1      -2.312   0.408   0.419  1.00  0.00     0.109 C 
BRANCH   5   6
HETATM    6  C1  UNL     1      -3.466   1.005   1.118  1.00  0.00     0.220 C 
HETATM    7  O1  UNL     1      -3.261   1.659   2.166  1.00  0.00    -0.273 OA
HETATM    8  N6  UNL     1      -4.753   0.827   0.598  1.00  0.00    -0.343 N 
HETATM    9  C15 UNL     1      -4.882   0.031  -0.658  1.00  0.00     0.205 C 
HETATM   10  C20 UNL     1      -5.914   1.410   1.269  1.00  0.00     0.127 C 
HETATM   11  C16 UNL     1      -6.267  -0.249  -0.851  1.00  0.00    -0.163 C 
HETATM   12  C17 UNL     1      -7.659  -0.379  -0.782  1.00  0.00     0.081 C 
HETATM   13  C18 UNL     1      -8.166   0.374   0.494  1.00  0.00     0.013 C 
HETATM   14  C19 UNL     1      -7.088   0.587   1.518  1.00  0.00     0.021 C 
ENDBRANCH   5   6
ENDBRANCH   4   5
ENDBRANCH   1   4
BRANCH   1  15
HETATM   15  C12 UNL     1       0.276  -1.311   0.284  1.00  0.00     0.072 A 
HETATM   16  C13 UNL     1      -0.443  -2.299   0.939  1.00  0.00     0.120 A 
HETATM   17  N4  UNL     1       0.059  -3.495   0.585  1.00  0.00    -0.360 N 
HETATM   18  C14 UNL     1       1.074  -3.317  -0.273  1.00  0.00     0.180 A 
ATOM     19  H4  UNL     1      -0.280  -4.398   0.918  1.00  0.00     0.166 HD
HETATM   20  N5  UNL     1       1.198  -1.995  -0.449  1.00  0.00    -0.350 N 
ATOM     21  H5  UNL     1       1.893  -1.557  -1.054  1.00  0.00     0.166 HD
ENDBRANCH   1  15
BRANCH   2  22
HETATM   22  N2  UNL     1       2.010   0.437  -1.035  1.00  0.00    -0.276 N 
ATOM     23  H2  UNL     1       1.825   0.026  -1.950  1.00  0.00     0.189 HD
BRANCH  22  24
HETATM   24  C5  UNL     1       3.366   0.523  -0.617  1.00  0.00     0.186 C 
HETATM   25  S1  UNL     1       3.587   1.194   0.876  1.00  0.00    -0.040 SA
BRANCH  24  26
HETATM   26  N3  UNL     1       4.397   0.060  -1.436  1.00  0.00    -0.361 N 
ATOM     27  H3  UNL     1       4.104  -0.334  -2.330  1.00  0.00     0.162 HD
BRANCH  26  28
HETATM   28  C6  UNL     1       5.799   0.060  -1.199  1.00  0.00     0.083 C 
HETATM   29  C7  UNL     1       6.346   1.459  -1.034  1.00  0.00     0.025 C 
HETATM   30  C8  UNL     1       7.858   1.409  -0.906  1.00  0.00     0.002 C 
HETATM   31  C9  UNL     1       8.290   0.333   0.071  1.00  0.00     0.000 C 
HETATM   32  C10 UNL     1       7.113  -0.031   0.927  1.00  0.00     0.002 C 
HETATM   33  C11 UNL     1       6.098  -0.735   0.052  1.00  0.00     0.025 C 
ENDBRANCH  26  28
ENDBRANCH  24  26
ENDBRANCH  22  24
ENDBRANCH   2  22
TORSDOF 8
