REMARK  6 active torsions:
REMARK  status: ('A' for Active; 'I' for Inactive)
REMARK    1  A    between atoms: C1_2  and  C2_3 
REMARK    2  A    between atoms: C1_2  and  C8_12 
REMARK    3  A    between atoms: C2_3  and  C3_4 
REMARK    4  A    between atoms: C8_12  and  C9_13 
REMARK    5  A    between atoms: C8_12  and  C15_19 
REMARK       I    between atoms: C15_19  and  N2_21 
REMARK    6  A    between atoms: N2_21  and  C16_23 
ROOT
HETATM    1  C8  UNL     1      -1.041   1.542  -0.413  1.00  0.00     0.170 C 
ENDROOT
BRANCH   1   2
HETATM    2  C1  UNL     1      -2.131   0.580  -0.248  1.00  0.00     0.143 C 
HETATM    3  O1  UNL     1      -3.104   0.720  -1.015  1.00  0.00    -0.297 OA
BRANCH   2   4
HETATM    4  C2  UNL     1      -2.181  -0.516   0.726  1.00  0.00     0.084 C 
BRANCH   4   5
HETATM    5  C3  UNL     1      -3.498  -1.274   0.607  1.00  0.00    -0.004 C 
HETATM    6  C4  UNL     1      -3.633  -1.847  -0.771  1.00  0.00     0.032 C 
HETATM    7  C5  UNL     1      -3.941  -3.330  -0.677  1.00  0.00     0.232 C 
HETATM    8  N1  UNL     1      -2.834  -4.019  -0.073  1.00  0.00    -0.075 N 
HETATM    9  C6  UNL     1      -2.568  -3.516   1.239  1.00  0.00     0.232 C 
ATOM     10  H12 UNL     1      -2.979  -5.029  -0.066  1.00  0.00     0.277 HD
ATOM     11  H11 UNL     1      -2.003  -3.985  -0.664  1.00  0.00     0.277 HD
HETATM   12  C7  UNL     1      -3.468  -2.370   1.635  1.00  0.00     0.032 C 
ENDBRANCH   4   5
ENDBRANCH   2   4
ENDBRANCH   1   2
BRANCH   1  13
HETATM   13  C9  UNL     1      -1.303   2.523  -1.498  1.00  0.00    -0.002 C 
HETATM   14  C10 UNL     1      -1.464   3.805  -1.300  1.00  0.00    -0.082 C 
HETATM   15  C11 UNL     1      -1.727   4.807  -2.368  1.00  0.00     0.034 C 
HETATM   16  C14 UNL     1      -1.426   4.556  -0.002  1.00  0.00     0.034 C 
HETATM   17  C12 UNL     1      -1.049   6.038  -1.804  1.00  0.00     0.005 C 
HETATM   18  C13 UNL     1      -1.576   5.995  -0.364  1.00  0.00     0.005 C 
ENDBRANCH   1  13
BRANCH   1  19
HETATM   19  C15 UNL     1       0.239   0.834  -0.590  1.00  0.00     0.233 C 
HETATM   20  O2  UNL     1       0.805   0.854  -1.719  1.00  0.00    -0.272 OA
HETATM   21  N2  UNL     1       0.814   0.141   0.505  1.00  0.00    -0.351 N 
ATOM     22  H2  UNL     1       0.320   0.156   1.397  1.00  0.00     0.163 HD
BRANCH  21  23
HETATM   23  C16 UNL     1       2.063  -0.586   0.426  1.00  0.00     0.034 C 
HETATM   24  C17 UNL     1       3.205   0.303   0.057  1.00  0.00     0.035 C 
HETATM   25  C18 UNL     1       4.523  -0.448   0.183  1.00  0.00    -0.012 C 
HETATM   26  C19 UNL     1       4.499  -1.540  -0.855  1.00  0.00     0.009 C 
HETATM   27  C23 UNL     1       4.670  -0.944   1.581  1.00  0.00     0.009 C 
HETATM   28  C20 UNL     1       3.322  -2.449  -0.544  1.00  0.00    -0.012 C 
HETATM   29  C21 UNL     1       3.595  -3.078   0.794  1.00  0.00     0.009 C 
HETATM   30  C25 UNL     1       2.013  -1.706  -0.602  1.00  0.00     0.035 C 
HETATM   31  C22 UNL     1       3.601  -1.986   1.831  1.00  0.00    -0.012 C 
HETATM   32  C24 UNL     1       2.277  -1.278   1.762  1.00  0.00     0.035 C 
ENDBRANCH  21  23
ENDBRANCH   1  19
TORSDOF 6
