REMARK  3 active torsions:
REMARK  status: ('A' for Active; 'I' for Inactive)
REMARK    1  A    between atoms: C5_8  and  N3_9 
REMARK    2  A    between atoms: N3_9  and  N4_11 
REMARK    3  A    between atoms: N4_11  and  O1_13 
ROOT
HETATM    1  N1  UNL     1      -5.117   0.136  -0.620  1.00  0.00    -0.190 NA
HETATM    2  C1  UNL     1      -3.972  -0.019  -0.611  1.00  0.00     0.119 C 
HETATM    3  C2  UNL     1      -2.535  -0.221  -0.624  1.00  0.00     0.130 A 
HETATM    4  C3  UNL     1      -1.727   0.613   0.107  1.00  0.00     0.076 A 
HETATM    5  C4  UNL     1      -0.368   0.401   0.078  1.00  0.00     0.098 A 
HETATM    6  N2  UNL     1       0.688   1.009   0.658  1.00  0.00    -0.186 N 
ATOM      7  H2  UNL     1       0.636   1.815   1.281  1.00  0.00     0.184 HD
HETATM    8  C5  UNL     1       1.822   0.384   0.285  1.00  0.00     0.700 A 
HETATM    9  N5  UNL     1       1.532  -0.635  -0.538  1.00  0.00    -0.172 N 
ATOM     10  H5  UNL     1       2.192  -1.279  -0.974  1.00  0.00     0.186 HD
HETATM   11  C6  UNL     1       0.195  -0.635  -0.672  1.00  0.00     0.163 A 
HETATM   12  N6  UNL     1      -0.668  -1.402  -1.356  1.00  0.00    -0.282 N 
ATOM     13  H6  UNL     1      -0.298  -2.170  -1.916  1.00  0.00     0.188 HD
HETATM   14  N7  UNL     1      -1.972  -1.209  -1.337  1.00  0.00    -0.289 N 
ATOM     15  H7  UNL     1      -2.572  -1.830  -1.881  1.00  0.00     0.188 HD
ENDROOT
BRANCH   8  16
HETATM   16  N3  UNL     1       3.007   0.733   0.676  1.00  0.00    -0.112 N 
ATOM     17  H3  UNL     1       3.114   1.528   1.306  1.00  0.00     0.207 HD
BRANCH  16  18
HETATM   18  N4  UNL     1       4.138   0.040   0.250  1.00  0.00    -0.196 N 
ATOM     19  H4  UNL     1       4.840   0.547  -0.289  1.00  0.00     0.216 HD
BRANCH  18  20
HETATM   20  O1  UNL     1       4.339  -1.169   0.492  1.00  0.00    -0.274 OA
ATOM     21  H1  UNL     1       5.110  -1.642   0.202  1.00  0.00     0.246 HD
ENDBRANCH  18  20
ENDBRANCH  16  18
ENDBRANCH   8  16
TORSDOF 3
