REMARK  2 active torsions:
REMARK  status: ('A' for Active; 'I' for Inactive)
REMARK    1  A    between atoms: C3_3  and  N1_4 
REMARK    2  A    between atoms: C5_13  and  N6_14 
ROOT
HETATM    1  C1  UNL     1      -3.674   1.138   0.650  1.00  0.00     0.014 C 
HETATM    2  C2  UNL     1      -2.974   0.490  -0.092  1.00  0.00    -0.095 C 
HETATM    3  C3  UNL     1      -2.137  -0.305  -1.011  1.00  0.00     0.262 C 
ENDROOT
BRANCH   3   4
HETATM    4  N1  UNL     1      -1.040  -0.943  -0.314  1.00  0.00    -0.095 N 
HETATM    5  N2  UNL     1      -1.028  -2.131   0.251  1.00  0.00    -0.210 N 
HETATM    6  N3  UNL     1       0.184  -2.348   0.790  1.00  0.00    -0.205 N 
ATOM      7  H2  UNL     1      -1.812  -2.783   0.276  1.00  0.00     0.210 HD
HETATM    8  N4  UNL     1       0.947  -1.308   0.575  1.00  0.00    -0.064 N 
ATOM      9  H3  UNL     1       0.465  -3.192   1.289  1.00  0.00     0.211 HD
HETATM   10  C4  UNL     1       2.218  -0.999   0.888  1.00  0.00     0.244 A 
HETATM   11  C6  UNL     1       0.178  -0.430  -0.116  1.00  0.00     0.739 A 
HETATM   12  N5  UNL     1       2.714   0.185   0.508  1.00  0.00    -0.185 N 
HETATM   13  C5  UNL     1       1.935   1.057  -0.184  1.00  0.00     0.691 A 
ATOM     14  H5  UNL     1       3.676   0.432   0.738  1.00  0.00     0.185 HD
HETATM   15  N7  UNL     1       0.664   0.762  -0.503  1.00  0.00    -0.019 N 
ATOM     16  H7  UNL     1       0.086   1.422  -1.023  1.00  0.00     0.203 HD
BRANCH  13  17
HETATM   17  N6  UNL     1       2.451   2.189  -0.532  1.00  0.00    -0.234 N 
ATOM     18  H62 UNL     1       3.416   2.413  -0.290  1.00  0.00     0.174 HD
ATOM     19  H61 UNL     1       1.866   2.844  -1.051  1.00  0.00     0.174 HD
ENDBRANCH  13  17
ENDBRANCH   3   4
TORSDOF 2
