REMARK  1 active torsions:
REMARK  status: ('A' for Active; 'I' for Inactive)
REMARK    1  A    between atoms: C1_2  and  C2_4 
ROOT
HETATM    1  C2  UNL     1      -1.071   0.138  -0.187  1.00  0.00     0.132 A 
HETATM    2  N2  UNL     1      -1.123   1.225  -1.029  1.00  0.00    -0.293 N 
ATOM      3  H2  UNL     1      -1.982   1.628  -1.404  1.00  0.00     0.187 HD
HETATM    4  N3  UNL     1       0.085   1.672  -1.283  1.00  0.00    -0.284 N 
ATOM      5  H3  UNL     1       0.305   2.469  -1.881  1.00  0.00     0.188 HD
HETATM    6  C3  UNL     1       0.989   0.916  -0.632  1.00  0.00     0.139 A 
HETATM    7  N4  UNL     1       2.335   0.931  -0.543  1.00  0.00    -0.337 N 
ATOM      8  H4  UNL     1       2.839   1.651  -1.061  1.00  0.00     0.168 HD
HETATM    9  C4  UNL     1       3.046   0.072   0.173  1.00  0.00     0.185 A 
HETATM   10  N5  UNL     1       2.387  -0.874   0.853  1.00  0.00    -0.319 N 
ATOM     11  H5  UNL     1       2.906  -1.550   1.413  1.00  0.00     0.169 HD
HETATM   12  C5  UNL     1       1.019  -0.940   0.801  1.00  0.00     0.262 A 
HETATM   13  O2  UNL     1       0.420  -1.829   1.442  1.00  0.00    -0.267 OA
HETATM   14  C6  UNL     1       0.269  -0.054   0.061  1.00  0.00     0.110 A 
ENDROOT
BRANCH   1  15
HETATM   15  C1  UNL     1      -2.209  -0.602   0.298  1.00  0.00     0.283 C 
HETATM   16  N1  UNL     1      -3.489  -0.127  -0.164  1.00  0.00    -0.056 NA
HETATM   17  O1  UNL     1      -2.143  -1.577   1.055  1.00  0.00    -0.269 OA
ENDBRANCH   1  15
TORSDOF 1
