REMARK  8 active torsions:
REMARK  status: ('A' for Active; 'I' for Inactive)
REMARK    1  A    between atoms: C3_3  and  N1_4 
REMARK    2  A    between atoms: N1_4  and  C4_5 
REMARK    3  A    between atoms: N1_4  and  C7_8 
REMARK    4  A    between atoms: C7_8  and  C8_9 
REMARK    5  A    between atoms: C8_9  and  C9_10 
REMARK    6  A    between atoms: C9_10  and  N2_11 
REMARK    7  A    between atoms: N2_11  and  C10_13 
REMARK    8  A    between atoms: C10_13  and  C11_14 
ROOT
HETATM    1  C1  UNL     1      -4.991   3.221   0.128  1.00  0.00     0.018 C 
HETATM    2  C2  UNL     1      -4.687   2.065  -0.098  1.00  0.00    -0.072 C 
HETATM    3  C3  UNL     1      -4.376   0.676  -0.369  1.00  0.00     0.155 C 
ENDROOT
BRANCH   3   4
HETATM    4  N1  UNL     1      -3.121   0.381  -0.855  1.00  0.00    -0.352 N 
BRANCH   4   5
HETATM    5  C4  UNL     1      -2.974  -1.007  -1.195  1.00  0.00     0.220 C 
HETATM    6  C5  UNL     1      -3.062  -1.876   0.012  1.00  0.00    -0.097 C 
HETATM    7  C6  UNL     1      -3.130  -2.599   0.973  1.00  0.00     0.014 C 
ENDBRANCH   4   5
BRANCH   4   8
HETATM    8  C7  UNL     1      -2.166   1.262  -1.307  1.00  0.00     0.066 C 
BRANCH   8   9
HETATM    9  C8  UNL     1      -1.415   2.106  -0.311  1.00  0.00     0.064 C 
BRANCH   9  10
HETATM   10  C9  UNL     1      -0.624   1.232   0.686  1.00  0.00     0.118 C 
BRANCH  10  11
HETATM   11  N2  UNL     1       0.300   0.410  -0.009  1.00  0.00    -0.420 N 
ATOM     12  H2  UNL     1       0.319   0.405  -1.029  1.00  0.00     0.153 HD
BRANCH  11  13
HETATM   13  C10 UNL     1       1.187  -0.395   0.718  1.00  0.00     0.120 C 
BRANCH  13  14
HETATM   14  C11 UNL     1       2.112  -1.218  -0.195  1.00  0.00     0.020 C 
HETATM   15  C12 UNL     1       2.931  -0.309  -1.062  1.00  0.00     0.009 C 
HETATM   16  C13 UNL     1       4.404  -0.388  -0.831  1.00  0.00     0.020 C 
HETATM   17  C14 UNL     1       4.746  -0.419   0.639  1.00  0.00     0.113 C 
HETATM   18  N3  UNL     1       3.970  -1.347   1.400  1.00  0.00    -0.421 N 
HETATM   19  C15 UNL     1       2.988  -2.087   0.674  1.00  0.00     0.120 C 
ATOM     20  H3  UNL     1       4.109  -1.473   2.403  1.00  0.00     0.153 HD
ENDBRANCH  13  14
ENDBRANCH  11  13
ENDBRANCH  10  11
ENDBRANCH   9  10
ENDBRANCH   8   9
ENDBRANCH   4   8
ENDBRANCH   3   4
TORSDOF 8
