REMARK  8 active torsions:
REMARK  status: ('A' for Active; 'I' for Inactive)
REMARK    1  A    between atoms: C3_3  and  S1_4 
REMARK    2  A    between atoms: S1_4  and  C4_6 
REMARK    3  A    between atoms: C4_6  and  C5_7 
REMARK    4  A    between atoms: C5_7  and  N1_8 
REMARK    5  A    between atoms: N1_8  and  C6_11 
REMARK    6  A    between atoms: C6_11  and  C7_12 
REMARK    7  A    between atoms: C7_12  and  N2_13 
REMARK    8  A    between atoms: N2_13  and  C8_15 
ROOT
HETATM    1  C1  UNL     1       8.312  -0.209  -1.142  1.00  0.00     0.013 C 
HETATM    2  C2  UNL     1       7.189   0.232  -1.261  1.00  0.00    -0.105 C 
HETATM    3  C3  UNL     1       5.831   0.771  -1.379  1.00  0.00     0.201 C 
ENDROOT
BRANCH   3   4
HETATM    4  S1  UNL     1       4.736  -0.234  -0.415  1.00  0.00     0.027 S 
HETATM    5  O1  UNL     1       5.272  -0.171   1.196  1.00  0.00    -0.257 OA
BRANCH   4   6
HETATM    6  C4  UNL     1       3.069   0.319  -0.520  1.00  0.00     0.137 C 
BRANCH   6   7
HETATM    7  C5  UNL     1       2.203  -0.610   0.346  1.00  0.00     0.245 C 
BRANCH   7   8
HETATM    8  N1  UNL     1       0.833  -0.198   0.310  1.00  0.00    -0.073 N 
ATOM      9  H12 UNL     1       0.715   0.784   0.559  1.00  0.00     0.277 HD
ATOM     10  H11 UNL     1       0.466  -0.149  -0.640  1.00  0.00     0.277 HD
BRANCH   8  11
HETATM   11  C6  UNL     1       0.058  -1.080   1.157  1.00  0.00     0.251 C 
BRANCH  11  12
HETATM   12  C7  UNL     1      -1.411  -0.595   1.165  1.00  0.00     0.141 C 
BRANCH  12  13
HETATM   13  N2  UNL     1      -1.921  -0.640  -0.148  1.00  0.00    -0.415 N 
ATOM     14  H2  UNL     1      -1.357  -1.032  -0.902  1.00  0.00     0.153 HD
BRANCH  13  15
HETATM   15  C8  UNL     1      -3.203  -0.146  -0.414  1.00  0.00     0.076 C 
HETATM   16  C9  UNL     1      -3.385   1.340  -0.175  1.00  0.00     0.024 C 
HETATM   17  C10 UNL     1      -4.877   1.466  -0.485  1.00  0.00     0.002 C 
HETATM   18  C11 UNL     1      -5.444   0.309   0.323  1.00  0.00     0.002 C 
HETATM   19  C12 UNL     1      -4.298  -0.700   0.465  1.00  0.00     0.024 C 
ENDBRANCH  13  15
ENDBRANCH  12  13
ENDBRANCH  11  12
ENDBRANCH   8  11
ENDBRANCH   7   8
ENDBRANCH   6   7
ENDBRANCH   4   6
ENDBRANCH   3   4
TORSDOF 8
