REMARK  12 active torsions:
REMARK  status: ('A' for Active; 'I' for Inactive)
REMARK    1  A    between atoms: C2_2  and  C3_3 
REMARK    2  A    between atoms: C3_3  and  N1_4 
REMARK    3  A    between atoms: N1_4  and  C5_6 
REMARK    4  A    between atoms: C5_6  and  C6_7 
REMARK    5  A    between atoms: C8_9  and  C9_10 
REMARK    6  A    between atoms: C8_9  and  C10_13 
REMARK    7  A    between atoms: C9_10  and  O1_11 
REMARK    8  A    between atoms: C10_13  and  O2_14 
REMARK    9  A    between atoms: C10_13  and  C11_16 
REMARK   10  A    between atoms: C11_16  and  C12_17 
REMARK   11  A    between atoms: C12_17  and  N2_18 
REMARK   12  A    between atoms: N2_18  and  N3_19 
ROOT
HETATM    1  C6  UNL     1       0.141  -0.441   0.208  1.00  0.00     0.016 C 
HETATM    2  C7  UNL     1      -0.562   0.673   0.993  1.00  0.00     0.020 C 
HETATM    3  C8  UNL     1      -1.584   0.666  -0.117  1.00  0.00     0.008 C 
HETATM    4  C13 UNL     1      -0.397   0.221  -0.998  1.00  0.00     0.020 C 
ENDROOT
BRANCH   3   5
HETATM    5  C9  UNL     1      -2.108   2.030  -0.500  1.00  0.00     0.176 C 
BRANCH   5   6
HETATM    6  O1  UNL     1      -1.058   2.846  -0.928  1.00  0.00    -0.400 OA
ATOM      7  H1  UNL     1      -1.388   3.704  -1.169  1.00  0.00     0.209 HD
ENDBRANCH   5   6
ENDBRANCH   3   5
BRANCH   3   8
HETATM    8  C10 UNL     1      -2.643  -0.342   0.115  1.00  0.00     0.134 C 
BRANCH   8   9
HETATM    9  O2  UNL     1      -3.276  -0.031   1.345  1.00  0.00    -0.394 OA
ATOM     10  H2  UNL     1      -3.956  -0.678   1.494  1.00  0.00     0.210 HD
ENDBRANCH   8   9
BRANCH   8  11
HETATM   11  C11 UNL     1      -3.763  -0.268  -0.915  1.00  0.00     0.094 C 
BRANCH  11  12
HETATM   12  C12 UNL     1      -4.751  -1.324  -0.584  1.00  0.00     0.183 C 
BRANCH  12  13
HETATM   13  N2  UNL     1      -4.344  -2.443  -0.208  1.00  0.00    -0.350 NA
BRANCH  13  14
HETATM   14  N3  UNL     1      -4.040  -3.650  -0.126  1.00  0.00    -0.281 N 
ATOM     15  H32 UNL     1      -4.385  -3.858  -1.063  1.00  0.00     0.191 HD
ATOM     16  H31 UNL     1      -3.708  -4.564   0.181  1.00  0.00     0.191 HD
ENDBRANCH  13  14
ENDBRANCH  12  13
ENDBRANCH  11  12
ENDBRANCH   8  11
ENDBRANCH   3   8
BRANCH   1  17
HETATM   17  C5  UNL     1       1.577  -0.526   0.499  1.00  0.00     0.277 C 
BRANCH  17  18
HETATM   18  N1  UNL     1       2.430   0.572   0.212  1.00  0.00     0.087 N 
HETATM   19  C4  UNL     1       2.934   0.495  -1.188  1.00  0.00     0.310 C 
BRANCH  18  20
HETATM   20  C3  UNL     1       3.692   0.282   0.960  1.00  0.00     0.298 C 
BRANCH  20  21
HETATM   21  C2  UNL     1       4.128  -1.114   0.777  1.00  0.00    -0.007 C 
HETATM   22  C1  UNL     1       5.298  -1.408   0.230  1.00  0.00     0.008 C 
ENDBRANCH  20  21
ENDBRANCH  18  20
ENDBRANCH  17  18
ENDBRANCH   1  17
TORSDOF 12
