REMARK  7 active torsions:
REMARK  status: ('A' for Active; 'I' for Inactive)
REMARK    1  A    between atoms: C2_2  and  C3_3 
REMARK    2  A    between atoms: C3_3  and  N1_4 
REMARK    3  A    between atoms: C8_14  and  C9_15 
REMARK    4  A    between atoms: C9_15  and  C10_16 
REMARK    5  A    between atoms: C10_16  and  N3_17 
REMARK    6  A    between atoms: N3_17  and  C11_20 
REMARK    7  A    between atoms: C11_20  and  C12_21 
ROOT
HETATM    1  N1  UNL     1       2.741  -0.686  -0.621  1.00  0.00    -0.364 N 
ATOM      2  H1  UNL     1       2.506  -1.665  -0.459  1.00  0.00     0.165 HD
HETATM    3  C4  UNL     1       1.859   0.080  -0.215  1.00  0.00     0.082 C 
HETATM    4  C5  UNL     1       1.925   1.565  -0.315  1.00  0.00     0.271 C 
HETATM    5  O1  UNL     1       2.648   2.124  -1.157  1.00  0.00    -0.266 OA
HETATM    6  N2  UNL     1       1.135   2.332   0.581  1.00  0.00    -0.292 N 
ATOM      7  H2  UNL     1       1.162   3.351   0.536  1.00  0.00     0.172 HD
HETATM    8  C6  UNL     1       0.305   1.689   1.542  1.00  0.00     0.225 C 
HETATM    9  O2  UNL     1      -0.556   2.375   2.139  1.00  0.00    -0.273 OA
HETATM   10  C7  UNL     1       0.529   0.230   1.766  1.00  0.00     0.114 C 
HETATM   11  C8  UNL     1       0.597  -0.481   0.431  1.00  0.00     0.051 C 
ENDROOT
BRANCH  11  12
HETATM   12  C9  UNL     1      -0.585  -0.176  -0.458  1.00  0.00     0.039 C 
BRANCH  12  13
HETATM   13  C10 UNL     1      -1.836  -0.655   0.204  1.00  0.00     0.233 C 
BRANCH  13  14
HETATM   14  N3  UNL     1      -3.013  -0.375  -0.601  1.00  0.00    -0.072 N 
ATOM     15  H32 UNL     1      -3.019   0.570  -0.985  1.00  0.00     0.277 HD
ATOM     16  H31 UNL     1      -3.019  -0.877  -1.489  1.00  0.00     0.277 HD
BRANCH  14  17
HETATM   17  C11 UNL     1      -4.188  -0.666   0.234  1.00  0.00     0.259 C 
BRANCH  17  18
HETATM   18  C12 UNL     1      -5.380  -0.326  -0.559  1.00  0.00    -0.010 C 
HETATM   19  C13 UNL     1      -6.245   0.605  -0.151  1.00  0.00     0.008 C 
ENDBRANCH  17  18
ENDBRANCH  14  17
ENDBRANCH  13  14
ENDBRANCH  12  13
ENDBRANCH  11  12
BRANCH   1  20
HETATM   20  C3  UNL     1       3.989  -0.535  -1.252  1.00  0.00     0.087 C 
BRANCH  20  21
HETATM   21  C2  UNL     1       5.111  -1.318  -0.661  1.00  0.00     0.007 C 
HETATM   22  C1  UNL     1       6.182  -0.702  -0.176  1.00  0.00     0.012 C 
ENDBRANCH  20  21
ENDBRANCH   1  20
TORSDOF 7
