REMARK  9 active torsions:
REMARK  status: ('A' for Active; 'I' for Inactive)
REMARK    1  A    between atoms: N1_1  and  C1_4 
REMARK    2  A    between atoms: C2_7  and  C3_8 
REMARK    3  A    between atoms: C3_8  and  C4_9 
REMARK    4  A    between atoms: C5_10  and  C6_11 
REMARK    5  A    between atoms: C6_11  and  O1_13 
REMARK    6  A    between atoms: C7_15  and  C8_16 
REMARK       I    between atoms: C8_16  and  N4_18 
REMARK    7  A    between atoms: N4_18  and  N5_19 
REMARK       I    between atoms: N5_19  and  C9_21 
REMARK       I    between atoms: C9_21  and  N6_23 
REMARK    8  A    between atoms: N6_23  and  N7_25 
REMARK    9  A    between atoms: N7_25  and  N8_26 
ROOT
HETATM    1  C4  UNL     1      -1.528   0.164   1.049  1.00  0.00     0.071 A 
HETATM    2  C5  UNL     1      -0.442  -0.963   1.239  1.00  0.00     0.012 A 
HETATM    3  C7  UNL     1      -0.218   0.253   0.699  1.00  0.00     0.046 A 
ENDROOT
BRANCH   1   4
HETATM    4  C3  UNL     1      -2.522  -0.427   0.012  1.00  0.00     0.091 C 
BRANCH   4   5
HETATM    5  C2  UNL     1      -3.598   0.468  -0.347  1.00  0.00     0.102 A 
HETATM    6  N2  UNL     1      -4.482   0.412  -1.220  1.00  0.00    -0.181 N 
HETATM    7  C1  UNL     1      -5.504   1.262  -1.375  1.00  0.00     0.681 A 
ATOM      8  H2  UNL     1      -4.422  -0.359  -1.885  1.00  0.00     0.185 HD
HETATM    9  N10 UNL     1      -5.643   2.236  -0.610  1.00  0.00    -0.141 N 
HETATM   10  C10 UNL     1      -4.722   2.432   0.437  1.00  0.00     0.339 A 
ATOM     11  H10 UNL     1      -6.418   2.886  -0.741  1.00  0.00     0.189 HD
HETATM   12  N9  UNL     1      -3.698   1.639   0.661  1.00  0.00    -0.297 N 
HETATM   13  O4  UNL     1      -4.918   3.410   1.184  1.00  0.00    -0.246 OA
ATOM     14  H9  UNL     1      -3.035   1.781   1.423  1.00  0.00     0.172 HD
BRANCH   7  15
HETATM   15  N1  UNL     1      -6.611   0.960  -2.126  1.00  0.00    -0.234 N 
ATOM     16  H12 UNL     1      -6.497   0.163  -2.752  1.00  0.00     0.174 HD
ATOM     17  H11 UNL     1      -7.390   1.608  -2.244  1.00  0.00     0.174 HD
ENDBRANCH   7  15
ENDBRANCH   4   5
ENDBRANCH   1   4
BRANCH   2  18
HETATM   18  C6  UNL     1      -0.487  -2.379   1.626  1.00  0.00     0.157 C 
HETATM   19  N3  UNL     1       0.109  -3.465   0.962  1.00  0.00    -0.074 NA
BRANCH  18  20
HETATM   20  O1  UNL     1      -1.189  -2.639   2.690  1.00  0.00    -0.348 OA
ATOM     21  H1  UNL     1      -1.218  -3.555   2.940  1.00  0.00     0.219 HD
ENDBRANCH  18  20
ENDBRANCH   2  18
BRANCH   3  22
HETATM   22  C8  UNL     1       0.845   1.211   0.096  1.00  0.00     0.343 C 
HETATM   23  O2  UNL     1       0.366   2.280  -0.318  1.00  0.00    -0.249 OA
HETATM   24  N4  UNL     1       2.034   0.607   0.173  1.00  0.00    -0.277 NA
BRANCH  24  25
HETATM   25  N5  UNL     1       3.219   0.012   0.246  1.00  0.00    -0.180 N 
HETATM   26  C9  UNL     1       4.455   0.307  -0.513  1.00  0.00     0.362 C 
HETATM   27  O3  UNL     1       4.861   0.958  -1.247  1.00  0.00    -0.243 OA
HETATM   28  N6  UNL     1       5.465  -0.793   0.024  1.00  0.00    -0.234 N 
ATOM     29  H6  UNL     1       5.192  -1.454   0.751  1.00  0.00     0.189 HD
ATOM     30  H5  UNL     1       3.287  -0.753   0.917  1.00  0.00     0.207 HD
BRANCH  28  31
HETATM   31  N7  UNL     1       6.692  -0.818  -0.516  1.00  0.00    -0.026 NA
BRANCH  31  32
HETATM   32  N8  UNL     1       7.466   0.215  -0.138  1.00  0.00    -0.329 N 
ATOM     33  H82 UNL     1       7.136   0.940   0.499  1.00  0.00     0.174 HD
ATOM     34  H81 UNL     1       8.399   0.196  -0.549  1.00  0.00     0.174 HD
ENDBRANCH  31  32
ENDBRANCH  28  31
ENDBRANCH  24  25
ENDBRANCH   3  22
TORSDOF 9
