REMARK  8 active torsions:
REMARK  status: ('A' for Active; 'I' for Inactive)
REMARK    1  A    between atoms: N1_1  and  C1_4 
REMARK    2  A    between atoms: C5_13  and  N4_14 
REMARK    3  A    between atoms: N4_14  and  C6_16 
REMARK    4  A    between atoms: C6_16  and  O2_17 
REMARK    5  A    between atoms: C6_16  and  C7_19 
REMARK    6  A    between atoms: C7_19  and  N5_20 
REMARK    7  A    between atoms: C7_19  and  C8_24 
REMARK       I    between atoms: N7_29  and  C9_30 
REMARK    8  A    between atoms: N9_32  and  N10_34 
ROOT
HETATM    1  C1  UNL     1      -2.799   2.777   0.954  1.00  0.00     0.680 A 
HETATM    2  N2  UNL     1      -3.638   2.155   0.113  1.00  0.00    -0.154 N 
ATOM      3  H2  UNL     1      -4.559   2.572  -0.024  1.00  0.00     0.187 HD
HETATM    4  C2  UNL     1      -3.364   1.028  -0.563  1.00  0.00     0.292 A 
HETATM    5  O1  UNL     1      -4.217   0.518  -1.331  1.00  0.00    -0.265 OA
HETATM    6  C3  UNL     1      -2.129   0.446  -0.396  1.00  0.00     0.173 A 
HETATM    7  C4  UNL     1      -1.247   1.089   0.481  1.00  0.00     0.171 A 
HETATM    8  N3  UNL     1      -0.028   0.592   0.700  1.00  0.00    -0.172 N 
ATOM      9  H3  UNL     1       0.619   1.057   1.337  1.00  0.00     0.186 HD
HETATM   10  C5  UNL     1       0.329  -0.545   0.056  1.00  0.00     0.697 A 
HETATM   11  N6  UNL     1      -0.536  -1.148  -0.784  1.00  0.00    -0.122 N 
ATOM     12  H6  UNL     1      -0.242  -2.003  -1.257  1.00  0.00     0.206 HD
HETATM   13  N7  UNL     1      -1.756  -0.677  -1.023  1.00  0.00    -0.203 N 
HETATM   14  C9  UNL     1      -2.615  -1.359  -1.914  1.00  0.00     0.229 C 
HETATM   15  N8  UNL     1      -3.494  -2.346  -1.389  1.00  0.00    -0.060 NA
HETATM   16  N9  UNL     1      -2.640  -1.150  -3.185  1.00  0.00    -0.279 N 
ATOM     17  H9  UNL     1      -3.300  -1.698  -3.737  1.00  0.00     0.189 HD
HETATM   18  N11 UNL     1      -1.591   2.217   1.124  1.00  0.00    -0.174 N 
ATOM     19  H11 UNL     1      -0.921   2.657   1.754  1.00  0.00     0.186 HD
ENDROOT
BRANCH  10  20
HETATM   20  N4  UNL     1       1.505  -1.003   0.283  1.00  0.00    -0.196 N 
ATOM     21  H4  UNL     1       1.777  -1.858  -0.201  1.00  0.00     0.180 HD
BRANCH  20  22
HETATM   22  C6  UNL     1       2.472  -0.406   1.167  1.00  0.00     0.276 C 
BRANCH  22  23
HETATM   23  O2  UNL     1       2.343   0.964   1.300  1.00  0.00    -0.373 OA
ATOM     24  H2  UNL     1       2.981   1.358   1.883  1.00  0.00     0.212 HD
ENDBRANCH  22  23
BRANCH  22  25
HETATM   25  C7  UNL     1       3.862  -0.785   0.702  1.00  0.00     0.331 C 
BRANCH  25  26
HETATM   26  N5  UNL     1       3.975  -2.208   0.569  1.00  0.00    -0.061 N 
ATOM     27  H53 UNL     1       3.718  -2.691   1.430  1.00  0.00     0.275 HD
ATOM     28  H52 UNL     1       3.253  -2.591  -0.041  1.00  0.00     0.275 HD
ATOM     29  H51 UNL     1       4.912  -2.463   0.256  1.00  0.00     0.275 HD
ENDBRANCH  25  26
BRANCH  25  30
HETATM   30  C8  UNL     1       4.873  -0.237   1.661  1.00  0.00     0.209 C 
HETATM   31  O3  UNL     1       4.912   0.989   1.899  1.00  0.00    -0.646 OA
HETATM   32  O4  UNL     1       5.771  -1.083   2.290  1.00  0.00    -0.646 OA
ENDBRANCH  25  30
ENDBRANCH  22  25
ENDBRANCH  20  22
ENDBRANCH  10  20
BRANCH   1  33
HETATM   33  N1  UNL     1      -3.099   3.860   1.584  1.00  0.00    -0.234 N 
ATOM     34  H12 UNL     1      -4.017   4.286   1.455  1.00  0.00     0.174 HD
ATOM     35  H11 UNL     1      -2.461   4.333   2.224  1.00  0.00     0.174 HD
ENDBRANCH   1  33
BRANCH  16  36
HETATM   36  N10 UNL     1      -1.850  -0.250  -3.858  1.00  0.00    -0.343 N 
ATOM     37 2H10 UNL     1      -1.196   0.289  -3.290  1.00  0.00     0.176 HD
ATOM     38 1H10 UNL     1      -1.870  -0.085  -4.864  1.00  0.00     0.176 HD
ENDBRANCH  16  36
TORSDOF 8
