REMARK  6 active torsions:
REMARK  status: ('A' for Active; 'I' for Inactive)
REMARK    1  A    between atoms: C4_13  and  C5_14 
REMARK    2  A    between atoms: C5_14  and  C6_15 
REMARK    3  A    between atoms: C6_15  and  N5_16 
REMARK    4  A    between atoms: C6_15  and  C7_20 
REMARK    5  A    between atoms: C7_20  and  C8_21 
REMARK    6  A    between atoms: C10_26  and  C11_27 
ROOT
HETATM    1  C6  UNL     1      -0.540   0.339   0.827  1.00  0.00     0.213 C 
ENDROOT
BRANCH   1   2
HETATM    2  C5  UNL     1      -1.500   0.938  -0.148  1.00  0.00     0.082 C 
BRANCH   2   3
HETATM    3  C4  UNL     1      -2.885   0.469  -0.090  1.00  0.00     0.029 A 
HETATM    4  C1  UNL     1      -3.793   0.939   0.819  1.00  0.00     0.112 A 
HETATM    5  N1  UNL     1      -3.518   1.864   1.680  1.00  0.00    -0.385 N 
HETATM    6  N2  UNL     1      -5.055   0.415   0.795  1.00  0.00    -0.294 N 
ATOM      7  H12 UNL     1      -4.195   2.214   2.358  1.00  0.00     0.157 HD
ATOM      8  H11 UNL     1      -2.576   2.255   1.698  1.00  0.00     0.157 HD
HETATM    9  C2  UNL     1      -5.418  -0.530  -0.083  1.00  0.00     0.327 A 
ATOM     10  H2  UNL     1      -5.743   0.754   1.467  1.00  0.00     0.172 HD
HETATM   11  O1  UNL     1      -6.619  -0.970  -0.043  1.00  0.00    -0.247 OA
HETATM   12  N3  UNL     1      -4.554  -1.007  -0.981  1.00  0.00    -0.296 N 
HETATM   13  C3  UNL     1      -3.306  -0.507  -0.977  1.00  0.00     0.130 A 
ATOM     14  H3  UNL     1      -4.831  -1.727  -1.648  1.00  0.00     0.171 HD
HETATM   15  N4  UNL     1      -2.416  -1.045  -1.958  1.00  0.00    -0.082 NA
ENDBRANCH   2   3
ENDBRANCH   1   2
BRANCH   1  16
HETATM   16  N5  UNL     1      -0.851   0.530   2.219  1.00  0.00    -0.071 N 
ATOM     17  H53 UNL     1      -0.967   1.524   2.414  1.00  0.00     0.275 HD
ATOM     18  H52 UNL     1      -1.795   0.194   2.412  1.00  0.00     0.275 HD
ATOM     19  H51 UNL     1      -0.195   0.121   2.885  1.00  0.00     0.275 HD
ENDBRANCH   1  16
BRANCH   1  20
HETATM   20  C7  UNL     1       0.766   1.025   0.595  1.00  0.00     0.041 C 
BRANCH  20  21
HETATM   21  C8  UNL     1       1.883   0.488   0.221  1.00  0.00     0.102 A 
HETATM   22  N6  UNL     1       2.059  -0.803  -0.029  1.00  0.00    -0.317 N 
HETATM   23  C9  UNL     1       3.255  -1.317  -0.419  1.00  0.00     0.280 A 
ATOM     24  H6  UNL     1       1.265  -1.435   0.076  1.00  0.00     0.169 HD
HETATM   25  O2  UNL     1       3.384  -2.564  -0.649  1.00  0.00    -0.265 OA
HETATM   26  C10 UNL     1       4.328  -0.477  -0.565  1.00  0.00     0.181 A 
HETATM   27  N7  UNL     1       4.150   0.832  -0.312  1.00  0.00    -0.311 N 
HETATM   28  C12 UNL     1       2.974   1.345   0.073  1.00  0.00     0.272 A 
ATOM     29  H7  UNL     1       4.945   1.462  -0.418  1.00  0.00     0.169 HD
HETATM   30  O5  UNL     1       2.848   2.585   0.301  1.00  0.00    -0.266 OA
BRANCH  26  31
HETATM   31  C11 UNL     1       5.486  -0.974  -0.942  1.00  0.00     0.232 C 
HETATM   32  O3  UNL     1       5.596  -2.330  -1.184  1.00  0.00    -0.643 OA
HETATM   33  O4  UNL     1       6.583  -0.173  -1.100  1.00  0.00    -0.643 OA
ENDBRANCH  26  31
ENDBRANCH  20  21
ENDBRANCH   1  20
TORSDOF 6
