REMARK  11 active torsions:
REMARK  status: ('A' for Active; 'I' for Inactive)
REMARK    1  A    between atoms: N1_1  and  C1_4 
REMARK    2  A    between atoms: C3_9  and  S1_10 
REMARK    3  A    between atoms: S1_10  and  N4_11 
REMARK    4  A    between atoms: S1_10  and  N5_15 
REMARK    5  A    between atoms: N5_15  and  N6_17 
REMARK    6  A    between atoms: N6_17  and  N7_18 
REMARK    7  A    between atoms: N6_17  and  N8_21 
REMARK    8  A    between atoms: C4_24  and  N9_25 
REMARK    9  A    between atoms: N9_25  and  C5_27 
REMARK   10  A    between atoms: C5_27  and  C6_28 
REMARK   11  A    between atoms: C6_28  and  N10_29 
ROOT
HETATM    1  C1  UNL     1       0.182  -2.357  -1.262  1.00  0.00     0.678 A 
HETATM    2  N2  UNL     1      -1.055  -2.582  -0.790  1.00  0.00    -0.177 N 
ATOM      3  H2  UNL     1      -1.459  -3.513  -0.894  1.00  0.00     0.185 HD
HETATM    4  C2  UNL     1      -1.786  -1.616  -0.180  1.00  0.00     0.157 A 
HETATM    5  N3  UNL     1      -3.095  -1.922   0.299  1.00  0.00    -0.080 NA
HETATM    6  C3  UNL     1      -1.244  -0.370  -0.040  1.00  0.00     0.145 A 
HETATM    7  C4  UNL     1       0.041  -0.158  -0.536  1.00  0.00     0.142 A 
HETATM    8  N13 UNL     1       0.734  -1.135  -1.134  1.00  0.00    -0.176 N 
ATOM      9  H13 UNL     1       1.673  -0.955  -1.490  1.00  0.00     0.186 HD
ENDROOT
BRANCH   6  10
HETATM   10  S1  UNL     1      -2.156   0.897   0.740  1.00  0.00     0.160 S 
HETATM   11  O1  UNL     1      -1.836   2.248   0.175  1.00  0.00    -0.222 OA
BRANCH  10  12
HETATM   12  N4  UNL     1      -1.778   0.819   2.434  1.00  0.00    -0.340 N 
ATOM     13  H42 UNL     1      -1.142   0.154   2.874  1.00  0.00     0.167 HD
ATOM     14  H41 UNL     1      -2.311   1.560   2.890  1.00  0.00     0.167 HD
ENDBRANCH  10  12
BRANCH  10  15
HETATM   15  N5  UNL     1      -3.677   0.591   0.507  1.00  0.00    -0.204 N 
ATOM     16  H5  UNL     1      -4.122  -0.145   1.055  1.00  0.00     0.202 HD
BRANCH  15  17
HETATM   17  N6  UNL     1      -4.436   1.290  -0.422  1.00  0.00    -0.136 N 
BRANCH  17  18
HETATM   18  N7  UNL     1      -5.691   0.800  -0.784  1.00  0.00    -0.309 N 
ATOM     19  H72 UNL     1      -6.072  -0.058  -0.386  1.00  0.00     0.180 HD
ATOM     20  H71 UNL     1      -6.249   1.314  -1.466  1.00  0.00     0.180 HD
ENDBRANCH  17  18
BRANCH  17  21
HETATM   21  N8  UNL     1      -3.914   2.466  -0.967  1.00  0.00    -0.309 N 
ATOM     22  H82 UNL     1      -2.996   2.824  -0.702  1.00  0.00     0.180 HD
ATOM     23  H81 UNL     1      -4.472   2.980  -1.649  1.00  0.00     0.180 HD
ENDBRANCH  17  21
ENDBRANCH  15  17
ENDBRANCH  10  15
ENDBRANCH   6  10
BRANCH   7  24
HETATM   24  N9  UNL     1       0.500   1.017  -0.382  1.00  0.00    -0.373 N 
ATOM     25  H9  UNL     1      -0.065   1.730   0.080  1.00  0.00     0.161 HD
BRANCH  24  26
HETATM   26  C5  UNL     1       1.825   1.341  -0.863  1.00  0.00     0.141 C 
BRANCH  26  27
HETATM   27  C6  UNL     1       2.830   0.916   0.182  1.00  0.00     0.141 C 
BRANCH  27  28
HETATM   28  N10 UNL     1       4.186   1.201  -0.216  1.00  0.00    -0.365 N 
HETATM   29  C7  UNL     1       5.134   0.550   0.362  1.00  0.00     0.197 C 
HETATM   30  N11 UNL     1       6.507   0.771   0.027  1.00  0.00    -0.067 NA
HETATM   31  N12 UNL     1       4.881  -0.425   1.364  1.00  0.00    -0.067 NA
ATOM     32  H10 UNL     1       4.388   1.897  -0.934  1.00  0.00     0.161 HD
ENDBRANCH  27  28
ENDBRANCH  26  27
ENDBRANCH  24  26
ENDBRANCH   7  24
BRANCH   1  33
HETATM   33  N1  UNL     1       0.874  -3.295  -1.847  1.00  0.00    -0.234 N 
ATOM     34  H12 UNL     1       0.456  -4.220  -1.944  1.00  0.00     0.174 HD
ATOM     35  H11 UNL     1       1.814  -3.124  -2.205  1.00  0.00     0.174 HD
ENDBRANCH   1  33
TORSDOF 11
