REMARK  7 active torsions:
REMARK  status: ('A' for Active; 'I' for Inactive)
REMARK    1  A    between atoms: C2_2  and  C3_3 
REMARK    2  A    between atoms: C15_19  and  O5_20 
REMARK    3  A    between atoms: O5_20  and  C16_21 
REMARK    4  A    between atoms: C16_21  and  C17_23 
REMARK    5  A    between atoms: C18_24  and  C19_25 
REMARK    6  A    between atoms: C20_26  and  C21_27 
REMARK    7  A    between atoms: C21_27  and  C23_29 
ROOT
HETATM    1  C23 UNL     1       7.943  -0.885   0.967  1.00  0.00    -0.099 C 
HETATM    2  C24 UNL     1       8.880  -0.262   0.513  1.00  0.00    -0.110 C 
HETATM    3  C25 UNL     1      10.009   0.485  -0.055  1.00  0.00     0.112 C 
ENDROOT
BRANCH   1   4
HETATM    4  C21 UNL     1       6.811  -1.627   1.491  1.00  0.00     0.083 C 
HETATM    5  C22 UNL     1       7.140  -3.100   1.454  1.00  0.00     0.027 C 
BRANCH   4   6
HETATM    6  C20 UNL     1       5.574  -1.406   0.705  1.00  0.00    -0.010 C 
HETATM    7  C19 UNL     1       4.472  -0.901   1.214  1.00  0.00    -0.003 C 
BRANCH   7   8
HETATM    8  C18 UNL     1       3.287  -0.705   0.401  1.00  0.00     0.006 C 
HETATM    9  C17 UNL     1       2.164  -0.202   0.870  1.00  0.00     0.082 C 
BRANCH   9  10
HETATM   10  C16 UNL     1       1.031  -0.035   0.014  1.00  0.00     0.283 C 
HETATM   11  O6  UNL     1       1.091  -0.366  -1.197  1.00  0.00    -0.260 OA
BRANCH  10  12
HETATM   12  O5  UNL     1      -0.196   0.490   0.433  1.00  0.00    -0.311 OA
BRANCH  12  13
HETATM   13  C15 UNL     1      -1.302   0.635  -0.474  1.00  0.00     0.151 C 
HETATM   14  C6  UNL     1      -2.395  -0.264   0.008  1.00  0.00     0.031 C 
HETATM   15  C5  UNL     1      -2.984   0.185   1.340  1.00  0.00     0.186 C 
HETATM   16  C7  UNL     1      -1.752  -1.629   0.289  1.00  0.00     0.023 C 
HETATM   17  C8  UNL     1      -3.529  -0.438  -0.936  1.00  0.00     0.140 C 
HETATM   18  O1  UNL     1      -3.921  -0.819   1.682  1.00  0.00    -0.351 OA
HETATM   19  C3  UNL     1      -5.025  -0.647   0.824  1.00  0.00     0.179 C 
HETATM   20  C4  UNL     1      -5.704  -1.987   0.545  1.00  0.00     0.084 C 
HETATM   21  O7  UNL     1      -4.714   0.010  -0.335  1.00  0.00    -0.346 OA
HETATM   22  C9  UNL     1      -3.392   0.328  -2.221  1.00  0.00     0.068 C 
HETATM   23  C10 UNL     1      -3.598   1.807  -2.063  1.00  0.00     0.166 C 
HETATM   24  O2  UNL     1      -3.844   2.319  -3.385  1.00  0.00    -0.290 OA
HETATM   25  C12 UNL     1      -2.368   2.557  -1.692  1.00  0.00     0.170 C 
HETATM   26  C11 UNL     1      -2.561   2.509  -3.910  1.00  0.00     0.407 C 
HETATM   27  O3  UNL     1      -2.242   2.659  -5.127  1.00  0.00    -0.229 OA
HETATM   28  O4  UNL     1      -1.617   2.517  -2.888  1.00  0.00    -0.290 OA
HETATM   29  C13 UNL     1      -1.649   2.087  -0.493  1.00  0.00     0.044 C 
HETATM   30  C14 UNL     1      -0.327   2.863  -0.414  1.00  0.00     0.015 C 
BRANCH  19  31
HETATM   31  C2  UNL     1      -6.036   0.180   1.557  1.00  0.00     0.030 C 
HETATM   32  C1  UNL     1      -6.028   0.347   2.853  1.00  0.00     0.012 C 
ENDBRANCH  19  31
ENDBRANCH  12  13
ENDBRANCH  10  12
ENDBRANCH   9  10
ENDBRANCH   7   8
ENDBRANCH   4   6
ENDBRANCH   1   4
TORSDOF 7
