REMARK  7 active torsions:
REMARK  status: ('A' for Active; 'I' for Inactive)
REMARK    1  A    between atoms: C3_3  and  O1_4 
REMARK    2  A    between atoms: O1_4  and  C4_5 
REMARK    3  A    between atoms: C11_13  and  O3_14 
REMARK    4  A    between atoms: O3_14  and  C12_15 
REMARK    5  A    between atoms: C16_21  and  O6_22 
REMARK    6  A    between atoms: C18_24  and  C19_25 
REMARK    7  A    between atoms: C19_25  and  O7_26 
ROOT
HETATM    1  C1  UNL     1       3.953  -0.994  -1.409  1.00  0.00     0.017 C 
HETATM    2  C2  UNL     1       3.180  -0.350  -0.591  1.00  0.00    -0.055 C 
HETATM    3  C3  UNL     1       3.498   1.011  -0.031  1.00  0.00     0.160 C 
HETATM    4  C6  UNL     1       2.347   1.864  -0.439  1.00  0.00     0.037 C 
HETATM    5  C7  UNL     1       1.046   1.389   0.188  1.00  0.00     0.009 C 
HETATM    6  C8  UNL     1       1.154   0.057   0.805  1.00  0.00     0.005 C 
HETATM    7  C9  UNL     1       1.893  -0.909  -0.127  1.00  0.00     0.024 C 
HETATM    8  C10 UNL     1       0.844  -1.032  -1.166  1.00  0.00     0.049 C 
HETATM    9  C11 UNL     1      -0.360  -1.520  -0.295  1.00  0.00     0.081 C 
HETATM   10  C14 UNL     1      -1.560  -1.248  -1.126  1.00  0.00     0.072 C 
HETATM   11  C15 UNL     1      -2.747  -0.786  -0.444  1.00  0.00     0.143 C 
HETATM   12  O5  UNL     1      -3.950  -0.687  -1.144  1.00  0.00    -0.354 OA
HETATM   13  C16 UNL     1      -4.279   0.307  -0.184  1.00  0.00     0.272 C 
HETATM   14  C18 UNL     1      -2.829   0.726  -0.358  1.00  0.00     0.057 C 
HETATM   15  C21 UNL     1      -2.054   1.057   0.870  1.00  0.00     0.020 C 
HETATM   16  C22 UNL     1      -1.271   0.008   1.532  1.00  0.00     0.014 C 
HETATM   17  C23 UNL     1      -0.163  -0.733   0.924  1.00  0.00    -0.008 C 
HETATM   18  C24 UNL     1       0.226  -1.712   2.047  1.00  0.00     0.019 C 
ENDROOT
BRANCH   3  19
HETATM   19  O1  UNL     1       4.751   1.439  -0.338  1.00  0.00    -0.312 OA
BRANCH  19  20
HETATM   20  C4  UNL     1       5.811   1.693   0.468  1.00  0.00     0.255 C 
HETATM   21  C5  UNL     1       7.090   2.156  -0.114  1.00  0.00     0.126 C 
HETATM   22  O2  UNL     1       5.637   1.515   1.691  1.00  0.00    -0.266 OA
ENDBRANCH  19  20
ENDBRANCH   3  19
BRANCH   9  23
HETATM   23  O3  UNL     1      -0.055  -2.884  -0.276  1.00  0.00    -0.309 OA
BRANCH  23  24
HETATM   24  C12 UNL     1      -0.703  -3.940   0.241  1.00  0.00     0.255 C 
HETATM   25  C13 UNL     1      -0.089  -5.301   0.098  1.00  0.00     0.126 C 
HETATM   26  O4  UNL     1      -1.771  -3.743   0.808  1.00  0.00    -0.266 OA
ENDBRANCH  23  24
ENDBRANCH   9  23
BRANCH  14  27
HETATM   27  C19 UNL     1      -2.686   1.489  -1.601  1.00  0.00     0.184 C 
BRANCH  27  28
HETATM   28  O7  UNL     1      -2.853   2.801  -1.550  1.00  0.00    -0.395 OA
HETATM   29  C20 UNL     1      -2.254   3.755  -0.897  1.00  0.00     0.201 C 
ENDBRANCH  27  28
ENDBRANCH  14  27
BRANCH  13  30
HETATM   30  O6  UNL     1      -4.622  -0.141   1.060  1.00  0.00    -0.365 OA
HETATM   31  C17 UNL     1      -5.801   0.447   1.509  1.00  0.00     0.204 C 
ENDBRANCH  13  30
TORSDOF 7
