REMARK  8 active torsions:
REMARK  status: ('A' for Active; 'I' for Inactive)
REMARK    1  A    between atoms: C2_2  and  C3_3 
REMARK    2  A    between atoms: C6_6  and  C7_7 
REMARK    3  A    between atoms: C13_15  and  O3_16 
REMARK    4  A    between atoms: O3_16  and  C14_17 
REMARK    5  A    between atoms: C20_25  and  O6_26 
REMARK    6  A    between atoms: O6_26  and  C21_27 
REMARK    7  A    between atoms: C21_27  and  C22_29 
REMARK    8  A    between atoms: C22_29  and  C23_30 
ROOT
HETATM    1  C3  UNL     1      -2.137  -2.086  -0.780  1.00  0.00    -0.054 C 
HETATM    2  C4  UNL     1      -3.496  -1.404  -0.944  1.00  0.00     0.048 C 
HETATM    3  C5  UNL     1      -1.116  -1.571  -0.217  1.00  0.00     0.004 C 
HETATM    4  C6  UNL     1       0.245  -2.204  -0.321  1.00  0.00     0.140 C 
HETATM    5  O1  UNL     1       0.471  -2.994   0.700  1.00  0.00    -0.327 OA
HETATM    6  C9  UNL     1       0.776  -1.897   1.456  1.00  0.00     0.194 C 
HETATM    7  C10 UNL     1       1.579  -2.312   2.600  1.00  0.00     0.085 C 
HETATM    8  O2  UNL     1      -0.297  -1.075   1.832  1.00  0.00    -0.334 OA
HETATM    9  C11 UNL     1      -1.046  -0.464   0.754  1.00  0.00     0.105 C 
HETATM   10  C12 UNL     1      -2.283   0.008   1.448  1.00  0.00     0.084 C 
HETATM   11  C13 UNL     1      -2.379   1.512   1.307  1.00  0.00     0.205 C 
HETATM   12  C16 UNL     1      -1.322   1.903   0.392  1.00  0.00     0.163 C 
HETATM   13  O5  UNL     1      -1.182   2.953  -0.154  1.00  0.00    -0.295 OA
HETATM   14  C17 UNL     1      -0.349   0.733   0.204  1.00  0.00     0.098 C 
HETATM   15  C18 UNL     1      -0.111   0.750  -1.299  1.00  0.00     0.022 C 
HETATM   16  C19 UNL     1       1.394   0.508  -1.585  1.00  0.00     0.066 C 
HETATM   17  C20 UNL     1       1.842  -0.158  -0.217  1.00  0.00     0.068 C 
HETATM   18  C25 UNL     1       1.307  -1.243   0.223  1.00  0.00     0.054 C 
ENDROOT
BRANCH  17  19
HETATM   19  O6  UNL     1       2.811   0.640   0.252  1.00  0.00    -0.283 OA
BRANCH  19  20
HETATM   20  C21 UNL     1       4.169   0.529  -0.004  1.00  0.00     0.263 C 
HETATM   21  O7  UNL     1       4.524  -0.409  -0.745  1.00  0.00    -0.265 OA
BRANCH  20  22
HETATM   22  C22 UNL     1       5.070   1.509   0.608  1.00  0.00     0.111 C 
BRANCH  22  23
HETATM   23  C23 UNL     1       5.489   2.598  -0.355  1.00  0.00     0.005 C 
HETATM   24  C24 UNL     1       4.336   3.379  -0.885  1.00  0.00     0.005 C 
ENDBRANCH  22  23
ENDBRANCH  20  22
ENDBRANCH  19  20
ENDBRANCH  17  19
BRANCH   4  25
HETATM   25  C7  UNL     1       0.680  -2.647  -1.666  1.00  0.00     0.010 C 
HETATM   26  C8  UNL     1       1.739  -3.422  -1.804  1.00  0.00     0.010 C 
ENDBRANCH   4  25
BRANCH   1  27
HETATM   27  C2  UNL     1      -2.114  -3.343  -1.539  1.00  0.00    -0.003 C 
HETATM   28  C1  UNL     1      -3.180  -3.834  -2.109  1.00  0.00     0.012 C 
ENDBRANCH   1  27
BRANCH  11  29
HETATM   29  O3  UNL     1      -3.629   1.942   0.794  1.00  0.00    -0.308 OA
BRANCH  29  30
HETATM   30  C14 UNL     1      -4.422   2.869   1.471  1.00  0.00     0.255 C 
HETATM   31  C15 UNL     1      -5.732   3.315   0.926  1.00  0.00     0.126 C 
HETATM   32  O4  UNL     1      -4.042   3.351   2.568  1.00  0.00    -0.266 OA
ENDBRANCH  29  30
ENDBRANCH  11  29
TORSDOF 8
