REMARK  5 active torsions:
REMARK  status: ('A' for Active; 'I' for Inactive)
REMARK    1  A    between atoms: C1_2  and  C2_3 
REMARK       I    between atoms: C1_2  and  N2_10 
REMARK    2  A    between atoms: C2_3  and  N1_4 
REMARK    3  A    between atoms: C9_13  and  C10_14 
REMARK    4  A    between atoms: C11_18  and  C12_19 
REMARK    5  A    between atoms: C14_22  and  C15_23 
ROOT
HETATM    1  C10 UNL     1       0.609   0.055   1.929  1.00  0.00     0.092 A 
HETATM    2  N3  UNL     1       1.002  -0.023   3.205  1.00  0.00    -0.314 N 
ATOM      3  H3  UNL     1       0.430  -0.021   4.049  1.00  0.00     0.175 HD
HETATM    4  S1  UNL     1       2.678  -0.126   3.070  1.00  0.00     0.006 SA
HETATM    5  C11 UNL     1       2.790  -0.063   1.373  1.00  0.00     0.102 A 
HETATM    6  N4  UNL     1       1.526   0.034   1.012  1.00  0.00    -0.338 N 
ATOM      7  H4  UNL     1       1.273   0.092   0.026  1.00  0.00     0.168 HD
ENDROOT
BRANCH   1   8
HETATM    8  C9  UNL     1      -0.866   0.161   1.572  1.00  0.00     0.057 C 
HETATM    9  C8  UNL     1      -1.123   1.349   0.722  1.00  0.00     0.032 C 
HETATM   10  C7  UNL     1      -2.179   1.144  -0.301  1.00  0.00     0.127 C 
HETATM   11  N2  UNL     1      -3.181   0.184   0.065  1.00  0.00    -0.347 N 
HETATM   12  C1  UNL     1      -4.530   0.403  -0.276  1.00  0.00     0.258 C 
HETATM   13  C22 UNL     1      -2.831  -1.026   0.783  1.00  0.00     0.127 C 
HETATM   14  O1  UNL     1      -4.837   1.440  -0.906  1.00  0.00    -0.267 OA
HETATM   15  C21 UNL     1      -1.291  -1.099   0.838  1.00  0.00     0.032 C 
BRANCH  12  16
HETATM   16  C2  UNL     1      -5.614  -0.555   0.085  1.00  0.00     0.160 C 
BRANCH  16  17
HETATM   17  N1  UNL     1      -6.858  -0.076  -0.371  1.00  0.00    -0.381 N 
HETATM   18  C3  UNL     1      -7.414   1.064   0.265  1.00  0.00     0.148 C 
HETATM   19  C4  UNL     1      -8.284   1.758  -0.796  1.00  0.00     0.187 C 
HETATM   20  O2  UNL     1      -9.273   0.820  -1.106  1.00  0.00    -0.388 OA
HETATM   21  C5  UNL     1      -8.733  -0.237  -1.796  1.00  0.00     0.187 C 
HETATM   22  C6  UNL     1      -7.801  -1.025  -0.861  1.00  0.00     0.148 C 
ENDBRANCH  16  17
ENDBRANCH  12  16
ENDBRANCH   1   8
BRANCH   5  23
HETATM   23  C12 UNL     1       4.006  -0.110   0.506  1.00  0.00     0.007 A 
HETATM   24  C13 UNL     1       3.891  -0.022  -0.852  1.00  0.00     0.064 A 
HETATM   25  S2  UNL     1       5.503  -0.125  -1.386  1.00  0.00    -0.105 SA
HETATM   26  C14 UNL     1       6.282  -0.278   0.120  1.00  0.00    -0.013 A 
HETATM   27  C20 UNL     1       5.252  -0.244   1.013  1.00  0.00     0.029 A 
BRANCH  26  28
HETATM   28  C15 UNL     1       7.760  -0.417   0.425  1.00  0.00     0.026 C 
HETATM   29  C16 UNL     1       8.311  -1.551  -0.371  1.00  0.00     0.010 C 
HETATM   30  C17 UNL     1       9.258  -0.985  -1.397  1.00  0.00     0.001 C 
HETATM   31  C18 UNL     1       9.659   0.363  -0.854  1.00  0.00     0.001 C 
HETATM   32  C19 UNL     1       8.516   0.831   0.015  1.00  0.00     0.010 C 
ENDBRANCH  26  28
ENDBRANCH   5  23
TORSDOF 5
