REMARK  9 active torsions:
REMARK  status: ('A' for Active; 'I' for Inactive)
REMARK    1  A    between atoms: N1_1  and  C1_4 
REMARK    2  A    between atoms: N2_5  and  N3_6 
REMARK    3  A    between atoms: C2_9  and  C3_10 
REMARK       I    between atoms: C3_10  and  N4_12 
REMARK    4  A    between atoms: N4_12  and  N5_14 
REMARK    5  A    between atoms: N5_14  and  C4_16 
REMARK    6  A    between atoms: C5_19  and  N7_20 
REMARK    7  A    between atoms: N10_30  and  C9_31 
REMARK    8  A    between atoms: C11_36  and  O3_37 
REMARK    9  A    between atoms: C12_39  and  O4_40 
ROOT
HETATM    1  C1  UNL     1      -2.244  -0.434   0.695  1.00  0.00     0.703 A 
HETATM    2  N2  UNL     1      -0.921  -0.768   0.588  1.00  0.00    -0.084 N 
HETATM    3  C2  UNL     1      -0.336  -0.125  -0.420  1.00  0.00     0.185 A 
HETATM    4  C8  UNL     1      -1.364   0.652  -0.963  1.00  0.00     0.171 A 
HETATM    5  N9  UNL     1      -1.204   1.526  -2.084  1.00  0.00    -0.079 NA
HETATM    6  N10 UNL     1      -2.493   0.444  -0.272  1.00  0.00    -0.142 N 
ENDROOT
BRANCH   3   7
HETATM    7  C3  UNL     1       1.019  -0.150  -0.916  1.00  0.00     0.292 C 
HETATM    8  O1  UNL     1       1.309   0.578  -1.915  1.00  0.00    -0.264 OA
HETATM    9  N4  UNL     1       2.029  -0.936  -0.352  1.00  0.00    -0.263 N 
ATOM     10  H4  UNL     1       1.847  -1.538   0.451  1.00  0.00     0.190 HD
BRANCH   9  11
HETATM   11  N5  UNL     1       3.320  -0.862  -0.944  1.00  0.00    -0.286 N 
ATOM     12  H5  UNL     1       3.414  -1.076  -1.937  1.00  0.00     0.188 HD
BRANCH  11  13
HETATM   13  C4  UNL     1       4.474  -0.506  -0.220  1.00  0.00     0.099 C 
HETATM   14  N6  UNL     1       5.674  -0.653  -0.682  1.00  0.00    -0.335 N 
HETATM   15  C5  UNL     1       6.849  -0.278   0.085  1.00  0.00     0.387 C 
ATOM     16  H6  UNL     1       5.799  -1.045  -1.615  1.00  0.00     0.164 HD
HETATM   17  N8  UNL     1       6.670  -0.390   1.482  1.00  0.00    -0.360 N 
HETATM   18  C6  UNL     1       5.525  -0.235   1.997  1.00  0.00     0.066 C 
ATOM     19  H8  UNL     1       7.470  -0.597   2.080  1.00  0.00     0.162 HD
HETATM   20  C7  UNL     1       4.366   0.065   1.137  1.00  0.00     0.121 C 
BRANCH  15  21
HETATM   21  N7  UNL     1       7.199   1.075  -0.282  1.00  0.00    -0.041 N 
ATOM     22  H73 UNL     1       7.327   1.193  -1.287  1.00  0.00     0.279 HD
ATOM     23  H72 UNL     1       6.425   1.730  -0.168  1.00  0.00     0.279 HD
ATOM     24  H71 UNL     1       8.024   1.338   0.257  1.00  0.00     0.279 HD
ENDBRANCH  15  21
ENDBRANCH  11  13
ENDBRANCH   9  11
ENDBRANCH   3   7
BRANCH   2  25
HETATM   25  N3  UNL     1      -0.308  -1.685   1.460  1.00  0.00    -0.324 N 
ATOM     26  H32 UNL     1      -0.756  -2.178   2.232  1.00  0.00     0.178 HD
ATOM     27  H31 UNL     1       0.678  -1.934   1.380  1.00  0.00     0.178 HD
ENDBRANCH   2  25
BRANCH   1  28
HETATM   28  N1  UNL     1      -3.039  -0.921   1.595  1.00  0.00    -0.233 N 
ATOM     29  H12 UNL     1      -2.848  -1.595   2.337  1.00  0.00     0.174 HD
ATOM     30  H11 UNL     1      -4.025  -0.672   1.675  1.00  0.00     0.174 HD
ENDBRANCH   1  28
BRANCH   6  31
HETATM   31  C9  UNL     1      -3.747   1.078  -0.557  1.00  0.00     0.243 C 
HETATM   32  N11 UNL     1      -4.232   1.704   0.648  1.00  0.00    -0.334 N 
HETATM   33  C10 UNL     1      -5.598   1.460   0.795  1.00  0.00     0.250 C 
ATOM     34  H11 UNL     1      -3.661   2.245   1.297  1.00  0.00     0.164 HD
HETATM   35  O2  UNL     1      -6.431   2.142   1.470  1.00  0.00    -0.271 OA
HETATM   36  C11 UNL     1      -5.911   0.224  -0.003  1.00  0.00     0.242 C 
HETATM   37  C12 UNL     1      -4.809   0.118  -1.016  1.00  0.00     0.199 C 
BRANCH  36  38
HETATM   38  O3  UNL     1      -7.166   0.415  -0.616  1.00  0.00    -0.383 OA
ATOM     39  H3  UNL     1      -7.364  -0.366  -1.120  1.00  0.00     0.210 HD
ENDBRANCH  36  38
BRANCH  37  40
HETATM   40  O4  UNL     1      -4.336  -1.171  -1.186  1.00  0.00    -0.389 OA
ATOM     41  H4  UNL     1      -5.007  -1.778  -1.476  1.00  0.00     0.210 HD
ENDBRANCH  37  40
ENDBRANCH   6  31
TORSDOF 9
