REMARK  7 active torsions:
REMARK  status: ('A' for Active; 'I' for Inactive)
REMARK    1  A    between atoms: C3_9  and  O2_10 
REMARK    2  A    between atoms: C3_9  and  C4_12 
REMARK    3  A    between atoms: C4_12  and  O3_13 
REMARK    4  A    between atoms: C5_15  and  O4_16 
REMARK    5  A    between atoms: C5_15  and  C6_18 
REMARK    6  A    between atoms: C7_22  and  C8_23 
REMARK    7  A    between atoms: C8_23  and  O8_24 
ROOT
HETATM    1  C4  UNL     1       0.280  -0.204  -0.478  1.00  0.00     0.214 C 
HETATM    2  C5  UNL     1       0.257  -1.526   0.204  1.00  0.00     0.294 C 
HETATM    3  O7  UNL     1      -1.043  -1.962  -0.108  1.00  0.00    -0.333 OA
HETATM    4  C7  UNL     1      -1.866  -0.877   0.070  1.00  0.00     0.195 C 
HETATM    5  C9  UNL     1      -1.038   0.334  -0.433  1.00  0.00     0.198 C 
HETATM    6  O9  UNL     1      -1.494   0.607  -1.792  1.00  0.00    -0.278 OA
HETATM    7  C10 UNL     1      -1.347   1.944  -2.072  1.00  0.00     0.367 C 
HETATM    8  O10 UNL     1      -1.251   2.455  -3.208  1.00  0.00    -0.238 OA
HETATM    9  N3  UNL     1      -1.331   2.581  -0.797  1.00  0.00    -0.289 N 
ATOM     10  H3  UNL     1      -1.234   3.582  -0.625  1.00  0.00     0.172 HD
HETATM   11  C11 UNL     1      -1.476   1.556   0.204  1.00  0.00     0.121 C 
HETATM   12  N4  UNL     1      -1.944   1.867   1.354  1.00  0.00    -0.386 N 
ATOM     13  H41 UNL     1      -2.253   2.729   1.803  1.00  0.00     0.157 HD
ATOM     14  H42 UNL     1      -2.047   1.141   2.063  1.00  0.00     0.157 HD
ENDROOT
BRANCH   1  15
HETATM   15  C3  UNL     1       1.520   0.585  -0.382  1.00  0.00     0.247 C 
HETATM   16  C2  UNL     1       2.716  -0.257  -0.815  1.00  0.00     0.269 C 
HETATM   17  N2  UNL     1       3.592  -0.426   0.269  1.00  0.00    -0.307 N 
HETATM   18  O1  UNL     1       2.898  -0.725  -1.943  1.00  0.00    -0.269 OA
HETATM   19  C1  UNL     1       3.151   0.413   1.327  1.00  0.00     0.152 C 
ATOM     20  H2  UNL     1       4.404  -1.043   0.293  1.00  0.00     0.170 HD
HETATM   21  N1  UNL     1       3.738   0.495   2.469  1.00  0.00    -0.382 N 
HETATM   22  C12 UNL     1       1.935   1.153   0.899  1.00  0.00     0.239 C 
ATOM     23  H12 UNL     1       4.572  -0.013   2.763  1.00  0.00     0.157 HD
ATOM     24  H11 UNL     1       3.421   1.097   3.229  1.00  0.00     0.157 HD
HETATM   25  O11 UNL     1       1.488   2.065   1.623  1.00  0.00    -0.285 OA
BRANCH  15  26
HETATM   26  O2  UNL     1       1.553   1.624  -1.309  1.00  0.00    -0.370 OA
ATOM     27  H2  UNL     1       0.808   2.148  -1.039  1.00  0.00     0.212 HD
ENDBRANCH  15  26
ENDBRANCH   1  15
BRANCH   1  28
HETATM   28  O3  UNL     1       0.392  -0.701  -1.855  1.00  0.00    -0.377 OA
ATOM     29  H3  UNL     1      -0.408  -1.210  -1.917  1.00  0.00     0.211 HD
ENDBRANCH   1  28
BRANCH   2  30
HETATM   30  O4  UNL     1       1.059  -2.507  -0.447  1.00  0.00    -0.354 OA
ATOM     31  H4  UNL     1       1.044  -3.351  -0.012  1.00  0.00     0.213 HD
ENDBRANCH   2  30
BRANCH   2  32
HETATM   32  C6  UNL     1       0.476  -1.664   1.605  1.00  0.00     0.242 C 
HETATM   33  O5  UNL     1       1.240  -2.555   2.123  1.00  0.00    -0.644 OA
HETATM   34  O6  UNL     1      -0.113  -0.851   2.560  1.00  0.00    -0.644 OA
ENDBRANCH   2  32
BRANCH   4  35
HETATM   35  C8  UNL     1      -3.071  -1.068  -0.839  1.00  0.00     0.199 C 
BRANCH  35  36
HETATM   36  O8  UNL     1      -3.965   0.000  -0.718  1.00  0.00    -0.398 OA
ATOM     37  H8  UNL     1      -4.717  -0.119  -1.286  1.00  0.00     0.209 HD
ENDBRANCH  35  36
ENDBRANCH   4  35
TORSDOF 7
