REMARK  10 active torsions:
REMARK  status: ('A' for Active; 'I' for Inactive)
REMARK    1  A    between atoms: N1_1  and  C1_4 
REMARK    2  A    between atoms: C4_12  and  C5_13 
REMARK    3  A    between atoms: C5_13  and  N4_14 
REMARK    4  A    between atoms: C5_13  and  N5_18 
REMARK    5  A    between atoms: N6_22  and  C6_23 
REMARK    6  A    between atoms: C7_24  and  N7_25 
REMARK    7  A    between atoms: C8_29  and  O2_30 
REMARK    8  A    between atoms: C9_32  and  O3_33 
REMARK    9  A    between atoms: C10_35  and  N8_36 
REMARK   10  A    between atoms: C11_39  and  N9_40 
ROOT
HETATM    1  C1  UNL     1      -2.743   3.190  -0.026  1.00  0.00     0.680 A 
HETATM    2  N2  UNL     1      -4.004   2.708  -0.158  1.00  0.00    -0.154 N 
ATOM      3  H2  UNL     1      -4.783   3.366  -0.189  1.00  0.00     0.187 HD
HETATM    4  C2  UNL     1      -4.260   1.399  -0.249  1.00  0.00     0.290 A 
HETATM    5  O1  UNL     1      -5.441   1.003  -0.370  1.00  0.00    -0.265 OA
HETATM    6  C3  UNL     1      -3.185   0.539  -0.205  1.00  0.00     0.148 A 
HETATM    7  N3  UNL     1      -3.043  -0.767  -0.262  1.00  0.00    -0.335 N 
ATOM      8  H3  UNL     1      -3.808  -1.434  -0.362  1.00  0.00     0.167 HD
HETATM    9  C4  UNL     1      -1.715  -1.102  -0.168  1.00  0.00     0.149 A 
HETATM   10  N6  UNL     1      -1.000   0.007  -0.049  1.00  0.00    -0.284 N 
HETATM   11  C12 UNL     1      -1.909   1.043  -0.071  1.00  0.00     0.161 A 
HETATM   12  N10 UNL     1      -1.695   2.376   0.019  1.00  0.00    -0.174 N 
ATOM     13  H10 UNL     1      -0.750   2.747   0.119  1.00  0.00     0.186 HD
ENDROOT
BRANCH  10  14
HETATM   14  C6  UNL     1       0.422   0.109   0.081  1.00  0.00     0.063 C 
HETATM   15  C7  UNL     1       0.931   0.007   1.495  1.00  0.00     0.262 C 
HETATM   16  C8  UNL     1       2.346   0.604   1.478  1.00  0.00     0.185 C 
HETATM   17  C9  UNL     1       3.253  -0.120   0.554  1.00  0.00     0.180 C 
HETATM   18  C10 UNL     1       2.612  -0.953  -0.497  1.00  0.00     0.223 C 
HETATM   19  C11 UNL     1       1.261  -0.517  -0.963  1.00  0.00     0.263 C 
BRANCH  15  20
HETATM   20  N7  UNL     1       1.010  -1.248   2.101  1.00  0.00    -0.067 N 
ATOM     21  H73 UNL     1       0.094  -1.695   2.050  1.00  0.00     0.275 HD
ATOM     22  H72 UNL     1       1.566  -1.864   1.508  1.00  0.00     0.275 HD
ATOM     23  H71 UNL     1       1.355  -1.317   3.059  1.00  0.00     0.275 HD
ENDBRANCH  15  20
BRANCH  16  24
HETATM   24  O2  UNL     1       2.205   1.936   1.097  1.00  0.00    -0.390 OA
ATOM     25  H2  UNL     1       3.080   2.305   1.086  1.00  0.00     0.210 HD
ENDBRANCH  16  24
BRANCH  17  26
HETATM   26  O3  UNL     1       4.141   0.816   0.017  1.00  0.00    -0.391 OA
ATOM     27  H3  UNL     1       4.722   0.352  -0.575  1.00  0.00     0.210 HD
ENDBRANCH  17  26
BRANCH  18  28
HETATM   28  N8  UNL     1       3.498  -1.019  -1.630  1.00  0.00    -0.145 N 
HETATM   29  O4  UNL     1       3.924  -2.107  -2.035  1.00  0.00    -0.536 OA
HETATM   30  O5  UNL     1       3.892   0.113  -2.288  1.00  0.00    -0.536 OA
ENDBRANCH  18  28
BRANCH  19  31
HETATM   31  N9  UNL     1       1.448   0.454  -2.063  1.00  0.00    -0.068 N 
ATOM     32  H93 UNL     1       0.563   0.804  -2.430  1.00  0.00     0.275 HD
ATOM     33  H92 UNL     1       1.827   1.344  -1.739  1.00  0.00     0.275 HD
ATOM     34  H91 UNL     1       2.027   0.022  -2.783  1.00  0.00     0.275 HD
ENDBRANCH  19  31
ENDBRANCH  10  14
BRANCH   9  35
HETATM   35  C5  UNL     1      -1.329  -2.503  -0.204  1.00  0.00     0.445 C 
BRANCH  35  36
HETATM   36  N4  UNL     1      -2.159  -3.335   0.682  1.00  0.00    -0.043 N 
ATOM     37  H43 UNL     1      -2.153  -2.976   1.637  1.00  0.00     0.277 HD
ATOM     38  H42 UNL     1      -3.151  -3.221   0.472  1.00  0.00     0.277 HD
ATOM     39  H41 UNL     1      -1.888  -4.318   0.657  1.00  0.00     0.277 HD
ENDBRANCH  35  36
BRANCH  35  40
HETATM   40  N5  UNL     1      -1.730  -3.004  -1.543  1.00  0.00    -0.043 N 
ATOM     41  H53 UNL     1      -2.715  -2.848  -1.758  1.00  0.00     0.277 HD
ATOM     42  H52 UNL     1      -1.347  -2.457  -2.314  1.00  0.00     0.277 HD
ATOM     43  H51 UNL     1      -1.459  -3.987  -1.568  1.00  0.00     0.277 HD
ENDBRANCH  35  40
ENDBRANCH   9  35
BRANCH   1  44
HETATM   44  N1  UNL     1      -2.536   4.477   0.061  1.00  0.00    -0.234 N 
ATOM     45  H12 UNL     1      -3.341   5.102   0.026  1.00  0.00     0.174 HD
ATOM     46  H11 UNL     1      -1.588   4.839   0.160  1.00  0.00     0.174 HD
ENDBRANCH   1  44
TORSDOF 10
