REMARK  8 active torsions:
REMARK  status: ('A' for Active; 'I' for Inactive)
REMARK    1  A    between atoms: N1_1  and  C1_4 
REMARK    2  A    between atoms: C5_15  and  N5_16 
REMARK    3  A    between atoms: N6_19  and  C6_20 
REMARK    4  A    between atoms: N7_22  and  N8_23 
REMARK    5  A    between atoms: C9_25  and  N9_26 
REMARK    6  A    between atoms: C10_30  and  O2_31 
REMARK    7  A    between atoms: C11_33  and  O3_34 
REMARK    8  A    between atoms: C12_36  and  N10_37 
ROOT
HETATM    1  C6  UNL     1       1.307  -0.086  -0.281  1.00  0.00     0.262 C 
HETATM    2  C7  UNL     1       0.026   0.125   0.494  1.00  0.00     0.165 C 
HETATM    3  N7  UNL     1      -0.856   0.169  -0.693  1.00  0.00    -0.220 NA
HETATM    4  C13 UNL     1      -0.159   1.085  -1.508  1.00  0.00     0.279 C 
HETATM    5  O4  UNL     1       1.206   0.891  -1.263  1.00  0.00    -0.349 OA
ENDROOT
BRANCH   1   6
HETATM    6  N6  UNL     1       2.498  -0.066   0.487  1.00  0.00    -0.146 N 
HETATM    7  C3  UNL     1       3.700  -0.396  -0.069  1.00  0.00     0.167 A 
HETATM    8  C2  UNL     1       4.113  -0.789  -1.320  1.00  0.00     0.291 A 
HETATM    9  C4  UNL     1       4.668  -0.289   0.904  1.00  0.00     0.169 A 
HETATM   10  N2  UNL     1       5.395  -1.069  -1.635  1.00  0.00    -0.154 N 
HETATM   11  O1  UNL     1       3.237  -0.895  -2.233  1.00  0.00    -0.265 OA
HETATM   12  C1  UNL     1       6.308  -0.953  -0.663  1.00  0.00     0.680 A 
ATOM     13  H2  UNL     1       5.658  -1.358  -2.577  1.00  0.00     0.187 HD
HETATM   14  N3  UNL     1       5.960  -0.573   0.578  1.00  0.00    -0.174 N 
ATOM     15  H3  UNL     1       6.682  -0.495   1.294  1.00  0.00     0.186 HD
HETATM   16  N4  UNL     1       4.074   0.101   2.041  1.00  0.00    -0.174 N 
HETATM   17  C5  UNL     1       2.766   0.226   1.754  1.00  0.00     0.682 A 
ATOM     18  H4  UNL     1       4.523   0.269   2.941  1.00  0.00     0.186 HD
BRANCH  12  19
HETATM   19  N1  UNL     1       7.543  -1.225  -0.974  1.00  0.00    -0.234 N 
ATOM     20  H12 UNL     1       7.807  -1.513  -1.916  1.00  0.00     0.174 HD
ATOM     21  H11 UNL     1       8.239  -1.137  -0.233  1.00  0.00     0.174 HD
ENDBRANCH  12  19
BRANCH  17  22
HETATM   22  N5  UNL     1       1.902   0.583   2.621  1.00  0.00    -0.234 N 
ATOM     23  H52 UNL     1       2.108   0.807   3.594  1.00  0.00     0.174 HD
ATOM     24  H51 UNL     1       0.910   0.678   2.403  1.00  0.00     0.174 HD
ENDBRANCH  17  22
ENDBRANCH   1   6
BRANCH   3  25
HETATM   25  N8  UNL     1      -2.153   0.382  -0.410  1.00  0.00    -0.213 NA
HETATM   26  C8  UNL     1      -2.846   1.395  -1.136  1.00  0.00     0.146 C 
HETATM   27  C9  UNL     1      -4.180   1.619  -0.408  1.00  0.00     0.229 C 
HETATM   28  C10 UNL     1      -5.018   0.396  -0.358  1.00  0.00     0.181 C 
HETATM   29  C11 UNL     1      -4.250  -0.866  -0.083  1.00  0.00     0.195 C 
HETATM   30  C12 UNL     1      -2.876  -0.877  -0.656  1.00  0.00     0.303 C 
BRANCH  27  31
HETATM   31  N9  UNL     1      -3.861   2.070   0.931  1.00  0.00    -0.071 N 
ATOM     32  H93 UNL     1      -3.234   1.437   1.428  1.00  0.00     0.274 HD
ATOM     33  H92 UNL     1      -3.255   2.890   0.944  1.00  0.00     0.274 HD
ATOM     34  H91 UNL     1      -4.747   2.219   1.414  1.00  0.00     0.274 HD
ENDBRANCH  27  31
BRANCH  28  35
HETATM   35  O2  UNL     1      -5.934   0.549   0.707  1.00  0.00    -0.391 OA
ATOM     36  H2  UNL     1      -6.471  -0.234   0.739  1.00  0.00     0.210 HD
ENDBRANCH  28  35
BRANCH  29  37
HETATM   37  O3  UNL     1      -4.965  -1.921  -0.650  1.00  0.00    -0.390 OA
ATOM     38  H3  UNL     1      -4.479  -2.719  -0.476  1.00  0.00     0.210 HD
ENDBRANCH  29  37
BRANCH  30  39
HETATM   39  N10 UNL     1      -2.149  -1.997  -0.084  1.00  0.00    -0.059 N 
ATOM     40 3H10 UNL     1      -1.187  -2.039  -0.422  1.00  0.00     0.276 HD
ATOM     41 2H10 UNL     1      -1.955  -1.858   0.908  1.00  0.00     0.276 HD
ATOM     42 1H10 UNL     1      -2.650  -2.869  -0.254  1.00  0.00     0.276 HD
ENDBRANCH  30  39
ENDBRANCH   3  25
TORSDOF 8
