REMARK  13 active torsions:
REMARK  status: ('A' for Active; 'I' for Inactive)
REMARK    1  A    between atoms: O1_2  and  C2_3 
REMARK    2  A    between atoms: C2_3  and  O2_4 
REMARK    3  A    between atoms: C2_3  and  C3_6 
REMARK    4  A    between atoms: C4_7  and  O3_8 
REMARK    5  A    between atoms: C5_10  and  O4_11 
REMARK    6  A    between atoms: O4_11  and  C6_12 
REMARK    7  A    between atoms: C8_14  and  C9_15 
REMARK    8  A    between atoms: C10_19  and  C11_20 
REMARK    9  A    between atoms: C12_23  and  O10_24 
REMARK   10  A    between atoms: C12_23  and  C13_26 
REMARK   11  A    between atoms: C14_29  and  C15_30 
REMARK   12  A    between atoms: C17_36  and  O17_37 
REMARK   13  A    between atoms: C18_39  and  C19_40 
ROOT
HETATM    1  C6  UNL     1      -0.747   0.767  -0.492  1.00  0.00     0.191 C 
HETATM    2  C7  UNL     1      -1.180   1.743   0.316  1.00  0.00     0.117 C 
HETATM    3  C8  UNL     1      -2.474   1.474   1.005  1.00  0.00     0.284 C 
HETATM    4  O7  UNL     1      -3.481   1.692   0.119  1.00  0.00    -0.323 OA
HETATM    5  C10 UNL     1      -4.410   0.727  -0.055  1.00  0.00     0.278 C 
HETATM    6  C12 UNL     1      -3.910  -0.686   0.042  1.00  0.00     0.250 C 
HETATM    7  C14 UNL     1      -2.443  -0.711   0.492  1.00  0.00     0.311 C 
HETATM    8  O15 UNL     1      -1.583  -0.352  -0.559  1.00  0.00    -0.278 OA
HETATM    9  O16 UNL     1      -2.412   0.211   1.551  1.00  0.00    -0.292 OA
ENDROOT
BRANCH   1  10
HETATM   10  O4  UNL     1       0.429   0.890  -1.184  1.00  0.00    -0.285 OA
BRANCH  10  11
HETATM   11  C5  UNL     1       1.657   0.440  -0.689  1.00  0.00     0.115 A 
HETATM   12  C4  UNL     1       2.806   0.586  -1.420  1.00  0.00     0.116 A 
HETATM   13  C3  UNL     1       4.056   0.134  -0.930  1.00  0.00     0.077 A 
HETATM   14  C18 UNL     1       4.063  -0.452   0.301  1.00  0.00     0.091 A 
HETATM   15  C17 UNL     1       2.857  -0.595   1.045  1.00  0.00     0.086 A 
HETATM   16  C16 UNL     1       1.665  -0.151   0.550  1.00  0.00     0.077 A 
BRANCH  12  17
HETATM   17  O3  UNL     1       2.736   1.197  -2.679  1.00  0.00    -0.357 OA
ATOM     18  H3  UNL     1       1.898   1.500  -3.008  1.00  0.00     0.217 HD
ENDBRANCH  12  17
BRANCH  13  19
HETATM   19  C2  UNL     1       5.193   0.340  -1.780  1.00  0.00     0.192 C 
BRANCH  19  20
HETATM   20  O1  UNL     1       6.512   0.051  -1.659  1.00  0.00    -0.335 OA
HETATM   21  C1  UNL     1       7.488   0.351  -2.648  1.00  0.00     0.212 C 
ENDBRANCH  19  20
BRANCH  19  22
HETATM   22  O2  UNL     1       4.948   0.926  -2.922  1.00  0.00    -0.340 OA
ATOM     23  H2  UNL     1       4.024   1.129  -3.007  1.00  0.00     0.220 HD
ENDBRANCH  19  22
ENDBRANCH  13  19
BRANCH  14  24
HETATM   24  C19 UNL     1       5.236  -0.956   0.929  1.00  0.00     0.213 C 
HETATM   25  O18 UNL     1       5.109  -1.495   2.111  1.00  0.00    -0.644 OA
HETATM   26  O19 UNL     1       6.518  -0.980   0.509  1.00  0.00    -0.644 OA
ENDBRANCH  14  24
BRANCH  15  27
HETATM   27  O17 UNL     1       2.864  -1.194   2.304  1.00  0.00    -0.359 OA
ATOM     28  H17 UNL     1       3.694  -1.503   2.649  1.00  0.00     0.217 HD
ENDBRANCH  15  27
ENDBRANCH  10  11
ENDBRANCH   1  10
BRANCH   3  29
HETATM   29  C9  UNL     1      -2.575   2.452   2.122  1.00  0.00     0.243 C 
HETATM   30  O5  UNL     1      -1.697   2.365   3.024  1.00  0.00    -0.644 OA
HETATM   31  O6  UNL     1      -3.571   3.408   2.181  1.00  0.00    -0.644 OA
ENDBRANCH   3  29
BRANCH   7  32
HETATM   32  C15 UNL     1      -2.095  -2.068   0.942  1.00  0.00     0.243 C 
HETATM   33  O13 UNL     1      -1.163  -2.724   0.411  1.00  0.00    -0.644 OA
HETATM   34  O14 UNL     1      -2.783  -2.699   1.983  1.00  0.00    -0.644 OA
ENDBRANCH   7  32
BRANCH   6  35
HETATM   35  O10 UNL     1      -4.609  -1.415   1.004  1.00  0.00    -0.371 OA
ATOM     36  H10 UNL     1      -4.293  -2.309   1.065  1.00  0.00     0.211 HD
ENDBRANCH   6  35
BRANCH   6  37
HETATM   37  C13 UNL     1      -4.061  -1.427  -1.245  1.00  0.00     0.218 C 
HETATM   38  O11 UNL     1      -3.526  -0.996  -2.303  1.00  0.00    -0.645 OA
HETATM   39  O12 UNL     1      -4.782  -2.608  -1.353  1.00  0.00    -0.645 OA
ENDBRANCH   6  37
BRANCH   5  40
HETATM   40  C11 UNL     1      -5.134   0.973  -1.329  1.00  0.00     0.207 C 
HETATM   41  O8  UNL     1      -4.836   1.961  -2.047  1.00  0.00    -0.646 OA
HETATM   42  O9  UNL     1      -6.155   0.160  -1.804  1.00  0.00    -0.646 OA
ENDBRANCH   5  40
TORSDOF 13
