REMARK  9 active torsions:
REMARK  status: ('A' for Active; 'I' for Inactive)
REMARK    1  A    between atoms: C2_7  and  C3_8 
REMARK       I    between atoms: C3_8  and  N3_10 
REMARK    2  A    between atoms: N3_10  and  N4_12 
REMARK    3  A    between atoms: C4_13  and  C5_14 
REMARK    4  A    between atoms: N5_15  and  N6_17 
REMARK    5  A    between atoms: C7_19  and  C8_20 
REMARK    6  A    between atoms: C14_26  and  N7_27 
REMARK    7  A    between atoms: C16_36  and  O4_37 
REMARK    8  A    between atoms: N10_39  and  C17_40 
REMARK    9  A    between atoms: C17_40  and  C18_41 
ROOT
HETATM    1  N4  UNL     1      -2.592   0.831   0.688  1.00  0.00    -0.197 N 
HETATM    2  C4  UNL     1      -1.466   1.499   0.486  1.00  0.00     0.129 A 
HETATM    3  C16 UNL     1      -1.685   2.802   0.977  1.00  0.00     0.177 A 
HETATM    4  N10 UNL     1      -2.918   2.913   1.458  1.00  0.00    -0.268 N 
HETATM    5  C19 UNL     1      -3.484   1.719   1.287  1.00  0.00     0.350 A 
HETATM    6  O6  UNL     1      -4.671   1.463   1.634  1.00  0.00    -0.244 OA
ENDROOT
BRANCH   2   7
HETATM    7  C5  UNL     1      -0.226   1.117  -0.161  1.00  0.00     0.144 C 
HETATM    8  N5  UNL     1       0.763   1.954  -0.253  1.00  0.00    -0.289 N 
ATOM      9  H5  UNL     1       0.672   2.894   0.133  1.00  0.00     0.187 HD
BRANCH   8  10
HETATM   10  N6  UNL     1       1.961   1.566  -0.885  1.00  0.00    -0.097 N 
HETATM   11  C6  UNL     1       2.749   0.693  -0.282  1.00  0.00     0.151 A 
HETATM   12  C7  UNL     1       3.956   0.276  -0.878  1.00  0.00     0.043 A 
HETATM   13  C14 UNL     1       4.339   0.770  -2.098  1.00  0.00     0.201 A 
HETATM   14  N8  UNL     1       3.471   1.674  -2.669  1.00  0.00    -0.168 N 
HETATM   15  C15 UNL     1       2.334   2.046  -2.076  1.00  0.00     0.698 A 
ATOM     16  H8  UNL     1       3.705   2.074  -3.578  1.00  0.00     0.186 HD
HETATM   17  N9  UNL     1       1.553   2.908  -2.672  1.00  0.00    -0.233 N 
ATOM     18  H92 UNL     1       0.684   3.192  -2.219  1.00  0.00     0.174 HD
ATOM     19  H91 UNL     1       1.838   3.274  -3.581  1.00  0.00     0.174 HD
BRANCH  12  20
HETATM   20  C8  UNL     1       4.763  -0.733  -0.195  1.00  0.00    -0.021 A 
HETATM   21  C9  UNL     1       5.099  -1.931  -0.780  1.00  0.00     0.012 A 
HETATM   22  C10 UNL     1       5.861  -2.868  -0.114  1.00  0.00     0.001 A 
HETATM   23  C11 UNL     1       6.291  -2.590   1.165  1.00  0.00     0.000 A 
HETATM   24  C12 UNL     1       5.972  -1.399   1.782  1.00  0.00     0.001 A 
HETATM   25  C13 UNL     1       5.208  -0.486   1.085  1.00  0.00     0.012 A 
ENDBRANCH  12  20
BRANCH  13  26
HETATM   26  N7  UNL     1       5.528   0.433  -2.770  1.00  0.00    -0.096 N 
HETATM   27  O2  UNL     1       5.486   0.497  -4.037  1.00  0.00    -0.530 OA
HETATM   28  O3  UNL     1       6.717   0.047  -2.246  1.00  0.00    -0.530 OA
ENDBRANCH  13  26
ENDBRANCH   8  10
ENDBRANCH   2   7
BRANCH   1  29
HETATM   29  N3  UNL     1      -2.950  -0.494   0.569  1.00  0.00    -0.253 N 
HETATM   30  C3  UNL     1      -2.218  -1.667   0.536  1.00  0.00     0.287 C 
HETATM   31  O1  UNL     1      -0.960  -1.737   0.650  1.00  0.00    -0.264 OA
ATOM     32  H3  UNL     1      -3.956  -0.639   0.489  1.00  0.00     0.191 HD
BRANCH  30  33
HETATM   33  C2  UNL     1      -2.846  -2.988   0.362  1.00  0.00     0.123 A 
HETATM   34  N2  UNL     1      -4.155  -3.157   0.217  1.00  0.00    -0.186 N 
HETATM   35  C1  UNL     1      -4.730  -4.395   0.055  1.00  0.00     0.679 A 
ATOM     36  H2  UNL     1      -4.758  -2.335   0.226  1.00  0.00     0.184 HD
HETATM   37  N1  UNL     1      -6.007  -4.502  -0.082  1.00  0.00    -0.234 N 
HETATM   38  N12 UNL     1      -3.966  -5.494   0.039  1.00  0.00    -0.156 N 
ATOM     39  H12 UNL     1      -6.589  -3.665  -0.070  1.00  0.00     0.174 HD
ATOM     40  H11 UNL     1      -6.434  -5.421  -0.202  1.00  0.00     0.174 HD
HETATM   41  C21 UNL     1      -2.637  -5.394   0.180  1.00  0.00     0.261 A 
ATOM     42  H12 UNL     1      -4.397  -6.411  -0.081  1.00  0.00     0.187 HD
HETATM   43  C20 UNL     1      -2.077  -4.153   0.341  1.00  0.00     0.110 A 
HETATM   44  O7  UNL     1      -1.900  -6.424   0.167  1.00  0.00    -0.268 OA
ENDBRANCH  30  33
ENDBRANCH   1  29
BRANCH   3  45
HETATM   45  O4  UNL     1      -0.752   3.848   0.971  1.00  0.00    -0.344 OA
ATOM     46  H4  UNL     1      -0.900   4.726   1.302  1.00  0.00     0.219 HD
ENDBRANCH   3  45
BRANCH   4  47
HETATM   47  C17 UNL     1      -3.542   4.104   2.060  1.00  0.00     0.235 C 
BRANCH  47  48
HETATM   48  C18 UNL     1      -4.197   4.891   1.009  1.00  0.00     0.249 C 
HETATM   49  N11 UNL     1      -3.512   5.919   0.304  1.00  0.00    -0.061 NA
HETATM   50  O5  UNL     1      -5.400   4.643   0.730  1.00  0.00    -0.275 OA
ENDBRANCH  47  48
ENDBRANCH   4  47
TORSDOF 9
