REMARK  12 active torsions:
REMARK  status: ('A' for Active; 'I' for Inactive)
REMARK    1  A    between atoms: N1_1  and  C1_4 
REMARK    2  A    between atoms: C2_7  and  C3_8 
REMARK    3  A    between atoms: C3_8  and  N3_9 
REMARK    4  A    between atoms: C3_8  and  C15_29 
REMARK       I    between atoms: N3_9  and  C4_11 
REMARK    5  A    between atoms: C4_11  and  C5_13 
REMARK    6  A    between atoms: C5_13  and  C6_14 
REMARK    7  A    between atoms: C5_13  and  N4_21 
REMARK    8  A    between atoms: C8_17  and  O2_18 
REMARK       I    between atoms: C15_29  and  N6_31 
REMARK    9  A    between atoms: N6_31  and  C16_33 
REMARK   10  A    between atoms: C18_38  and  C19_39 
REMARK   11  A    between atoms: C19_39  and  O8_40 
REMARK   12  A    between atoms: C19_39  and  O9_42 
ROOT
HETATM    1  C3  UNL     1       0.673   0.155  -0.948  1.00  0.00     0.227 C 
ENDROOT
BRANCH   1   2
HETATM    2  C2  UNL     1       1.151  -1.205  -1.430  1.00  0.00     0.050 A 
HETATM    3  N2  UNL     1       1.519  -2.150  -0.618  1.00  0.00    -0.338 N 
HETATM    4  C1  UNL     1       1.927  -3.313  -1.131  1.00  0.00     0.142 A 
ATOM      5  H2  UNL     1       1.497  -2.006   0.392  1.00  0.00     0.168 HD
HETATM    6  S2  UNL     1       1.788  -3.066  -2.812  1.00  0.00    -0.064 SA
HETATM    7  C20 UNL     1       1.205  -1.463  -2.778  1.00  0.00     0.081 A 
BRANCH   4   8
HETATM    8  N1  UNL     1       2.332  -4.398  -0.531  1.00  0.00    -0.380 N 
ATOM      9  H12 UNL     1       2.415  -4.546   0.475  1.00  0.00     0.158 HD
ATOM     10  H11 UNL     1       2.644  -5.287  -0.923  1.00  0.00     0.158 HD
ENDBRANCH   4   8
ENDBRANCH   1   2
BRANCH   1  11
HETATM   11  N3  UNL     1      -0.241  -0.018   0.172  1.00  0.00    -0.341 N 
HETATM   12  C4  UNL     1      -1.593   0.347   0.115  1.00  0.00     0.246 C 
HETATM   13  O1  UNL     1      -2.010   0.840  -0.975  1.00  0.00    -0.271 OA
ATOM     14  H3  UNL     1       0.119  -0.423   1.036  1.00  0.00     0.163 HD
BRANCH  12  15
HETATM   15  C5  UNL     1      -2.545   0.183   1.257  1.00  0.00     0.218 C 
BRANCH  15  16
HETATM   16  C6  UNL     1      -2.594  -1.254   1.635  1.00  0.00    -0.016 A 
HETATM   17  C7  UNL     1      -2.350  -2.243   0.724  1.00  0.00     0.062 A 
HETATM   18  S1  UNL     1      -2.501  -3.673   1.632  1.00  0.00    -0.077 SA
HETATM   19  C8  UNL     1      -2.871  -2.998   3.148  1.00  0.00     0.107 A 
HETATM   20  C9  UNL     1      -2.867  -1.656   2.908  1.00  0.00     0.054 A 
BRANCH  19  21
HETATM   21  O2  UNL     1      -3.125  -3.647   4.378  1.00  0.00    -0.354 OA
ATOM     22  H2  UNL     1      -3.332  -3.270   5.225  1.00  0.00     0.218 HD
ENDBRANCH  19  21
ENDBRANCH  15  16
BRANCH  15  23
HETATM   23  N4  UNL     1      -3.777   0.789   0.886  1.00  0.00    -0.305 N 
HETATM   24  C10 UNL     1      -3.682   2.144   0.644  1.00  0.00     0.096 A 
HETATM   25  C11 UNL     1      -4.764   2.873   0.281  1.00  0.00     0.019 A 
HETATM   26  C12 UNL     1      -5.990   2.276   0.145  1.00  0.00     0.034 A 
HETATM   27  C13 UNL     1      -6.112   0.934   0.379  1.00  0.00     0.114 A 
HETATM   28  N5  UNL     1      -7.322   0.214   0.269  1.00  0.00    -0.097 NA
HETATM   29  C14 UNL     1      -4.970   0.232   0.748  1.00  0.00     0.272 A 
HETATM   30  O3  UNL     1      -5.084  -1.004   0.963  1.00  0.00    -0.266 OA
ENDBRANCH  15  23
ENDBRANCH  12  15
ENDBRANCH   1  11
BRANCH   1  31
HETATM   31  C15 UNL     1       1.852   0.890  -0.494  1.00  0.00     0.248 C 
HETATM   32  O4  UNL     1       1.967   1.239   0.731  1.00  0.00    -0.271 OA
HETATM   33  N6  UNL     1       2.935   1.267  -1.356  1.00  0.00    -0.329 N 
ATOM     34  H6  UNL     1       2.889   1.011  -2.342  1.00  0.00     0.165 HD
BRANCH  33  35
HETATM   35  C16 UNL     1       4.071   1.984  -0.888  1.00  0.00     0.280 C 
HETATM   36  O5  UNL     1       4.111   3.307  -1.369  1.00  0.00    -0.205 OA
HETATM   37  O6  UNL     1       5.363   3.721  -1.103  1.00  0.00    -0.156 OA
HETATM   38  C17 UNL     1       6.209   2.675  -1.440  1.00  0.00     0.302 C 
HETATM   39  O7  UNL     1       7.423   2.804  -1.691  1.00  0.00    -0.262 OA
HETATM   40  C18 UNL     1       5.361   1.460  -1.424  1.00  0.00     0.194 C 
BRANCH  40  41
HETATM   41  C19 UNL     1       5.906   0.338  -0.605  1.00  0.00     0.271 C 
BRANCH  41  42
HETATM   42  O8  UNL     1       7.104  -0.068  -1.202  1.00  0.00    -0.370 OA
ATOM     43  H8  UNL     1       7.451  -0.782  -0.681  1.00  0.00     0.212 HD
ENDBRANCH  41  42
BRANCH  41  44
HETATM   44  O9  UNL     1       6.078   0.600   0.730  1.00  0.00    -0.370 OA
ATOM     45  H9  UNL     1       6.425  -0.114   1.251  1.00  0.00     0.212 HD
ENDBRANCH  41  44
ENDBRANCH  40  41
ENDBRANCH  33  35
ENDBRANCH   1  31
TORSDOF 12
