REMARK  15 active torsions:
REMARK  status: ('A' for Active; 'I' for Inactive)
REMARK    1  A    between atoms: O1_2  and  C2_3 
REMARK    2  A    between atoms: C2_3  and  O3_5 
REMARK    3  A    between atoms: O3_5  and  C3_6 
REMARK    4  A    between atoms: C5_8  and  N1_9 
REMARK    5  A    between atoms: C5_8  and  C6_13 
REMARK    6  A    between atoms: C6_13  and  N2_14 
REMARK    7  A    between atoms: N2_14  and  N3_15 
REMARK    8  A    between atoms: C7_18  and  O4_19 
REMARK    9  A    between atoms: C8_23  and  O5_24 
REMARK   10  A    between atoms: O5_24  and  C9_25 
REMARK   11  A    between atoms: C10_26  and  N5_27 
REMARK   12  A    between atoms: N5_27  and  C11_30 
REMARK   13  A    between atoms: C15_34  and  N6_35 
REMARK   14  A    between atoms: C19_42  and  O6_43 
REMARK   15  A    between atoms: O6_43  and  C20_44 
ROOT
HETATM    1  C9  UNL     1      -0.701   0.518   0.149  1.00  0.00     0.184 C 
HETATM    2  C10 UNL     1      -1.684  -0.607  -0.047  1.00  0.00     0.240 C 
HETATM    3  C16 UNL     1      -2.972  -0.016   0.381  1.00  0.00     0.013 C 
HETATM    4  C17 UNL     1      -2.904   1.288   0.224  1.00  0.00    -0.053 C 
HETATM    5  C18 UNL     1      -3.845   2.404   0.466  1.00  0.00     0.098 C 
HETATM    6  C19 UNL     1      -3.304   3.568  -0.366  1.00  0.00     0.291 C 
HETATM    7  O8  UNL     1      -2.027   3.904  -0.008  1.00  0.00    -0.253 OA
HETATM    8  N7  UNL     1      -1.231   2.919   0.387  1.00  0.00    -0.086 NA
HETATM    9  C23 UNL     1      -1.558   1.689  -0.308  1.00  0.00     0.167 C 
ENDROOT
BRANCH   1  10
HETATM   10  O5  UNL     1       0.463   0.408  -0.568  1.00  0.00    -0.355 OA
BRANCH  10  11
HETATM   11  C8  UNL     1       1.610   0.414   0.183  1.00  0.00     0.249 C 
HETATM   12  C3  UNL     1       2.511  -0.779  -0.035  1.00  0.00     0.185 C 
HETATM   13  C4  UNL     1       3.716  -0.733   0.876  1.00  0.00     0.081 C 
HETATM   14  C5  UNL     1       3.992   0.629   1.414  1.00  0.00     0.183 C 
HETATM   15  C7  UNL     1       3.615   1.740   0.481  1.00  0.00     0.253 C 
HETATM   16  N4  UNL     1       2.330   1.636  -0.121  1.00  0.00    -0.367 N 
ATOM     17  H4  UNL     1       1.944   2.365  -0.721  1.00  0.00     0.158 HD
BRANCH  12  18
HETATM   18  O3  UNL     1       2.874  -0.935  -1.387  1.00  0.00    -0.288 OA
BRANCH  18  19
HETATM   19  C2  UNL     1       2.518  -2.039  -2.120  1.00  0.00     0.406 C 
HETATM   20  O2  UNL     1       1.842  -2.920  -1.521  1.00  0.00    -0.229 OA
BRANCH  19  21
HETATM   21  O1  UNL     1       2.830  -2.263  -3.432  1.00  0.00    -0.303 OA
HETATM   22  C1  UNL     1       2.409  -3.442  -4.093  1.00  0.00     0.215 C 
ENDBRANCH  19  21
ENDBRANCH  18  19
ENDBRANCH  12  18
BRANCH  14  23
HETATM   23  N1  UNL     1       3.414   0.838   2.740  1.00  0.00    -0.065 N 
ATOM     24  H13 UNL     1       2.413   0.641   2.739  1.00  0.00     0.275 HD
ATOM     25  H12 UNL     1       3.723   0.117   3.392  1.00  0.00     0.275 HD
ATOM     26  H11 UNL     1       3.603   1.770   3.108  1.00  0.00     0.275 HD
ENDBRANCH  14  23
BRANCH  14  27
HETATM   27  C6  UNL     1       5.507   0.732   1.632  1.00  0.00     0.177 C 
BRANCH  27  28
HETATM   28  N2  UNL     1       5.796   2.054   2.156  1.00  0.00    -0.146 NA
BRANCH  28  29
HETATM   29  N3  UNL     1       7.173   2.193   2.371  1.00  0.00    -0.348 N 
ATOM     30  H32 UNL     1       7.859   1.463   2.182  1.00  0.00     0.172 HD
ATOM     31  H31 UNL     1       7.376   3.122   2.739  1.00  0.00     0.172 HD
ENDBRANCH  28  29
ENDBRANCH  27  28
ENDBRANCH  14  27
BRANCH  15  32
HETATM   32  O4  UNL     1       4.571   1.803  -0.555  1.00  0.00    -0.374 OA
ATOM     33  H4  UNL     1       4.332   2.507  -1.146  1.00  0.00     0.212 HD
ENDBRANCH  15  32
ENDBRANCH  10  11
ENDBRANCH   1  10
BRANCH   2  34
HETATM   34  N5  UNL     1      -1.320  -1.792   0.689  1.00  0.00    -0.059 N 
ATOM     35  H52 UNL     1      -0.433  -2.172   0.358  1.00  0.00     0.278 HD
ATOM     36  H51 UNL     1      -1.053  -1.562   1.646  1.00  0.00     0.278 HD
BRANCH  34  37
HETATM   37  C11 UNL     1      -2.357  -2.798   0.666  1.00  0.00     0.217 C 
HETATM   38  C12 UNL     1      -2.667  -3.310  -0.725  1.00  0.00     0.035 C 
HETATM   39  C13 UNL     1      -3.381  -4.635  -0.444  1.00  0.00     0.004 C 
HETATM   40  C14 UNL     1      -3.026  -5.027   0.955  1.00  0.00     0.035 C 
HETATM   41  C15 UNL     1      -1.892  -4.083   1.343  1.00  0.00     0.214 C 
BRANCH  41  42
HETATM   42  N6  UNL     1      -0.689  -4.588   0.759  1.00  0.00    -0.073 N 
ATOM     43  H63 UNL     1      -0.791  -4.715  -0.248  1.00  0.00     0.274 HD
ATOM     44  H62 UNL     1       0.047  -3.882   0.758  1.00  0.00     0.274 HD
ATOM     45  H61 UNL     1      -0.378  -5.447   1.212  1.00  0.00     0.274 HD
ENDBRANCH  41  42
ENDBRANCH  34  37
ENDBRANCH   2  34
BRANCH   6  46
HETATM   46  O6  UNL     1      -4.124   4.671  -0.304  1.00  0.00    -0.326 OA
BRANCH  46  47
HETATM   47  C20 UNL     1      -4.722   4.978  -1.529  1.00  0.00     0.294 A 
HETATM   48  C21 UNL     1      -6.182   5.078  -1.504  1.00  0.00     0.057 A 
HETATM   49  C22 UNL     1      -6.139   6.336  -1.838  1.00  0.00     0.139 A 
HETATM   50  O7  UNL     1      -4.774   6.305  -1.877  1.00  0.00    -0.329 OA
ENDBRANCH  46  47
ENDBRANCH   6  46
TORSDOF 15
