REMARK  7 active torsions:
REMARK  status: ('A' for Active; 'I' for Inactive)
REMARK    1  A    between atoms: O1_2  and  C2_3 
REMARK    2  A    between atoms: C2_3  and  C3_4 
REMARK    3  A    between atoms: C3_4  and  C4_5 
REMARK    4  A    between atoms: C3_4  and  C14_16 
REMARK    5  A    between atoms: C4_5  and  N1_6 
REMARK    6  A    between atoms: C14_16  and  N2_17 
REMARK    7  A    between atoms: C14_16  and  O2_21 
ROOT
HETATM    1  C3  UNL     1       1.865   0.218   0.024  1.00  0.00     0.094 C 
ENDROOT
BRANCH   1   2
HETATM    2  C2  UNL     1       1.945   1.015   1.252  1.00  0.00     0.177 C 
BRANCH   2   3
HETATM    3  O1  UNL     1       3.268   1.399   1.482  1.00  0.00    -0.395 OA
HETATM    4  C1  UNL     1       3.825   2.243   0.552  1.00  0.00     0.201 C 
ENDBRANCH   2   3
ENDBRANCH   1   2
BRANCH   1   5
HETATM    5  C4  UNL     1       0.614  -0.307  -0.511  1.00  0.00     0.283 C 
BRANCH   5   6
HETATM    6  N1  UNL     1      -0.241  -1.169   0.196  1.00  0.00     0.093 N 
HETATM    7  C5  UNL     1      -1.085  -1.955  -0.711  1.00  0.00     0.277 C 
HETATM    8  C6  UNL     1      -2.331  -1.342  -1.182  1.00  0.00     0.069 C 
HETATM    9  C7  UNL     1      -2.919  -0.295  -0.337  1.00  0.00    -0.049 A 
HETATM   10  C8  UNL     1      -4.110   0.302  -0.756  1.00  0.00     0.007 A 
HETATM   11  C12 UNL     1      -2.298   0.056   0.814  1.00  0.00    -0.024 A 
HETATM   12  C9  UNL     1      -4.676   1.291   0.034  1.00  0.00     0.001 A 
HETATM   13  C10 UNL     1      -4.065   1.668   1.209  1.00  0.00     0.001 A 
HETATM   14  C11 UNL     1      -2.893   1.045   1.574  1.00  0.00     0.009 A 
HETATM   15  C13 UNL     1      -1.051  -0.588   1.238  1.00  0.00     0.311 C 
ENDBRANCH   5   6
ENDBRANCH   1   5
BRANCH   1  16
HETATM   16  C14 UNL     1       2.961  -0.855   0.127  1.00  0.00     0.324 C 
BRANCH  16  17
HETATM   17  N2  UNL     1       2.911  -1.683  -1.089  1.00  0.00    -0.053 N 
ATOM     18  H23 UNL     1       1.987  -2.080  -1.256  1.00  0.00     0.277 HD
ATOM     19  H22 UNL     1       2.981  -1.131  -1.944  1.00  0.00     0.277 HD
ATOM     20  H21 UNL     1       3.638  -2.395  -1.021  1.00  0.00     0.277 HD
ENDBRANCH  16  17
BRANCH  16  21
HETATM   21  O2  UNL     1       2.860  -1.615   1.270  1.00  0.00    -0.369 OA
ATOM     22  H2  UNL     1       3.537  -2.278   1.334  1.00  0.00     0.212 HD
ENDBRANCH  16  21
ENDBRANCH   1  16
TORSDOF 7
