REMARK  6 active torsions:
REMARK  status: ('A' for Active; 'I' for Inactive)
REMARK    1  A    between atoms: C1_4  and  C2_5 
REMARK    2  A    between atoms: C2_5  and  N2_6 
REMARK    3  A    between atoms: N2_6  and  C3_8 
REMARK    4  A    between atoms: C8_13  and  C9_14 
REMARK    5  A    between atoms: C9_14  and  N3_15 
REMARK    6  A    between atoms: N3_15  and  C10_17 
ROOT
HETATM    1  C3  UNL     1       1.729  -0.509  -0.350  1.00  0.00     0.036 A 
HETATM    2  C4  UNL     1       2.708  -1.481  -0.350  1.00  0.00     0.030 A 
HETATM    3  C5  UNL     1       2.424  -2.825  -0.249  1.00  0.00     0.002 A 
HETATM    4  C6  UNL     1       1.119  -3.223  -0.144  1.00  0.00     0.001 A 
HETATM    5  C7  UNL     1       0.136  -2.255  -0.144  1.00  0.00     0.011 A 
HETATM    6  C8  UNL     1       0.417  -0.915  -0.244  1.00  0.00    -0.014 A 
ENDROOT
BRANCH   6   7
HETATM    7  C9  UNL     1      -0.707   0.092  -0.238  1.00  0.00     0.178 C 
BRANCH   7   8
HETATM    8  N3  UNL     1      -1.969  -0.614  -0.117  1.00  0.00    -0.222 N 
ATOM      9  H3  UNL     1      -1.992  -1.630  -0.208  1.00  0.00     0.178 HD
BRANCH   8  10
HETATM   10  C10 UNL     1      -3.063   0.034   0.105  1.00  0.00     0.677 A 
HETATM   11  N4  UNL     1      -4.185  -0.670   0.206  1.00  0.00    -0.202 N 
HETATM   12  C11 UNL     1      -5.367  -0.077   0.436  1.00  0.00     0.107 A 
ATOM     13  H4  UNL     1      -4.147  -1.684   0.106  1.00  0.00     0.183 HD
HETATM   14  C12 UNL     1      -5.408   1.286   0.569  1.00  0.00     0.035 A 
HETATM   15  C13 UNL     1      -4.255   2.001   0.464  1.00  0.00     0.107 A 
HETATM   16  N5  UNL     1      -3.096   1.366   0.234  1.00  0.00    -0.202 N 
ATOM     17  H5  UNL     1      -2.232   1.903   0.157  1.00  0.00     0.183 HD
ENDBRANCH   8  10
ENDBRANCH   7   8
ENDBRANCH   6   7
BRANCH   1  18
HETATM   18  N2  UNL     1       2.008   0.876  -0.460  1.00  0.00    -0.385 N 
ATOM     19  H2  UNL     1       1.220   1.523  -0.484  1.00  0.00     0.160 HD
BRANCH  18  20
HETATM   20  C2  UNL     1       3.339   1.427  -0.540  1.00  0.00     0.163 C 
BRANCH  20  21
HETATM   21  C1  UNL     1       4.156   1.173   0.689  1.00  0.00     0.072 C 
HETATM   22  N1  UNL     1       5.428   1.132   0.659  1.00  0.00    -0.410 N 
ATOM     23  H12 UNL     1       5.890   1.279  -0.239  1.00  0.00     0.155 HD
ATOM     24  H11 UNL     1       5.984   0.959   1.496  1.00  0.00     0.155 HD
ENDBRANCH  20  21
ENDBRANCH  18  20
ENDBRANCH   1  18
TORSDOF 6
