REMARK  7 active torsions:
REMARK  status: ('A' for Active; 'I' for Inactive)
REMARK    1  A    between atoms: C2_2  and  O1_3 
REMARK    2  A    between atoms: O1_3  and  C3_4 
REMARK    3  A    between atoms: C6_7  and  C7_8 
REMARK    4  A    between atoms: C7_8  and  C8_9 
REMARK    5  A    between atoms: C16_22  and  C17_23 
REMARK    6  A    between atoms: C18_27  and  O4_28 
REMARK    7  A    between atoms: O4_28  and  C19_29 
ROOT
HETATM    1  C8  UNL     1       0.794   0.445   0.414  1.00  0.00     0.105 A 
HETATM    2  N1  UNL     1       0.575  -0.817  -0.025  1.00  0.00    -0.316 N 
ATOM      3  H1  UNL     1      -0.374  -1.189   0.017  1.00  0.00     0.169 HD
HETATM    4  C9  UNL     1       1.549  -1.602  -0.513  1.00  0.00     0.290 A 
HETATM    5  O2  UNL     1       1.347  -2.773  -0.920  1.00  0.00    -0.264 OA
HETATM    6  C10 UNL     1       2.863  -1.112  -0.581  1.00  0.00     0.181 A 
HETATM    7  N2  UNL     1       3.075   0.152  -0.141  1.00  0.00    -0.262 N 
HETATM    8  C11 UNL     1       2.085   0.914   0.341  1.00  0.00     0.280 A 
HETATM    9  O3  UNL     1       2.333   2.101   0.746  1.00  0.00    -0.265 OA
HETATM   10  C12 UNL     1       4.422   0.684  -0.215  1.00  0.00     0.024 A 
HETATM   11  C13 UNL     1       5.268   1.640  -0.312  1.00  0.00     0.000 A 
HETATM   12  C14 UNL     1       6.409   0.719  -0.276  1.00  0.00     0.042 A 
HETATM   13  C15 UNL     1       5.473  -0.370  -0.065  1.00  0.00     0.063 A 
HETATM   14  C16 UNL     1       5.214  -1.401  -1.152  1.00  0.00     0.103 C 
HETATM   15  N3  UNL     1       3.813  -1.833  -1.045  1.00  0.00    -0.365 N 
ATOM     16  H3  UNL     1       3.582  -2.774  -1.363  1.00  0.00     0.161 HD
ENDROOT
BRANCH   1  17
HETATM   17  C7  UNL     1      -0.161   1.209   0.890  1.00  0.00     0.049 C 
BRANCH  17  18
HETATM   18  C6  UNL     1      -1.544   0.748   0.983  1.00  0.00    -0.000 A 
HETATM   19  C5  UNL     1      -1.943  -0.168   1.918  1.00  0.00     0.017 A 
HETATM   20  C4  UNL     1      -3.275  -0.595   1.987  1.00  0.00     0.038 A 
HETATM   21  C3  UNL     1      -4.246  -0.130   1.135  1.00  0.00     0.071 A 
HETATM   22  C21 UNL     1      -3.823   0.808   0.180  1.00  0.00     0.074 A 
HETATM   23  C18 UNL     1      -2.520   1.233   0.106  1.00  0.00     0.081 A 
BRANCH  21  24
HETATM   24  O1  UNL     1      -5.569  -0.524   1.166  1.00  0.00    -0.351 OA
BRANCH  24  25
HETATM   25  C2  UNL     1      -6.081  -1.464   2.070  1.00  0.00     0.171 C 
HETATM   26  C1  UNL     1      -5.493  -2.832   1.973  1.00  0.00     0.034 C 
ENDBRANCH  24  25
ENDBRANCH  21  24
BRANCH  23  27
HETATM   27  O4  UNL     1      -2.095   2.144  -0.817  1.00  0.00    -0.351 OA
BRANCH  27  28
HETATM   28  C19 UNL     1      -2.877   2.767  -1.784  1.00  0.00     0.171 C 
HETATM   29  C20 UNL     1      -4.004   3.603  -1.267  1.00  0.00     0.034 C 
ENDBRANCH  27  28
ENDBRANCH  23  27
ENDBRANCH  17  18
ENDBRANCH   1  17
BRANCH  14  30
HETATM   30  C17 UNL     1       6.071  -2.614  -0.984  1.00  0.00     0.111 C 
HETATM   31 BR1  UNL     1       7.949  -2.219  -1.048  1.00  0.00    -0.094 Br
ENDBRANCH  14  30
TORSDOF 7
