REMARK  8 active torsions:
REMARK  status: ('A' for Active; 'I' for Inactive)
REMARK    1  A    between atoms: O1_2  and  C2_3 
REMARK    2  A    between atoms: C4_5  and  C5_6 
REMARK    3  A    between atoms: N2_14  and  C9_15 
REMARK    4  A    between atoms: C9_15  and  C10_16 
REMARK    5  A    between atoms: C11_17  and  C12_18 
REMARK    6  A    between atoms: C13_19  and  C14_20 
REMARK    7  A    between atoms: C14_20  and  C15_21 
REMARK    8  A    between atoms: N3_27  and  C19_28 
ROOT
HETATM    1  C15 UNL     1       7.511   1.014  -0.132  1.00  0.00    -0.082 C 
HETATM    2  C16 UNL     1       7.334   2.143   0.250  1.00  0.00    -0.023 C 
HETATM    3 BR1  UNL     1       7.084   3.909   0.866  1.00  0.00     0.010 Br
ENDROOT
BRANCH   1   4
HETATM    4  C14 UNL     1       7.742  -0.360  -0.580  1.00  0.00     0.189 C 
BRANCH   4   5
HETATM    5  C13 UNL     1       6.581  -1.226  -0.308  1.00  0.00    -0.090 C 
HETATM    6  C12 UNL     1       5.642  -1.953  -0.093  1.00  0.00    -0.078 C 
BRANCH   6   7
HETATM    7  C11 UNL     1       4.544  -2.834   0.153  1.00  0.00     0.062 C 
HETATM    8  C10 UNL     1       3.421  -2.480   0.697  1.00  0.00     0.002 C 
BRANCH   8   9
HETATM    9  C9  UNL     1       3.153  -1.101   1.124  1.00  0.00     0.165 C 
BRANCH   9  10
HETATM   10  N2  UNL     1       1.964  -0.544   0.481  1.00  0.00    -0.262 N 
HETATM   11  C8  UNL     1       2.091   0.169  -0.728  1.00  0.00     0.332 A 
HETATM   12  N1  UNL     1       0.947   0.720  -1.399  1.00  0.00    -0.274 N 
HETATM   13  O3  UNL     1       3.203   0.347  -1.260  1.00  0.00    -0.246 OA
HETATM   14  C7  UNL     1      -0.363   0.538  -0.816  1.00  0.00     0.265 A 
ATOM     15  H1  UNL     1       1.057   1.232  -2.274  1.00  0.00     0.173 HD
HETATM   16  C6  UNL     1      -0.519  -0.188   0.425  1.00  0.00     0.101 A 
HETATM   17  O2  UNL     1      -1.348   1.026  -1.424  1.00  0.00    -0.267 OA
HETATM   18  C5  UNL     1      -1.660  -0.360   1.012  1.00  0.00     0.035 C 
HETATM   19  C17 UNL     1       0.695  -0.745   1.089  1.00  0.00     0.267 A 
HETATM   20  O4  UNL     1       0.575  -1.378   2.166  1.00  0.00    -0.267 OA
BRANCH  18  21
HETATM   21  C4  UNL     1      -2.997   0.057   0.689  1.00  0.00    -0.015 A 
HETATM   22  C3  UNL     1      -3.579   1.280   0.436  1.00  0.00     0.069 A 
HETATM   23  C2  UNL     1      -4.921   1.079   0.157  1.00  0.00     0.145 A 
HETATM   24  N3  UNL     1      -5.187  -0.239   0.231  1.00  0.00    -0.324 N 
HETATM   25  C18 UNL     1      -4.050  -0.872   0.549  1.00  0.00     0.105 A 
BRANCH  23  26
HETATM   26  O1  UNL     1      -5.871   2.060  -0.155  1.00  0.00    -0.341 OA
HETATM   27  C1  UNL     1      -5.452   3.421  -0.199  1.00  0.00     0.211 C 
ENDBRANCH  23  26
BRANCH  24  28
HETATM   28  C19 UNL     1      -6.475  -0.898   0.010  1.00  0.00     0.254 C 
HETATM   29  C20 UNL     1      -6.627  -1.265  -1.409  1.00  0.00     0.079 C 
HETATM   30  N4  UNL     1      -6.750  -1.546  -2.533  1.00  0.00    -0.196 NA
ENDBRANCH  24  28
ENDBRANCH  18  21
ENDBRANCH   9  10
ENDBRANCH   8   9
ENDBRANCH   6   7
ENDBRANCH   4   5
ENDBRANCH   1   4
TORSDOF 8
