REMARK  8 active torsions:
REMARK  status: ('A' for Active; 'I' for Inactive)
REMARK    1  A    between atoms: O1_2  and  C2_3 
REMARK    2  A    between atoms: N1_9  and  O2_10 
REMARK    3  A    between atoms: C8_14  and  C9_15 
REMARK    4  A    between atoms: C9_15  and  O3_17 
REMARK    5  A    between atoms: O3_17  and  C10_18 
REMARK    6  A    between atoms: C10_18  and  C11_19 
REMARK       I    between atoms: C11_19  and  N3_21 
REMARK    7  A    between atoms: N3_21  and  C12_23 
REMARK    8  A    between atoms: C12_23  and  C13_24 
ROOT
HETATM    1  C2  UNL     1      -6.097  -0.581   0.470  1.00  0.00     0.070 A 
HETATM    2  C3  UNL     1      -6.014   0.772   0.167  1.00  0.00     0.039 A 
HETATM    3  C4  UNL     1      -4.869   1.293  -0.389  1.00  0.00     0.036 A 
HETATM    4  C5  UNL     1      -3.765   0.523  -0.670  1.00  0.00     0.079 A 
HETATM    5  C6  UNL     1      -3.850  -0.833  -0.365  1.00  0.00     0.111 A 
HETATM    6  C7  UNL     1      -4.995  -1.378   0.195  1.00  0.00     0.073 A 
HETATM    7  N1  UNL     1      -2.760  -1.576  -0.647  1.00  0.00    -0.160 N 
HETATM    8  N2  UNL     1      -1.659  -1.067  -1.183  1.00  0.00    -0.255 N 
ATOM      9  H2  UNL     1      -0.867  -1.681  -1.373  1.00  0.00     0.191 HD
HETATM   10  C8  UNL     1      -1.563   0.244  -1.483  1.00  0.00     0.181 A 
HETATM   11  N4  UNL     1      -2.641   1.001  -1.209  1.00  0.00    -0.256 N 
HETATM   12 BR1  UNL     1      -2.527   2.839  -1.621  1.00  0.00     0.057 Br
ENDROOT
BRANCH  10  13
HETATM   13  C9  UNL     1      -0.341   0.776  -2.068  1.00  0.00     0.183 C 
HETATM   14  S1  UNL     1      -0.268   1.143  -3.652  1.00  0.00    -0.049 SA
BRANCH  13  15
HETATM   15  O3  UNL     1       0.781   0.979  -1.288  1.00  0.00    -0.328 OA
BRANCH  15  16
HETATM   16  C10 UNL     1       1.234  -0.019  -0.401  1.00  0.00     0.279 C 
BRANCH  16  17
HETATM   17  C11 UNL     1       2.455   0.513   0.290  1.00  0.00     0.242 C 
HETATM   18  O4  UNL     1       2.880   1.656   0.012  1.00  0.00    -0.271 OA
HETATM   19  N3  UNL     1       3.118  -0.280   1.250  1.00  0.00    -0.355 N 
ATOM     20  H3  UNL     1       2.761  -1.210   1.470  1.00  0.00     0.162 HD
BRANCH  19  21
HETATM   21  C12 UNL     1       4.298   0.210   1.926  1.00  0.00     0.161 C 
BRANCH  21  22
HETATM   22  C13 UNL     1       5.472   0.088   1.048  1.00  0.00    -0.041 A 
HETATM   23  C14 UNL     1       6.029  -1.161   0.865  1.00  0.00     0.009 A 
HETATM   24  C15 UNL     1       7.137  -1.309   0.051  1.00  0.00     0.001 A 
HETATM   25  C16 UNL     1       7.676  -0.195  -0.573  1.00  0.00     0.000 A 
HETATM   26  C17 UNL     1       7.110   1.054  -0.382  1.00  0.00     0.001 A 
HETATM   27  C18 UNL     1       5.995   1.198   0.438  1.00  0.00     0.009 A 
ENDBRANCH  21  22
ENDBRANCH  19  21
ENDBRANCH  16  17
ENDBRANCH  15  16
ENDBRANCH  13  15
ENDBRANCH  10  13
BRANCH   7  28
HETATM   28  O2  UNL     1      -2.855  -2.923  -0.340  1.00  0.00    -0.267 OA
ATOM     29  H2  UNL     1      -2.087  -3.446  -0.539  1.00  0.00     0.247 HD
ENDBRANCH   7  28
BRANCH   1  30
HETATM   30  O1  UNL     1      -7.200  -1.172   1.024  1.00  0.00    -0.356 OA
HETATM   31  C1  UNL     1      -8.348  -0.414   1.325  1.00  0.00     0.210 C 
ENDBRANCH   1  30
TORSDOF 8
