REMARK  7 active torsions:
REMARK  status: ('A' for Active; 'I' for Inactive)
REMARK    1  A    between atoms: C2_2  and  N1_3 
REMARK    2  A    between atoms: N1_3  and  C3_4 
REMARK    3  A    between atoms: N1_3  and  S1_6 
REMARK    4  A    between atoms: S1_6  and  C5_9 
REMARK    5  A    between atoms: C7_11  and  S2_12 
REMARK    6  A    between atoms: S2_12  and  N2_15 
REMARK    7  A    between atoms: N2_15  and  C8_17 
ROOT
HETATM    1  S2  UNL     1       1.554  -1.797  -1.737  1.00  0.00     0.264 S 
HETATM    2  O3  UNL     1       1.747  -3.258  -1.889  1.00  0.00    -0.200 OA
HETATM    3  O4  UNL     1       1.020  -1.290  -3.072  1.00  0.00    -0.200 OA
ENDROOT
BRANCH   1   4
HETATM    4  C7  UNL     1       0.291  -1.521  -0.547  1.00  0.00     0.081 A 
HETATM    5  C6  UNL     1      -0.606  -0.511  -0.718  1.00  0.00     0.050 A 
HETATM    6  C5  UNL     1      -1.647  -0.225   0.191  1.00  0.00     0.082 A 
HETATM    7  C17 UNL     1      -1.685  -1.051   1.270  1.00  0.00    -0.039 A 
HETATM    8  C16 UNL     1      -0.775  -2.089   1.460  1.00  0.00     0.010 A 
HETATM    9  C18 UNL     1      -2.682  -0.864   2.321  1.00  0.00     0.050 C 
HETATM   10  C15 UNL     1       0.223  -2.339   0.558  1.00  0.00     0.026 A 
BRANCH   6  11
HETATM   11  S1  UNL     1      -2.716   1.061  -0.202  1.00  0.00     0.244 S 
HETATM   12  O1  UNL     1      -2.725   2.116   0.922  1.00  0.00    -0.206 OA
HETATM   13  O2  UNL     1      -2.118   1.832  -1.381  1.00  0.00    -0.206 OA
BRANCH  11  14
HETATM   14  N1  UNL     1      -4.300   0.695  -0.616  1.00  0.00    -0.207 NA
BRANCH  14  15
HETATM   15  C2  UNL     1      -5.361   1.186   0.207  1.00  0.00     0.103 C 
HETATM   16  C1  UNL     1      -6.031   0.162   1.080  1.00  0.00     0.021 C 
ENDBRANCH  14  15
BRANCH  14  17
HETATM   17  C3  UNL     1      -4.645   0.889  -1.995  1.00  0.00     0.103 C 
HETATM   18  C4  UNL     1      -5.160   2.255  -2.315  1.00  0.00     0.021 C 
ENDBRANCH  14  17
ENDBRANCH  11  14
ENDBRANCH   6  11
ENDBRANCH   1   4
BRANCH   1  19
HETATM   19  N2  UNL     1       2.957  -0.916  -1.386  1.00  0.00    -0.265 N 
ATOM     20  H2  UNL     1       3.042  -0.018  -1.862  1.00  0.00     0.180 HD
BRANCH  19  21
HETATM   21  C8  UNL     1       3.915  -1.216  -0.615  1.00  0.00     0.133 A 
HETATM   22  N3  UNL     1       4.022  -2.331   0.108  1.00  0.00    -0.337 N 
HETATM   23  C9  UNL     1       5.088  -2.561   0.905  1.00  0.00     0.182 A 
ATOM     24  H3  UNL     1       3.280  -3.029   0.058  1.00  0.00     0.168 HD
HETATM   25  N4  UNL     1       6.107  -1.677   1.017  1.00  0.00    -0.350 N 
HETATM   26  C10 UNL     1       6.044  -0.536   0.305  1.00  0.00     0.067 A 
ATOM     27  H4  UNL     1       6.902  -1.870   1.625  1.00  0.00     0.166 HD
HETATM   28  C11 UNL     1       6.868   0.574   0.161  1.00  0.00     0.123 A 
HETATM   29  C14 UNL     1       4.957  -0.295  -0.512  1.00  0.00     0.093 A 
HETATM   30  N5  UNL     1       6.316   1.445  -0.694  1.00  0.00    -0.335 N 
HETATM   31  C12 UNL     1       6.853   2.725  -1.116  1.00  0.00     0.158 C 
HETATM   32  C13 UNL     1       5.140   0.940  -1.126  1.00  0.00     0.206 A 
HETATM   33  F1  UNL     1       4.310   1.557  -2.005  1.00  0.00    -0.185 F 
ENDBRANCH  19  21
ENDBRANCH   1  19
TORSDOF 7
