REMARK  8 active torsions:
REMARK  status: ('A' for Active; 'I' for Inactive)
REMARK    1  A    between atoms: N1_3  and  O1_4 
REMARK    2  A    between atoms: C4_7  and  C5_8 
REMARK       I    between atoms: C5_8  and  N2_10 
REMARK    3  A    between atoms: N2_10  and  C6_11 
REMARK    4  A    between atoms: C6_11  and  C7_12 
REMARK    5  A    between atoms: C12_17  and  O3_18 
REMARK    6  A    between atoms: O3_18  and  C13_19 
REMARK    7  A    between atoms: C13_19  and  C14_20 
REMARK    8  A    between atoms: N4_32  and  O5_33 
ROOT
HETATM    1  C1  UNL     1      -8.191  -0.990   0.977  1.00  0.00     0.094 C 
HETATM    2  C2  UNL     1      -6.958  -0.331   0.511  1.00  0.00     0.134 A 
HETATM    3  N1  UNL     1      -6.332   0.570   1.338  1.00  0.00    -0.221 N 
HETATM    4  C3  UNL     1      -5.227   1.181   0.929  1.00  0.00     0.146 A 
HETATM    5  C4  UNL     1      -4.730   0.883  -0.344  1.00  0.00     0.104 A 
HETATM    6  C21 UNL     1      -5.336   0.005  -1.145  1.00  0.00     0.162 A 
HETATM    7  C22 UNL     1      -4.852  -0.290  -2.497  1.00  0.00     0.121 C 
HETATM    8  N3  UNL     1      -4.445  -0.508  -3.516  1.00  0.00    -0.190 NA
HETATM    9  N4  UNL     1      -6.477  -0.605  -0.676  1.00  0.00    -0.199 N 
ENDROOT
BRANCH   5  10
HETATM   10  C5  UNL     1      -3.412   1.454  -0.760  1.00  0.00     0.330 C 
HETATM   11  O2  UNL     1      -3.479   2.713  -0.927  1.00  0.00    -0.251 OA
HETATM   12  N2  UNL     1      -2.328   0.672  -0.908  1.00  0.00    -0.378 NA
BRANCH  12  13
HETATM   13  C6  UNL     1      -1.199  -0.139  -1.063  1.00  0.00     0.202 C 
BRANCH  13  14
HETATM   14  C7  UNL     1      -0.100   0.329  -0.142  1.00  0.00     0.046 C 
HETATM   15  C8  UNL     1      -0.458   1.440   0.612  1.00  0.00     0.018 C 
HETATM   16  C9  UNL     1       0.405   2.519   0.913  1.00  0.00     0.001 C 
HETATM   17  C10 UNL     1       1.820   2.506   0.857  1.00  0.00     0.003 C 
HETATM   18  C11 UNL     1       2.590   1.318   0.790  1.00  0.00     0.041 C 
HETATM   19  C12 UNL     1       2.367   0.133   0.176  1.00  0.00     0.120 C 
HETATM   20  C20 UNL     1       1.095  -0.362  -0.139  1.00  0.00     0.217 C 
HETATM   21  O4  UNL     1       1.017  -1.552  -0.459  1.00  0.00    -0.284 OA
BRANCH  19  22
HETATM   22  O3  UNL     1       3.483  -0.669  -0.162  1.00  0.00    -0.343 OA
BRANCH  22  23
HETATM   23  C13 UNL     1       4.726  -0.120   0.147  1.00  0.00     0.217 C 
BRANCH  23  24
HETATM   24  C14 UNL     1       5.906  -0.972  -0.199  1.00  0.00     0.004 A 
HETATM   25  C15 UNL     1       5.896  -2.194  -0.806  1.00  0.00     0.012 A 
HETATM   26  C16 UNL     1       7.076  -2.896  -1.112  1.00  0.00     0.001 A 
HETATM   27  C17 UNL     1       8.306  -2.340  -0.789  1.00  0.00     0.003 A 
HETATM   28  C18 UNL     1       8.298  -1.112  -0.178  1.00  0.00     0.043 A 
HETATM   29  C19 UNL     1       7.159  -0.428   0.118  1.00  0.00     0.124 A 
HETATM   30  F1  UNL     1       7.201   0.790   0.710  1.00  0.00    -0.205 F 
ENDBRANCH  23  24
ENDBRANCH  22  23
ENDBRANCH  19  22
ENDBRANCH  13  14
ENDBRANCH  12  13
ENDBRANCH   5  10
BRANCH   9  31
HETATM   31  O5  UNL     1      -7.095  -1.492  -1.546  1.00  0.00    -0.280 OA
ATOM     32  H5  UNL     1      -6.746  -1.691  -2.407  1.00  0.00     0.245 HD
ENDBRANCH   9  31
BRANCH   3  33
HETATM   33  O1  UNL     1      -6.873   0.819   2.598  1.00  0.00    -0.282 OA
ATOM     34  H1  UNL     1      -6.440   1.442   3.170  1.00  0.00     0.245 HD
ENDBRANCH   3  33
TORSDOF 8
