REMARK  10 active torsions:
REMARK  status: ('A' for Active; 'I' for Inactive)
REMARK    1  A    between atoms: C4_4  and  C5_5 
REMARK    2  A    between atoms: C6_6  and  C7_7 
REMARK    3  A    between atoms: C7_7  and  O1_8 
REMARK    4  A    between atoms: O1_8  and  C8_9 
REMARK    5  A    between atoms: C13_15  and  C14_16 
REMARK    6  A    between atoms: C14_16  and  C15_17 
REMARK    7  A    between atoms: C15_17  and  O3_19 
REMARK    8  A    between atoms: O3_19  and  C16_20 
REMARK    9  A    between atoms: C16_20  and  C17_21 
REMARK       I    between atoms: N1_23  and  C18_24 
REMARK   10  A    between atoms: C18_24  and  C19_26 
ROOT
HETATM    1  C1  UNL     1       5.857   5.674   1.947  1.00  0.00     0.027 C 
HETATM    2  C2  UNL     1       5.478   4.552   1.723  1.00  0.00    -0.025 C 
HETATM    3  C3  UNL     1       5.008   3.228   1.472  1.00  0.00    -0.002 C 
HETATM    4  C4  UNL     1       4.592   2.118   1.254  1.00  0.00    -0.001 C 
ENDROOT
BRANCH   4   5
HETATM    5  C5  UNL     1       4.078   0.820   0.992  1.00  0.00    -0.012 C 
HETATM    6  C6  UNL     1       3.625  -0.275   0.755  1.00  0.00    -0.066 C 
BRANCH   6   7
HETATM    7  C7  UNL     1       3.064  -1.610   0.439  1.00  0.00     0.270 C 
BRANCH   7   8
HETATM    8  O1  UNL     1       1.886  -1.406  -0.330  1.00  0.00    -0.339 OA
BRANCH   8   9
HETATM    9  C8  UNL     1       1.187  -2.522  -0.745  1.00  0.00     0.076 A 
HETATM   10  C9  UNL     1       1.587  -3.829  -0.443  1.00  0.00     0.039 A 
HETATM   11  C10 UNL     1       0.833  -4.886  -0.897  1.00  0.00     0.022 A 
HETATM   12  C11 UNL     1      -0.300  -4.678  -1.639  1.00  0.00     0.011 A 
HETATM   13 BR1  UNL     1      -1.337  -6.136  -2.262  1.00  0.00    -0.051 Br
HETATM   14  C12 UNL     1      -0.696  -3.382  -1.939  1.00  0.00     0.029 A 
HETATM   15  C13 UNL     1       0.033  -2.306  -1.501  1.00  0.00    -0.014 A 
BRANCH  15  16
HETATM   16  C14 UNL     1      -0.365  -0.925  -1.802  1.00  0.00     0.152 C 
BRANCH  16  17
HETATM   17  C15 UNL     1      -1.023  -0.243  -0.625  1.00  0.00     0.263 C 
HETATM   18  O2  UNL     1      -2.130  -0.643  -0.201  1.00  0.00    -0.265 OA
BRANCH  17  19
HETATM   19  O3  UNL     1      -0.445   0.818   0.010  1.00  0.00    -0.317 OA
BRANCH  19  20
HETATM   20  C16 UNL     1      -0.877   1.586   1.070  1.00  0.00     0.237 C 
BRANCH  20  21
HETATM   21  C17 UNL     1      -2.027   2.511   0.856  1.00  0.00     0.308 A 
HETATM   22  O4  UNL     1      -2.350   2.994  -0.356  1.00  0.00    -0.242 OA
HETATM   23  N1  UNL     1      -3.302   2.150   0.450  1.00  0.00    -0.179 N 
HETATM   24  C18 UNL     1      -4.632   1.772   0.025  1.00  0.00     0.346 C 
HETATM   25  O5  UNL     1      -5.278   1.071   0.827  1.00  0.00    -0.258 OA
BRANCH  24  26
HETATM   26  C19 UNL     1      -5.218   2.155  -1.233  1.00  0.00     0.272 C 
HETATM   27  O6  UNL     1      -4.514   2.879  -2.024  1.00  0.00    -0.640 OA
HETATM   28  O7  UNL     1      -6.486   1.772  -1.601  1.00  0.00    -0.640 OA
ENDBRANCH  24  26
ENDBRANCH  20  21
ENDBRANCH  19  20
ENDBRANCH  17  19
ENDBRANCH  16  17
ENDBRANCH  15  16
ENDBRANCH   8   9
ENDBRANCH   7   8
ENDBRANCH   6   7
ENDBRANCH   4   5
TORSDOF 10
