REMARK  6 active torsions:
REMARK  status: ('A' for Active; 'I' for Inactive)
REMARK    1  A    between atoms: C2_2  and  C3_3 
REMARK    2  A    between atoms: C5_8  and  C6_9 
REMARK    3  A    between atoms: N3_13  and  C8_14 
REMARK    4  A    between atoms: C11_17  and  C12_18 
REMARK    5  A    between atoms: C12_18  and  O2_19 
REMARK    6  A    between atoms: C13_22  and  C14_23 
ROOT
HETATM    1  C3  UNL     1      -0.127   3.114   0.318  1.00  0.00     0.188 C 
HETATM    2  C4  UNL     1       1.070   2.557  -0.357  1.00  0.00     0.245 C 
HETATM    3  O1  UNL     1       1.618   3.185  -1.276  1.00  0.00    -0.271 OA
HETATM    4  N1  UNL     1       1.702   1.295   0.009  1.00  0.00    -0.326 N 
ATOM      5  H1  UNL     1       2.686   1.397   0.258  1.00  0.00     0.168 HD
HETATM    6  C5  UNL     1       1.279   0.066   0.086  1.00  0.00     0.051 C 
HETATM    7  C11 UNL     1      -0.027  -0.582  -0.158  1.00  0.00     0.176 C 
HETATM    8  N4  UNL     1      -1.111  -0.058   0.525  1.00  0.00    -0.256 N 
HETATM    9  C13 UNL     1      -2.255  -0.764   0.717  1.00  0.00     0.120 C 
HETATM   10  S1  UNL     1      -0.883   1.028   1.807  1.00  0.00     0.324 S 
HETATM   11  O3  UNL     1      -2.181   1.066   2.636  1.00  0.00    -0.182 OA
HETATM   12  O4  UNL     1       0.090   0.332   2.772  1.00  0.00    -0.182 OA
HETATM   13  N5  UNL     1      -0.389   2.578   1.590  1.00  0.00    -0.284 N 
HETATM   14  C20 UNL     1      -1.125   3.525   2.439  1.00  0.00     0.165 C 
ENDROOT
BRANCH   6  15
HETATM   15  C6  UNL     1       2.387  -0.839   0.528  1.00  0.00     0.023 A 
HETATM   16  C7  UNL     1       3.318  -0.497   1.441  1.00  0.00     0.122 A 
HETATM   17  N2  UNL     1       4.238  -1.448   1.440  1.00  0.00    -0.309 N 
HETATM   18  N3  UNL     1       3.904  -2.349   0.554  1.00  0.00    -0.303 N 
ATOM     19  H2  UNL     1       5.069  -1.474   2.031  1.00  0.00     0.186 HD
HETATM   20  C10 UNL     1       2.758  -1.994  -0.024  1.00  0.00     0.124 A 
BRANCH  18  21
HETATM   21  C8  UNL     1       4.771  -3.495   0.243  1.00  0.00     0.143 C 
HETATM   22  C9  UNL     1       5.888  -2.951  -0.645  1.00  0.00     0.028 C 
ENDBRANCH  18  21
ENDBRANCH   6  15
BRANCH   7  23
HETATM   23  C12 UNL     1      -0.192  -0.861  -1.622  1.00  0.00     0.196 C 
BRANCH  23  24
HETATM   24  O2  UNL     1      -0.836   0.163  -2.336  1.00  0.00    -0.398 OA
ATOM     25  H2  UNL     1      -0.941  -0.014  -3.264  1.00  0.00     0.209 HD
ENDBRANCH  23  24
ENDBRANCH   7  23
BRANCH   1  26
HETATM   26  C2  UNL     1      -0.188   4.579   0.200  1.00  0.00     0.031 C 
HETATM   27  C1  UNL     1      -0.459   5.160  -1.148  1.00  0.00     0.007 C 
ENDBRANCH   1  26
BRANCH   9  28
HETATM   28  C14 UNL     1      -2.999  -1.602  -0.166  1.00  0.00     0.019 A 
HETATM   29  C15 UNL     1      -2.698  -2.884  -0.471  1.00  0.00     0.016 A 
HETATM   30  C16 UNL     1      -3.596  -3.745  -1.110  1.00  0.00     0.001 A 
HETATM   31  C17 UNL     1      -4.850  -3.259  -1.447  1.00  0.00     0.003 A 
HETATM   32  C18 UNL     1      -5.175  -1.945  -1.150  1.00  0.00     0.043 A 
HETATM   33  C19 UNL     1      -4.287  -1.117  -0.524  1.00  0.00     0.128 A 
HETATM   34  F1  UNL     1      -4.558   0.207  -0.255  1.00  0.00    -0.205 F 
ENDBRANCH   9  28
TORSDOF 6
