REMARK  8 active torsions:
REMARK  status: ('A' for Active; 'I' for Inactive)
REMARK    1  A    between atoms: C3_3  and  N1_4 
REMARK    2  A    between atoms: N1_4  and  C4_5 
REMARK    3  A    between atoms: N1_4  and  C13_17 
REMARK    4  A    between atoms: C4_5  and  C5_6 
REMARK    5  A    between atoms: C5_6  and  S1_7 
REMARK    6  A    between atoms: S1_7  and  C6_9 
REMARK    7  A    between atoms: C6_9  and  C7_10 
REMARK    8  A    between atoms: C14_18  and  N2_19 
ROOT
HETATM    1  C1  UNL     1      -2.340  -3.347  -1.778  1.00  0.00     0.014 C 
HETATM    2  C2  UNL     1      -1.666  -2.359  -1.654  1.00  0.00    -0.098 C 
HETATM    3  C3  UNL     1      -0.860  -1.176  -1.481  1.00  0.00     0.216 C 
ENDROOT
BRANCH   3   4
HETATM    4  N1  UNL     1      -1.174  -0.443  -0.239  1.00  0.00    -0.362 N 
BRANCH   4   5
HETATM    5  C4  UNL     1      -0.316   0.661   0.026  1.00  0.00     0.137 C 
BRANCH   5   6
HETATM    6  C5  UNL     1       1.121   0.264   0.372  1.00  0.00     0.129 C 
BRANCH   6   7
HETATM    7  S1  UNL     1       1.969   1.786   0.652  1.00  0.00     0.020 S 
HETATM    8  O1  UNL     1       1.966   2.791  -0.669  1.00  0.00    -0.258 OA
BRANCH   7   9
HETATM    9  C6  UNL     1       3.489   1.668   1.474  1.00  0.00     0.149 C 
BRANCH   9  10
HETATM   10  C7  UNL     1       4.522   0.884   0.781  1.00  0.00    -0.025 A 
HETATM   11  C8  UNL     1       4.398   0.349  -0.462  1.00  0.00     0.010 A 
HETATM   12  C9  UNL     1       5.422  -0.359  -1.088  1.00  0.00     0.001 A 
HETATM   13  C10 UNL     1       6.601  -0.532  -0.451  1.00  0.00     0.002 A 
HETATM   14  C11 UNL     1       6.777  -0.011   0.804  1.00  0.00     0.024 A 
HETATM   15  C12 UNL     1       5.758   0.683   1.409  1.00  0.00     0.041 A 
HETATM   16 CL1  UNL     1       6.031   1.324   3.002  1.00  0.00    -0.084 Cl
ENDBRANCH   9  10
ENDBRANCH   7   9
ENDBRANCH   6   7
ENDBRANCH   5   6
ENDBRANCH   4   5
BRANCH   4  17
HETATM   17  C13 UNL     1      -2.264  -0.912   0.490  1.00  0.00     0.145 A 
HETATM   18  C14 UNL     1      -3.527  -0.411   0.324  1.00  0.00     0.154 A 
HETATM   19  N3  UNL     1      -4.580  -0.937   1.044  1.00  0.00    -0.292 N 
HETATM   20  C19 UNL     1      -4.368  -1.935   1.906  1.00  0.00     0.328 A 
ATOM     21  H3  UNL     1      -5.521  -0.564   0.918  1.00  0.00     0.172 HD
HETATM   22  O4  UNL     1      -5.382  -2.379   2.544  1.00  0.00    -0.247 OA
HETATM   23  N4  UNL     1      -3.147  -2.454   2.102  1.00  0.00    -0.273 N 
HETATM   24  C20 UNL     1      -2.110  -1.960   1.412  1.00  0.00     0.279 A 
ATOM     25  H4  UNL     1      -3.010  -3.215   2.767  1.00  0.00     0.173 HD
HETATM   26  O5  UNL     1      -0.939  -2.421   1.565  1.00  0.00    -0.265 OA
BRANCH  18  27
HETATM   27  N2  UNL     1      -3.753   0.665  -0.552  1.00  0.00    -0.227 N 
HETATM   28  C15 UNL     1      -3.623   2.029  -0.218  1.00  0.00     0.256 A 
HETATM   29  O2  UNL     1      -3.284   2.480   0.892  1.00  0.00    -0.268 OA
HETATM   30  C16 UNL     1      -3.954   2.837  -1.388  1.00  0.00     0.080 A 
HETATM   31  C17 UNL     1      -4.270   2.022  -2.382  1.00  0.00     0.080 A 
HETATM   32  C18 UNL     1      -4.158   0.623  -1.902  1.00  0.00     0.256 A 
HETATM   33  O3  UNL     1      -4.411  -0.340  -2.668  1.00  0.00    -0.268 OA
ENDBRANCH  18  27
ENDBRANCH   4  17
ENDBRANCH   3   4
TORSDOF 8
