REMARK  10 active torsions:
REMARK  status: ('A' for Active; 'I' for Inactive)
REMARK    1  A    between atoms: C2_2  and  C3_3 
REMARK    2  A    between atoms: C3_3  and  N1_4 
REMARK    3  A    between atoms: N1_4  and  C4_5 
REMARK    4  A    between atoms: N1_4  and  C8_11 
REMARK    5  A    between atoms: C4_5  and  C5_6 
REMARK       I    between atoms: C5_6  and  N2_8 
REMARK    6  A    between atoms: C8_11  and  O2_12 
REMARK    7  A    between atoms: C8_11  and  C9_14 
REMARK    8  A    between atoms: N5_23  and  C13_24 
REMARK    9  A    between atoms: C13_24  and  C14_25 
REMARK   10  A    between atoms: C20_32  and  N6_33 
ROOT
HETATM    1  C9  UNL     1      -0.919   1.108  -1.490  1.00  0.00     0.031 A 
HETATM    2  C10 UNL     1      -0.513   2.199  -2.287  1.00  0.00     0.105 A 
HETATM    3  N3  UNL     1       0.756   2.398  -2.653  1.00  0.00    -0.350 N 
ATOM      4  H3  UNL     1       0.979   3.209  -3.230  1.00  0.00     0.166 HD
HETATM    5  C11 UNL     1       1.742   1.576  -2.292  1.00  0.00     0.123 A 
HETATM    6  N4  UNL     1       3.009   1.789  -2.668  1.00  0.00    -0.293 N 
ATOM      7  H4  UNL     1       3.230   2.599  -3.247  1.00  0.00     0.172 HD
HETATM    8  C12 UNL     1       3.998   0.953  -2.296  1.00  0.00     0.330 A 
HETATM    9  O3  UNL     1       5.190   1.216  -2.695  1.00  0.00    -0.246 OA
HETATM   10  N5  UNL     1       3.756  -0.122  -1.538  1.00  0.00    -0.280 N 
HETATM   11  C20 UNL     1       2.451  -0.399  -1.117  1.00  0.00     0.125 A 
HETATM   12  C22 UNL     1       1.453   0.480  -1.515  1.00  0.00     0.053 A 
HETATM   13  C23 UNL     1       0.127   0.283  -1.138  1.00  0.00     0.036 A 
ENDROOT
BRANCH   1  14
HETATM   14  C8  UNL     1      -2.286   0.966  -1.153  1.00  0.00     0.150 C 
BRANCH  14  15
HETATM   15  N1  UNL     1      -3.033   0.077  -0.391  1.00  0.00    -0.349 N 
BRANCH  15  16
HETATM   16  C3  UNL     1      -2.535  -1.043   0.333  1.00  0.00     0.152 C 
BRANCH  16  17
HETATM   17  C2  UNL     1      -2.547  -2.263  -0.535  1.00  0.00    -0.017 C 
HETATM   18  C1  UNL     1      -3.255  -3.317  -0.178  1.00  0.00     0.008 C 
ENDBRANCH  16  17
ENDBRANCH  15  16
BRANCH  15  19
HETATM   19  C4  UNL     1      -4.506   0.247  -0.284  1.00  0.00     0.228 C 
BRANCH  19  20
HETATM   20  C5  UNL     1      -4.859   1.096   0.851  1.00  0.00     0.236 C 
HETATM   21  O1  UNL     1      -4.001   1.613   1.634  1.00  0.00    -0.272 OA
HETATM   22  N2  UNL     1      -6.217   1.373   1.115  1.00  0.00    -0.359 N 
HETATM   23  C6  UNL     1      -7.252   0.822   0.269  1.00  0.00     0.152 C 
HETATM   24  C7  UNL     1      -6.617   2.206   2.225  1.00  0.00     0.152 C 
ENDBRANCH  19  20
ENDBRANCH  15  19
ENDBRANCH  14  15
BRANCH  14  25
HETATM   25  O2  UNL     1      -3.052   1.913  -1.695  1.00  0.00    -0.345 OA
ATOM     26  H2  UNL     1      -2.541   2.521  -2.216  1.00  0.00     0.219 HD
ENDBRANCH  14  25
ENDBRANCH   1  14
BRANCH  11  27
HETATM   27  N6  UNL     1       2.250  -1.399  -0.463  1.00  0.00    -0.361 N 
HETATM   28  C21 UNL     1       1.547  -2.323   0.240  1.00  0.00     0.120 C 
ATOM     29  H6  UNL     1       3.192  -1.786  -0.405  1.00  0.00     0.165 HD
ENDBRANCH  11  27
BRANCH  10  30
HETATM   30  C13 UNL     1       4.844  -0.999  -1.180  1.00  0.00     0.174 C 
BRANCH  30  31
HETATM   31  C14 UNL     1       5.600  -0.611   0.035  1.00  0.00    -0.040 A 
HETATM   32  C15 UNL     1       6.781   0.125  -0.057  1.00  0.00     0.012 A 
HETATM   33  C16 UNL     1       7.528   0.515   1.037  1.00  0.00     0.043 A 
HETATM   34  C17 UNL     1       7.110   0.173   2.302  1.00  0.00     0.116 A 
HETATM   35  F1  UNL     1       7.812   0.535   3.409  1.00  0.00    -0.206 F 
HETATM   36  C18 UNL     1       5.952  -0.553   2.423  1.00  0.00     0.043 A 
HETATM   37  C19 UNL     1       5.202  -0.944   1.309  1.00  0.00     0.012 A 
ENDBRANCH  30  31
ENDBRANCH  10  30
TORSDOF 10
