REMARK  9 active torsions:
REMARK  status: ('A' for Active; 'I' for Inactive)
REMARK    1  A    between atoms: C3_4  and  C4_5 
REMARK       I    between atoms: C4_5  and  N2_7 
REMARK    2  A    between atoms: N2_7  and  C5_9 
REMARK    3  A    between atoms: C8_12  and  C9_13 
REMARK    4  A    between atoms: C12_16  and  N3_17 
REMARK    5  A    between atoms: N3_17  and  C13_18 
REMARK    6  A    between atoms: N3_17  and  C15_22 
REMARK    7  A    between atoms: C13_18  and  C14_19 
REMARK    8  A    between atoms: C14_19  and  O2_20 
REMARK    9  A    between atoms: C15_22  and  C16_23 
ROOT
HETATM    1  C5  UNL     1      -2.598  -1.252  -0.065  1.00  0.00     0.122 A 
HETATM    2  C6  UNL     1      -1.885  -0.963   1.074  1.00  0.00     0.052 A 
HETATM    3  C7  UNL     1      -0.511  -0.703   1.029  1.00  0.00     0.035 A 
HETATM    4  C8  UNL     1       0.111  -0.742  -0.180  1.00  0.00     0.058 A 
HETATM    5  N4  UNL     1      -0.600  -1.026  -1.285  1.00  0.00    -0.298 N 
ATOM      6  H4  UNL     1      -0.125  -1.053  -2.187  1.00  0.00     0.187 HD
HETATM    7  N5  UNL     1      -1.890  -1.270  -1.234  1.00  0.00    -0.285 N 
ATOM      8  H5  UNL     1      -2.383  -1.481  -2.102  1.00  0.00     0.188 HD
ENDROOT
BRANCH   4   9
HETATM    9  C9  UNL     1       1.552  -0.469  -0.301  1.00  0.00    -0.008 A 
HETATM   10  C10 UNL     1       2.136  -0.460  -1.536  1.00  0.00     0.016 A 
HETATM   11  C11 UNL     1       3.488  -0.216  -1.703  1.00  0.00     0.030 A 
HETATM   12  C12 UNL     1       4.316   0.029  -0.629  1.00  0.00     0.030 A 
HETATM   13  C17 UNL     1       3.707   0.016   0.631  1.00  0.00     0.030 A 
HETATM   14  C18 UNL     1       2.358  -0.228   0.781  1.00  0.00     0.016 A 
BRANCH  12  15
HETATM   15  N3  UNL     1       5.712   0.262  -0.783  1.00  0.00    -0.378 N 
BRANCH  15  16
HETATM   16  C13 UNL     1       6.467   0.668   0.394  1.00  0.00     0.149 C 
BRANCH  16  17
HETATM   17  C14 UNL     1       7.354  -0.377   0.967  1.00  0.00     0.183 C 
BRANCH  17  18
HETATM   18  O2  UNL     1       8.327  -0.829   0.106  1.00  0.00    -0.399 OA
ATOM     19  H2  UNL     1       8.894  -1.497   0.472  1.00  0.00     0.209 HD
ENDBRANCH  17  18
ENDBRANCH  16  17
ENDBRANCH  15  16
BRANCH  15  20
HETATM   20  C15 UNL     1       6.381   0.073  -2.045  1.00  0.00     0.134 C 
BRANCH  20  21
HETATM   21  C16 UNL     1       6.894   1.395  -2.600  1.00  0.00     0.105 C 
HETATM   22 BR1  UNL     1       5.449   2.649  -2.875  1.00  0.00    -0.095 Br
ENDBRANCH  20  21
ENDBRANCH  15  20
ENDBRANCH  12  15
ENDBRANCH   4   9
BRANCH   1  23
HETATM   23  N2  UNL     1      -3.863  -1.505  -0.089  1.00  0.00    -0.310 N 
HETATM   24  C4  UNL     1      -4.743  -1.537   1.001  1.00  0.00     0.258 C 
HETATM   25  O1  UNL     1      -4.422  -2.187   2.028  1.00  0.00    -0.271 OA
ATOM     26  H2  UNL     1      -4.268  -1.704  -1.004  1.00  0.00     0.170 HD
BRANCH  24  27
HETATM   27  C3  UNL     1      -6.047  -0.854   1.049  1.00  0.00     0.344 C 
HETATM   28  C2  UNL     1      -6.015   0.359   1.964  1.00  0.00     0.320 C 
HETATM   29  N1  UNL     1      -5.880   1.523   1.128  1.00  0.00     0.115 N 
HETATM   30  C1  UNL     1      -7.042   2.360   1.282  1.00  0.00     0.312 C 
HETATM   31  C20 UNL     1      -5.827   1.051  -0.235  1.00  0.00     0.542 C 
HETATM   32  N6  UNL     1      -6.447  -0.231  -0.187  1.00  0.00     0.127 N 
HETATM   33  C19 UNL     1      -6.368  -1.035  -1.351  1.00  0.00     0.313 C 
ENDBRANCH  24  27
ENDBRANCH   1  23
TORSDOF 9
