REMARK  7 active torsions:
REMARK  status: ('A' for Active; 'I' for Inactive)
REMARK    1  A    between atoms: C1_2  and  C2_3 
REMARK       I    between atoms: C1_2  and  N2_18 
REMARK    2  A    between atoms: C2_3  and  C3_4 
REMARK    3  A    between atoms: C3_4  and  C4_5 
REMARK    4  A    between atoms: C4_5  and  N1_6 
REMARK    5  A    between atoms: N2_18  and  C13_20 
REMARK    6  A    between atoms: C13_20  and  C14_21 
REMARK    7  A    between atoms: C14_21  and  N3_22 
ROOT
HETATM    1  O1  UNL     1       0.549  -0.732  -1.222  1.00  0.00    -0.274 OA
HETATM    2  C1  UNL     1      -0.036  -0.605  -0.123  1.00  0.00     0.217 C 
HETATM    3  N2  UNL     1      -1.381  -1.120  -0.027  1.00  0.00    -0.359 N 
ATOM      4  H2  UNL     1      -1.893  -1.036   0.851  1.00  0.00     0.162 HD
ENDROOT
BRANCH   2   5
HETATM    5  C2  UNL     1       0.554   0.026   1.054  1.00  0.00     0.104 C 
BRANCH   5   6
HETATM    6  C3  UNL     1       1.987   0.422   0.849  1.00  0.00     0.029 C 
BRANCH   6   7
HETATM    7  C4  UNL     1       2.913  -0.700   0.570  1.00  0.00     0.136 C 
BRANCH   7   8
HETATM    8  N1  UNL     1       4.285  -0.286   0.381  1.00  0.00    -0.280 N 
HETATM    9  C5  UNL     1       5.349  -0.135   1.308  1.00  0.00     0.261 A 
HETATM   10  O2  UNL     1       5.253  -0.358   2.539  1.00  0.00    -0.267 OA
HETATM   11  C6  UNL     1       6.556   0.313   0.622  1.00  0.00     0.048 A 
HETATM   12  C7  UNL     1       7.831   0.601   1.063  1.00  0.00     0.021 A 
HETATM   13  C11 UNL     1       6.220   0.430  -0.707  1.00  0.00     0.051 A 
HETATM   14  C8  UNL     1       8.799   1.015   0.167  1.00  0.00     0.043 A 
HETATM   15  C9  UNL     1       8.478   1.137  -1.168  1.00  0.00     0.117 A 
HETATM   16  F1  UNL     1       9.395   1.543  -2.102  1.00  0.00    -0.206 F 
HETATM   17  C10 UNL     1       7.197   0.843  -1.580  1.00  0.00     0.060 A 
HETATM   18  C12 UNL     1       4.811   0.064  -0.893  1.00  0.00     0.261 A 
HETATM   19  O3  UNL     1       4.220   0.077  -2.014  1.00  0.00    -0.267 OA
ENDBRANCH   7   8
ENDBRANCH   6   7
ENDBRANCH   5   6
ENDBRANCH   2   5
BRANCH   3  20
HETATM   20  C13 UNL     1      -2.008  -1.752  -1.160  1.00  0.00     0.143 C 
BRANCH  20  21
HETATM   21  C14 UNL     1      -3.390  -2.241  -0.950  1.00  0.00     0.165 C 
BRANCH  21  22
HETATM   22  N3  UNL     1      -4.376  -1.281  -0.586  1.00  0.00    -0.235 N 
HETATM   23  C15 UNL     1      -4.912  -0.976   0.663  1.00  0.00     0.269 A 
HETATM   24  O4  UNL     1      -4.544  -1.594   1.713  1.00  0.00    -0.266 OA
HETATM   25  C16 UNL     1      -5.897   0.078   0.651  1.00  0.00     0.056 A 
HETATM   26  C17 UNL     1      -6.596   0.616   1.739  1.00  0.00     0.018 A 
HETATM   27  C21 UNL     1      -6.163   0.617  -0.563  1.00  0.00     0.095 A 
HETATM   28  C18 UNL     1      -7.503   1.638   1.585  1.00  0.00     0.001 A 
HETATM   29  C19 UNL     1      -7.773   2.186   0.355  1.00  0.00     0.002 A 
HETATM   30  C20 UNL     1      -7.081   1.649  -0.708  1.00  0.00     0.026 A 
HETATM   31  S1  UNL     1      -5.170  -0.255  -1.722  1.00  0.00     0.268 S 
HETATM   32  O5  UNL     1      -6.074  -1.011  -2.633  1.00  0.00    -0.200 OA
HETATM   33  O6  UNL     1      -4.225   0.640  -2.440  1.00  0.00    -0.200 OA
ENDBRANCH  21  22
ENDBRANCH  20  21
ENDBRANCH   3  20
TORSDOF 7
