REMARK  3 active torsions:
REMARK  status: ('A' for Active; 'I' for Inactive)
REMARK    1  A    between atoms: O1_2  and  C2_3 
REMARK    2  A    between atoms: C7_8  and  N1_9 
REMARK    3  A    between atoms: C8_13  and  N2_14 
ROOT
HETATM    1  C2  UNL     1       0.763  -0.353   0.255  1.00  0.00     0.090 C 
HETATM    2  C3  UNL     1      -0.219  -1.189   1.069  1.00  0.00     0.041 C 
HETATM    3  C4  UNL     1      -0.901  -2.122   0.096  1.00  0.00     0.008 C 
HETATM    4  C5  UNL     1      -0.775  -1.303  -1.199  1.00  0.00    -0.010 C 
HETATM    5  C6  UNL     1      -1.652  -0.122  -1.092  1.00  0.00     0.039 C 
HETATM    6  C7  UNL     1      -1.056   1.142  -0.626  1.00  0.00     0.217 C 
HETATM    7  C8  UNL     1       0.246   1.063   0.073  1.00  0.00     0.247 C 
HETATM    8  C9  UNL     1       0.713  -0.986  -1.111  1.00  0.00     0.044 C 
ENDROOT
BRANCH   6   9
HETATM    9  N1  UNL     1      -1.995   1.830   0.277  1.00  0.00    -0.073 N 
ATOM     10  H13 UNL     1      -2.909   1.972  -0.154  1.00  0.00     0.274 HD
ATOM     11  H12 UNL     1      -2.289   1.235   1.052  1.00  0.00     0.274 HD
ATOM     12  H11 UNL     1      -1.582   2.705   0.600  1.00  0.00     0.274 HD
ENDBRANCH   6   9
BRANCH   7  13
HETATM   13  N2  UNL     1       0.256   1.733   1.361  1.00  0.00    -0.070 N 
ATOM     14  H23 UNL     1      -0.262   1.217   2.073  1.00  0.00     0.274 HD
ATOM     15  H22 UNL     1       1.173   1.707   1.807  1.00  0.00     0.274 HD
ATOM     16  H21 UNL     1      -0.091   2.684   1.239  1.00  0.00     0.274 HD
ENDBRANCH   7  13
BRANCH   1  17
HETATM   17  O1  UNL     1       1.963  -0.400   0.875  1.00  0.00    -0.383 OA
HETATM   18  C1  UNL     1       3.000   0.283   0.316  1.00  0.00     0.202 C 
ENDBRANCH   1  17
TORSDOF 3
