REMARK  3 active torsions:
REMARK  status: ('A' for Active; 'I' for Inactive)
REMARK    1  A    between atoms: N1_1  and  C1_5 
REMARK    2  A    between atoms: C1_5  and  C2_6 
REMARK    3  A    between atoms: C2_6  and  C3_7 
ROOT
HETATM    1  C3  UNL     1      -0.930  -0.189  -0.497  1.00  0.00    -0.008 C 
HETATM    2  C4  UNL     1      -0.356  -1.238   0.433  1.00  0.00     0.009 C 
HETATM    3  C5  UNL     1       1.081  -1.299  -0.105  1.00  0.00     0.069 C 
HETATM    4  C6  UNL     1       1.421   0.190  -0.138  1.00  0.00     0.226 C 
HETATM    5  C7  UNL     1       0.110   0.905  -0.384  1.00  0.00     0.073 C 
HETATM    6  N2  UNL     1       2.422   0.502  -1.105  1.00  0.00    -0.041 N 
ATOM      7  H21 UNL     1       2.109   1.157  -1.821  1.00  0.00     0.280 HD
ATOM      8  H22 UNL     1       2.638  -0.271  -1.734  1.00  0.00     0.280 HD
HETATM    9  C8  UNL     1       3.570   0.974  -0.342  1.00  0.00     0.262 C 
HETATM   10  C9  UNL     1       3.312   0.292   1.004  1.00  0.00     0.198 C 
HETATM   11  O1  UNL     1       1.920   0.504   1.121  1.00  0.00    -0.353 OA
ENDROOT
BRANCH   1  12
HETATM   12  C2  UNL     1      -2.275   0.307  -0.038  1.00  0.00     0.032 C 
BRANCH  12  13
HETATM   13  C1  UNL     1      -3.301  -0.772   0.049  1.00  0.00     0.230 C 
BRANCH  13  14
HETATM   14  N1  UNL     1      -4.547  -0.157   0.503  1.00  0.00    -0.079 N 
ATOM     15  H13 UNL     1      -4.440   0.362   1.375  1.00  0.00     0.274 HD
ATOM     16  H12 UNL     1      -4.841   0.625  -0.082  1.00  0.00     0.274 HD
ATOM     17  H11 UNL     1      -5.249  -0.895   0.562  1.00  0.00     0.274 HD
ENDBRANCH  13  14
ENDBRANCH  12  13
ENDBRANCH   1  12
TORSDOF 3
