REMARK  3 active torsions:
REMARK  status: ('A' for Active; 'I' for Inactive)
REMARK    1  A    between atoms: C2_2  and  C3_3 
REMARK    2  A    between atoms: C3_3  and  N1_4 
REMARK    3  A    between atoms: C4_5  and  N2_6 
ROOT
HETATM    1  N1  UNL     1       0.058   0.221   0.119  1.00  0.00    -0.336 N 
HETATM    2  C4  UNL     1      -0.299   1.558  -0.076  1.00  0.00     0.485 C 
HETATM    3  N3  UNL     1      -1.563   1.934   0.546  1.00  0.00    -0.029 N 
ATOM      4  H31 UNL     1      -1.753   2.936   0.519  1.00  0.00     0.281 HD
ATOM      5  H32 UNL     1      -1.566   1.840   1.562  1.00  0.00     0.281 HD
HETATM    6  C5  UNL     1      -2.585   1.118  -0.129  1.00  0.00     0.239 C 
HETATM    7  C6  UNL     1      -2.345  -0.295   0.267  1.00  0.00     0.058 C 
HETATM    8  C7  UNL     1      -0.940  -0.770   0.096  1.00  0.00     0.029 C 
HETATM    9  C8  UNL     1      -0.722  -1.889   1.124  1.00  0.00     0.038 C 
HETATM   10  C9  UNL     1      -0.864  -1.480  -1.261  1.00  0.00     0.038 C 
ENDROOT
BRANCH   2  11
HETATM   11  N2  UNL     1      -0.402   1.871  -1.509  1.00  0.00    -0.033 N 
ATOM     12  H23 UNL     1       0.455   1.633  -2.009  1.00  0.00     0.279 HD
ATOM     13  H22 UNL     1      -1.041   1.237  -1.988  1.00  0.00     0.279 HD
ATOM     14  H21 UNL     1      -0.663   2.847  -1.651  1.00  0.00     0.279 HD
ENDBRANCH   2  11
BRANCH   1  15
HETATM   15  C3  UNL     1       1.292  -0.087   0.717  1.00  0.00     0.062 C 
BRANCH  15  16
HETATM   16  C2  UNL     1       2.404   0.306  -0.237  1.00  0.00     0.040 C 
HETATM   17  C1  UNL     1       3.768   0.002   0.347  1.00  0.00     0.010 C 
ENDBRANCH  15  16
ENDBRANCH   1  15
TORSDOF 3
