REMARK  3 active torsions:
REMARK  status: ('A' for Active; 'I' for Inactive)
REMARK    1  A    between atoms: C4_5  and  C5_6 
REMARK    2  A    between atoms: C5_6  and  N2_7 
REMARK    3  A    between atoms: C5_6  and  C6_11 
ROOT
HETATM    1  N1  UNL     1       4.049  -0.233  -1.569  1.00  0.00    -0.197 NA
HETATM    2  C1  UNL     1       3.188   0.146  -0.906  1.00  0.00     0.064 C 
HETATM    3  C2  UNL     1       2.128   0.634  -0.067  1.00  0.00     0.093 C 
HETATM    4  C3  UNL     1       0.750   0.711  -0.742  1.00  0.00     0.026 C 
HETATM    5  C4  UNL     1       0.183   0.277   0.598  1.00  0.00     0.019 C 
HETATM    6  C7  UNL     1       1.498  -0.420   0.854  1.00  0.00     0.026 C 
ENDROOT
BRANCH   5   7
HETATM    7  C5  UNL     1      -1.022  -0.610   0.513  1.00  0.00     0.197 C 
BRANCH   7   8
HETATM    8  N2  UNL     1      -0.803  -1.840  -0.181  1.00  0.00    -0.074 N 
ATOM      9  H23 UNL     1      -0.427  -1.661  -1.112  1.00  0.00     0.274 HD
ATOM     10  H22 UNL     1      -0.018  -2.345   0.230  1.00  0.00     0.274 HD
ATOM     11  H21 UNL     1      -1.623  -2.444  -0.239  1.00  0.00     0.274 HD
ENDBRANCH   7   8
BRANCH   7  12
HETATM   12  C6  UNL     1      -2.137   0.174  -0.145  1.00  0.00     0.119 C 
HETATM   13  S1  UNL     1      -2.572   1.652   0.779  1.00  0.00    -0.096 SA
ENDBRANCH   7  12
ENDBRANCH   5   7
TORSDOF 3
