REMARK  4 active torsions:
REMARK  status: ('A' for Active; 'I' for Inactive)
REMARK    1  A    between atoms: N1_1  and  N2_4 
REMARK    2  A    between atoms: N2_4  and  N5_18 
REMARK    3  A    between atoms: C1_5  and  C2_6 
REMARK    4  A    between atoms: C5_15  and  O3_16 
ROOT
HETATM    1  C2  UNL     1      -0.380   0.159  -0.168  1.00  0.00     0.094 A 
HETATM    2  N3  UNL     1      -0.806  -0.900   0.542  1.00  0.00    -0.305 N 
ATOM      3  H3  UNL     1      -0.110  -1.484   1.006  1.00  0.00     0.171 HD
HETATM    4  C3  UNL     1      -2.103  -1.227   0.671  1.00  0.00     0.327 A 
HETATM    5  O1  UNL     1      -2.459  -2.246   1.358  1.00  0.00    -0.247 OA
HETATM    6  N4  UNL     1      -3.072  -0.505   0.090  1.00  0.00    -0.273 N 
ATOM      7  H4  UNL     1      -4.056  -0.756   0.190  1.00  0.00     0.173 HD
HETATM    8  C4  UNL     1      -2.692   0.559  -0.627  1.00  0.00     0.284 A 
HETATM    9  O2  UNL     1      -3.593   1.238  -1.174  1.00  0.00    -0.265 OA
HETATM   10  C5  UNL     1      -1.362   0.929  -0.784  1.00  0.00     0.163 A 
ENDROOT
BRANCH   1  11
HETATM   11  C1  UNL     1       1.030   0.505  -0.302  1.00  0.00     0.169 C 
HETATM   12  N2  UNL     1       2.067  -0.033   0.156  1.00  0.00    -0.206 N 
BRANCH  12  13
HETATM   13  N1  UNL     1       3.299   0.625  -0.211  1.00  0.00    -0.324 N 
ATOM     14  H12 UNL     1       3.186   1.451  -0.799  1.00  0.00     0.178 HD
ATOM     15  H11 UNL     1       4.142   0.188   0.161  1.00  0.00     0.178 HD
ENDBRANCH  12  13
BRANCH  12  16
HETATM   16  N5  UNL     1       2.219  -1.147   0.949  1.00  0.00    -0.242 N 
HETATM   17  S1  UNL     1       2.609  -0.981   2.520  1.00  0.00     0.061 SA
ATOM     18  H5  UNL     1       2.087  -2.077   0.552  1.00  0.00     0.198 HD
ENDBRANCH  12  16
ENDBRANCH   1  11
BRANCH  10  19
HETATM   19  O3  UNL     1      -1.067   2.025  -1.530  1.00  0.00    -0.354 OA
ATOM     20  H3  UNL     1      -1.737   2.551  -1.951  1.00  0.00     0.218 HD
ENDBRANCH  10  19
TORSDOF 4
