REMARK  4 active torsions:
REMARK  status: ('A' for Active; 'I' for Inactive)
REMARK    1  A    between atoms: N1_1  and  C1_5 
REMARK    2  A    between atoms: C1_5  and  C2_6 
REMARK    3  A    between atoms: C2_6  and  N2_7 
REMARK    4  A    between atoms: C4_10  and  N3_11 
ROOT
HETATM    1  N2  UNL     1       0.523  -0.361  -0.074  1.00  0.00    -0.323 N 
HETATM    2  C3  UNL     1      -0.112  -1.526   0.481  1.00  0.00     0.271 C 
HETATM    3  O1  UNL     1       0.213  -2.717   0.702  1.00  0.00    -0.270 OA
HETATM    4  C4  UNL     1      -1.353  -0.763   0.704  1.00  0.00     0.319 C 
HETATM    5  C5  UNL     1      -2.433  -1.161  -0.216  1.00  0.00     0.274 C 
HETATM    6  O2  UNL     1      -2.664  -2.388  -0.457  1.00  0.00    -0.270 OA
HETATM    7  N4  UNL     1      -3.214  -0.146  -0.831  1.00  0.00    -0.301 N 
ATOM      8  H4  UNL     1      -4.194  -0.303  -1.068  1.00  0.00     0.171 HD
HETATM    9  C6  UNL     1      -2.579   1.097  -1.104  1.00  0.00     0.176 C 
HETATM   10  S1  UNL     1      -3.410   2.302  -1.805  1.00  0.00    -0.041 SA
HETATM   11  N5  UNL     1      -1.211   1.224  -0.737  1.00  0.00    -0.342 N 
ATOM     12  H5  UNL     1      -0.636   1.897  -1.243  1.00  0.00     0.164 HD
HETATM   13  C7  UNL     1      -0.598   0.456   0.307  1.00  0.00     0.244 C 
ENDROOT
BRANCH   1  14
HETATM   14  C2  UNL     1       1.765  -0.091  -0.738  1.00  0.00     0.155 C 
BRANCH  14  15
HETATM   15  C1  UNL     1       2.864   0.277   0.255  1.00  0.00     0.249 C 
BRANCH  15  16
HETATM   16  N1  UNL     1       4.056   0.525  -0.529  1.00  0.00    -0.078 N 
ATOM     17  H13 UNL     1       4.307  -0.252  -1.141  1.00  0.00     0.274 HD
ATOM     18  H12 UNL     1       3.921   1.223  -1.260  1.00  0.00     0.274 HD
ATOM     19  H11 UNL     1       4.790   0.771   0.135  1.00  0.00     0.274 HD
ENDBRANCH  15  16
ENDBRANCH  14  15
ENDBRANCH   1  14
BRANCH   4  20
HETATM   20  N3  UNL     1      -1.785  -0.749   2.092  1.00  0.00    -0.049 N 
ATOM     21  H33 UNL     1      -1.876  -1.699   2.451  1.00  0.00     0.276 HD
ATOM     22  H32 UNL     1      -1.039  -0.409   2.699  1.00  0.00     0.276 HD
ATOM     23  H31 UNL     1      -2.644  -0.221   2.246  1.00  0.00     0.276 HD
ENDBRANCH   4  20
TORSDOF 4
