REMARK  2 active torsions:
REMARK  status: ('A' for Active; 'I' for Inactive)
REMARK    1  A    between atoms: N1_1  and  C1_4 
REMARK    2  A    between atoms: C2_7  and  C3_8 
ROOT
HETATM    1  C1  UNL     1      -3.045  -0.166   0.411  1.00  0.00     0.679 A 
HETATM    2  N2  UNL     1      -1.801  -0.627   0.173  1.00  0.00    -0.191 N 
ATOM      3  H2  UNL     1      -1.652  -1.636   0.146  1.00  0.00     0.184 HD
HETATM    4  C2  UNL     1      -0.747   0.183  -0.030  1.00  0.00     0.064 A 
HETATM    5  C8  UNL     1      -0.961   1.540   0.011  1.00  0.00     0.105 A 
HETATM    6  C9  UNL     1      -2.244   2.004   0.257  1.00  0.00     0.261 A 
HETATM    7  O1  UNL     1      -2.453   3.257   0.296  1.00  0.00    -0.268 OA
HETATM    8  N6  UNL     1      -3.266   1.143   0.453  1.00  0.00    -0.156 N 
ATOM      9  H6  UNL     1      -4.205   1.497   0.633  1.00  0.00     0.187 HD
ENDROOT
BRANCH   4  10
HETATM   10  C3  UNL     1       0.555  -0.415  -0.279  1.00  0.00     0.017 A 
HETATM   11  C4  UNL     1       1.749   0.075   0.013  1.00  0.00     0.087 A 
HETATM   12  N3  UNL     1       2.383   1.146   0.573  1.00  0.00    -0.349 N 
HETATM   13  C6  UNL     1       2.739  -0.794  -0.385  1.00  0.00     0.130 A 
HETATM   14  C5  UNL     1       3.711   0.936   0.520  1.00  0.00     0.182 A 
ATOM     15  H3  UNL     1       1.926   1.969   0.966  1.00  0.00     0.167 HD
HETATM   16  N4  UNL     1       3.950  -0.251  -0.066  1.00  0.00    -0.337 N 
ATOM     17  H4  UNL     1       4.865  -0.667  -0.239  1.00  0.00     0.168 HD
HETATM   18  N5  UNL     1       2.259  -1.854  -0.935  1.00  0.00    -0.370 N 
HETATM   19  C7  UNL     1       0.833  -1.740  -0.932  1.00  0.00     0.164 A 
ATOM     20  H5  UNL     1       2.799  -2.636  -1.307  1.00  0.00     0.161 HD
ENDBRANCH   4  10
BRANCH   1  21
HETATM   21  N1  UNL     1      -4.011  -1.027   0.597  1.00  0.00    -0.234 N 
ATOM     22  H12 UNL     1      -3.841  -2.032   0.565  1.00  0.00     0.174 HD
ATOM     23  H11 UNL     1      -4.952  -0.678   0.777  1.00  0.00     0.174 HD
ENDBRANCH   1  21
TORSDOF 2
