REMARK  4 active torsions:
REMARK  status: ('A' for Active; 'I' for Inactive)
REMARK    1  A    between atoms: C2_4  and  C3_5 
REMARK    2  A    between atoms: C2_4  and  N8_19 
REMARK    3  A    between atoms: C4_6  and  N3_8 
REMARK    4  A    between atoms: N3_8  and  C5_10 
ROOT
HETATM    1  C3  UNL     1       0.164   1.415  -0.126  1.00  0.00     0.093 C 
HETATM    2  C4  UNL     1       1.162   0.834  -0.782  1.00  0.00     0.135 C 
HETATM    3  N2  UNL     1       2.288   1.603  -1.240  1.00  0.00    -0.082 NA
ENDROOT
BRANCH   2   4
HETATM    4  N3  UNL     1       1.095  -0.563  -1.021  1.00  0.00    -0.176 N 
ATOM      5  H3  UNL     1       0.355  -0.946  -1.609  1.00  0.00     0.185 HD
BRANCH   4   6
HETATM    6  C5  UNL     1       1.965  -1.341  -0.498  1.00  0.00     0.715 A 
HETATM    7  N4  UNL     1       2.081  -2.683  -0.598  1.00  0.00    -0.115 N 
HETATM    8  N5  UNL     1       3.139  -3.040   0.119  1.00  0.00    -0.213 N 
ATOM      9  H4  UNL     1       1.470  -3.306  -1.126  1.00  0.00     0.207 HD
HETATM   10  N6  UNL     1       3.698  -1.982   0.670  1.00  0.00    -0.213 N 
ATOM     11  H5  UNL     1       3.472  -3.998   0.228  1.00  0.00     0.210 HD
HETATM   12  N7  UNL     1       2.976  -0.949   0.288  1.00  0.00    -0.115 N 
ATOM     13  H6  UNL     1       4.522  -1.966   1.270  1.00  0.00     0.210 HD
ATOM     14  H7  UNL     1       3.162   0.018   0.554  1.00  0.00     0.207 HD
ENDBRANCH   4   6
ENDBRANCH   2   4
BRANCH   1  15
HETATM   15  C2  UNL     1      -0.980   0.689   0.349  1.00  0.00     0.105 C 
HETATM   16  N1  UNL     1      -1.907   1.349   0.981  1.00  0.00    -0.381 N 
HETATM   17  C1  UNL     1      -1.820   2.771   1.215  1.00  0.00     0.147 C 
ATOM     18  H1  UNL     1      -2.724   0.843   1.323  1.00  0.00     0.160 HD
BRANCH  15  19
HETATM   19  N8  UNL     1      -1.157  -0.689   0.173  1.00  0.00    -0.319 N 
HETATM   20  C6  UNL     1      -2.277  -1.238  -0.165  1.00  0.00     0.202 C 
HETATM   21  N9  UNL     1      -2.345  -2.649  -0.316  1.00  0.00    -0.066 NA
HETATM   22  N10 UNL     1      -3.451  -0.470  -0.393  1.00  0.00    -0.066 NA
ATOM     23  H8  UNL     1      -0.352  -1.297   0.321  1.00  0.00     0.169 HD
ENDBRANCH  15  19
ENDBRANCH   1  15
TORSDOF 4
