REMARK  8 active torsions:
REMARK  status: ('A' for Active; 'I' for Inactive)
REMARK    1  A    between atoms: C2_2  and  N1_3 
REMARK    2  A    between atoms: C2_2  and  C3_7 
REMARK       I    between atoms: C3_7  and  N2_9 
REMARK    3  A    between atoms: N2_9  and  C4_11 
REMARK    4  A    between atoms: C8_21  and  O3_22 
REMARK    5  A    between atoms: C9_24  and  O4_25 
REMARK    6  A    between atoms: C10_27  and  N6_28 
REMARK    7  A    between atoms: C10_27  and  C11_32 
REMARK    8  A    between atoms: C13_36  and  N8_37 
ROOT
HETATM    1  C4  UNL     1       0.628   1.536  -0.222  1.00  0.00     0.153 C 
HETATM    2  C5  UNL     1      -0.031   0.735  -1.338  1.00  0.00     0.092 C 
HETATM    3  N3  UNL     1      -0.094  -0.646  -1.106  1.00  0.00    -0.325 N 
HETATM    4  C6  UNL     1       0.813  -1.418  -1.913  1.00  0.00     0.255 C 
HETATM    5  N4  UNL     1       0.248  -1.732  -3.213  1.00  0.00    -0.327 N 
ATOM      6  H4  UNL     1       0.798  -1.733  -4.072  1.00  0.00     0.165 HD
HETATM    7  C7  UNL     1      -1.140  -2.038  -3.181  1.00  0.00     0.321 C 
HETATM    8  O2  UNL     1      -1.808  -2.237  -4.236  1.00  0.00    -0.247 OA
HETATM    9  N5  UNL     1      -1.723  -2.106  -1.893  1.00  0.00    -0.291 N 
ATOM     10  H5  UNL     1      -2.473  -2.779  -1.739  1.00  0.00     0.169 HD
HETATM   11  C8  UNL     1      -1.311  -1.269  -0.778  1.00  0.00     0.250 C 
HETATM   12  C9  UNL     1      -2.471  -0.397  -0.464  1.00  0.00     0.241 C 
HETATM   13  C10 UNL     1      -2.472   0.415   0.749  1.00  0.00     0.234 C 
HETATM   14  C12 UNL     1      -1.175   0.797   1.366  1.00  0.00     0.086 C 
HETATM   15  C13 UNL     1      -0.473   1.944   0.705  1.00  0.00     0.214 C 
ENDROOT
BRANCH   1  16
HETATM   16  N2  UNL     1       1.666   0.772   0.380  1.00  0.00    -0.348 N 
HETATM   17  C3  UNL     1       3.024   1.166   0.450  1.00  0.00     0.248 C 
HETATM   18  O1  UNL     1       3.346   2.267  -0.053  1.00  0.00    -0.271 OA
ATOM     19  H2  UNL     1       1.413  -0.126   0.792  1.00  0.00     0.163 HD
BRANCH  17  20
HETATM   20  C2  UNL     1       4.093   0.363   1.078  1.00  0.00     0.270 C 
HETATM   21  C1  UNL     1       4.284  -0.966   0.337  1.00  0.00     0.050 C 
BRANCH  20  22
HETATM   22  N1  UNL     1       5.371   1.044   0.990  1.00  0.00    -0.067 N 
ATOM     23  H13 UNL     1       6.155   0.491   1.336  1.00  0.00     0.275 HD
ATOM     24  H12 UNL     1       5.713   1.153   0.035  1.00  0.00     0.275 HD
ATOM     25  H11 UNL     1       5.244   1.928   1.483  1.00  0.00     0.275 HD
ENDBRANCH  20  22
ENDBRANCH  17  20
ENDBRANCH   1  16
BRANCH  15  26
HETATM   26  N8  UNL     1       0.038   2.915   1.687  1.00  0.00    -0.073 N 
ATOM     27  H83 UNL     1       0.852   2.561   2.190  1.00  0.00     0.274 HD
ATOM     28  H82 UNL     1       0.480   3.718   1.239  1.00  0.00     0.274 HD
ATOM     29  H81 UNL     1      -0.713   3.193   2.319  1.00  0.00     0.274 HD
ENDBRANCH  15  26
BRANCH  11  30
HETATM   30  O3  UNL     1      -1.027  -2.188   0.253  1.00  0.00    -0.351 OA
ATOM     31  H3  UNL     1      -1.849  -2.609   0.475  1.00  0.00     0.214 HD
ENDBRANCH  11  30
BRANCH  13  32
HETATM   32  N6  UNL     1      -3.159   1.683   0.422  1.00  0.00    -0.059 N 
ATOM     33  H63 UNL     1      -2.752   2.163  -0.381  1.00  0.00     0.275 HD
ATOM     34  H62 UNL     1      -4.091   1.544   0.032  1.00  0.00     0.275 HD
ATOM     35  H61 UNL     1      -3.160   2.250   1.270  1.00  0.00     0.275 HD
ENDBRANCH  13  32
BRANCH  13  36
HETATM   36  C11 UNL     1      -3.293  -0.208   1.841  1.00  0.00     0.270 C 
HETATM   37  N7  UNL     1      -2.948  -1.453   2.443  1.00  0.00    -0.060 NA
HETATM   38  O5  UNL     1      -4.340   0.331   2.293  1.00  0.00    -0.274 OA
ENDBRANCH  13  36
BRANCH  12  39
HETATM   39  O4  UNL     1      -3.607  -1.250  -0.376  1.00  0.00    -0.386 OA
ATOM     40  H4  UNL     1      -4.349  -0.692  -0.175  1.00  0.00     0.210 HD
ENDBRANCH  12  39
TORSDOF 8
