REMARK  7 active torsions:
REMARK  status: ('A' for Active; 'I' for Inactive)
REMARK       I    between atoms: C1_4  and  N3_6 
REMARK    1  A    between atoms: C3_9  and  N4_10 
REMARK    2  A    between atoms: C5_15  and  N6_16 
REMARK    3  A    between atoms: N8_23  and  C7_24 
REMARK    4  A    between atoms: C7_24  and  C8_25 
REMARK       I    between atoms: C8_25  and  N9_27 
REMARK    5  A    between atoms: N9_27  and  N10_29 
REMARK    6  A    between atoms: C9_32  and  O4_33 
REMARK    7  A    between atoms: C11_36  and  N11_37 
ROOT
HETATM    1  N4  UNL     1       0.220  -0.946  -0.905  1.00  0.00    -0.209 N 
ATOM      2  H4  UNL     1      -0.378  -1.353  -1.624  1.00  0.00     0.178 HD
HETATM    3  C4  UNL     1       1.257  -1.580  -1.014  1.00  0.00     0.700 A 
HETATM    4  N5  UNL     1       1.306  -2.573  -1.995  1.00  0.00    -0.022 N 
ATOM      5  H5  UNL     1       0.482  -2.723  -2.577  1.00  0.00     0.203 HD
HETATM    6  C5  UNL     1       2.375  -3.330  -2.205  1.00  0.00     0.694 A 
HETATM    7  N7  UNL     1       3.475  -3.185  -1.485  1.00  0.00    -0.140 N 
ATOM      8  H7  UNL     1       4.292  -3.772  -1.654  1.00  0.00     0.189 HD
HETATM    9  C6  UNL     1       3.490  -2.255  -0.535  1.00  0.00     0.355 A 
HETATM   10  O2  UNL     1       4.549  -2.129   0.145  1.00  0.00    -0.245 OA
HETATM   11  N8  UNL     1       2.412  -1.482  -0.312  1.00  0.00    -0.123 N 
ENDROOT
BRANCH   1  12
HETATM   12  C3  UNL     1      -0.553  -0.014  -0.359  1.00  0.00     0.221 C 
HETATM   13  C2  UNL     1      -1.526  -0.475   0.704  1.00  0.00     0.254 C 
HETATM   14  N3  UNL     1      -2.623   0.349   0.978  1.00  0.00    -0.260 N 
HETATM   15  O1  UNL     1      -1.356  -1.542   1.309  1.00  0.00    -0.270 OA
HETATM   16  C1  UNL     1      -3.627  -0.147   1.853  1.00  0.00     0.192 C 
HETATM   17  C11 UNL     1      -2.840   1.678   0.456  1.00  0.00     0.295 C 
HETATM   18  N1  UNL     1      -4.244  -1.221   1.536  1.00  0.00    -0.373 N 
HETATM   19  N2  UNL     1      -3.901   0.569   3.035  1.00  0.00    -0.063 NA
ATOM     20  H12 UNL     1      -4.965  -1.577   2.164  1.00  0.00     0.158 HD
ATOM     21  H11 UNL     1      -4.046  -1.739   0.680  1.00  0.00     0.158 HD
HETATM   22  C10 UNL     1      -1.801   2.041  -0.601  1.00  0.00     0.089 C 
HETATM   23  C9  UNL     1      -1.483   0.750  -1.316  1.00  0.00     0.154 C 
BRANCH  17  24
HETATM   24  N11 UNL     1      -4.136   1.726  -0.187  1.00  0.00    -0.058 N 
ATOM     25 3H11 UNL     1      -4.242   1.006  -0.902  1.00  0.00     0.276 HD
ATOM     26 2H11 UNL     1      -4.888   1.424   0.432  1.00  0.00     0.276 HD
ATOM     27 1H11 UNL     1      -4.289   2.665  -0.556  1.00  0.00     0.276 HD
ENDBRANCH  17  24
BRANCH  23  28
HETATM   28  O4  UNL     1      -0.937   0.919  -2.554  1.00  0.00    -0.393 OA
ATOM     29  H4  UNL     1      -1.512   1.391  -3.145  1.00  0.00     0.210 HD
ENDBRANCH  23  28
ENDBRANCH   1  12
BRANCH  11  30
HETATM   30  C7  UNL     1       2.541  -0.519   0.726  1.00  0.00     0.257 C 
BRANCH  30  31
HETATM   31  C8  UNL     1       3.080   0.777   0.250  1.00  0.00     0.254 C 
HETATM   32  O3  UNL     1       3.365   0.934  -0.951  1.00  0.00    -0.270 OA
HETATM   33  N9  UNL     1       3.271   1.837   1.157  1.00  0.00    -0.275 N 
ATOM     34  H9  UNL     1       3.037   1.707   2.141  1.00  0.00     0.189 HD
BRANCH  33  35
HETATM   35  N10 UNL     1       3.782   3.077   0.719  1.00  0.00    -0.343 N 
ATOM     36 2H10 UNL     1       4.010   3.190  -0.269  1.00  0.00     0.176 HD
ATOM     37 1H10 UNL     1       3.920   3.845   1.376  1.00  0.00     0.176 HD
ENDBRANCH  33  35
ENDBRANCH  30  31
ENDBRANCH  11  30
BRANCH   6  38
HETATM   38  N6  UNL     1       2.394  -4.248  -3.124  1.00  0.00    -0.234 N 
ATOM     39  H62 UNL     1       1.546  -4.360  -3.679  1.00  0.00     0.174 HD
ATOM     40  H61 UNL     1       3.216  -4.830  -3.285  1.00  0.00     0.174 HD
ENDBRANCH   6  38
TORSDOF 7
