REMARK  9 active torsions:
REMARK  status: ('A' for Active; 'I' for Inactive)
REMARK    1  A    between atoms: N2_4  and  N3_6 
REMARK    2  A    between atoms: C2_9  and  C3_10 
REMARK    3  A    between atoms: C3_10  and  C4_12 
REMARK       I    between atoms: C4_12  and  N5_14 
REMARK    4  A    between atoms: N5_14  and  N6_16 
REMARK    5  A    between atoms: C5_19  and  C6_20 
REMARK    6  A    between atoms: C7_24  and  O4_25 
REMARK    7  A    between atoms: C7_24  and  O5_27 
REMARK    8  A    between atoms: C9_31  and  O6_32 
REMARK    9  A    between atoms: C10_34  and  N8_35 
ROOT
HETATM    1  N3  UNL     1       0.469   2.457   0.498  1.00  0.00    -0.288 N 
ATOM      2  H3  UNL     1       1.488   2.423   0.536  1.00  0.00     0.188 HD
HETATM    3  C1  UNL     1      -0.153   1.384   0.155  1.00  0.00     0.077 C 
HETATM    4  C2  UNL     1       0.580   0.134  -0.178  1.00  0.00     0.054 C 
HETATM    5  C5  UNL     1      -0.111  -1.014  -0.211  1.00  0.00     0.129 C 
HETATM    6  N7  UNL     1      -1.560  -1.032   0.065  1.00  0.00    -0.274 N 
HETATM    7  C7  UNL     1      -2.404  -2.204  -0.045  1.00  0.00     0.305 C 
HETATM    8  S1  UNL     1      -4.113  -1.512   0.205  1.00  0.00    -0.073 SA
HETATM    9  C8  UNL     1      -3.635   0.199  -0.161  1.00  0.00     0.145 C 
HETATM   10  C9  UNL     1      -2.239   0.134   0.499  1.00  0.00     0.181 C 
HETATM   11  C10 UNL     1      -1.614   1.415   0.104  1.00  0.00     0.291 C 
ENDROOT
BRANCH   4  12
HETATM   12  C3  UNL     1       2.010   0.324  -0.436  1.00  0.00     0.130 C 
HETATM   13  N4  UNL     1       2.434  -0.147  -1.715  1.00  0.00    -0.095 NA
BRANCH  12  14
HETATM   14  C4  UNL     1       2.926   0.250   0.688  1.00  0.00     0.284 C 
HETATM   15  O1  UNL     1       2.510   0.505   1.841  1.00  0.00    -0.265 OA
HETATM   16  N5  UNL     1       4.277  -0.101   0.512  1.00  0.00    -0.271 N 
ATOM     17  H5  UNL     1       4.625  -0.311  -0.423  1.00  0.00     0.189 HD
BRANCH  16  18
HETATM   18  N6  UNL     1       5.146  -0.165   1.602  1.00  0.00    -0.342 N 
ATOM     19  H62 UNL     1       4.781   0.048   2.530  1.00  0.00     0.176 HD
ATOM     20  H61 UNL     1       6.125  -0.419   1.474  1.00  0.00     0.176 HD
ENDBRANCH  16  18
ENDBRANCH  12  14
ENDBRANCH   4  12
BRANCH   5  21
HETATM   21  C6  UNL     1       0.588  -2.228  -0.512  1.00  0.00     0.228 C 
HETATM   22  O2  UNL     1      -0.025  -3.329  -0.607  1.00  0.00    -0.643 OA
HETATM   23  O3  UNL     1       1.936  -2.326  -0.710  1.00  0.00    -0.643 OA
ENDBRANCH   5  21
BRANCH   1  24
HETATM   24  N2  UNL     1      -0.143   3.646   0.817  1.00  0.00    -0.249 N 
HETATM   25  N1  UNL     1      -0.442   3.947   2.025  1.00  0.00    -0.331 N 
ATOM     26  H12 UNL     1      -0.213   3.276   2.758  1.00  0.00     0.178 HD
ATOM     27  H11 UNL     1      -0.896   4.829   2.262  1.00  0.00     0.178 HD
ATOM     28  H2  UNL     1      -0.365   4.306   0.072  1.00  0.00     0.207 HD
ENDBRANCH   1  24
BRANCH  11  29
HETATM   29  N8  UNL     1      -2.016   1.776  -1.260  1.00  0.00    -0.065 N 
ATOM     30  H83 UNL     1      -1.592   2.648  -1.578  1.00  0.00     0.275 HD
ATOM     31  H82 UNL     1      -1.610   1.161  -1.966  1.00  0.00     0.275 HD
ATOM     32  H81 UNL     1      -3.035   1.798  -1.296  1.00  0.00     0.275 HD
ENDBRANCH  11  29
BRANCH  10  33
HETATM   33  O6  UNL     1      -2.457   0.174   1.877  1.00  0.00    -0.367 OA
ATOM     34  H6  UNL     1      -2.912   0.956   2.168  1.00  0.00     0.212 HD
ENDBRANCH  10  33
BRANCH   7  35
HETATM   35  O4  UNL     1      -2.483  -2.736  -1.328  1.00  0.00    -0.340 OA
ATOM     36  H4  UNL     1      -3.037  -3.505  -1.400  1.00  0.00     0.216 HD
ENDBRANCH   7  35
BRANCH   7  37
HETATM   37  O5  UNL     1      -2.189  -3.159   0.941  1.00  0.00    -0.340 OA
ATOM     38  H5  UNL     1      -2.743  -3.928   0.869  1.00  0.00     0.216 HD
ENDBRANCH   7  37
TORSDOF 9
