REMARK  12 active torsions:
REMARK  status: ('A' for Active; 'I' for Inactive)
REMARK    1  A    between atoms: N1_1  and  C1_5 
REMARK    2  A    between atoms: C1_5  and  C2_6 
REMARK    3  A    between atoms: C2_6  and  N2_7 
REMARK    4  A    between atoms: C2_6  and  C3_11 
REMARK       I    between atoms: C3_11  and  N3_13 
REMARK    5  A    between atoms: N3_13  and  C4_15 
REMARK    6  A    between atoms: C5_18  and  O2_19 
REMARK    7  A    between atoms: C6_21  and  C7_22 
REMARK    8  A    between atoms: N5_23  and  O3_25 
REMARK    9  A    between atoms: C9_29  and  N6_30 
REMARK       I    between atoms: N6_30  and  C10_32 
REMARK   10  A    between atoms: C10_32  and  C11_34 
REMARK       I    between atoms: C11_34  and  N7_36 
REMARK   11  A    between atoms: N7_36  and  N8_38 
REMARK   12  A    between atoms: N8_38  and  N9_40 
ROOT
HETATM    1  C4  UNL     1      -0.419   0.035  -0.376  1.00  0.00     0.688 C 
HETATM    2  N4  UNL     1      -1.171   1.050  -0.820  1.00  0.00    -0.169 N 
ATOM      3  H4  UNL     1      -1.938   0.763  -1.428  1.00  0.00     0.186 HD
HETATM    4  C5  UNL     1      -1.105   2.378  -0.614  1.00  0.00     0.171 C 
HETATM    5  C6  UNL     1       0.045   3.042  -0.168  1.00  0.00     0.086 C 
HETATM    6  C8  UNL     1       1.260   2.505   0.187  1.00  0.00     0.232 C 
HETATM    7  O4  UNL     1       2.233   3.309   0.283  1.00  0.00    -0.283 OA
HETATM    8  C9  UNL     1       1.578   1.164   0.463  1.00  0.00     0.175 C 
HETATM    9  N10 UNL     1       0.780   0.103   0.273  1.00  0.00    -0.172 N 
ATOM     10  H10 UNL     1       1.116  -0.775   0.668  1.00  0.00     0.186 HD
ENDROOT
BRANCH   1  11
HETATM   11  N3  UNL     1      -0.814  -1.179  -0.544  1.00  0.00    -0.158 N 
HETATM   12  C3  UNL     1      -2.077  -1.326  -1.221  1.00  0.00     0.268 C 
HETATM   13  O1  UNL     1      -2.069  -1.463  -2.480  1.00  0.00    -0.270 OA
ATOM     14  H3  UNL     1      -0.271  -1.980  -0.221  1.00  0.00     0.187 HD
BRANCH  12  15
HETATM   15  C2  UNL     1      -3.366  -1.319  -0.476  1.00  0.00     0.300 C 
BRANCH  15  16
HETATM   16  C1  UNL     1      -4.021  -2.672  -0.662  1.00  0.00     0.272 C 
BRANCH  16  17
HETATM   17  N1  UNL     1      -5.255  -2.802   0.072  1.00  0.00    -0.077 N 
ATOM     18  H13 UNL     1      -5.115  -2.597   1.061  1.00  0.00     0.274 HD
ATOM     19  H12 UNL     1      -5.901  -2.048  -0.163  1.00  0.00     0.274 HD
ATOM     20  H11 UNL     1      -5.696  -3.713  -0.053  1.00  0.00     0.274 HD
ENDBRANCH  16  17
ENDBRANCH  15  16
BRANCH  15  21
HETATM   21  N2  UNL     1      -3.094  -1.174   0.934  1.00  0.00    -0.065 N 
ATOM     22  H23 UNL     1      -3.921  -1.303   1.517  1.00  0.00     0.275 HD
ATOM     23  H22 UNL     1      -2.543  -1.942   1.317  1.00  0.00     0.275 HD
ATOM     24  H21 UNL     1      -2.653  -0.263   1.059  1.00  0.00     0.275 HD
ENDBRANCH  15  21
ENDBRANCH  12  15
ENDBRANCH   1  11
BRANCH   4  25
HETATM   25  O2  UNL     1      -2.228   3.159  -0.852  1.00  0.00    -0.345 OA
ATOM     26  H2  UNL     1      -2.181   4.097  -0.707  1.00  0.00     0.219 HD
ENDBRANCH   4  25
BRANCH   8  27
HETATM   27  N6  UNL     1       2.736   1.000   0.931  1.00  0.00    -0.301 N 
HETATM   28  C10 UNL     1       3.283  -0.230   1.289  1.00  0.00     0.316 C 
HETATM   29  O5  UNL     1       2.890  -0.794   2.351  1.00  0.00    -0.262 OA
ATOM     30  H6  UNL     1       3.316   1.829   1.057  1.00  0.00     0.171 HD
BRANCH  28  31
HETATM   31  C11 UNL     1       4.307  -0.866   0.445  1.00  0.00     0.329 C 
HETATM   32  O6  UNL     1       4.667  -0.283  -0.611  1.00  0.00    -0.261 OA
HETATM   33  N7  UNL     1       4.849  -2.109   0.851  1.00  0.00    -0.248 N 
ATOM     34  H7  UNL     1       4.525  -2.545   1.714  1.00  0.00     0.192 HD
BRANCH  33  35
HETATM   35  N8  UNL     1       5.811  -2.734   0.088  1.00  0.00    -0.246 N 
ATOM     36  H8  UNL     1       6.803  -2.685   0.321  1.00  0.00     0.207 HD
BRANCH  35  37
HETATM   37  N9  UNL     1       5.352  -3.429  -1.009  1.00  0.00    -0.331 N 
ATOM     38  H92 UNL     1       4.357  -3.469  -1.229  1.00  0.00     0.178 HD
ATOM     39  H91 UNL     1       6.064  -3.892  -1.574  1.00  0.00     0.178 HD
ENDBRANCH  35  37
ENDBRANCH  33  35
ENDBRANCH  28  31
ENDBRANCH   8  27
BRANCH   5  40
HETATM   40  C7  UNL     1      -0.092   4.483  -0.080  1.00  0.00     0.133 C 
HETATM   41  N5  UNL     1      -1.186   5.075  -0.391  1.00  0.00    -0.279 N 
ATOM     42  H5  UNL     1      -1.980   4.519  -0.709  1.00  0.00     0.193 HD
BRANCH  41  43
HETATM   43  O3  UNL     1      -1.313   6.439  -0.306  1.00  0.00    -0.290 OA
ATOM     44  H3  UNL     1      -2.124   6.878  -0.536  1.00  0.00     0.244 HD
ENDBRANCH  41  43
ENDBRANCH   5  40
TORSDOF 12
