REMARK  5 active torsions:
REMARK  status: ('A' for Active; 'I' for Inactive)
REMARK    1  A    between atoms: N1_1  and  N2_4 
REMARK       I    between atoms: N2_4  and  C1_6 
REMARK    2  A    between atoms: N4_8  and  N5_10 
REMARK    3  A    between atoms: N5_10  and  C2_12 
REMARK    4  A    between atoms: C2_12  and  S1_14 
REMARK    5  A    between atoms: S1_14  and  O1_15 
ROOT
HETATM    1  N2  UNL     1      -1.707   0.522   0.327  1.00  0.00    -0.279 N 
ATOM      2  H2  UNL     1      -1.330   0.974   1.160  1.00  0.00     0.189 HD
HETATM    3  C1  UNL     1      -1.156  -0.701  -0.104  1.00  0.00     0.221 C 
HETATM    4  N3  UNL     1      -2.040  -1.833  -0.153  1.00  0.00    -0.061 NA
HETATM    5  N4  UNL     1       0.067  -0.869  -0.452  1.00  0.00    -0.271 N 
ATOM      6  H4  UNL     1       0.398  -1.785  -0.755  1.00  0.00     0.189 HD
ENDROOT
BRANCH   5   7
HETATM    7  N5  UNL     1       0.942   0.227  -0.410  1.00  0.00    -0.278 N 
ATOM      8  H5  UNL     1       0.536   1.160  -0.486  1.00  0.00     0.189 HD
BRANCH   7   9
HETATM    9  C2  UNL     1       2.320   0.135  -0.273  1.00  0.00     0.195 C 
HETATM   10  N6  UNL     1       3.176   1.219  -0.231  1.00  0.00    -0.071 NA
BRANCH   9  11
HETATM   11  S1  UNL     1       2.964  -1.378  -0.196  1.00  0.00     0.061 SA
BRANCH  11  12
HETATM   12  O1  UNL     1       3.265  -1.845  -1.673  1.00  0.00    -0.323 OA
ATOM     13  H1  UNL     1       3.637  -2.718  -1.629  1.00  0.00     0.228 HD
ENDBRANCH  11  12
ENDBRANCH   9  11
ENDBRANCH   7   9
ENDBRANCH   5   7
BRANCH   1  14
HETATM   14  N1  UNL     1      -2.754   1.126  -0.361  1.00  0.00    -0.343 N 
ATOM     15  H12 UNL     1      -3.119   0.661  -1.192  1.00  0.00     0.176 HD
ATOM     16  H11 UNL     1      -3.153   2.011  -0.049  1.00  0.00     0.176 HD
ENDBRANCH   1  14
TORSDOF 5
