REMARK  6 active torsions:
REMARK  status: ('A' for Active; 'I' for Inactive)
REMARK    1  A    between atoms: C2_2  and  C4_4 
REMARK    2  A    between atoms: C4_4  and  N1_5 
REMARK    3  A    between atoms: C4_4  and  C12_17 
REMARK    4  A    between atoms: C12_17  and  C15_20 
REMARK       I    between atoms: C15_20  and  N2_22 
REMARK       I    between atoms: N2_22  and  C16_24 
REMARK    5  A    between atoms: C16_24  and  C17_26 
REMARK    6  A    between atoms: N3_29  and  N4_30 
ROOT
HETATM    1  C12 UNL     1       0.214  -1.984   0.765  1.00  0.00     0.074 C 
HETATM    2  C13 UNL     1       0.456  -1.821   2.204  1.00  0.00     0.031 C 
HETATM    3  C14 UNL     1       0.902  -3.259   0.251  1.00  0.00     0.031 C 
ENDROOT
BRANCH   1   4
HETATM    4  C4  UNL     1      -1.144  -1.888   0.231  1.00  0.00     0.030 C 
BRANCH   4   5
HETATM    5  C2  UNL     1      -2.229  -2.788   0.664  1.00  0.00     0.026 C 
HETATM    6  C1  UNL     1      -1.823  -4.252   0.829  1.00  0.00     0.016 C 
HETATM    7  C3  UNL     1      -3.100  -2.466   1.807  1.00  0.00     0.016 C 
ENDBRANCH   4   5
BRANCH   4   8
HETATM    8  N1  UNL     1      -1.648  -0.506   0.071  1.00  0.00    -0.207 N 
HETATM    9  C5  UNL     1      -1.881   0.140  -1.202  1.00  0.00     0.273 C 
HETATM   10  O1  UNL     1      -1.904  -0.522  -2.301  1.00  0.00    -0.266 OA
HETATM   11  C6  UNL     1      -2.081   1.541  -1.114  1.00  0.00     0.056 A 
HETATM   12  C7  UNL     1      -2.192   2.465  -2.169  1.00  0.00     0.018 A 
HETATM   13  C11 UNL     1      -2.047   2.081   0.115  1.00  0.00     0.096 A 
HETATM   14  C8  UNL     1      -2.255   3.817  -1.954  1.00  0.00     0.001 A 
HETATM   15  C9  UNL     1      -2.214   4.351  -0.693  1.00  0.00     0.002 A 
HETATM   16  C10 UNL     1      -2.107   3.428   0.341  1.00  0.00     0.026 A 
HETATM   17  S1  UNL     1      -2.074   0.674   1.208  1.00  0.00     0.272 S 
HETATM   18  O2  UNL     1      -1.131   0.942   2.299  1.00  0.00    -0.200 OA
HETATM   19  O3  UNL     1      -3.482   0.641   1.714  1.00  0.00    -0.200 OA
ENDBRANCH   4   8
ENDBRANCH   1   4
BRANCH   1  20
HETATM   20  C15 UNL     1       1.080  -0.941   0.090  1.00  0.00     0.238 C 
HETATM   21  O4  UNL     1       1.618   0.006   0.700  1.00  0.00    -0.272 OA
HETATM   22  N2  UNL     1       1.339  -0.982  -1.307  1.00  0.00    -0.292 N 
HETATM   23  C16 UNL     1       2.132  -0.061  -1.997  1.00  0.00     0.258 C 
ATOM     24  H2  UNL     1       0.916  -1.738  -1.845  1.00  0.00     0.172 HD
HETATM   25  O5  UNL     1       2.285  -0.203  -3.239  1.00  0.00    -0.267 OA
BRANCH  23  26
HETATM   26  C17 UNL     1       2.808   1.066  -1.401  1.00  0.00     0.035 A 
HETATM   27  C18 UNL     1       4.093   0.925  -0.925  1.00  0.00     0.036 A 
HETATM   28  C19 UNL     1       4.769   1.992  -0.348  1.00  0.00     0.119 A 
HETATM   29  N3  UNL     1       4.156   3.177  -0.254  1.00  0.00    -0.255 N 
HETATM   30  C20 UNL     1       2.892   3.368  -0.708  1.00  0.00     0.119 A 
HETATM   31  C21 UNL     1       2.210   2.297  -1.288  1.00  0.00     0.036 A 
BRANCH  29  32
HETATM   32  N4  UNL     1       4.779   4.296   0.316  1.00  0.00    -0.159 N 
HETATM   33  F1  UNL     1       5.722   4.192   1.265  1.00  0.00    -0.084 F 
ATOM     34  H4  UNL     1       4.505   5.225  -0.003  1.00  0.00     0.222 HD
ENDBRANCH  29  32
ENDBRANCH  23  26
ENDBRANCH   1  20
TORSDOF 6
