REMARK  8 active torsions:
REMARK  status: ('A' for Active; 'I' for Inactive)
REMARK    1  A    between atoms: C2_2  and  N1_3 
REMARK    2  A    between atoms: C2_2  and  C9_15 
REMARK    3  A    between atoms: N1_3  and  S1_5 
REMARK    4  A    between atoms: S1_5  and  C3_8 
REMARK    5  A    between atoms: C9_15  and  O6_23 
REMARK       I    between atoms: N2_16  and  C10_18 
REMARK    6  A    between atoms: C10_18  and  C11_20 
REMARK    7  A    between atoms: O6_23  and  C12_24 
REMARK    8  A    between atoms: C12_24  and  C13_25 
ROOT
HETATM    1  C9  UNL     1      -0.674   0.566   0.263  1.00  0.00     0.144 C 
HETATM    2  N2  UNL     1      -1.432  -0.361  -0.131  1.00  0.00    -0.300 N 
ATOM      3  H2  UNL     1      -2.400  -0.300   0.185  1.00  0.00     0.171 HD
HETATM    4  C10 UNL     1      -1.135  -1.453  -0.935  1.00  0.00     0.324 C 
HETATM    5  O3  UNL     1      -0.766  -1.256  -2.121  1.00  0.00    -0.260 OA
ENDROOT
BRANCH   1   6
HETATM    6  C2  UNL     1       0.763   0.666  -0.085  1.00  0.00     0.164 C 
HETATM    7  C1  UNL     1       1.093   1.926  -0.845  1.00  0.00     0.041 C 
BRANCH   6   8
HETATM    8  N1  UNL     1       1.586   0.621   1.074  1.00  0.00    -0.303 N 
ATOM      9  H1  UNL     1       1.518   1.317   1.816  1.00  0.00     0.173 HD
BRANCH   8  10
HETATM   10  S1  UNL     1       2.690  -0.668   1.142  1.00  0.00     0.259 S 
HETATM   11  O1  UNL     1       2.027  -2.016   1.121  1.00  0.00    -0.201 OA
HETATM   12  O2  UNL     1       3.559  -0.632   2.365  1.00  0.00    -0.201 OA
BRANCH  10  13
HETATM   13  C3  UNL     1       3.787  -0.501  -0.239  1.00  0.00     0.079 A 
HETATM   14  C4  UNL     1       4.907   0.284  -0.076  1.00  0.00     0.026 A 
HETATM   15  C5  UNL     1       5.773   0.428  -1.123  1.00  0.00     0.020 A 
HETATM   16  C6  UNL     1       5.572  -0.182  -2.344  1.00  0.00     0.011 A 
HETATM   17 BR1  UNL     1       6.804   0.042  -3.782  1.00  0.00    -0.051 Br
HETATM   18  C7  UNL     1       4.432  -0.964  -2.466  1.00  0.00     0.020 A 
HETATM   19  C8  UNL     1       3.543  -1.126  -1.426  1.00  0.00     0.026 A 
ENDBRANCH  10  13
ENDBRANCH   8  10
ENDBRANCH   6   8
ENDBRANCH   1   6
BRANCH   1  20
HETATM   20  O6  UNL     1      -1.258   1.529   1.065  1.00  0.00    -0.333 OA
BRANCH  20  21
HETATM   21  C12 UNL     1      -2.552   2.001   0.958  1.00  0.00     0.215 C 
BRANCH  21  22
HETATM   22  C13 UNL     1      -3.647   1.051   1.110  1.00  0.00    -0.034 A 
HETATM   23  C14 UNL     1      -3.948   0.471   2.330  1.00  0.00     0.009 A 
HETATM   24  C15 UNL     1      -4.997  -0.419   2.458  1.00  0.00     0.001 A 
HETATM   25  C16 UNL     1      -5.791  -0.773   1.386  1.00  0.00     0.000 A 
HETATM   26  C17 UNL     1      -5.496  -0.199   0.167  1.00  0.00     0.001 A 
HETATM   27  C18 UNL     1      -4.439   0.699   0.038  1.00  0.00     0.009 A 
ENDBRANCH  21  22
ENDBRANCH  20  21
ENDBRANCH   1  20
BRANCH   4  28
HETATM   28  C11 UNL     1      -1.222  -2.847  -0.498  1.00  0.00     0.270 C 
HETATM   29  O4  UNL     1      -1.588  -3.084   0.686  1.00  0.00    -0.640 OA
HETATM   30  O5  UNL     1      -0.929  -3.916  -1.300  1.00  0.00    -0.640 OA
ENDBRANCH   4  28
TORSDOF 8
