REMARK  5 active torsions:
REMARK  status: ('A' for Active; 'I' for Inactive)
REMARK    1  A    between atoms: N1_2  and  S1_4 
REMARK    2  A    between atoms: S1_4  and  C3_7 
REMARK    3  A    between atoms: C3_7  and  C4_8 
REMARK       I    between atoms: C4_8  and  N2_10 
REMARK    4  A    between atoms: N2_10  and  C5_12 
REMARK    5  A    between atoms: C12_19  and  C13_20 
REMARK       I    between atoms: C13_20  and  N3_22 
ROOT
HETATM    1  C5  UNL     1       0.046  -0.895   0.281  1.00  0.00     0.092 C 
HETATM    2  C6  UNL     1       0.681  -1.434  -0.966  1.00  0.00     0.010 C 
HETATM    3  C7  UNL     1       0.603  -0.404  -2.047  1.00  0.00     0.011 C 
HETATM    4  C8  UNL     1       1.371   0.821  -1.601  1.00  0.00    -0.013 C 
HETATM    5  C9  UNL     1       0.871   1.404  -0.322  1.00  0.00     0.011 C 
HETATM    6  C10 UNL     1       0.816   0.333   0.718  1.00  0.00     0.010 C 
HETATM    7  C11 UNL     1       2.258  -0.137   0.955  1.00  0.00     0.026 C 
HETATM    8  C12 UNL     1       2.919  -0.573  -0.311  1.00  0.00     0.042 C 
HETATM    9  C18 UNL     1       2.809   0.401  -1.452  1.00  0.00     0.024 C 
HETATM   10  C19 UNL     1       2.124  -1.811  -0.774  1.00  0.00     0.026 C 
ENDROOT
BRANCH   1  11
HETATM   11  N2  UNL     1      -1.323  -0.558  -0.013  1.00  0.00    -0.352 N 
HETATM   12  C4  UNL     1      -2.411  -1.110   0.699  1.00  0.00     0.269 C 
HETATM   13  O2  UNL     1      -2.116  -1.929   1.623  1.00  0.00    -0.269 OA
ATOM     14  H2  UNL     1      -1.514   0.105  -0.764  1.00  0.00     0.163 HD
BRANCH  12  15
HETATM   15  C3  UNL     1      -3.827  -0.744   0.375  1.00  0.00     0.249 C 
HETATM   16  C20 UNL     1      -4.148  -1.379  -0.962  1.00  0.00     0.068 C 
HETATM   17  C21 UNL     1      -5.118  -2.481  -0.686  1.00  0.00     0.031 C 
HETATM   18  C22 UNL     1      -4.742  -2.766   0.774  1.00  0.00     0.170 C 
HETATM   19  O4  UNL     1      -4.620  -1.508   1.269  1.00  0.00    -0.356 OA
BRANCH  15  20
HETATM   20  S1  UNL     1      -3.996   1.127   0.538  1.00  0.00     0.206 S 
HETATM   21  O1  UNL     1      -4.258   1.228   2.099  1.00  0.00    -0.219 OA
HETATM   22  F1  UNL     1      -3.564   1.437  -1.141  1.00  0.00    -0.127 F 
BRANCH  20  23
HETATM   23  N1  UNL     1      -5.619   1.940   0.132  1.00  0.00    -0.224 NA
HETATM   24  C1  UNL     1      -5.636   3.288   0.572  1.00  0.00     0.128 C 
HETATM   25  C2  UNL     1      -6.702   1.124   0.546  1.00  0.00     0.128 C 
ENDBRANCH  20  23
ENDBRANCH  15  20
ENDBRANCH  12  15
ENDBRANCH   1  11
BRANCH   8  26
HETATM   26  C13 UNL     1       4.311  -0.966  -0.007  1.00  0.00     0.228 C 
HETATM   27  O3  UNL     1       4.617  -2.178  -0.300  1.00  0.00    -0.273 OA
HETATM   28  N3  UNL     1       5.294  -0.132   0.561  1.00  0.00    -0.351 N 
HETATM   29  C14 UNL     1       5.296   1.239   1.000  1.00  0.00     0.126 C 
HETATM   30  C17 UNL     1       6.659  -0.595   0.835  1.00  0.00     0.126 C 
HETATM   31  C15 UNL     1       6.626   1.729   0.406  1.00  0.00     0.021 C 
HETATM   32  C16 UNL     1       7.545   0.602   0.798  1.00  0.00     0.021 C 
ENDBRANCH   8  26
TORSDOF 5
