REMARK  1 active torsions:
REMARK  status: ('A' for Active; 'I' for Inactive)
REMARK    1  A    between atoms: N1_1  and  C1_5 
ROOT
HETATM    1  C1  UNL     1      -1.257  -0.483  -0.056  1.00  0.00     0.371 C 
HETATM    2  N2  UNL     1      -2.388   0.214  -0.542  1.00  0.00    -0.274 N 
ATOM      3  H2  UNL     1      -3.289  -0.029  -0.953  1.00  0.00     0.170 HD
HETATM    4  C2  UNL     1      -1.687   1.426  -0.192  1.00  0.00     0.331 C 
HETATM    5  O1  UNL     1      -2.139   2.584  -0.032  1.00  0.00    -0.247 OA
HETATM    6  N3  UNL     1      -0.440   0.762  -0.129  1.00  0.00    -0.210 N 
HETATM    7  C3  UNL     1       0.889   0.273  -0.078  1.00  0.00     0.286 C 
HETATM    8  N4  UNL     1       1.917   1.038  -0.695  1.00  0.00    -0.290 N 
ATOM      9  H4  UNL     1       2.000   1.597  -1.544  1.00  0.00     0.169 HD
HETATM   10  C4  UNL     1       2.776   0.689   0.376  1.00  0.00     0.323 C 
HETATM   11  O2  UNL     1       4.037   0.642   0.572  1.00  0.00    -0.247 OA
HETATM   12  N5  UNL     1       1.614   0.412   1.136  1.00  0.00    -0.290 N 
ATOM     13  H5  UNL     1       1.392   0.342   2.129  1.00  0.00     0.169 HD
HETATM   14  C5  UNL     1       0.858  -1.104  -0.652  1.00  0.00     0.294 C 
HETATM   15  O3  UNL     1       1.852  -1.839  -0.815  1.00  0.00    -0.266 OA
HETATM   16  N6  UNL     1      -0.517  -1.348  -0.949  1.00  0.00    -0.288 N 
ATOM     17  H6  UNL     1      -0.896  -1.993  -1.642  1.00  0.00     0.168 HD
ENDROOT
BRANCH   1  18
HETATM   18  N1  UNL     1      -1.318  -1.027   1.275  1.00  0.00    -0.013 N 
ATOM     19  H13 UNL     1      -1.558  -0.282   1.929  1.00  0.00     0.281 HD
ATOM     20  H12 UNL     1      -2.139  -1.627   1.353  1.00  0.00     0.281 HD
ATOM     21  H11 UNL     1      -0.503  -1.530   1.625  1.00  0.00     0.281 HD
ENDBRANCH   1  18
TORSDOF 1
