REMARK  2 active torsions:
REMARK  status: ('A' for Active; 'I' for Inactive)
REMARK       I    between atoms: C1_4  and  N2_5 
REMARK       I    between atoms: C1_4  and  N5_18 
REMARK    1  A    between atoms: N2_5  and  C2_7 
REMARK    2  A    between atoms: N5_18  and  N6_20 
ROOT
HETATM    1  C2  UNL     1       0.206  -0.124  -0.630  1.00  0.00     0.125 C 
HETATM    2  C3  UNL     1       1.076   0.314  -1.606  1.00  0.00     0.054 C 
HETATM    3  C4  UNL     1       2.456   0.386  -1.522  1.00  0.00     0.078 C 
HETATM    4  C5  UNL     1       3.240   0.165  -0.408  1.00  0.00     0.249 C 
HETATM    5  O1  UNL     1       4.466   0.005  -0.628  1.00  0.00    -0.268 OA
HETATM    6  N3  UNL     1       2.879   0.096   0.888  1.00  0.00    -0.275 N 
ATOM      7  H3  UNL     1       3.623   0.179   1.581  1.00  0.00     0.173 HD
HETATM    8  C6  UNL     1       1.632  -0.072   1.352  1.00  0.00     0.328 C 
HETATM    9  O2  UNL     1       1.411   0.073   2.582  1.00  0.00    -0.247 OA
HETATM   10  N4  UNL     1       0.505  -0.394   0.656  1.00  0.00    -0.294 N 
ATOM     11  H4  UNL     1      -0.206  -0.907   1.177  1.00  0.00     0.172 HD
ENDROOT
BRANCH   1  12
HETATM   12  N2  UNL     1      -0.992  -0.272  -1.039  1.00  0.00    -0.176 N 
HETATM   13  C1  UNL     1      -2.082  -0.704  -0.265  1.00  0.00     0.691 C 
HETATM   14  N1  UNL     1      -2.614  -1.836  -0.502  1.00  0.00    -0.233 N 
HETATM   15  N5  UNL     1      -2.581   0.111   0.766  1.00  0.00    -0.139 N 
ATOM     16  H12 UNL     1      -2.252  -2.427  -1.250  1.00  0.00     0.174 HD
ATOM     17  H11 UNL     1      -3.405  -2.150   0.060  1.00  0.00     0.174 HD
ATOM     18  H5  UNL     1      -2.471  -0.171   1.740  1.00  0.00     0.205 HD
ATOM     19  H2  UNL     1      -1.176  -0.057  -2.019  1.00  0.00     0.186 HD
BRANCH  15  20
HETATM   20  N6  UNL     1      -3.222   1.297   0.456  1.00  0.00    -0.331 N 
ATOM     21  H62 UNL     1      -3.324   1.565  -0.523  1.00  0.00     0.177 HD
ATOM     22  H61 UNL     1      -3.584   1.888   1.204  1.00  0.00     0.177 HD
ENDBRANCH  15  20
ENDBRANCH   1  12
TORSDOF 2
