REMARK  0 active torsions:
REMARK  status: ('A' for Active; 'I' for Inactive)
REMARK       I    between atoms: C1_4  and  N3_6 
ROOT
HETATM    1  N1  UNL     1       2.678  -0.011   1.803  1.00  0.00    -0.373 N 
ATOM      2  H11 UNL     1       2.044  -0.453   2.469  1.00  0.00     0.158 HD
ATOM      3  H12 UNL     1       3.443   0.564   2.156  1.00  0.00     0.158 HD
HETATM    4  C1  UNL     1       2.478  -0.201   0.553  1.00  0.00     0.187 C 
HETATM    5  N2  UNL     1       3.358   0.413  -0.372  1.00  0.00    -0.064 NA
HETATM    6  N3  UNL     1       1.429  -0.989   0.069  1.00  0.00    -0.312 N 
ATOM      7  H3  UNL     1       1.657  -1.944  -0.207  1.00  0.00     0.170 HD
HETATM    8  C2  UNL     1       0.214  -0.624  -0.059  1.00  0.00     0.178 A 
HETATM    9  N4  UNL     1      -0.094   0.692   0.322  1.00  0.00    -0.279 N 
ATOM     10  H4  UNL     1       0.720   1.231   0.616  1.00  0.00     0.189 HD
HETATM   11  N5  UNL     1      -1.302   1.419   0.380  1.00  0.00    -0.261 N 
ATOM     12  H5  UNL     1      -1.243   2.365   0.757  1.00  0.00     0.190 HD
HETATM   13  C3  UNL     1      -2.596   0.979  -0.029  1.00  0.00     0.314 A 
HETATM   14  O1  UNL     1      -3.493   1.858   0.097  1.00  0.00    -0.262 OA
HETATM   15  C4  UNL     1      -3.007  -0.309  -0.556  1.00  0.00     0.294 A 
HETATM   16  O2  UNL     1      -4.225  -0.411  -0.815  1.00  0.00    -0.278 OA
HETATM   17  C5  UNL     1      -2.168  -1.467  -0.810  1.00  0.00     0.281 A 
HETATM   18  O3  UNL     1      -2.762  -2.457  -1.274  1.00  0.00    -0.279 OA
HETATM   19  C6  UNL     1      -0.710  -1.627  -0.590  1.00  0.00     0.271 A 
HETATM   20  O4  UNL     1      -0.201  -2.731  -0.885  1.00  0.00    -0.280 OA
ENDROOT
TORSDOF 0
