REMARK  2 active torsions:
REMARK  status: ('A' for Active; 'I' for Inactive)
REMARK    1  A    between atoms: C1_2  and  N2_4 
REMARK    2  A    between atoms: N2_4  and  C2_6 
ROOT
HETATM    1  C2  UNL     1      -0.108   0.610  -0.262  1.00  0.00     0.191 A 
HETATM    2  N3  UNL     1       0.131  -0.552   0.382  1.00  0.00    -0.277 N 
ATOM      3  H3  UNL     1      -0.651  -1.160   0.626  1.00  0.00     0.189 HD
HETATM    4  N4  UNL     1       1.366  -0.917   0.703  1.00  0.00    -0.250 N 
ATOM      5  H4  UNL     1       1.511  -1.802   1.189  1.00  0.00     0.192 HD
HETATM    6  C3  UNL     1       2.428  -0.154   0.406  1.00  0.00     0.341 A 
HETATM    7  O1  UNL     1       3.598  -0.482   0.701  1.00  0.00    -0.245 OA
HETATM    8  N5  UNL     1       2.244   1.027  -0.242  1.00  0.00    -0.271 N 
ATOM      9  H5  UNL     1       3.037   1.623  -0.478  1.00  0.00     0.174 HD
HETATM   10  C4  UNL     1       0.989   1.390  -0.564  1.00  0.00     0.295 A 
HETATM   11  O2  UNL     1       0.805   2.478  -1.163  1.00  0.00    -0.264 OA
ENDROOT
BRANCH   1  12
HETATM   12  N2  UNL     1      -1.316   0.984  -0.586  1.00  0.00    -0.316 N 
ATOM     13  H2  UNL     1      -1.464   1.868  -1.072  1.00  0.00     0.169 HD
BRANCH  12  14
HETATM   14  C1  UNL     1      -2.409   0.168  -0.264  1.00  0.00     0.186 C 
HETATM   15  N1  UNL     1      -2.683  -0.979  -1.044  1.00  0.00    -0.070 NA
HETATM   16  S1  UNL     1      -3.335   0.588   1.026  1.00  0.00    -0.044 SA
ENDBRANCH  12  14
ENDBRANCH   1  12
TORSDOF 2
