REMARK  14 active torsions:
REMARK  status: ('A' for Active; 'I' for Inactive)
REMARK    1  A    between atoms: C2_2  and  C3_3 
REMARK    2  A    between atoms: C3_3  and  C5_5 
REMARK    3  A    between atoms: C5_5  and  N1_6 
REMARK    4  A    between atoms: C5_5  and  C11_15 
REMARK       I    between atoms: N1_6  and  C6_8 
REMARK    5  A    between atoms: C6_8  and  O2_10 
REMARK    6  A    between atoms: O2_10  and  C7_11 
REMARK       I    between atoms: C11_15  and  N2_17 
REMARK    7  A    between atoms: N2_17  and  C12_19 
REMARK    8  A    between atoms: C12_19  and  C13_20 
REMARK    9  A    between atoms: C12_19  and  C20_33 
REMARK       I    between atoms: C13_20  and  N3_22 
REMARK   10  A    between atoms: N3_22  and  C14_24 
REMARK   11  A    between atoms: C14_24  and  C15_25 
REMARK   12  A    between atoms: C14_24  and  C18_28 
REMARK   13  A    between atoms: C18_28  and  O5_29 
REMARK   14  A    between atoms: C18_28  and  O6_31 
ROOT
HETATM    1  C11 UNL     1      -1.011   0.155  -0.302  1.00  0.00     0.241 C 
HETATM    2  O3  UNL     1      -0.889   1.378  -0.658  1.00  0.00    -0.271 OA
HETATM    3  N2  UNL     1       0.082  -0.729  -0.510  1.00  0.00    -0.345 N 
ATOM      4  H2  UNL     1       0.005  -1.707  -0.231  1.00  0.00     0.163 HD
ENDROOT
BRANCH   3   5
HETATM    5  C12 UNL     1       1.324  -0.239  -1.126  1.00  0.00     0.184 C 
BRANCH   5   6
HETATM    6  C13 UNL     1       2.433  -0.332  -0.169  1.00  0.00     0.241 C 
HETATM    7  O4  UNL     1       2.195  -0.928   0.939  1.00  0.00    -0.271 OA
HETATM    8  N3  UNL     1       3.738   0.162  -0.319  1.00  0.00    -0.350 N 
ATOM      9  H3  UNL     1       3.981   0.647  -1.183  1.00  0.00     0.163 HD
BRANCH   8  10
HETATM   10  C14 UNL     1       4.766   0.010   0.714  1.00  0.00     0.142 C 
BRANCH  10  11
HETATM   11  C15 UNL     1       5.923  -0.741   0.190  1.00  0.00     0.005 C 
HETATM   12  C16 UNL     1       5.571  -2.133  -0.277  1.00  0.00     0.012 C 
HETATM   13  C17 UNL     1       7.106  -0.833   1.097  1.00  0.00     0.012 C 
ENDBRANCH  10  11
BRANCH  10  14
HETATM   14  C18 UNL     1       5.083   1.384   1.245  1.00  0.00     0.279 C 
BRANCH  14  15
HETATM   15  O5  UNL     1       6.058   1.368   2.241  1.00  0.00    -0.369 OA
ATOM     16  H5  UNL     1       6.258   2.234   2.576  1.00  0.00     0.212 HD
ENDBRANCH  14  15
BRANCH  14  17
HETATM   17  O6  UNL     1       5.305   2.330   0.278  1.00  0.00    -0.364 OA
HETATM   18  C19 UNL     1       4.365   3.330   0.276  1.00  0.00     0.204 C 
ENDBRANCH  14  17
ENDBRANCH  10  14
ENDBRANCH   8  10
ENDBRANCH   5   6
BRANCH   5  19
HETATM   19  C20 UNL     1       1.598  -1.085  -2.348  1.00  0.00    -0.022 C 
HETATM   20  C21 UNL     1       1.771  -2.530  -1.947  1.00  0.00     0.017 C 
HETATM   21  C22 UNL     1       0.406  -0.962  -3.329  1.00  0.00     0.017 C 
HETATM   22  C23 UNL     1       2.784  -0.648  -3.130  1.00  0.00     0.017 C 
ENDBRANCH   5  19
ENDBRANCH   3   5
BRANCH   1  23
HETATM   23  C5  UNL     1      -2.268  -0.285   0.306  1.00  0.00     0.182 C 
BRANCH  23  24
HETATM   24  C3  UNL     1      -2.061  -1.077   1.582  1.00  0.00     0.013 C 
HETATM   25  C4  UNL     1      -1.506  -0.263   2.699  1.00  0.00     0.012 C 
BRANCH  24  26
HETATM   26  C2  UNL     1      -3.339  -1.733   2.043  1.00  0.00     0.002 C 
HETATM   27  C1  UNL     1      -3.005  -2.618   3.226  1.00  0.00     0.005 C 
ENDBRANCH  24  26
ENDBRANCH  23  24
BRANCH  23  28
HETATM   28  N1  UNL     1      -3.237   0.761   0.459  1.00  0.00    -0.323 N 
HETATM   29  C6  UNL     1      -4.493   0.811  -0.207  1.00  0.00     0.362 C 
HETATM   30  O1  UNL     1      -4.802  -0.118  -0.994  1.00  0.00    -0.238 OA
ATOM     31  H1  UNL     1      -3.008   1.527   1.093  1.00  0.00     0.165 HD
BRANCH  29  32
HETATM   32  O2  UNL     1      -5.368   1.839  -0.013  1.00  0.00    -0.294 OA
BRANCH  32  33
HETATM   33  C7  UNL     1      -6.630   1.967  -0.630  1.00  0.00     0.061 C 
HETATM   34  C8  UNL     1      -6.576   2.027  -2.119  1.00  0.00     0.046 C 
HETATM   35  C9  UNL     1      -7.183   3.307  -0.134  1.00  0.00     0.046 C 
HETATM   36  C10 UNL     1      -7.612   0.903  -0.213  1.00  0.00     0.046 C 
ENDBRANCH  32  33
ENDBRANCH  29  32
ENDBRANCH  23  28
ENDBRANCH   1  23
TORSDOF 14
