REMARK  14 active torsions:
REMARK  status: ('A' for Active; 'I' for Inactive)
REMARK    1  A    between atoms: C2_2  and  C3_3 
REMARK    2  A    between atoms: C4_4  and  C5_5 
REMARK    3  A    between atoms: C5_5  and  C6_6 
REMARK    4  A    between atoms: C6_6  and  C8_8 
REMARK    5  A    between atoms: C9_10  and  C10_11 
REMARK    6  A    between atoms: C10_11  and  C11_12 
REMARK    7  A    between atoms: C11_12  and  C13_14 
REMARK    8  A    between atoms: C13_14  and  O2_15 
REMARK    9  A    between atoms: C14_17  and  C15_18 
REMARK   10  A    between atoms: C15_18  and  O3_20 
REMARK   11  A    between atoms: O3_20  and  C17_21 
REMARK   12  A    between atoms: C19_23  and  O4_24 
REMARK   13  A    between atoms: C20_26  and  O5_27 
REMARK   14  A    between atoms: C24_32  and  O6_33 
ROOT
HETATM    1  C15 UNL     1      -1.898  -2.101   1.752  1.00  0.00     0.143 C 
HETATM    2  C16 UNL     1      -2.361  -3.231   2.656  1.00  0.00     0.044 C 
ENDROOT
BRANCH   1   3
HETATM    3  C14 UNL     1      -0.543  -2.474   1.269  1.00  0.00     0.036 C 
HETATM    4  C13 UNL     1       0.524  -1.710   1.487  1.00  0.00     0.046 C 
BRANCH   4   5
HETATM    5  C11 UNL     1       1.873  -2.065   1.016  1.00  0.00     0.041 C 
HETATM    6  C12 UNL     1       2.903  -2.206   2.089  1.00  0.00     0.017 C 
BRANCH   5   7
HETATM    7  C10 UNL     1       2.415  -1.123  -0.040  1.00  0.00     0.038 C 
BRANCH   7   8
HETATM    8  C9  UNL     1       2.736   0.218   0.459  1.00  0.00    -0.019 C 
HETATM    9  C2  UNL     1       3.891   0.831   0.464  1.00  0.00    -0.066 C 
HETATM   10  C1  UNL     1       4.026   2.218   1.023  1.00  0.00     0.048 C 
BRANCH   9  11
HETATM   11  C3  UNL     1       5.105   0.227  -0.060  1.00  0.00     0.002 C 
HETATM   12  C4  UNL     1       6.256   0.889  -0.033  1.00  0.00    -0.025 C 
BRANCH  12  13
HETATM   13  C5  UNL     1       7.467   0.238  -0.576  1.00  0.00     0.038 C 
BRANCH  13  14
HETATM   14  C6  UNL     1       7.976   1.118  -1.718  1.00  0.00     0.046 C 
HETATM   15  C7  UNL     1       8.295   2.477  -1.169  1.00  0.00     0.017 C 
BRANCH  14  16
HETATM   16  C8  UNL     1       9.167   0.502  -2.365  1.00  0.00     0.235 C 
HETATM   17  O1  UNL     1       9.778   1.198  -3.157  1.00  0.00    -0.306 OA
ENDBRANCH  14  16
ENDBRANCH  13  14
ENDBRANCH  12  13
ENDBRANCH   9  11
ENDBRANCH   7   8
ENDBRANCH   5   7
ENDBRANCH   4   5
BRANCH   4  18
HETATM   18  O2  UNL     1       0.318  -0.536   2.193  1.00  0.00    -0.365 OA
ATOM     19  H2  UNL     1      -0.552  -0.307   2.497  1.00  0.00     0.217 HD
ENDBRANCH   4  18
ENDBRANCH   1   3
BRANCH   1  20
HETATM   20  O3  UNL     1      -2.702  -1.988   0.623  1.00  0.00    -0.369 OA
BRANCH  20  21
HETATM   21  C17 UNL     1      -3.215  -0.720   0.429  1.00  0.00     0.195 C 
HETATM   22  C18 UNL     1      -2.736  -0.059  -0.822  1.00  0.00     0.074 C 
HETATM   23  C19 UNL     1      -3.382   1.333  -0.858  1.00  0.00     0.150 C 
HETATM   24  C20 UNL     1      -4.858   1.238  -1.125  1.00  0.00     0.163 C 
HETATM   25  C21 UNL     1      -5.473  -0.034  -0.604  1.00  0.00     0.054 C 
HETATM   26  C22 UNL     1      -5.680  -0.989  -1.730  1.00  0.00     0.023 C 
HETATM   27  C25 UNL     1      -6.833   0.313  -0.050  1.00  0.00     0.051 C 
HETATM   28  C26 UNL     1      -4.678  -0.650   0.482  1.00  0.00     0.167 C 
HETATM   29  C23 UNL     1      -7.120  -1.432  -1.710  1.00  0.00     0.033 C 
HETATM   30  C24 UNL     1      -7.796  -0.722  -0.573  1.00  0.00     0.119 C 
HETATM   31  O7  UNL     1      -5.233  -1.132   1.484  1.00  0.00    -0.294 OA
BRANCH  23  32
HETATM   32  O4  UNL     1      -2.698   2.067  -1.823  1.00  0.00    -0.393 OA
ATOM     33  H4  UNL     1      -3.098   2.928  -1.845  1.00  0.00     0.210 HD
ENDBRANCH  23  32
BRANCH  24  34
HETATM   34  O5  UNL     1      -5.465   2.384  -0.613  1.00  0.00    -0.392 OA
ATOM     35  H5  UNL     1      -6.398   2.324  -0.782  1.00  0.00     0.210 HD
ENDBRANCH  24  34
BRANCH  30  36
HETATM   36  O6  UNL     1      -8.154  -1.566   0.468  1.00  0.00    -0.396 OA
ATOM     37  H6  UNL     1      -8.582  -1.117   1.187  1.00  0.00     0.210 HD
ENDBRANCH  30  36
ENDBRANCH  20  21
ENDBRANCH   1  20
TORSDOF 14
