REMARK  14 active torsions:
REMARK  status: ('A' for Active; 'I' for Inactive)
REMARK    1  A    between atoms: C2_2  and  C3_3 
REMARK    2  A    between atoms: C3_3  and  C4_4 
REMARK    3  A    between atoms: C4_4  and  O2_6 
REMARK    4  A    between atoms: O2_6  and  C5_7 
REMARK    5  A    between atoms: C5_7  and  C6_8 
REMARK    6  A    between atoms: C6_8  and  C7_10 
REMARK    7  A    between atoms: C7_10  and  C8_11 
REMARK    8  A    between atoms: C8_11  and  C9_12 
REMARK    9  A    between atoms: C21_24  and  O4_25 
REMARK   10  A    between atoms: C22_27  and  C23_28 
REMARK   11  A    between atoms: C23_28  and  O5_29 
REMARK   12  A    between atoms: C23_28  and  C24_31 
REMARK   13  A    between atoms: C24_31  and  O6_32 
REMARK   14  A    between atoms: C25_34  and  O7_36 
ROOT
HETATM    1  C9  UNL     1      -0.530   0.697   0.003  1.00  0.00     0.004 C 
HETATM    2  C10 UNL     1      -1.346  -0.487  -0.469  1.00  0.00     0.006 C 
HETATM    3  C11 UNL     1      -0.629  -1.757  -0.702  1.00  0.00     0.039 C 
HETATM    4  C12 UNL     1      -1.613  -2.826  -1.028  1.00  0.00    -0.087 C 
HETATM    5  C13 UNL     1      -0.938  -4.157  -0.778  1.00  0.00     0.043 C 
HETATM    6  C14 UNL     1      -2.855  -2.977  -1.456  1.00  0.00    -0.024 C 
HETATM    7  C15 UNL     1      -3.965  -2.102  -1.854  1.00  0.00     0.028 C 
HETATM    8  C16 UNL     1      -4.247  -0.966  -0.893  1.00  0.00     0.009 C 
HETATM    9  C17 UNL     1      -3.523   0.277  -1.300  1.00  0.00    -0.000 C 
HETATM   10  C18 UNL     1      -2.097  -0.088  -1.691  1.00  0.00    -0.004 C 
HETATM   11  C19 UNL     1      -1.410   1.200  -2.181  1.00  0.00     0.014 C 
HETATM   12  C20 UNL     1      -1.064   1.812  -0.887  1.00  0.00     0.036 C 
HETATM   13  C21 UNL     1      -2.195   1.940   0.102  1.00  0.00     0.100 C 
HETATM   14  C22 UNL     1      -3.486   1.388  -0.313  1.00  0.00     0.059 C 
HETATM   15  C25 UNL     1      -1.278   1.347   1.110  1.00  0.00     0.094 C 
HETATM   16  C26 UNL     1      -0.533   2.353   1.950  1.00  0.00     0.050 C 
ENDROOT
BRANCH   1  17
HETATM   17  C8  UNL     1       0.887   0.440  -0.022  1.00  0.00     0.021 C 
BRANCH  17  18
HETATM   18  C7  UNL     1       1.911   1.426   0.367  1.00  0.00     0.081 C 
BRANCH  18  19
HETATM   19  C6  UNL     1       3.312   0.860   0.172  1.00  0.00     0.150 C 
HETATM   20  O3  UNL     1       3.849   0.142   0.984  1.00  0.00    -0.296 OA
BRANCH  19  21
HETATM   21  C5  UNL     1       4.041   1.207  -1.068  1.00  0.00     0.256 C 
BRANCH  21  22
HETATM   22  O2  UNL     1       5.303   0.601  -1.164  1.00  0.00    -0.314 OA
BRANCH  22  23
HETATM   23  C4  UNL     1       5.554  -0.754  -1.211  1.00  0.00     0.259 C 
HETATM   24  O1  UNL     1       4.589  -1.549  -1.171  1.00  0.00    -0.265 OA
BRANCH  23  25
HETATM   25  C3  UNL     1       6.956  -1.224  -1.307  1.00  0.00     0.111 C 
BRANCH  25  26
HETATM   26  C2  UNL     1       7.482  -1.611   0.070  1.00  0.00     0.005 C 
HETATM   27  C1  UNL     1       8.898  -2.089  -0.018  1.00  0.00     0.005 C 
ENDBRANCH  25  26
ENDBRANCH  23  25
ENDBRANCH  22  23
ENDBRANCH  21  22
ENDBRANCH  19  21
ENDBRANCH  18  19
ENDBRANCH  17  18
ENDBRANCH   1  17
BRANCH  15  28
HETATM   28  O7  UNL     1      -1.816   0.390   1.969  1.00  0.00    -0.386 OA
ATOM     29  H7  UNL     1      -2.294   0.806   2.677  1.00  0.00     0.210 HD
ENDBRANCH  15  28
BRANCH  13  30
HETATM   30  O4  UNL     1      -2.307   3.340   0.374  1.00  0.00    -0.386 OA
ATOM     31  H4  UNL     1      -3.020   3.421   0.997  1.00  0.00     0.210 HD
ENDBRANCH  13  30
BRANCH  14  32
HETATM   32  C23 UNL     1      -4.417   1.254   0.844  1.00  0.00     0.149 C 
BRANCH  32  33
HETATM   33  O5  UNL     1      -5.765   1.144   0.432  1.00  0.00    -0.393 OA
ATOM     34  H5  UNL     1      -6.358   1.059   1.169  1.00  0.00     0.210 HD
ENDBRANCH  32  33
BRANCH  32  35
HETATM   35  C24 UNL     1      -4.492   2.453   1.771  1.00  0.00     0.196 C 
BRANCH  35  36
HETATM   36  O6  UNL     1      -5.433   2.189   2.802  1.00  0.00    -0.398 OA
ATOM     37  H6  UNL     1      -5.480   2.940   3.382  1.00  0.00     0.209 HD
ENDBRANCH  35  36
ENDBRANCH  32  35
ENDBRANCH  14  32
TORSDOF 14
