REMARK  13 active torsions:
REMARK  status: ('A' for Active; 'I' for Inactive)
REMARK    1  A    between atoms: O1_1  and  C1_3 
REMARK    2  A    between atoms: C1_3  and  C2_4 
REMARK    3  A    between atoms: C2_4  and  C3_5 
REMARK    4  A    between atoms: C3_5  and  C4_6 
REMARK    5  A    between atoms: C4_6  and  C5_7 
REMARK    6  A    between atoms: C5_7  and  C6_8 
REMARK    7  A    between atoms: C6_8  and  O2_9 
REMARK    8  A    between atoms: O2_9  and  C7_10 
REMARK    9  A    between atoms: C9_12  and  O3_13 
REMARK   10  A    between atoms: C12_18  and  O5_19 
REMARK   11  A    between atoms: N1_28  and  C20_29 
REMARK   12  A    between atoms: C20_29  and  C21_30 
REMARK   13  A    between atoms: C26_35  and  O6_36 
ROOT
HETATM    1  C7  UNL     1       1.292  -0.016   0.303  1.00  0.00     0.155 C 
HETATM    2  C8  UNL     1      -0.184   0.309   0.326  1.00  0.00     0.076 C 
HETATM    3  C9  UNL     1      -0.876  -1.012   0.190  1.00  0.00     0.103 C 
HETATM    4  C10 UNL     1       0.132  -1.752  -0.706  1.00  0.00     0.195 C 
HETATM    5  O4  UNL     1      -0.204  -3.056  -0.986  1.00  0.00    -0.337 OA
HETATM    6  C11 UNL     1      -1.539  -3.444  -0.911  1.00  0.00     0.110 A 
HETATM    7  C12 UNL     1      -1.959  -4.746  -1.052  1.00  0.00     0.099 A 
HETATM    8  C13 UNL     1      -3.313  -5.035  -0.957  1.00  0.00     0.040 A 
HETATM    9  C14 UNL     1      -4.261  -4.041  -0.722  1.00  0.00     0.011 A 
HETATM   10  C15 UNL     1      -3.820  -2.741  -0.583  1.00  0.00    -0.046 A 
HETATM   11  C16 UNL     1      -2.496  -2.498  -0.683  1.00  0.00    -0.002 A 
HETATM   12  C17 UNL     1      -2.160  -1.053  -0.516  1.00  0.00     0.057 C 
HETATM   13  C18 UNL     1      -2.244  -0.355  -1.828  1.00  0.00     0.050 C 
HETATM   14  C19 UNL     1      -3.039   0.910  -1.552  1.00  0.00     0.274 C 
HETATM   15  N1  UNL     1      -3.576   0.800  -0.208  1.00  0.00     0.095 N 
HETATM   16  C24 UNL     1      -3.387  -0.559   0.205  1.00  0.00     0.243 C 
HETATM   17  C25 UNL     1      -4.524  -1.445  -0.303  1.00  0.00     0.076 C 
HETATM   18  C26 UNL     1       1.369  -1.552   0.142  1.00  0.00     0.179 C 
ENDROOT
BRANCH   1  19
HETATM   19  O2  UNL     1       1.997   0.388   1.409  1.00  0.00    -0.383 OA
BRANCH  19  20
HETATM   20  C6  UNL     1       3.101   1.118   0.935  1.00  0.00     0.168 C 
BRANCH  20  21
HETATM   21  C5  UNL     1       3.992   1.599   2.037  1.00  0.00     0.026 C 
BRANCH  21  22
HETATM   22  C4  UNL     1       5.150   2.365   1.474  1.00  0.00     0.002 C 
BRANCH  22  23
HETATM   23  C3  UNL     1       5.980   1.526   0.528  1.00  0.00     0.002 C 
BRANCH  23  24
HETATM   24  C2  UNL     1       7.156   2.349  -0.004  1.00  0.00     0.026 C 
BRANCH  24  25
HETATM   25  C1  UNL     1       7.984   1.514  -0.960  1.00  0.00     0.164 C 
BRANCH  25  26
HETATM   26  O1  UNL     1       8.502   0.382  -0.363  1.00  0.00    -0.401 OA
ATOM     27  H1  UNL     1       9.021  -0.141  -0.962  1.00  0.00     0.209 HD
ENDBRANCH  25  26
ENDBRANCH  24  25
ENDBRANCH  23  24
ENDBRANCH  22  23
ENDBRANCH  21  22
ENDBRANCH  20  21
ENDBRANCH  19  20
ENDBRANCH   1  19
BRANCH  18  28
HETATM   28  O6  UNL     1       2.525  -1.919  -0.502  1.00  0.00    -0.390 OA
ATOM     29  H6  UNL     1       2.572  -2.863  -0.601  1.00  0.00     0.210 HD
ENDBRANCH  18  28
BRANCH   3  30
HETATM   30  O3  UNL     1      -0.956  -1.621   1.425  1.00  0.00    -0.386 OA
ATOM     31  H3  UNL     1      -1.395  -2.459   1.339  1.00  0.00     0.210 HD
ENDBRANCH   3  30
BRANCH  15  32
HETATM   32  C20 UNL     1      -4.923   1.283  -0.129  1.00  0.00     0.277 C 
BRANCH  32  33
HETATM   33  C21 UNL     1      -5.047   2.757  -0.312  1.00  0.00     0.014 A 
HETATM   34  C22 UNL     1      -4.380   3.714   0.602  1.00  0.00     0.007 A 
HETATM   35  C23 UNL     1      -5.839   3.490   0.769  1.00  0.00     0.007 A 
ENDBRANCH  32  33
ENDBRANCH  15  32
BRANCH   7  36
HETATM   36  O5  UNL     1      -1.020  -5.720  -1.282  1.00  0.00    -0.358 OA
ATOM     37  H5  UNL     1      -1.310  -6.619  -1.379  1.00  0.00     0.217 HD
ENDBRANCH   7  36
TORSDOF 13
