REMARK  4 active torsions:
REMARK  status: ('A' for Active; 'I' for Inactive)
REMARK    1  A    between atoms: N1_2  and  C2_4 
REMARK    2  A    between atoms: C2_4  and  N2_6 
REMARK    3  A    between atoms: N2_6  and  N3_8 
REMARK       I    between atoms: N3_8  and  C3_9 
REMARK       I    between atoms: C3_9  and  N4_11 
REMARK    4  A    between atoms: N4_11  and  C4_13 
ROOT
HETATM    1  N3  UNL     1       1.299  -1.378   0.175  1.00  0.00    -0.263 NA
HETATM    2  C3  UNL     1       0.063  -1.134   0.620  1.00  0.00     0.415 C 
HETATM    3  O1  UNL     1      -0.248  -0.934   1.832  1.00  0.00    -0.228 OA
HETATM    4  N4  UNL     1      -1.035  -1.055  -0.352  1.00  0.00    -0.280 N 
ATOM      5  H4  UNL     1      -0.908  -1.216  -1.351  1.00  0.00     0.169 HD
ENDROOT
BRANCH   1   6
HETATM    6  N2  UNL     1       2.520  -1.618  -0.260  1.00  0.00    -0.204 N 
ATOM      7  H2  UNL     1       2.746  -2.553  -0.598  1.00  0.00     0.204 HD
BRANCH   6   8
HETATM    8  C2  UNL     1       3.535  -0.619  -0.275  1.00  0.00     0.196 C 
HETATM    9  S1  UNL     1       5.023  -0.972  -0.816  1.00  0.00    -0.039 SA
BRANCH   8  10
HETATM   10  N1  UNL     1       3.247   0.685   0.186  1.00  0.00    -0.370 N 
HETATM   11  C1  UNL     1       4.203   1.748   0.221  1.00  0.00     0.148 C 
ATOM     12  H1  UNL     1       2.301   0.880   0.513  1.00  0.00     0.161 HD
ENDBRANCH   8  10
ENDBRANCH   6   8
ENDBRANCH   1   6
BRANCH   4  13
HETATM   13  C4  UNL     1      -2.353  -0.717   0.257  1.00  0.00     0.433 C 
HETATM   14  N5  UNL     1      -3.410  -0.693  -0.672  1.00  0.00    -0.029 N 
HETATM   15  C5  UNL     1      -4.142   0.546  -0.441  1.00  0.00     0.263 C 
ATOM     16  H52 UNL     1      -3.100  -0.804  -1.637  1.00  0.00     0.282 HD
ATOM     17  H51 UNL     1      -4.001  -1.523  -0.631  1.00  0.00     0.282 HD
HETATM   18  C6  UNL     1      -3.247   1.323   0.469  1.00  0.00     0.200 C 
HETATM   19  O2  UNL     1      -2.142   0.591   0.672  1.00  0.00    -0.342 OA
ENDBRANCH   4  13
TORSDOF 4
