REMARK  2 active torsions:
REMARK  status: ('A' for Active; 'I' for Inactive)
REMARK    1  A    between atoms: C4_7  and  C5_8 
REMARK    2  A    between atoms: C5_8  and  N2_9 
ROOT
HETATM    1  C1  UNL     1      -4.032   0.612  -0.409  1.00  0.00     0.259 C 
HETATM    2  C2  UNL     1      -3.097   1.543   0.356  1.00  0.00     0.259 C 
HETATM    3  N1  UNL     1      -1.796   1.416  -0.238  1.00  0.00    -0.072 N 
ATOM      4  H11 UNL     1      -1.448   2.329  -0.530  1.00  0.00     0.277 HD
ATOM      5  H12 UNL     1      -1.863   0.956  -1.146  1.00  0.00     0.277 HD
HETATM    6  C3  UNL     1      -0.832   0.756   0.585  1.00  0.00     0.267 C 
HETATM    7  C4  UNL     1      -0.286  -0.426  -0.219  1.00  0.00     0.239 C 
HETATM    8  N4  UNL     1      -1.293  -1.471  -0.119  1.00  0.00    -0.066 N 
ATOM      9  H41 UNL     1      -1.799  -1.406   0.765  1.00  0.00     0.277 HD
ATOM     10  H42 UNL     1      -0.858  -2.385   0.004  1.00  0.00     0.277 HD
HETATM   11  C10 UNL     1      -2.199  -1.481  -1.227  1.00  0.00     0.260 C 
HETATM   12  C11 UNL     1      -3.621  -1.731  -0.747  1.00  0.00     0.259 C 
HETATM   13  N5  UNL     1      -4.071  -0.709   0.164  1.00  0.00    -0.072 N 
ATOM     14  H51 UNL     1      -5.002  -0.924   0.521  1.00  0.00     0.277 HD
ATOM     15  H52 UNL     1      -3.546  -0.743   1.038  1.00  0.00     0.277 HD
ENDROOT
BRANCH   7  16
HETATM   16  C5  UNL     1       0.999  -0.940   0.380  1.00  0.00     0.307 C 
BRANCH  16  17
HETATM   17  N2  UNL     1       2.039   0.055   0.419  1.00  0.00     0.093 N 
HETATM   18  C6  UNL     1       3.207  -0.592   1.025  1.00  0.00     0.300 C 
HETATM   19  C7  UNL     1       4.356   0.375   1.169  1.00  0.00     0.262 C 
HETATM   20  N3  UNL     1       4.639   1.092  -0.033  1.00  0.00    -0.072 N 
HETATM   21  C8  UNL     1       3.485   1.589  -0.719  1.00  0.00     0.262 C 
ATOM     22  H32 UNL     1       5.294   1.851   0.154  1.00  0.00     0.277 HD
ATOM     23  H31 UNL     1       5.205   0.521  -0.661  1.00  0.00     0.277 HD
HETATM   24  C9  UNL     1       2.453   0.474  -0.902  1.00  0.00     0.300 C 
ENDBRANCH  16  17
ENDBRANCH   7  16
TORSDOF 2
