REMARK  3 active torsions:
REMARK  status: ('A' for Active; 'I' for Inactive)
REMARK    1  A    between atoms: C2_2  and  C3_3 
REMARK    2  A    between atoms: C3_3  and  C4_4 
REMARK       I    between atoms: C4_4  and  N1_6 
REMARK    3  A    between atoms: N1_6  and  N2_8 
REMARK       I    between atoms: N2_8  and  C5_10 
REMARK       I    between atoms: C5_10  and  N3_12 
ROOT
HETATM    1  N2  UNL     1      -0.110  -0.832  -0.353  1.00  0.00    -0.247 N 
ATOM      2  H2  UNL     1      -0.438  -1.587   0.250  1.00  0.00     0.192 HD
HETATM    3  C5  UNL     1      -0.980   0.239  -0.667  1.00  0.00     0.358 C 
HETATM    4  O2  UNL     1      -0.550   1.150  -1.415  1.00  0.00    -0.243 OA
HETATM    5  N3  UNL     1      -2.294   0.230  -0.122  1.00  0.00    -0.204 N 
HETATM    6  C6  UNL     1      -3.182   1.330  -0.472  1.00  0.00     0.207 C 
HETATM    7  N4  UNL     1      -4.528   0.924  -0.394  1.00  0.00    -0.363 N 
ATOM      8  H4  UNL     1      -5.173   1.085  -1.168  1.00  0.00     0.165 HD
HETATM    9  C7  UNL     1      -4.954   0.288   0.787  1.00  0.00     0.079 C 
HETATM   10  C8  UNL     1      -3.834  -0.371   1.554  1.00  0.00     0.180 C 
HETATM   11  N5  UNL     1      -2.739  -0.772   0.719  1.00  0.00    -0.124 NA
ENDROOT
BRANCH   1  12
HETATM   12  N1  UNL     1       1.194  -0.869  -0.859  1.00  0.00    -0.266 N 
HETATM   13  C4  UNL     1       2.268  -0.444  -0.048  1.00  0.00     0.236 C 
HETATM   14  O1  UNL     1       2.055  -0.035   1.105  1.00  0.00    -0.272 OA
ATOM     15  H1  UNL     1       1.367  -1.201  -1.808  1.00  0.00     0.190 HD
BRANCH  13  16
HETATM   16  C3  UNL     1       3.636  -0.493  -0.585  1.00  0.00     0.104 C 
BRANCH  16  17
HETATM   17  C2  UNL     1       4.552   0.162   0.433  1.00  0.00     0.005 C 
HETATM   18  C1  UNL     1       5.974   0.109  -0.089  1.00  0.00     0.005 C 
ENDBRANCH  16  17
ENDBRANCH  13  16
ENDBRANCH   1  12
TORSDOF 3
