REMARK  2 active torsions:
REMARK  status: ('A' for Active; 'I' for Inactive)
REMARK    1  A    between atoms: N1_2  and  N2_3 
REMARK       I    between atoms: N2_3  and  C2_5 
REMARK       I    between atoms: C2_5  and  N3_7 
REMARK    2  A    between atoms: N3_7  and  N4_9 
ROOT
HETATM    1  N4  UNL     1       0.909   0.595  -0.126  1.00  0.00    -0.128 N 
ATOM      2  H4  UNL     1       1.091   1.593  -0.230  1.00  0.00     0.205 HD
HETATM    3  C3  UNL     1      -0.309   0.190  -0.031  1.00  0.00     0.699 A 
HETATM    4  N5  UNL     1      -0.772  -1.065   0.110  1.00  0.00    -0.190 N 
ATOM      5  H5  UNL     1      -0.205  -1.911   0.163  1.00  0.00     0.184 HD
HETATM    6  C4  UNL     1      -2.126  -1.007   0.170  1.00  0.00     0.072 A 
HETATM    7  C5  UNL     1      -2.471   0.319   0.062  1.00  0.00     0.142 A 
HETATM    8  N6  UNL     1      -1.349   1.054  -0.062  1.00  0.00    -0.173 N 
ATOM      9  H6  UNL     1      -1.294   2.068  -0.160  1.00  0.00     0.186 HD
HETATM   10  N7  UNL     1      -3.903   0.449   0.121  1.00  0.00    -0.369 N 
HETATM   11  C6  UNL     1      -4.625   1.552  -0.444  1.00  0.00     0.151 C 
HETATM   12  C7  UNL     1      -4.336  -0.731   0.839  1.00  0.00     0.130 C 
HETATM   13  C8  UNL     1      -3.386  -1.779   0.301  1.00  0.00     0.081 C 
ENDROOT
BRANCH   1  14
HETATM   14  N3  UNL     1       1.987  -0.286  -0.092  1.00  0.00    -0.236 N 
HETATM   15  C2  UNL     1       3.294   0.171   0.201  1.00  0.00     0.350 C 
HETATM   16  N2  UNL     1       4.363  -0.754   0.227  1.00  0.00    -0.255 N 
HETATM   17  O1  UNL     1       3.501   1.391   0.436  1.00  0.00    -0.244 OA
ATOM     18  H2  UNL     1       4.207  -1.744   0.038  1.00  0.00     0.187 HD
ATOM     19  H3  UNL     1       1.832  -1.276  -0.281  1.00  0.00     0.192 HD
BRANCH  16  20
HETATM   20  N1  UNL     1       5.659  -0.260   0.525  1.00  0.00    -0.142 NA
HETATM   21  C1  UNL     1       5.990   0.704  -0.500  1.00  0.00     0.159 C 
ENDBRANCH  16  20
ENDBRANCH   1  14
TORSDOF 2
