REMARK  13 active torsions:
REMARK  status: ('A' for Active; 'I' for Inactive)
REMARK    1  A    between atoms: S1_2  and  C2_3 
REMARK    2  A    between atoms: N1_7  and  O2_9 
REMARK    3  A    between atoms: C5_11  and  S2_12 
REMARK    4  A    between atoms: S2_12  and  C6_13 
REMARK    5  A    between atoms: C7_14  and  C8_15 
REMARK    6  A    between atoms: C10_23  and  C11_24 
REMARK       I    between atoms: N4_26  and  C13_28 
REMARK    7  A    between atoms: C13_28  and  C14_30 
REMARK    8  A    between atoms: C14_30  and  C15_31 
REMARK    9  A    between atoms: C14_30  and  O7_34 
REMARK   10  A    between atoms: C15_31  and  O6_32 
REMARK   11  A    between atoms: O7_34  and  C16_35 
REMARK   12  A    between atoms: C16_35  and  C17_36 
REMARK   13  A    between atoms: C21_52  and  O10_53 
ROOT
HETATM    1  C6  UNL     1      -2.997  -0.484  -0.081  1.00  0.00     0.104 C 
HETATM    2  C7  UNL     1      -1.785  -0.114  -0.594  1.00  0.00     0.154 C 
HETATM    3  N2  UNL     1      -0.864   0.261   0.394  1.00  0.00    -0.256 N 
HETATM    4  C9  UNL     1       0.372   0.343  -0.217  1.00  0.00     0.104 C 
HETATM    5  N3  UNL     1       0.386   1.295  -0.930  1.00  0.00    -0.387 N 
ATOM      6  H31 UNL     1       1.299   1.356  -1.381  1.00  0.00     0.157 HD
ATOM      7  H32 UNL     1      -0.363   1.948  -1.162  1.00  0.00     0.157 HD
HETATM    8  C10 UNL     1       1.500  -0.640   0.132  1.00  0.00     0.191 C 
HETATM    9  C18 UNL     1       1.211  -1.280   1.448  1.00  0.00     0.239 C 
HETATM   10  O8  UNL     1       2.216  -1.971   1.817  1.00  0.00    -0.272 OA
HETATM   11  N9  UNL     1       0.162  -1.366   2.434  1.00  0.00    -0.321 N 
ATOM     12  H9  UNL     1       0.455  -1.552   3.393  1.00  0.00     0.169 HD
HETATM   13  C19 UNL     1      -1.170  -1.227   2.226  1.00  0.00     0.130 C 
HETATM   14  C20 UNL     1      -1.094   0.310   1.781  1.00  0.00     0.281 C 
HETATM   15  O9  UNL     1      -1.230   1.130   2.607  1.00  0.00    -0.265 OA
HETATM   16  C21 UNL     1      -2.513  -1.198   2.471  1.00  0.00     0.275 C 
HETATM   17  N10 UNL     1      -3.292  -0.591   1.364  1.00  0.00    -0.351 N 
ATOM     18  H10 UNL     1      -4.181  -0.178   1.647  1.00  0.00     0.163 HD
ENDROOT
BRANCH   8  19
HETATM   19  C11 UNL     1       2.744   0.108   0.202  1.00  0.00     0.006 C 
HETATM   20  C12 UNL     1       2.858   1.221   1.206  1.00  0.00     0.064 C 
HETATM   21  N4  UNL     1       3.744  -0.144  -0.561  1.00  0.00    -0.331 N 
HETATM   22  C13 UNL     1       4.965   0.559  -0.523  1.00  0.00     0.253 C 
ATOM     23  H4  UNL     1       3.649  -0.901  -1.238  1.00  0.00     0.168 HD
HETATM   24  O5  UNL     1       5.031   1.784  -0.301  1.00  0.00    -0.270 OA
BRANCH  22  25
HETATM   25  C14 UNL     1       6.229  -0.186  -0.757  1.00  0.00     0.237 C 
BRANCH  25  26
HETATM   26  C15 UNL     1       6.395  -1.342   0.181  1.00  0.00     0.205 C 
BRANCH  26  27
HETATM   27  O6  UNL     1       6.551  -0.914   1.500  1.00  0.00    -0.398 OA
ATOM     28  H6  UNL     1       6.656  -1.647   2.095  1.00  0.00     0.209 HD
ENDBRANCH  26  27
ENDBRANCH  25  26
BRANCH  25  29
HETATM   29  O7  UNL     1       7.340   0.623  -0.692  1.00  0.00    -0.367 OA
BRANCH  29  30
HETATM   30  C16 UNL     1       8.055   0.718  -1.861  1.00  0.00     0.248 C 
BRANCH  30  31
HETATM   31  C17 UNL     1       9.216   1.635  -1.588  1.00  0.00     0.137 A 
HETATM   32  N5  UNL     1      10.142   1.964  -2.480  1.00  0.00    -0.270 N 
HETATM   33  N6  UNL     1      10.995   2.783  -1.881  1.00  0.00    -0.227 N 
ATOM     34  H5  UNL     1      10.189   1.645  -3.448  1.00  0.00     0.190 HD
HETATM   35  N7  UNL     1      10.640   2.985  -0.635  1.00  0.00    -0.227 N 
ATOM     36  H6  UNL     1      11.813   3.198  -2.327  1.00  0.00     0.210 HD
HETATM   37  N8  UNL     1       9.531   2.268  -0.456  1.00  0.00    -0.270 N 
ATOM     38  H7  UNL     1      11.114   3.569   0.054  1.00  0.00     0.210 HD
ATOM     39  H8  UNL     1       9.003   2.212   0.415  1.00  0.00     0.190 HD
ENDBRANCH  30  31
ENDBRANCH  29  30
ENDBRANCH  25  29
ENDBRANCH  22  25
ENDBRANCH   8  19
BRANCH   2  40
HETATM   40  C8  UNL     1      -1.687  -0.191  -1.961  1.00  0.00     0.230 C 
HETATM   41  O3  UNL     1      -2.737  -0.539  -2.628  1.00  0.00    -0.643 OA
HETATM   42  O4  UNL     1      -0.663   0.017  -2.893  1.00  0.00    -0.643 OA
ENDBRANCH   2  40
BRANCH   1  43
HETATM   43  S2  UNL     1      -4.289  -0.989  -1.137  1.00  0.00    -0.086 SA
BRANCH  43  44
HETATM   44  C5  UNL     1      -5.741  -1.446  -0.212  1.00  0.00     0.195 C 
HETATM   45  C4  UNL     1      -6.780  -1.861  -1.205  1.00  0.00     0.164 C 
HETATM   46  O1  UNL     1      -7.363  -0.803  -1.829  1.00  0.00    -0.303 OA
HETATM   47  N1  UNL     1      -7.065  -3.099  -1.419  1.00  0.00    -0.249 N 
HETATM   48  C2  UNL     1      -7.734   0.261  -1.017  1.00  0.00     0.163 C 
HETATM   49  C3  UNL     1      -7.296   1.558  -1.691  1.00  0.00     0.072 C 
HETATM   50  S3  UNL     1      -6.621   0.042   0.429  1.00  0.00    -0.096 SA
ATOM     51  H1  UNL     1      -7.785  -3.302  -2.112  1.00  0.00     0.196 HD
BRANCH  48  52
HETATM   52  S1  UNL     1      -9.455   0.291  -0.543  1.00  0.00    -0.124 SA
HETATM   53  C1  UNL     1      -9.670   1.555   0.768  1.00  0.00     0.093 C 
ENDBRANCH  48  52
BRANCH  47  54
HETATM   54  O2  UNL     1      -6.484  -4.155  -0.796  1.00  0.00    -0.288 OA
ATOM     55  H2  UNL     1      -6.694  -5.068  -0.954  1.00  0.00     0.244 HD
ENDBRANCH  47  54
ENDBRANCH  43  44
ENDBRANCH   1  43
BRANCH  16  56
HETATM   56  O10 UNL     1      -2.913  -0.480   3.620  1.00  0.00    -0.371 OA
ATOM     57  H10 UNL     1      -3.847  -0.460   3.790  1.00  0.00     0.212 HD
ENDBRANCH  16  56
TORSDOF 13
