REMARK  16 active torsions:
REMARK  status: ('A' for Active; 'I' for Inactive)
REMARK       I    between atoms: C2_2  and  N1_4 
REMARK    1  A    between atoms: N1_4  and  C3_6 
REMARK    2  A    between atoms: C3_6  and  C4_7 
REMARK    3  A    between atoms: C3_6  and  C25_54 
REMARK    4  A    between atoms: C4_7  and  N2_8 
REMARK    5  A    between atoms: C5_13  and  C6_14 
REMARK    6  A    between atoms: C6_14  and  C7_16 
REMARK    7  A    between atoms: C11_24  and  O5_25 
REMARK    8  A    between atoms: N7_31  and  C14_32 
REMARK    9  A    between atoms: C14_32  and  C15_33 
REMARK   10  A    between atoms: C15_33  and  C16_35 
REMARK   11  A    between atoms: C16_35  and  N8_36 
REMARK   12  A    between atoms: C16_35  and  C22_45 
REMARK       I    between atoms: N8_36  and  C17_38 
REMARK   13  A    between atoms: C17_38  and  O8_40 
REMARK   14  A    between atoms: O8_40  and  C18_41 
REMARK   15  A    between atoms: C23_48  and  O11_49 
REMARK   16  A    between atoms: C24_51  and  O12_52 
ROOT
HETATM    1  C7  UNL     1      -2.114  -0.151   0.043  1.00  0.00     0.135 C 
HETATM    2  N5  UNL     1      -2.649  -0.601  -1.029  1.00  0.00    -0.259 N 
ATOM      3  H5  UNL     1      -3.597  -0.969  -0.950  1.00  0.00     0.194 HD
HETATM    4  O3  UNL     1      -2.088  -0.636  -2.243  1.00  0.00    -0.258 OA
HETATM    5  C8  UNL     1      -0.750  -0.277  -2.471  1.00  0.00     0.171 C 
HETATM    6  C9  UNL     1      -0.750   0.670  -3.641  1.00  0.00     0.216 C 
HETATM    7  O4  UNL     1       0.178   0.276  -4.558  1.00  0.00    -0.385 OA
HETATM    8  C10 UNL     1       0.505  -1.028  -4.350  1.00  0.00     0.203 C 
HETATM    9  C11 UNL     1       0.035  -1.462  -3.017  1.00  0.00     0.186 C 
HETATM   10  C12 UNL     1      -0.087   0.309  -1.301  1.00  0.00     0.066 A 
HETATM   11  C13 UNL     1      -0.712   0.355  -0.086  1.00  0.00     0.095 A 
HETATM   12  N6  UNL     1       0.091   0.907   0.834  1.00  0.00    -0.293 N 
ATOM     13  H6  UNL     1      -0.137   1.055   1.817  1.00  0.00     0.187 HD
HETATM   14  N7  UNL     1       1.244   1.230   0.238  1.00  0.00    -0.263 N 
HETATM   15  C23 UNL     1       1.169   0.877  -1.072  1.00  0.00     0.169 A 
ENDROOT
BRANCH   1  16
HETATM   16  C6  UNL     1      -2.711  -0.108   1.355  1.00  0.00     0.235 C 
HETATM   17  O2  UNL     1      -1.999   0.391   2.320  1.00  0.00    -0.283 OA
BRANCH  16  18
HETATM   18  C5  UNL     1      -4.038  -0.576   1.676  1.00  0.00     0.154 A 
HETATM   19  N4  UNL     1      -4.546  -0.518   2.977  1.00  0.00    -0.278 N 
HETATM   20  N3  UNL     1      -5.756  -1.013   2.985  1.00  0.00    -0.238 N 
ATOM     21  H4  UNL     1      -4.052  -0.149   3.789  1.00  0.00     0.189 HD
HETATM   22  N2  UNL     1      -6.129  -1.407   1.802  1.00  0.00    -0.252 N 
ATOM     23  H3  UNL     1      -6.339  -1.082   3.819  1.00  0.00     0.208 HD
HETATM   24  C24 UNL     1      -5.056  -1.135   0.982  1.00  0.00     0.191 A 
BRANCH  22  25
HETATM   25  C4  UNL     1      -7.346  -1.996   1.328  1.00  0.00     0.187 C 
BRANCH  25  26
HETATM   26  C3  UNL     1      -8.394  -1.028   0.904  1.00  0.00     0.193 C 
BRANCH  26  27
HETATM   27  N1  UNL     1      -8.041  -0.143  -0.156  1.00  0.00    -0.347 N 
HETATM   28  C2  UNL     1      -8.778  -0.089  -1.374  1.00  0.00     0.214 C 
HETATM   29  C1  UNL     1      -8.417   0.822  -2.466  1.00  0.00     0.117 C 
HETATM   30  O1  UNL     1      -9.777  -0.841  -1.538  1.00  0.00    -0.274 OA
ATOM     31  H1  UNL     1      -7.235   0.471  -0.039  1.00  0.00     0.163 HD
ENDBRANCH  26  27
BRANCH  26  32
HETATM   32  C25 UNL     1      -8.914  -0.294   2.106  1.00  0.00     0.255 C 
HETATM   33  N9  UNL     1      -9.308  -1.041   3.247  1.00  0.00    -0.060 NA
HETATM   34  O13 UNL     1      -9.012   0.955   2.131  1.00  0.00    -0.275 OA
ENDBRANCH  26  32
ENDBRANCH  25  26
ENDBRANCH  22  25
BRANCH  24  35
HETATM   35  O12 UNL     1      -5.098  -1.432  -0.383  1.00  0.00    -0.343 OA
ATOM     36  H12 UNL     1      -4.358  -1.244  -0.948  1.00  0.00     0.219 HD
ENDBRANCH  24  35
ENDBRANCH  16  18
ENDBRANCH   1  16
BRANCH  15  37
HETATM   37  O11 UNL     1       2.106   1.011  -2.080  1.00  0.00    -0.344 OA
ATOM     38  H11 UNL     1       2.960   1.397  -1.924  1.00  0.00     0.219 HD
ENDBRANCH  15  37
BRANCH  14  39
HETATM   39  C14 UNL     1       2.380   1.840   0.837  1.00  0.00     0.232 C 
BRANCH  39  40
HETATM   40  C15 UNL     1       3.313   0.912   1.471  1.00  0.00     0.179 C 
HETATM   41  O6  UNL     1       3.250   0.799   2.717  1.00  0.00    -0.293 OA
BRANCH  40  42
HETATM   42  C16 UNL     1       4.329   0.108   0.744  1.00  0.00     0.259 C 
BRANCH  42  43
HETATM   43  N8  UNL     1       5.598   0.219   1.486  1.00  0.00    -0.316 N 
HETATM   44  C17 UNL     1       6.768   0.698   0.872  1.00  0.00     0.362 C 
HETATM   45  O7  UNL     1       6.789   1.062  -0.354  1.00  0.00    -0.238 OA
ATOM     46  H8  UNL     1       5.628  -0.058   2.467  1.00  0.00     0.166 HD
BRANCH  44  47
HETATM   47  O8  UNL     1       7.941   0.793   1.574  1.00  0.00    -0.294 OA
BRANCH  47  48
HETATM   48  C18 UNL     1       9.157   1.261   1.037  1.00  0.00     0.061 C 
HETATM   49  C19 UNL     1       9.615   0.409  -0.135  1.00  0.00     0.046 C 
HETATM   50  C20 UNL     1       9.081   2.686   0.539  1.00  0.00     0.046 C 
HETATM   51  C21 UNL     1      10.213   1.154   2.112  1.00  0.00     0.046 C 
ENDBRANCH  47  48
ENDBRANCH  44  47
ENDBRANCH  42  43
BRANCH  42  52
HETATM   52  C22 UNL     1       3.988  -1.346   0.828  1.00  0.00     0.204 C 
HETATM   53  O9  UNL     1       4.736  -2.184   1.445  1.00  0.00    -0.646 OA
HETATM   54  O10 UNL     1       2.865  -1.882   0.259  1.00  0.00    -0.646 OA
ENDBRANCH  42  52
ENDBRANCH  40  42
ENDBRANCH  39  40
ENDBRANCH  14  39
BRANCH   9  55
HETATM   55  O5  UNL     1      -0.824  -2.556  -3.078  1.00  0.00    -0.390 OA
ATOM     56  H5  UNL     1      -0.334  -3.295  -3.419  1.00  0.00     0.210 HD
ENDBRANCH   9  55
TORSDOF 16
