REMARK  18 active torsions:
REMARK  status: ('A' for Active; 'I' for Inactive)
REMARK    1  A    between atoms: O1_2  and  C2_3 
REMARK    2  A    between atoms: C2_3  and  C3_5 
REMARK    3  A    between atoms: C5_8  and  O4_9 
REMARK    4  A    between atoms: C9_18  and  O8_19 
REMARK    5  A    between atoms: C9_18  and  N1_21 
REMARK    6  A    between atoms: N1_21  and  C10_24 
REMARK    7  A    between atoms: C10_24  and  S2_25 
REMARK    8  A    between atoms: S2_25  and  C11_26 
REMARK    9  A    between atoms: C11_26  and  C12_27 
REMARK   10  A    between atoms: C12_27  and  C13_28 
REMARK   11  A    between atoms: C12_27  and  C15_32 
REMARK   12  A    between atoms: C13_28  and  O10_30 
REMARK   13  A    between atoms: C15_32  and  O12_34 
REMARK   14  A    between atoms: O12_34  and  C16_35 
REMARK   15  A    between atoms: C18_37  and  O13_38 
REMARK   16  A    between atoms: C18_37  and  C19_40 
REMARK   17  A    between atoms: C21_45  and  O16_46 
REMARK   18  A    between atoms: C21_45  and  C22_48 
ROOT
HETATM    1  S2  UNL     1      -0.654  -2.175  -1.407  1.00  0.00    -0.140 SA
ENDROOT
BRANCH   1   2
HETATM    2  C10 UNL     1      -2.205  -1.353  -0.947  1.00  0.00     0.310 C 
BRANCH   2   3
HETATM    3  N1  UNL     1      -2.364  -1.386   0.460  1.00  0.00    -0.025 N 
ATOM      4  H12 UNL     1      -1.544  -0.988   0.919  1.00  0.00     0.282 HD
ATOM      5  H11 UNL     1      -2.307  -2.346   0.801  1.00  0.00     0.282 HD
BRANCH   3   6
HETATM    6  C9  UNL     1      -3.567  -0.752   0.944  1.00  0.00     0.311 C 
HETATM    7  C3  UNL     1      -3.538   0.665   0.602  1.00  0.00     0.106 C 
HETATM    8  C4  UNL     1      -4.257   1.144  -0.391  1.00  0.00     0.156 C 
HETATM    9  O3  UNL     1      -5.048   0.300  -1.131  1.00  0.00    -0.327 OA
HETATM   10  C5  UNL     1      -5.569  -0.867  -0.571  1.00  0.00     0.318 C 
HETATM   11  C6  UNL     1      -4.816  -1.441   0.581  1.00  0.00     0.276 C 
HETATM   12  O5  UNL     1      -4.562  -2.826   0.389  1.00  0.00    -0.355 OA
HETATM   13  S1  UNL     1      -5.953  -1.656   1.973  1.00  0.00     0.189 S 
HETATM   14  C7  UNL     1      -5.727  -3.485   0.220  1.00  0.00     0.185 C 
HETATM   15  C8  UNL     1      -6.759  -3.108   1.251  1.00  0.00     0.170 C 
HETATM   16  O6  UNL     1      -5.250  -2.031   3.221  1.00  0.00    -0.224 OA
HETATM   17  O7  UNL     1      -6.881  -0.520   2.117  1.00  0.00    -0.224 OA
BRANCH   7  18
HETATM   18  C2  UNL     1      -2.715   1.645   1.343  1.00  0.00     0.295 C 
HETATM   19  O2  UNL     1      -2.735   2.855   1.018  1.00  0.00    -0.259 OA
BRANCH  18  20
HETATM   20  O1  UNL     1      -1.913   1.231   2.404  1.00  0.00    -0.323 OA
HETATM   21  C1  UNL     1      -1.144   2.244   3.070  1.00  0.00     0.213 C 
ENDBRANCH  18  20
ENDBRANCH   7  18
BRANCH  10  22
HETATM   22  O4  UNL     1      -6.912  -0.624  -0.276  1.00  0.00    -0.367 OA
ATOM     23  H4  UNL     1      -7.267  -1.419   0.105  1.00  0.00     0.212 HD
ENDBRANCH  10  22
BRANCH   6  24
HETATM   24  O8  UNL     1      -3.450  -0.802   2.363  1.00  0.00    -0.358 OA
ATOM     25  H8  UNL     1      -3.469  -1.725   2.586  1.00  0.00     0.213 HD
ENDBRANCH   6  24
ENDBRANCH   3   6
ENDBRANCH   2   3
ENDBRANCH   1   2
BRANCH   1  26
HETATM   26  C11 UNL     1       0.716  -1.225  -0.751  1.00  0.00     0.100 C 
BRANCH  26  27
HETATM   27  C12 UNL     1       0.846   0.160  -1.357  1.00  0.00     0.194 C 
BRANCH  27  28
HETATM   28  C13 UNL     1       1.053   0.033  -2.843  1.00  0.00     0.273 C 
HETATM   29  O9  UNL     1       0.245   0.575  -3.632  1.00  0.00    -0.264 OA
BRANCH  28  30
HETATM   30  O10 UNL     1       2.118  -0.672  -3.369  1.00  0.00    -0.326 OA
HETATM   31  C14 UNL     1       2.302  -0.786  -4.768  1.00  0.00     0.213 C 
ENDBRANCH  28  30
ENDBRANCH  27  28
BRANCH  27  32
HETATM   32  C15 UNL     1       2.034   0.773  -0.712  1.00  0.00     0.278 C 
HETATM   33  O11 UNL     1       1.907   1.762   0.065  1.00  0.00    -0.264 OA
BRANCH  32  34
HETATM   34  O12 UNL     1       3.291   0.279  -0.945  1.00  0.00    -0.278 OA
BRANCH  34  35
HETATM   35  C16 UNL     1       4.441   0.796  -0.370  1.00  0.00     0.112 C 
HETATM   36  C17 UNL     1       4.906   0.306   0.760  1.00  0.00     0.060 C 
HETATM   37  C18 UNL     1       6.118   0.794   1.439  1.00  0.00     0.174 C 
HETATM   38  C20 UNL     1       7.348   0.802   0.558  1.00  0.00     0.131 C 
HETATM   39  S3  UNL     1       6.944   1.649  -0.981  1.00  0.00    -0.110 SA
HETATM   40  C21 UNL     1       5.156   1.912  -1.030  1.00  0.00     0.245 C 
BRANCH  37  41
HETATM   41  O13 UNL     1       5.960   2.050   1.999  1.00  0.00    -0.374 OA
ATOM     42  H13 UNL     1       6.742   2.365   2.437  1.00  0.00     0.211 HD
ENDBRANCH  37  41
BRANCH  37  43
HETATM   43  C19 UNL     1       6.440  -0.139   2.572  1.00  0.00     0.214 C 
HETATM   44  O14 UNL     1       6.629  -1.343   2.277  1.00  0.00    -0.645 OA
HETATM   45  O15 UNL     1       6.532   0.267   3.874  1.00  0.00    -0.645 OA
ENDBRANCH  37  43
BRANCH  40  46
HETATM   46  O16 UNL     1       4.809   3.144  -0.445  1.00  0.00    -0.365 OA
ATOM     47  H16 UNL     1       5.268   3.860  -0.868  1.00  0.00     0.212 HD
ENDBRANCH  40  46
BRANCH  40  48
HETATM   48  C22 UNL     1       4.792   2.038  -2.481  1.00  0.00     0.227 C 
HETATM   49  O17 UNL     1       5.035   1.048  -3.200  1.00  0.00    -0.645 OA
HETATM   50  O18 UNL     1       4.223   3.167  -3.022  1.00  0.00    -0.645 OA
ENDBRANCH  40  48
ENDBRANCH  34  35
ENDBRANCH  32  34
ENDBRANCH  27  32
ENDBRANCH  26  27
ENDBRANCH   1  26
TORSDOF 18
