REMARK  14 active torsions:
REMARK  status: ('A' for Active; 'I' for Inactive)
REMARK    1  A    between atoms: C4_4  and  N1_5 
REMARK    2  A    between atoms: C6_9  and  C7_10 
REMARK    3  A    between atoms: C8_15  and  C9_16 
REMARK    4  A    between atoms: C9_16  and  N5_17 
REMARK    5  A    between atoms: N5_17  and  S1_19 
REMARK    6  A    between atoms: S1_19  and  N6_20 
REMARK    7  A    between atoms: C10_28  and  O4_30 
REMARK    8  A    between atoms: C12_32  and  O5_33 
REMARK    9  A    between atoms: C14_37  and  C15_38 
REMARK   10  A    between atoms: C15_38  and  C16_39 
REMARK   11  A    between atoms: C16_39  and  N8_40 
REMARK       I    between atoms: N8_40  and  C17_42 
REMARK   12  A    between atoms: C17_42  and  C18_44 
REMARK   13  A    between atoms: C19_45  and  O8_46 
REMARK   14  A    between atoms: N10_52  and  C21_53 
ROOT
HETATM    1  C21 UNL     1      -7.978   1.807   2.354  1.00  0.00     0.258 C 
HETATM    2  C22 UNL     1      -9.268   1.159   2.627  1.00  0.00     0.079 C 
HETATM    3  N11 UNL     1     -10.285   0.630   2.830  1.00  0.00    -0.196 NA
ENDROOT
BRANCH   1   4
HETATM    4  N10 UNL     1      -7.598   1.752   0.975  1.00  0.00    -0.278 N 
HETATM    5  C18 UNL     1      -6.913   0.789   0.310  1.00  0.00     0.159 A 
HETATM    6  C19 UNL     1      -6.765   1.194  -1.004  1.00  0.00     0.177 A 
HETATM    7  N9  UNL     1      -7.371   2.411  -1.115  1.00  0.00    -0.287 N 
HETATM    8  C20 UNL     1      -7.869   2.741   0.074  1.00  0.00     0.330 A 
ATOM      9  H9  UNL     1      -7.432   2.972  -1.964  1.00  0.00     0.172 HD
HETATM   10  O9  UNL     1      -8.505   3.809   0.354  1.00  0.00    -0.246 OA
BRANCH   5  11
HETATM   11  C17 UNL     1      -6.456  -0.437   0.941  1.00  0.00     0.272 C 
HETATM   12  N8  UNL     1      -5.758  -1.415   0.229  1.00  0.00    -0.355 N 
ATOM     13  H8  UNL     1      -5.571  -1.260  -0.762  1.00  0.00     0.162 HD
HETATM   14  O7  UNL     1      -6.683  -0.644   2.150  1.00  0.00    -0.266 OA
BRANCH  12  15
HETATM   15  C16 UNL     1      -5.281  -2.664   0.854  1.00  0.00     0.125 C 
BRANCH  15  16
HETATM   16  C15 UNL     1      -4.325  -2.417   1.928  1.00  0.00     0.054 C 
BRANCH  16  17
HETATM   17  C14 UNL     1      -3.067  -1.682   1.564  1.00  0.00     0.149 C 
HETATM   18  C13 UNL     1      -2.246  -2.400   0.519  1.00  0.00     0.203 C 
HETATM   19  O6  UNL     1      -0.903  -2.076   0.681  1.00  0.00    -0.348 OA
HETATM   20  C12 UNL     1      -0.314  -1.689  -0.520  1.00  0.00     0.227 C 
HETATM   21  C2  UNL     1      -0.653  -0.265  -0.824  1.00  0.00     0.121 C 
HETATM   22  C10 UNL     1       1.192  -1.808  -0.460  1.00  0.00     0.137 C 
HETATM   23  C1  UNL     1      -1.348  -0.076  -2.148  1.00  0.00     0.052 C 
HETATM   24  C3  UNL     1       0.713   0.425  -0.965  1.00  0.00     0.075 C 
HETATM   25  O11 UNL     1      -1.290   0.296   0.240  1.00  0.00    -0.351 OA
HETATM   26  C4  UNL     1       1.647  -0.708  -1.360  1.00  0.00     0.169 C 
HETATM   27  C23 UNL     1      -2.671   0.190   0.228  1.00  0.00     0.339 C 
HETATM   28  O10 UNL     1      -3.219  -0.350   1.346  1.00  0.00    -0.359 OA
HETATM   29  C11 UNL     1       1.613  -3.137  -1.031  1.00  0.00     0.054 C 
BRANCH  20  30
HETATM   30  O5  UNL     1      -0.747  -2.471  -1.595  1.00  0.00    -0.361 OA
ATOM     31  H5  UNL     1      -0.532  -3.376  -1.402  1.00  0.00     0.213 HD
ENDBRANCH  20  30
BRANCH  26  32
HETATM   32  N1  UNL     1       2.993  -0.262  -1.118  1.00  0.00    -0.226 N 
HETATM   33  N2  UNL     1       3.705   0.370  -2.065  1.00  0.00    -0.293 N 
HETATM   34  C5  UNL     1       4.899   0.656  -1.554  1.00  0.00     0.144 A 
ATOM     35  H2  UNL     1       3.387   0.591  -3.008  1.00  0.00     0.187 HD
HETATM   36  C6  UNL     1       4.938   0.193  -0.256  1.00  0.00     0.119 A 
HETATM   37  N7  UNL     1       3.746  -0.367  -0.022  1.00  0.00    -0.278 N 
ATOM     38  H7  UNL     1       3.459  -0.804   0.854  1.00  0.00     0.189 HD
BRANCH  36  39
HETATM   39  C7  UNL     1       6.067   0.300   0.670  1.00  0.00     0.194 A 
HETATM   40  N3  UNL     1       6.148  -0.129   1.921  1.00  0.00    -0.276 N 
HETATM   41  N4  UNL     1       7.357   0.182   2.382  1.00  0.00    -0.280 N 
ATOM     42  H3  UNL     1       5.414  -0.612   2.439  1.00  0.00     0.189 HD
HETATM   43  C8  UNL     1       8.028   0.809   1.405  1.00  0.00     0.159 A 
ATOM     44  H4  UNL     1       7.712  -0.021   3.316  1.00  0.00     0.189 HD
HETATM   45  O3  UNL     1       7.224   0.862   0.392  1.00  0.00    -0.274 OA
BRANCH  43  46
HETATM   46  C9  UNL     1       9.421   1.333   1.485  1.00  0.00     0.219 C 
BRANCH  46  47
HETATM   47  N5  UNL     1       9.782   1.933   0.204  1.00  0.00    -0.295 N 
ATOM     48  H5  UNL     1       9.181   1.988  -0.619  1.00  0.00     0.174 HD
BRANCH  47  49
HETATM   49  S1  UNL     1      11.399   2.534   0.316  1.00  0.00     0.313 S 
HETATM   50  O1  UNL     1      12.115   1.676   1.346  1.00  0.00    -0.183 OA
HETATM   51  O2  UNL     1      12.154   2.386  -0.961  1.00  0.00    -0.183 OA
BRANCH  49  52
HETATM   52  N6  UNL     1      11.389   4.183   0.864  1.00  0.00    -0.312 N 
ATOM     53  H62 UNL     1      10.542   4.707   1.084  1.00  0.00     0.170 HD
ATOM     54  H61 UNL     1      12.343   4.538   0.930  1.00  0.00     0.170 HD
ENDBRANCH  49  52
ENDBRANCH  47  49
ENDBRANCH  46  47
ENDBRANCH  43  46
ENDBRANCH  36  39
ENDBRANCH  26  32
BRANCH  22  55
HETATM   55  O4  UNL     1       1.673  -1.681   0.839  1.00  0.00    -0.382 OA
ATOM     56  H4  UNL     1       1.383  -2.381   1.412  1.00  0.00     0.210 HD
ENDBRANCH  22  55
ENDBRANCH  16  17
ENDBRANCH  15  16
ENDBRANCH  12  15
ENDBRANCH   5  11
BRANCH   6  57
HETATM   57  O8  UNL     1      -6.137   0.537  -2.044  1.00  0.00    -0.344 OA
ATOM     58  H8  UNL     1      -6.035   0.815  -2.947  1.00  0.00     0.219 HD
ENDBRANCH   6  57
ENDBRANCH   1   4
TORSDOF 14
