REMARK  17 active torsions:
REMARK  status: ('A' for Active; 'I' for Inactive)
REMARK    1  A    between atoms: C3_8  and  S1_9 
REMARK    2  A    between atoms: S1_9  and  C4_10 
REMARK    3  A    between atoms: C4_10  and  C5_11 
REMARK    4  A    between atoms: C6_12  and  C7_13 
REMARK    5  A    between atoms: C7_13  and  O2_15 
REMARK    6  A    between atoms: O2_15  and  C8_16 
REMARK    7  A    between atoms: C8_16  and  C9_17 
REMARK    8  A    between atoms: C9_17  and  N4_18 
REMARK    9  A    between atoms: N6_27  and  C15_28 
REMARK   10  A    between atoms: C15_28  and  C16_29 
REMARK       I    between atoms: C16_29  and  N7_31 
REMARK   11  A    between atoms: N7_31  and  C17_33 
REMARK   12  A    between atoms: C17_33  and  C18_34 
REMARK   13  A    between atoms: C18_34  and  O5_35 
REMARK   14  A    between atoms: C18_34  and  C19_37 
REMARK   15  A    between atoms: C19_37  and  O6_38 
REMARK   16  A    between atoms: C20_40  and  N8_41 
REMARK   17  A    between atoms: N11_55  and  N12_56 
ROOT
HETATM    1  N1  UNL     1      11.293  -0.956   2.671  1.00  0.00    -0.188 NA
HETATM    2  C1  UNL     1      10.699  -0.441   1.796  1.00  0.00     0.140 C 
HETATM    3  C2  UNL     1       9.961   0.191   0.740  1.00  0.00     0.226 A 
HETATM    4  N2  UNL     1      10.388   0.312  -0.531  1.00  0.00    -0.273 N 
ATOM      5  H2  UNL     1      11.277  -0.023  -0.903  1.00  0.00     0.189 HD
HETATM    6  N3  UNL     1       9.460   0.934  -1.197  1.00  0.00    -0.276 N 
ATOM      7  H3  UNL     1       9.522   1.160  -2.190  1.00  0.00     0.189 HD
HETATM    8  C3  UNL     1       8.393   1.248  -0.406  1.00  0.00     0.182 A 
HETATM    9  N11 UNL     1       8.742   0.768   0.800  1.00  0.00    -0.212 N 
ENDROOT
BRANCH   9  10
HETATM   10  N12 UNL     1       8.009   0.862   1.987  1.00  0.00    -0.334 N 
ATOM     11 2H12 UNL     1       8.274   0.498   2.902  1.00  0.00     0.177 HD
ATOM     12 1H12 UNL     1       7.088   1.298   2.032  1.00  0.00     0.177 HD
ENDBRANCH   9  10
BRANCH   8  13
HETATM   13  S1  UNL     1       7.005   2.149  -0.974  1.00  0.00    -0.086 SA
BRANCH  13  14
HETATM   14  C4  UNL     1       5.716   1.280  -1.823  1.00  0.00     0.118 C 
BRANCH  14  15
HETATM   15  C5  UNL     1       4.953   0.262  -1.000  1.00  0.00    -0.045 C 
HETATM   16  C6  UNL     1       3.681   0.278  -0.657  1.00  0.00     0.069 C 
HETATM   17  C21 UNL     1       3.177  -0.873   0.129  1.00  0.00     0.199 C 
HETATM   18  N9  UNL     1       3.302  -0.703   1.535  1.00  0.00    -0.312 N 
HETATM   19  C23 UNL     1       1.831  -1.324  -0.169  1.00  0.00     0.270 C 
HETATM   20  S2  UNL     1       4.387  -2.162  -0.466  1.00  0.00    -0.118 SA
HETATM   21  C22 UNL     1       2.255  -1.454   2.119  1.00  0.00     0.324 C 
ATOM     22  H9  UNL     1       4.006  -0.150   2.025  1.00  0.00     0.166 HD
HETATM   23  O7  UNL     1       2.154  -1.726   3.342  1.00  0.00    -0.247 OA
HETATM   24  N10 UNL     1       1.338  -1.847   1.090  1.00  0.00    -0.276 N 
ATOM     25  H10 UNL     1       0.489  -2.397   1.220  1.00  0.00     0.173 HD
HETATM   26  O8  UNL     1       1.212  -1.292  -1.230  1.00  0.00    -0.269 OA
HETATM   27  C24 UNL     1       5.739  -0.907  -0.517  1.00  0.00     0.113 C 
BRANCH  16  28
HETATM   28  C7  UNL     1       2.786   1.389  -1.064  1.00  0.00     0.298 C 
HETATM   29  O1  UNL     1       3.123   2.363  -1.749  1.00  0.00    -0.259 OA
BRANCH  28  30
HETATM   30  O2  UNL     1       1.422   1.414  -0.672  1.00  0.00    -0.286 OA
BRANCH  30  31
HETATM   31  C8  UNL     1       0.641   2.503  -1.090  1.00  0.00     0.164 C 
BRANCH  31  32
HETATM   32  C9  UNL     1      -0.746   2.590  -0.705  1.00  0.00     0.143 C 
BRANCH  32  33
HETATM   33  N4  UNL     1      -1.692   1.603  -1.061  1.00  0.00    -0.118 N 
HETATM   34  C10 UNL     1      -2.379   1.646  -2.249  1.00  0.00     0.295 A 
HETATM   35  O3  UNL     1      -2.137   2.578  -3.057  1.00  0.00    -0.265 OA
HETATM   36  C11 UNL     1      -3.322   0.709  -2.592  1.00  0.00     0.129 A 
HETATM   37  N5  UNL     1      -4.109   0.530  -3.663  1.00  0.00    -0.360 N 
HETATM   38  C14 UNL     1      -3.610  -0.329  -1.724  1.00  0.00     0.086 A 
HETATM   39  C12 UNL     1      -4.872  -0.561  -3.515  1.00  0.00     0.091 A 
ATOM     40  H5  UNL     1      -4.124   1.141  -4.479  1.00  0.00     0.165 HD
HETATM   41  C13 UNL     1      -4.590  -1.138  -2.301  1.00  0.00     0.050 A 
HETATM   42  N6  UNL     1      -2.930  -0.357  -0.567  1.00  0.00    -0.172 N 
HETATM   43  C20 UNL     1      -1.997   0.587  -0.250  1.00  0.00     0.688 A 
BRANCH  42  44
HETATM   44  C15 UNL     1      -3.207  -1.439   0.379  1.00  0.00     0.250 C 
BRANCH  44  45
HETATM   45  C16 UNL     1      -4.248  -1.117   1.362  1.00  0.00     0.236 C 
HETATM   46  O4  UNL     1      -3.887  -0.504   2.399  1.00  0.00    -0.272 OA
HETATM   47  N7  UNL     1      -5.602  -1.452   1.207  1.00  0.00    -0.357 N 
ATOM     48  H7  UNL     1      -5.906  -1.949   0.370  1.00  0.00     0.162 HD
BRANCH  47  49
HETATM   49  C17 UNL     1      -6.562  -1.103   2.213  1.00  0.00     0.156 C 
BRANCH  49  50
HETATM   50  C18 UNL     1      -7.962  -1.547   1.863  1.00  0.00     0.159 C 
BRANCH  50  51
HETATM   51  O5  UNL     1      -8.789  -1.161   2.907  1.00  0.00    -0.392 OA
ATOM     52  H5  UNL     1      -9.670  -1.440   2.687  1.00  0.00     0.210 HD
ENDBRANCH  50  51
BRANCH  50  53
HETATM   53  C19 UNL     1      -8.390  -0.791   0.617  1.00  0.00     0.197 C 
BRANCH  53  54
HETATM   54  O6  UNL     1      -9.696  -1.052   0.265  1.00  0.00    -0.398 OA
ATOM     55  H6  UNL     1      -9.964  -0.579  -0.514  1.00  0.00     0.209 HD
ENDBRANCH  53  54
ENDBRANCH  50  53
ENDBRANCH  49  50
ENDBRANCH  47  49
ENDBRANCH  44  45
ENDBRANCH  42  44
BRANCH  43  56
HETATM   56  N8  UNL     1      -1.451   0.408   0.893  1.00  0.00    -0.234 N 
ATOM     57  H82 UNL     1      -0.754   1.114   1.130  1.00  0.00     0.174 HD
ATOM     58  H81 UNL     1      -1.684  -0.368   1.513  1.00  0.00     0.174 HD
ENDBRANCH  43  56
ENDBRANCH  32  33
ENDBRANCH  31  32
ENDBRANCH  30  31
ENDBRANCH  28  30
ENDBRANCH  16  28
ENDBRANCH  14  15
ENDBRANCH  13  14
ENDBRANCH   8  13
TORSDOF 17
