REMARK  16 active torsions:
REMARK  status: ('A' for Active; 'I' for Inactive)
REMARK    1  A    between atoms: O1_2  and  N1_3 
REMARK    2  A    between atoms: N1_3  and  N2_5 
REMARK    3  A    between atoms: N2_5  and  N3_7 
REMARK    4  A    between atoms: N3_7  and  O2_8 
REMARK    5  A    between atoms: N3_7  and  N4_10 
REMARK    6  A    between atoms: N4_10  and  C2_11 
REMARK    7  A    between atoms: N5_12  and  N6_13 
REMARK       I    between atoms: N6_13  and  C3_15 
REMARK    8  A    between atoms: C3_15  and  C4_17 
REMARK    9  A    between atoms: C4_17  and  N7_18 
REMARK   10  A    between atoms: C8_32  and  C9_33 
REMARK   11  A    between atoms: C11_35  and  O5_36 
REMARK   12  A    between atoms: C13_38  and  O6_39 
REMARK   13  A    between atoms: C15_42  and  S1_43 
REMARK   14  A    between atoms: S1_43  and  N12_46 
REMARK   15  A    between atoms: N14_51  and  O9_52 
REMARK   16  A    between atoms: O9_52  and  S2_53 
ROOT
HETATM    1  C2  UNL     1       0.017   0.909  -1.704  1.00  0.00     0.338 A 
HETATM    2  N5  UNL     1      -0.528  -0.319  -2.282  1.00  0.00    -0.168 N 
HETATM    3  C6  UNL     1       0.015  -1.389  -1.542  1.00  0.00     0.299 A 
HETATM    4  O4  UNL     1      -0.264  -2.610  -1.790  1.00  0.00    -0.263 OA
HETATM    5  C7  UNL     1       0.914  -0.907  -0.487  1.00  0.00     0.139 A 
HETATM    6  C8  UNL     1       1.486  -1.721   0.346  1.00  0.00     0.051 C 
HETATM    7  N14 UNL     1       0.885   0.529  -0.622  1.00  0.00    -0.149 N 
ENDROOT
BRANCH   6   8
HETATM    8  C9  UNL     1       2.396  -1.467   1.431  1.00  0.00    -0.007 A 
HETATM    9  C10 UNL     1       3.676  -0.966   1.197  1.00  0.00     0.052 A 
HETATM   10  C11 UNL     1       4.566  -0.722   2.211  1.00  0.00     0.102 A 
HETATM   11  C13 UNL     1       4.181  -0.980   3.537  1.00  0.00     0.100 A 
HETATM   12  C14 UNL     1       2.927  -1.473   3.802  1.00  0.00     0.065 A 
HETATM   13  C15 UNL     1       2.078  -1.699   2.736  1.00  0.00     0.094 A 
BRANCH  10  14
HETATM   14  O5  UNL     1       5.842  -0.235   2.063  1.00  0.00    -0.353 OA
HETATM   15  C12 UNL     1       6.527   0.103   0.907  1.00  0.00     0.210 C 
ENDBRANCH  10  14
BRANCH  11  16
HETATM   16  O6  UNL     1       5.045  -0.748   4.598  1.00  0.00    -0.358 OA
ATOM     17  H6  UNL     1       4.785  -0.922   5.495  1.00  0.00     0.217 HD
ENDBRANCH  11  16
BRANCH  13  18
HETATM   18  S1  UNL     1       0.490  -2.333   3.129  1.00  0.00     0.283 S 
HETATM   19  O7  UNL     1      -0.566  -1.383   2.682  1.00  0.00    -0.198 OA
HETATM   20  O8  UNL     1       0.360  -3.686   2.475  1.00  0.00    -0.198 OA
BRANCH  18  21
HETATM   21  N12 UNL     1       0.322  -2.574   4.824  1.00  0.00    -0.187 N 
HETATM   22  C16 UNL     1       0.555  -3.575   5.705  1.00  0.00     0.148 A 
HETATM   23  C17 UNL     1       0.122  -2.787   6.717  1.00  0.00     0.128 A 
HETATM   24  N13 UNL     1      -0.086  -1.843   5.814  1.00  0.00    -0.295 N 
ATOM     25  H13 UNL     1      -0.439  -0.888   5.875  1.00  0.00     0.187 HD
ENDBRANCH  18  21
ENDBRANCH  13  18
ENDBRANCH   6   8
BRANCH   7  26
HETATM   26  O9  UNL     1       1.547   1.328   0.191  1.00  0.00    -0.120 OA
BRANCH  26  27
HETATM   27  S2  UNL     1       2.576   2.466  -0.343  1.00  0.00     0.274 S 
HETATM   28  O10 UNL     1       2.048   3.883  -0.090  1.00  0.00    -0.571 OA
HETATM   29  O11 UNL     1       3.900   2.493   0.467  1.00  0.00    -0.571 OA
HETATM   30  O12 UNL     1       3.054   2.373  -1.927  1.00  0.00    -0.571 OA
ENDBRANCH  26  27
ENDBRANCH   7  26
BRANCH   2  31
HETATM   31  N6  UNL     1      -1.397  -0.427  -3.372  1.00  0.00    -0.255 N 
HETATM   32  C3  UNL     1      -2.745  -0.023  -3.390  1.00  0.00     0.257 C 
HETATM   33  O3  UNL     1      -3.241   0.478  -2.352  1.00  0.00    -0.270 OA
ATOM     34  H6  UNL     1      -1.021  -0.834  -4.229  1.00  0.00     0.191 HD
BRANCH  32  35
HETATM   35  C4  UNL     1      -3.581  -0.174  -4.603  1.00  0.00     0.274 C 
BRANCH  35  36
HETATM   36  N7  UNL     1      -4.635  -1.143  -4.398  1.00  0.00    -0.098 N 
HETATM   37  N8  UNL     1      -4.538  -2.432  -4.657  1.00  0.00    -0.211 N 
HETATM   38  N9  UNL     1      -5.692  -2.951  -4.357  1.00  0.00    -0.213 N 
ATOM     39  H8  UNL     1      -3.721  -2.924  -5.020  1.00  0.00     0.210 HD
HETATM   40  N10 UNL     1      -6.545  -2.059  -3.911  1.00  0.00    -0.115 N 
ATOM     41  H9  UNL     1      -5.910  -3.942  -4.457  1.00  0.00     0.210 HD
HETATM   42  C5  UNL     1      -5.877  -0.872  -3.929  1.00  0.00     0.710 A 
ATOM     43  H10 UNL     1      -7.507  -2.221  -3.613  1.00  0.00     0.207 HD
HETATM   44  N11 UNL     1      -6.373   0.237  -3.563  1.00  0.00    -0.232 N 
ATOM     45 2H11 UNL     1      -5.873   1.126  -3.576  1.00  0.00     0.174 HD
ATOM     46 1H11 UNL     1      -7.308   0.441  -3.210  1.00  0.00     0.174 HD
ENDBRANCH  35  36
ENDBRANCH  32  35
ENDBRANCH   2  31
BRANCH   1  47
HETATM   47  N4  UNL     1      -0.302   1.995  -2.153  1.00  0.00    -0.237 NA
BRANCH  47  48
HETATM   48  N3  UNL     1      -0.366   3.275  -2.309  1.00  0.00    -0.004 N 
BRANCH  48  49
HETATM   49  N2  UNL     1      -1.068   4.178  -1.689  1.00  0.00    -0.170 N 
ATOM     50  H2  UNL     1      -0.959   5.136  -2.022  1.00  0.00     0.215 HD
BRANCH  49  51
HETATM   51  N1  UNL     1      -1.927   4.003  -0.654  1.00  0.00    -0.190 N 
ATOM     52  H1  UNL     1      -1.688   4.496   0.206  1.00  0.00     0.217 HD
BRANCH  51  53
HETATM   53  O1  UNL     1      -3.040   3.274  -0.610  1.00  0.00    -0.269 OA
HETATM   54  C1  UNL     1      -4.147   4.097  -0.410  1.00  0.00     0.239 C 
ENDBRANCH  51  53
ENDBRANCH  49  51
ENDBRANCH  48  49
BRANCH  48  55
HETATM   55  O2  UNL     1       0.403   3.924  -3.333  1.00  0.00    -0.242 OA
ATOM     56  H2  UNL     1       0.916   3.265  -3.786  1.00  0.00     0.249 HD
ENDBRANCH  48  55
ENDBRANCH  47  48
ENDBRANCH   1  47
TORSDOF 16
