REMARK  6 active torsions:
REMARK  status: ('A' for Active; 'I' for Inactive)
REMARK    1  A    between atoms: N1_2  and  C2_5 
REMARK    2  A    between atoms: C2_5  and  C3_6 
REMARK    3  A    between atoms: C3_6  and  N2_7 
REMARK    4  A    between atoms: C3_6  and  C9_17 
REMARK    5  A    between atoms: N2_7  and  C4_9 
REMARK    6  A    between atoms: C4_9  and  N3_11 
ROOT
HETATM    1  N2  UNL     1      -0.136   0.293  -0.206  1.00  0.00    -0.361 N 
ATOM      2  H2  UNL     1       0.152   0.778   0.644  1.00  0.00     0.162 HD
ENDROOT
BRANCH   1   3
HETATM    3  C3  UNL     1      -1.491   0.509  -0.630  1.00  0.00     0.113 C 
BRANCH   3   4
HETATM    4  C2  UNL     1      -2.286  -0.733  -0.461  1.00  0.00     0.257 C 
BRANCH   4   5
HETATM    5  N1  UNL     1      -2.305  -1.163   0.949  1.00  0.00    -0.077 N 
HETATM    6  C1  UNL     1      -3.120  -2.388   0.963  1.00  0.00     0.267 C 
ATOM      7  H12 UNL     1      -2.629  -0.444   1.596  1.00  0.00     0.276 HD
ATOM      8  H11 UNL     1      -1.378  -1.279   1.358  1.00  0.00     0.276 HD
ENDBRANCH   4   5
ENDBRANCH   3   4
BRANCH   3   9
HETATM    9  C9  UNL     1      -2.096   1.717   0.038  1.00  0.00     0.002 C 
HETATM   10  C10 UNL     1      -1.148   2.889  -0.240  1.00  0.00     0.011 C 
HETATM   11  C11 UNL     1      -3.431   2.095  -0.495  1.00  0.00     0.011 C 
ENDBRANCH   3   9
ENDBRANCH   1   3
BRANCH   1  12
HETATM   12  C4  UNL     1       0.842  -0.508  -0.823  1.00  0.00     0.170 C 
HETATM   13  S1  UNL     1       0.523  -1.309  -2.205  1.00  0.00    -0.041 SA
BRANCH  12  14
HETATM   14  N3  UNL     1       2.129  -0.614  -0.260  1.00  0.00    -0.354 N 
HETATM   15  C5  UNL     1       2.412   0.115   0.956  1.00  0.00     0.151 C 
HETATM   16  C6  UNL     1       3.881   0.079   1.322  1.00  0.00     0.187 C 
HETATM   17  O1  UNL     1       4.320  -1.228   1.151  1.00  0.00    -0.388 OA
HETATM   18  C7  UNL     1       4.431  -1.460  -0.205  1.00  0.00     0.187 C 
HETATM   19  C8  UNL     1       3.117  -1.441  -0.909  1.00  0.00     0.151 C 
ENDBRANCH  12  14
ENDBRANCH   1  12
TORSDOF 6
