REMARK  8 active torsions:
REMARK  status: ('A' for Active; 'I' for Inactive)
REMARK    1  A    between atoms: C2_2  and  C3_3 
REMARK    2  A    between atoms: C3_3  and  C4_4 
REMARK    3  A    between atoms: C5_5  and  C6_6 
REMARK    4  A    between atoms: C6_6  and  N1_7 
REMARK    5  A    between atoms: N2_11  and  C10_12 
REMARK    6  A    between atoms: C10_12  and  C11_13 
REMARK    7  A    between atoms: C11_13  and  O1_14 
REMARK    8  A    between atoms: N3_16  and  O2_18 
ROOT
HETATM    1  N1  UNL     1       0.460  -0.661   0.410  1.00  0.00    -0.041 N 
HETATM    2  C7  UNL     1       0.315   0.334  -0.622  1.00  0.00     0.276 C 
HETATM    3  C8  UNL     1       0.769  -1.949  -0.231  1.00  0.00     0.284 C 
HETATM    4  C9  UNL     1       2.257  -1.759  -0.516  1.00  0.00     0.093 C 
HETATM    5  N2  UNL     1       2.681  -1.066   0.623  1.00  0.00    -0.340 N 
HETATM    6  C12 UNL     1       1.639  -0.363   1.237  1.00  0.00     0.367 C 
ENDROOT
BRANCH   5   7
HETATM    7  C10 UNL     1       4.003  -0.628   0.717  1.00  0.00     0.149 C 
BRANCH   7   8
HETATM    8  C11 UNL     1       4.428   0.436  -0.185  1.00  0.00     0.175 C 
HETATM    9  N3  UNL     1       4.953   1.510   0.300  1.00  0.00    -0.246 N 
ATOM     10  H3  UNL     1       5.055   1.581   1.312  1.00  0.00     0.196 HD
BRANCH   8  11
HETATM   11  O1  UNL     1       4.303   0.366  -1.552  1.00  0.00    -0.344 OA
ATOM     12  H1  UNL     1       4.580   1.059  -2.140  1.00  0.00     0.219 HD
ENDBRANCH   8  11
BRANCH   9  13
HETATM   13  O2  UNL     1       5.379   2.556  -0.466  1.00  0.00    -0.288 OA
ATOM     14  H2  UNL     1       5.766   3.347  -0.109  1.00  0.00     0.244 HD
ENDBRANCH   9  13
ENDBRANCH   7   8
ENDBRANCH   5   7
BRANCH   1  15
HETATM   15  C6  UNL     1      -0.693  -0.842   1.231  1.00  0.00     0.332 C 
BRANCH  15  16
HETATM   16  C5  UNL     1      -1.877  -0.116   0.772  1.00  0.00    -0.079 C 
HETATM   17  C4  UNL     1      -2.860   0.487   0.418  1.00  0.00    -0.105 C 
BRANCH  17  18
HETATM   18  C3  UNL     1      -4.056   1.228   0.022  1.00  0.00     0.093 C 
BRANCH  18  19
HETATM   19  C2  UNL     1      -5.276   0.353   0.174  1.00  0.00     0.007 C 
HETATM   20  C1  UNL     1      -6.470   1.187  -0.242  1.00  0.00     0.006 C 
ENDBRANCH  18  19
ENDBRANCH  17  18
ENDBRANCH  15  16
ENDBRANCH   1  15
TORSDOF 8
