REMARK  4 active torsions:
REMARK  status: ('A' for Active; 'I' for Inactive)
REMARK    1  A    between atoms: C2_2  and  C4_4 
REMARK    2  A    between atoms: C5_5  and  C6_6 
REMARK    3  A    between atoms: C6_6  and  C7_7 
REMARK    4  A    between atoms: C10_13  and  S1_14 
ROOT
HETATM    1  C4  UNL     1      -1.048  -0.332   0.039  1.00  0.00     0.011 A 
HETATM    2  C5  UNL     1      -0.379   0.696   0.875  1.00  0.00     0.010 A 
HETATM    3  C10 UNL     1      -0.572   0.944  -0.549  1.00  0.00     0.088 A 
ENDROOT
BRANCH   2   4
HETATM    4  C6  UNL     1       0.921   0.482   1.560  1.00  0.00     0.039 C 
BRANCH   4   5
HETATM    5  C7  UNL     1       2.085   0.162   0.705  1.00  0.00     0.193 C 
HETATM    6  N1  UNL     1       2.043  -1.022  -0.110  1.00  0.00    -0.122 NA
HETATM    7  N2  UNL     1       3.400  -1.187   0.156  1.00  0.00    -0.267 N 
HETATM    8  C8  UNL     1       4.528  -1.740  -0.545  1.00  0.00     0.176 C 
HETATM    9  C9  UNL     1       3.175  -0.573   1.411  1.00  0.00     0.256 C 
HETATM   10  O1  UNL     1       3.689  -0.653   2.551  1.00  0.00    -0.270 OA
ENDBRANCH   4   5
ENDBRANCH   2   4
BRANCH   1  11
HETATM   11  C2  UNL     1      -2.543  -0.540   0.133  1.00  0.00    -0.017 C 
HETATM   12  C1  UNL     1      -2.990  -1.636  -0.810  1.00  0.00     0.010 C 
HETATM   13  C3  UNL     1      -2.944  -0.947   1.541  1.00  0.00     0.010 C 
ENDBRANCH   1  11
BRANCH   3  14
HETATM   14  S1  UNL     1      -1.794   2.174  -1.035  1.00  0.00     0.016 S 
HETATM   15  C11 UNL     1      -0.866   3.544  -1.685  1.00  0.00     0.127 C 
HETATM   16  O2  UNL     1      -2.687   1.527  -2.326  1.00  0.00    -0.258 OA
ENDBRANCH   3  14
TORSDOF 4
