REMARK  7 active torsions:
REMARK  status: ('A' for Active; 'I' for Inactive)
REMARK    1  A    between atoms: N1_2  and  C2_3 
REMARK    2  A    between atoms: C2_3  and  C3_4 
REMARK    3  A    between atoms: C4_5  and  C5_6 
REMARK    4  A    between atoms: C5_6  and  N2_7 
REMARK    5  A    between atoms: N2_7  and  S1_9 
REMARK    6  A    between atoms: S1_9  and  C6_11 
REMARK    7  A    between atoms: N3_12  and  O2_14 
ROOT
HETATM    1  C5  UNL     1       2.194  -1.590  -0.017  1.00  0.00     0.223 C 
ENDROOT
BRANCH   1   2
HETATM    2  C4  UNL     1       0.843  -1.353  -0.508  1.00  0.00    -0.085 C 
HETATM    3  C3  UNL     1      -0.280  -1.145  -0.900  1.00  0.00    -0.077 C 
BRANCH   3   4
HETATM    4  C2  UNL     1      -1.661  -0.875  -1.361  1.00  0.00     0.330 C 
BRANCH   4   5
HETATM    5  N1  UNL     1      -2.420  -0.310  -0.274  1.00  0.00    -0.061 N 
HETATM    6  C1  UNL     1      -2.949  -1.385   0.519  1.00  0.00     0.273 C 
HETATM    7  C7  UNL     1      -1.537   0.562   0.471  1.00  0.00     0.238 C 
HETATM    8  C8  UNL     1      -2.337   1.745   0.918  1.00  0.00     0.029 C 
HETATM    9  C9  UNL     1      -3.752   1.414   0.455  1.00  0.00     0.029 C 
HETATM   10  C10 UNL     1      -3.434   0.575  -0.789  1.00  0.00     0.238 C 
ENDBRANCH   4   5
ENDBRANCH   3   4
ENDBRANCH   1   2
BRANCH   1  11
HETATM   11  N2  UNL     1       3.140  -0.825  -0.758  1.00  0.00    -0.325 N 
ATOM     12  H2  UNL     1       2.842  -0.213  -1.518  1.00  0.00     0.171 HD
BRANCH  11  13
HETATM   13  S1  UNL     1       4.734  -0.960  -0.347  1.00  0.00     0.154 S 
HETATM   14  O1  UNL     1       5.313  -2.446   0.039  1.00  0.00    -0.230 OA
BRANCH  13  15
HETATM   15  C6  UNL     1       5.483   0.370   0.422  1.00  0.00     0.214 C 
HETATM   16  N3  UNL     1       5.826   1.412  -0.253  1.00  0.00    -0.270 N 
ATOM     17  H3  UNL     1       5.645   1.434  -1.257  1.00  0.00     0.194 HD
BRANCH  16  18
HETATM   18  O2  UNL     1       6.434   2.503   0.346  1.00  0.00    -0.290 OA
ATOM     19  H2  UNL     1       6.687   3.272  -0.152  1.00  0.00     0.244 HD
ENDBRANCH  16  18
ENDBRANCH  13  15
ENDBRANCH  11  13
ENDBRANCH   1  11
TORSDOF 7
