REMARK  7 active torsions:
REMARK  status: ('A' for Active; 'I' for Inactive)
REMARK    1  A    between atoms: C2_2  and  C3_3 
REMARK    2  A    between atoms: C3_3  and  O1_4 
REMARK    3  A    between atoms: N1_10  and  C8_11 
REMARK    4  A    between atoms: C8_11  and  C9_12 
REMARK    5  A    between atoms: C9_12  and  N2_13 
REMARK    6  A    between atoms: N2_13  and  O2_14 
REMARK    7  A    between atoms: N2_13  and  C10_16 
ROOT
HETATM    1  C1  UNL     1      -2.607   1.178  -1.878  1.00  0.00     0.018 C 
HETATM    2  C2  UNL     1      -2.492   0.560  -0.494  1.00  0.00    -0.018 C 
HETATM    3  C4  UNL     1      -2.140  -0.876  -0.543  1.00  0.00     0.023 C 
HETATM    4  C5  UNL     1      -0.944  -0.646   0.357  1.00  0.00    -0.023 C 
HETATM    5  C6  UNL     1      -1.199  -1.232   1.736  1.00  0.00     0.017 C 
HETATM    6  C7  UNL     1       0.366  -1.162  -0.172  1.00  0.00     0.126 C 
HETATM    7  N1  UNL     1       1.333  -0.149  -0.398  1.00  0.00    -0.410 N 
HETATM    8  C11 UNL     1       0.813   0.782  -1.343  1.00  0.00     0.117 C 
HETATM    9  C12 UNL     1      -0.241   1.594  -0.634  1.00  0.00     0.026 C 
HETATM   10  C13 UNL     1      -1.169   0.815   0.200  1.00  0.00     0.007 C 
ENDROOT
BRANCH   7  11
HETATM   11  C8  UNL     1       2.027   0.371   0.718  1.00  0.00     0.139 C 
BRANCH  11  12
HETATM   12  C9  UNL     1       3.024  -0.620   1.318  1.00  0.00     0.178 C 
BRANCH  12  13
HETATM   13  N2  UNL     1       4.035  -0.967   0.320  1.00  0.00    -0.234 N 
BRANCH  13  14
HETATM   14  O2  UNL     1       3.780  -2.026  -0.465  1.00  0.00    -0.285 OA
ATOM     15  H2  UNL     1       4.437  -2.251  -1.113  1.00  0.00     0.245 HD
ENDBRANCH  13  14
BRANCH  13  16
HETATM   16  C10 UNL     1       5.223  -0.213   0.190  1.00  0.00     0.376 C 
HETATM   17  O3  UNL     1       5.380   0.784   0.964  1.00  0.00    -0.281 OA
ENDBRANCH  13  16
ENDBRANCH  12  13
ENDBRANCH  11  12
ENDBRANCH   7  11
BRANCH   2  18
HETATM   18  C3  UNL     1      -3.667   1.002   0.318  1.00  0.00     0.173 C 
BRANCH  18  19
HETATM   19  O1  UNL     1      -3.724   0.536   1.603  1.00  0.00    -0.400 OA
ATOM     20  H1  UNL     1      -4.471   0.817   2.119  1.00  0.00     0.209 HD
ENDBRANCH  18  19
ENDBRANCH   2  18
TORSDOF 7
