REMARK  13 active torsions:
REMARK  status: ('A' for Active; 'I' for Inactive)
REMARK    1  A    between atoms: C2_2  and  C4_4 
REMARK    2  A    between atoms: C4_4  and  C5_5 
REMARK    3  A    between atoms: C7_10  and  C8_11 
REMARK    4  A    between atoms: C8_11  and  C9_12 
REMARK    5  A    between atoms: C13_19  and  C14_20 
REMARK    6  A    between atoms: C14_20  and  C15_21 
REMARK    7  A    between atoms: C19_28  and  C20_29 
REMARK    8  A    between atoms: C20_29  and  C21_30 
REMARK    9  A    between atoms: C24_35  and  O4_36 
REMARK   10  A    between atoms: C25_38  and  C26_39 
REMARK   11  A    between atoms: C26_39  and  C27_40 
REMARK   12  A    between atoms: C31_47  and  C32_48 
REMARK   13  A    between atoms: C32_48  and  C33_49 
ROOT
HETATM    1  C5  UNL     1      -3.339   0.868  -0.239  1.00  0.00     0.154 C 
HETATM    2  N1  UNL     1      -3.191   0.295  -1.550  1.00  0.00    -0.348 N 
ATOM      3  H1  UNL     1      -3.833   0.685  -2.240  1.00  0.00     0.163 HD
HETATM    4  C6  UNL     1      -2.362  -0.668  -2.058  1.00  0.00     0.241 C 
HETATM    5  O1  UNL     1      -1.621  -0.368  -3.061  1.00  0.00    -0.271 OA
HETATM    6  C7  UNL     1      -2.189  -2.101  -1.583  1.00  0.00     0.177 C 
HETATM    7  N2  UNL     1      -1.038  -2.668  -2.236  1.00  0.00    -0.346 N 
ATOM      8  H2  UNL     1      -1.232  -3.205  -3.081  1.00  0.00     0.163 HD
HETATM    9  C12 UNL     1       0.299  -2.584  -1.873  1.00  0.00     0.241 C 
HETATM   10  O2  UNL     1       1.114  -2.259  -2.822  1.00  0.00    -0.271 OA
HETATM   11  C13 UNL     1       0.937  -2.817  -0.536  1.00  0.00     0.177 C 
HETATM   12  N3  UNL     1       0.911  -1.624   0.270  1.00  0.00    -0.346 N 
ATOM     13  H3  UNL     1       0.027  -1.441   0.744  1.00  0.00     0.163 HD
HETATM   14  C18 UNL     1       1.917  -0.678   0.501  1.00  0.00     0.241 C 
HETATM   15  O3  UNL     1       1.947  -0.195   1.696  1.00  0.00    -0.271 OA
HETATM   16  C19 UNL     1       2.944  -0.141  -0.390  1.00  0.00     0.175 C 
HETATM   17  N4  UNL     1       3.601   1.050   0.152  1.00  0.00    -0.359 N 
ATOM     18  H4  UNL     1       4.561   1.192  -0.163  1.00  0.00     0.162 HD
HETATM   19  C24 UNL     1       3.126   2.010   1.022  1.00  0.00     0.135 C 
HETATM   20  C25 UNL     1       2.029   2.999   0.859  1.00  0.00     0.159 C 
HETATM   21  N5  UNL     1       1.475   2.994  -0.475  1.00  0.00    -0.349 N 
ATOM     22  H5  UNL     1       2.133   2.897  -1.248  1.00  0.00     0.163 HD
HETATM   23  C30 UNL     1       0.105   3.111  -0.811  1.00  0.00     0.223 C 
HETATM   24  O5  UNL     1      -0.296   2.471  -1.851  1.00  0.00    -0.273 OA
HETATM   25  C31 UNL     1      -0.913   3.886  -0.101  1.00  0.00     0.093 C 
HETATM   26  C34 UNL     1      -2.278   3.195  -0.211  1.00  0.00     0.095 C 
HETATM   27  C35 UNL     1      -2.168   1.744   0.092  1.00  0.00     0.150 C 
HETATM   28  O7  UNL     1      -1.181   1.230   0.594  1.00  0.00    -0.296 OA
ENDROOT
BRANCH   1  29
HETATM   29  C4  UNL     1      -3.526  -0.079   0.893  1.00  0.00     0.037 C 
BRANCH  29  30
HETATM   30  C2  UNL     1      -3.698   0.786   2.159  1.00  0.00    -0.020 C 
HETATM   31  C1  UNL     1      -3.885  -0.186   3.297  1.00  0.00     0.009 C 
HETATM   32  C3  UNL     1      -5.013   1.548   1.965  1.00  0.00     0.009 C 
ENDBRANCH  29  30
ENDBRANCH   1  29
BRANCH   6  33
HETATM   33  C8  UNL     1      -3.478  -2.810  -1.848  1.00  0.00     0.038 C 
BRANCH  33  34
HETATM   34  C9  UNL     1      -3.653  -4.216  -1.489  1.00  0.00    -0.020 C 
HETATM   35  C10 UNL     1      -2.735  -5.151  -2.204  1.00  0.00     0.009 C 
HETATM   36  C11 UNL     1      -5.102  -4.592  -1.890  1.00  0.00     0.009 C 
ENDBRANCH  33  34
ENDBRANCH   6  33
BRANCH  25  37
HETATM   37  C32 UNL     1      -1.059   5.317  -0.501  1.00  0.00     0.114 C 
BRANCH  37  38
HETATM   38  C33 UNL     1      -1.412   5.606  -1.875  1.00  0.00     0.232 C 
HETATM   39  N6  UNL     1      -1.541   6.982  -2.258  1.00  0.00    -0.062 NA
HETATM   40  O6  UNL     1      -1.620   4.774  -2.774  1.00  0.00    -0.277 OA
ENDBRANCH  37  38
ENDBRANCH  25  37
BRANCH  11  41
HETATM   41  C14 UNL     1       0.346  -4.031   0.124  1.00  0.00     0.038 C 
BRANCH  41  42
HETATM   42  C15 UNL     1       0.860  -4.434   1.446  1.00  0.00    -0.020 C 
HETATM   43  C16 UNL     1       0.074  -5.719   1.835  1.00  0.00     0.009 C 
HETATM   44  C17 UNL     1       0.610  -3.477   2.578  1.00  0.00     0.009 C 
ENDBRANCH  41  42
ENDBRANCH  11  41
BRANCH  20  45
HETATM   45  C26 UNL     1       2.377   4.349   1.349  1.00  0.00     0.037 C 
BRANCH  45  46
HETATM   46  C27 UNL     1       3.482   5.101   0.759  1.00  0.00    -0.020 C 
HETATM   47  C28 UNL     1       4.858   4.553   0.803  1.00  0.00     0.009 C 
HETATM   48  C29 UNL     1       3.226   5.573  -0.665  1.00  0.00     0.009 C 
ENDBRANCH  45  46
ENDBRANCH  20  45
BRANCH  19  49
HETATM   49  O4  UNL     1       3.692   2.116   2.190  1.00  0.00    -0.348 OA
ATOM     50  H4  UNL     1       3.365   2.777   2.789  1.00  0.00     0.219 HD
ENDBRANCH  19  49
BRANCH  16  51
HETATM   51  C20 UNL     1       4.029  -1.075  -0.834  1.00  0.00     0.038 C 
BRANCH  51  52
HETATM   52  C21 UNL     1       4.913  -1.690   0.147  1.00  0.00    -0.020 C 
HETATM   53  C22 UNL     1       4.410  -2.559   1.218  1.00  0.00     0.009 C 
HETATM   54  C23 UNL     1       5.933  -2.533  -0.651  1.00  0.00     0.009 C 
ENDBRANCH  51  52
ENDBRANCH  16  51
TORSDOF 13
