REMARK  13 active torsions:
REMARK  status: ('A' for Active; 'I' for Inactive)
REMARK    1  A    between atoms: C2_2  and  C4_4 
REMARK    2  A    between atoms: C4_4  and  C5_5 
REMARK    3  A    between atoms: C7_10  and  C8_11 
REMARK    4  A    between atoms: C8_11  and  C9_12 
REMARK    5  A    between atoms: C11_19  and  C12_20 
REMARK    6  A    between atoms: C12_20  and  C13_21 
REMARK    7  A    between atoms: C17_28  and  C18_29 
REMARK    8  A    between atoms: C18_29  and  C19_30 
REMARK    9  A    between atoms: C23_37  and  C24_38 
REMARK   10  A    between atoms: C24_38  and  C25_39 
REMARK   11  A    between atoms: C29_46  and  C30_47 
REMARK   12  A    between atoms: C30_47  and  C31_48 
REMARK   13  A    between atoms: C34_53  and  O7_54 
ROOT
HETATM    1  C5  UNL     1       2.236  -1.713  -0.001  1.00  0.00     0.159 C 
HETATM    2  N1  UNL     1       2.426  -2.914   0.780  1.00  0.00    -0.347 N 
ATOM      3  H1  UNL     1       3.391  -3.164   0.996  1.00  0.00     0.163 HD
HETATM    4  C6  UNL     1       1.438  -3.773   1.274  1.00  0.00     0.241 C 
HETATM    5  O1  UNL     1       1.665  -5.015   1.266  1.00  0.00    -0.271 OA
HETATM    6  C7  UNL     1       0.115  -3.381   1.824  1.00  0.00     0.185 C 
HETATM    7  N3  UNL     1      -0.856  -4.247   1.153  1.00  0.00    -0.346 N 
ATOM      8  H3  UNL     1      -0.618  -5.234   1.060  1.00  0.00     0.163 HD
HETATM    9  C10 UNL     1      -2.085  -3.829   0.629  1.00  0.00     0.241 C 
HETATM   10  O3  UNL     1      -3.138  -4.541   0.765  1.00  0.00    -0.271 OA
HETATM   11  C11 UNL     1      -2.263  -2.555  -0.111  1.00  0.00     0.177 C 
HETATM   12  N4  UNL     1      -3.481  -1.850   0.277  1.00  0.00    -0.346 N 
ATOM     13  H4  UNL     1      -4.248  -2.396   0.669  1.00  0.00     0.163 HD
HETATM   14  C16 UNL     1      -3.660  -0.455   0.141  1.00  0.00     0.244 C 
HETATM   15  O4  UNL     1      -4.781  -0.084  -0.338  1.00  0.00    -0.271 OA
HETATM   16  C17 UNL     1      -2.632   0.584   0.518  1.00  0.00     0.200 C 
HETATM   17  N5  UNL     1      -2.183   1.292  -0.651  1.00  0.00    -0.343 N 
ATOM     18  H5  UNL     1      -2.860   1.296  -1.414  1.00  0.00     0.163 HD
HETATM   19  C22 UNL     1      -1.004   1.973  -0.944  1.00  0.00     0.241 C 
HETATM   20  O5  UNL     1      -0.346   1.627  -2.003  1.00  0.00    -0.271 OA
HETATM   21  C23 UNL     1      -0.351   3.082  -0.208  1.00  0.00     0.177 C 
HETATM   22  N6  UNL     1       0.606   2.701   0.783  1.00  0.00    -0.346 N 
ATOM     23  H6  UNL     1       0.459   3.155   1.684  1.00  0.00     0.163 HD
HETATM   24  C28 UNL     1       1.688   1.845   0.770  1.00  0.00     0.241 C 
HETATM   25  O6  UNL     1       1.731   0.952   1.706  1.00  0.00    -0.271 OA
HETATM   26  C29 UNL     1       2.839   1.772  -0.152  1.00  0.00     0.175 C 
HETATM   27  N7  UNL     1       3.567   0.526  -0.080  1.00  0.00    -0.359 N 
ATOM     28  H7  UNL     1       4.501   0.584  -0.486  1.00  0.00     0.162 HD
HETATM   29  C34 UNL     1       3.272  -0.716   0.417  1.00  0.00     0.135 C 
ENDROOT
BRANCH   1  30
HETATM   30  C4  UNL     1       2.328  -2.038  -1.459  1.00  0.00     0.037 C 
BRANCH  30  31
HETATM   31  C2  UNL     1       3.591  -2.590  -1.983  1.00  0.00    -0.020 C 
HETATM   32  C1  UNL     1       3.448  -2.819  -3.512  1.00  0.00     0.009 C 
HETATM   33  C3  UNL     1       4.035  -3.924  -1.451  1.00  0.00     0.009 C 
ENDBRANCH  30  31
ENDBRANCH   1  30
BRANCH  29  34
HETATM   34  O7  UNL     1       4.020  -1.085   1.416  1.00  0.00    -0.348 OA
ATOM     35  H7  UNL     1       4.677  -0.452   1.681  1.00  0.00     0.219 HD
ENDBRANCH  29  34
BRANCH   6  36
HETATM   36  C8  UNL     1       0.047  -3.829   3.291  1.00  0.00     0.134 C 
BRANCH  36  37
HETATM   37  C9  UNL     1       1.069  -3.234   4.138  1.00  0.00     0.233 C 
HETATM   38  N2  UNL     1       1.142  -3.565   5.514  1.00  0.00    -0.062 NA
HETATM   39  O2  UNL     1       1.911  -2.423   3.699  1.00  0.00    -0.277 OA
ENDBRANCH  36  37
ENDBRANCH   6  36
BRANCH  26  40
HETATM   40  C30 UNL     1       3.750   2.958  -0.117  1.00  0.00     0.038 C 
BRANCH  40  41
HETATM   41  C31 UNL     1       4.434   3.344   1.105  1.00  0.00    -0.020 C 
HETATM   42  C32 UNL     1       3.654   3.705   2.312  1.00  0.00     0.009 C 
HETATM   43  C33 UNL     1       5.525   2.358   1.551  1.00  0.00     0.009 C 
ENDBRANCH  40  41
ENDBRANCH  26  40
BRANCH  11  44
HETATM   44  C12 UNL     1      -2.137  -2.728  -1.589  1.00  0.00     0.038 C 
BRANCH  44  45
HETATM   45  C13 UNL     1      -3.093  -3.663  -2.233  1.00  0.00    -0.020 C 
HETATM   46  C14 UNL     1      -2.742  -3.658  -3.732  1.00  0.00     0.009 C 
HETATM   47  C15 UNL     1      -4.542  -3.230  -2.180  1.00  0.00     0.009 C 
ENDBRANCH  44  45
ENDBRANCH  11  44
BRANCH  21  48
HETATM   48  C24 UNL     1       0.246   4.092  -1.209  1.00  0.00     0.038 C 
BRANCH  48  49
HETATM   49  C25 UNL     1      -0.839   4.652  -2.090  1.00  0.00    -0.020 C 
HETATM   50  C26 UNL     1      -1.920   5.376  -1.341  1.00  0.00     0.009 C 
HETATM   51  C27 UNL     1      -0.139   5.696  -2.976  1.00  0.00     0.009 C 
ENDBRANCH  48  49
ENDBRANCH  21  48
BRANCH  16  52
HETATM   52  C18 UNL     1      -2.947   1.360   1.718  1.00  0.00     0.010 C 
BRANCH  52  53
HETATM   53  C19 UNL     1      -4.141   2.186   1.877  1.00  0.00    -0.089 C 
HETATM   54  C20 UNL     1      -4.354   3.301   0.895  1.00  0.00     0.042 C 
HETATM   55  C21 UNL     1      -5.417   1.461   2.247  1.00  0.00     0.042 C 
ENDBRANCH  52  53
ENDBRANCH  16  52
TORSDOF 13
