REMARK  5 active torsions:
REMARK  status: ('A' for Active; 'I' for Inactive)
REMARK    1  A    between atoms: O1_1  and  C1_3 
REMARK    2  A    between atoms: C1_3  and  C2_4 
REMARK    3  A    between atoms: C2_4  and  N1_5 
REMARK    4  A    between atoms: C2_4  and  C10_15 
REMARK    5  A    between atoms: N1_5  and  C3_7 
ROOT
HETATM    1  N1  UNL     1       0.401  -0.693   0.702  1.00  0.00    -0.408 N 
ATOM      2  H1  UNL     1       0.537  -0.973   1.673  1.00  0.00     0.154 HD
ENDROOT
BRANCH   1   3
HETATM    3  C2  UNL     1       1.374  -1.064  -0.221  1.00  0.00     0.104 C 
BRANCH   3   4
HETATM    4  C1  UNL     1       2.020  -2.344   0.364  1.00  0.00     0.189 C 
BRANCH   4   5
HETATM    5  O1  UNL     1       3.030  -2.795  -0.506  1.00  0.00    -0.399 OA
ATOM      6  H1  UNL     1       3.426  -3.580  -0.147  1.00  0.00     0.209 HD
ENDBRANCH   4   5
ENDBRANCH   3   4
BRANCH   3   7
HETATM    7  C10 UNL     1       2.514  -0.145  -0.466  1.00  0.00     0.010 C 
HETATM    8  C11 UNL     1       2.266   1.198  -1.045  1.00  0.00     0.007 C 
HETATM    9  C12 UNL     1       3.279   1.767  -0.067  1.00  0.00     0.001 C 
HETATM   10  C13 UNL     1       3.001   0.535   0.796  1.00  0.00     0.007 C 
ENDBRANCH   3   7
ENDBRANCH   1   3
BRANCH   1  11
HETATM   11  C3  UNL     1      -0.736   0.028   0.395  1.00  0.00     0.111 C 
HETATM   12  C4  UNL     1      -1.767  -0.215   1.503  1.00  0.00     0.297 C 
HETATM   13  N2  UNL     1      -3.007  -0.506   0.855  1.00  0.00     0.090 N 
HETATM   14  C5  UNL     1      -3.672   0.735   0.574  1.00  0.00     0.272 C 
HETATM   15  C9  UNL     1      -2.640  -1.174  -0.388  1.00  0.00     0.279 C 
HETATM   16  C6  UNL     1      -2.882   1.692  -0.251  1.00  0.00     0.031 C 
HETATM   17  C7  UNL     1      -2.143   0.989  -1.358  1.00  0.00     0.010 C 
HETATM   18  C8  UNL     1      -1.487  -0.277  -0.837  1.00  0.00     0.038 C 
ENDBRANCH   1  11
TORSDOF 5
