REMARK  6 active torsions:
REMARK  status: ('A' for Active; 'I' for Inactive)
REMARK    1  A    between atoms: C2_2  and  C3_3 
REMARK    2  A    between atoms: C3_3  and  N1_4 
REMARK    3  A    between atoms: C8_9  and  O1_10 
REMARK    4  A    between atoms: N2_13  and  C10_14 
REMARK    5  A    between atoms: C10_14  and  C11_15 
REMARK    6  A    between atoms: C11_15  and  O2_16 
ROOT
HETATM    1  N1  UNL     1      -0.781   0.095  -0.823  1.00  0.00    -0.345 N 
HETATM    2  C4  UNL     1      -1.503   1.138  -0.248  1.00  0.00     0.075 C 
HETATM    3  C5  UNL     1      -1.064   1.315   1.184  1.00  0.00     0.062 C 
HETATM    4  C6  UNL     1       0.037   2.318   1.348  1.00  0.00     0.018 C 
HETATM    5  C7  UNL     1       1.109   2.292   0.351  1.00  0.00     0.036 C 
HETATM    6  C8  UNL     1       1.328   1.126  -0.501  1.00  0.00     0.161 C 
HETATM    7  C9  UNL     1       0.515  -0.112  -0.235  1.00  0.00     0.218 C 
HETATM    8  N2  UNL     1       0.447  -0.499   1.130  1.00  0.00    -0.367 N 
HETATM    9  C12 UNL     1      -0.618   0.047   1.866  1.00  0.00     0.070 C 
ENDROOT
BRANCH   8  10
HETATM   10  C10 UNL     1       0.948  -1.776   1.481  1.00  0.00     0.150 C 
BRANCH  10  11
HETATM   11  C11 UNL     1       2.477  -1.721   1.334  1.00  0.00     0.183 C 
BRANCH  11  12
HETATM   12  O2  UNL     1       2.998  -2.946   1.660  1.00  0.00    -0.399 OA
ATOM     13  H2  UNL     1       3.943  -2.912   1.569  1.00  0.00     0.209 HD
ENDBRANCH  11  12
ENDBRANCH  10  11
ENDBRANCH   8  10
BRANCH   1  14
HETATM   14  C3  UNL     1      -1.145  -0.579  -1.960  1.00  0.00     0.091 C 
BRANCH  14  15
HETATM   15  C2  UNL     1      -2.343  -1.469  -1.928  1.00  0.00     0.007 C 
HETATM   16  C1  UNL     1      -3.091  -1.656  -0.856  1.00  0.00     0.012 C 
ENDBRANCH  14  15
ENDBRANCH   1  14
BRANCH   6  17
HETATM   17  O1  UNL     1       1.103   1.441  -1.867  1.00  0.00    -0.392 OA
ATOM     18  H1  UNL     1       1.245   0.683  -2.421  1.00  0.00     0.210 HD
ENDBRANCH   6  17
TORSDOF 6
