REMARK  6 active torsions:
REMARK  status: ('A' for Active; 'I' for Inactive)
REMARK    1  A    between atoms: N2_6  and  C5_7 
REMARK    2  A    between atoms: C5_7  and  C6_8 
REMARK    3  A    between atoms: C6_8  and  C7_9 
REMARK    4  A    between atoms: C7_9  and  C8_10 
REMARK    5  A    between atoms: C8_10  and  N3_11 
REMARK    6  A    between atoms: C11_14  and  O1_15 
ROOT
HETATM    1  C7  UNL     1       0.380   0.405   0.589  1.00  0.00     0.021 C 
ENDROOT
BRANCH   1   2
HETATM    2  C6  UNL     1      -0.224  -0.086  -0.709  1.00  0.00     0.017 C 
BRANCH   2   3
HETATM    3  C5  UNL     1      -1.424   0.755  -1.077  1.00  0.00     0.096 C 
BRANCH   3   4
HETATM    4  N2  UNL     1      -2.446   0.684  -0.050  1.00  0.00    -0.279 NA
HETATM    5  C4  UNL     1      -3.586   1.513  -0.367  1.00  0.00     0.098 C 
HETATM    6  C3  UNL     1      -4.606   0.826  -1.234  1.00  0.00     0.035 C 
HETATM    7  C2  UNL     1      -5.076  -0.482  -0.641  1.00  0.00     0.123 C 
HETATM    8  N1  UNL     1      -4.214  -0.905   0.424  1.00  0.00    -0.385 N 
HETATM    9  C1  UNL     1      -4.679  -0.618   1.741  1.00  0.00     0.149 C 
HETATM   10  C14 UNL     1      -2.816  -0.690   0.201  1.00  0.00     0.148 C 
ENDBRANCH   3   4
ENDBRANCH   2   3
ENDBRANCH   1   2
BRANCH   1  11
HETATM   11  C8  UNL     1       1.588  -0.422   0.988  1.00  0.00     0.127 C 
BRANCH  11  12
HETATM   12  N3  UNL     1       2.558  -0.314  -0.061  1.00  0.00    -0.374 N 
HETATM   13  C9  UNL     1       3.155   0.947  -0.225  1.00  0.00     0.065 C 
HETATM   14  C10 UNL     1       4.649   0.950  -0.416  1.00  0.00     0.076 C 
HETATM   15  C11 UNL     1       5.200  -0.147   0.501  1.00  0.00     0.127 C 
HETATM   16  C12 UNL     1       4.760  -1.447  -0.128  1.00  0.00     0.076 C 
HETATM   17  C13 UNL     1       3.291  -1.480  -0.348  1.00  0.00     0.065 C 
BRANCH  15  18
HETATM   18  O1  UNL     1       6.565  -0.051   0.635  1.00  0.00    -0.395 OA
ATOM     19  H1  UNL     1       6.907  -0.731   1.204  1.00  0.00     0.210 HD
ENDBRANCH  15  18
ENDBRANCH  11  12
ENDBRANCH   1  11
TORSDOF 6
