REMARK  5 active torsions:
REMARK  status: ('A' for Active; 'I' for Inactive)
REMARK    1  A    between atoms: N1_6  and  C6_7 
REMARK    2  A    between atoms: C6_7  and  C7_8 
REMARK    3  A    between atoms: C7_8  and  N2_9 
REMARK    4  A    between atoms: N3_12  and  C10_13 
REMARK    5  A    between atoms: C10_13  and  C11_14 
ROOT
HETATM    1  N2  UNL     1       1.261  -0.790   0.567  1.00  0.00     0.093 N 
HETATM    2  C8  UNL     1       2.012  -1.725  -0.277  1.00  0.00     0.302 C 
HETATM    3  C9  UNL     1       3.469  -1.646   0.083  1.00  0.00     0.303 C 
HETATM    4  N3  UNL     1       3.992  -0.431  -0.521  1.00  0.00     0.096 N 
HETATM    5  C12 UNL     1       2.977   0.623  -0.469  1.00  0.00     0.303 C 
HETATM    6  C13 UNL     1       2.074   0.401   0.751  1.00  0.00     0.302 C 
ENDROOT
BRANCH   1   7
HETATM    7  C7  UNL     1      -0.014  -0.505  -0.061  1.00  0.00     0.302 C 
BRANCH   7   8
HETATM    8  C6  UNL     1      -0.953   0.307   0.767  1.00  0.00     0.302 C 
BRANCH   8   9
HETATM    9  N1  UNL     1      -2.205   0.573   0.089  1.00  0.00     0.090 N 
HETATM   10  C5  UNL     1      -3.074   1.281   0.968  1.00  0.00     0.272 C 
HETATM   11  C4  UNL     1      -3.933   0.230   1.676  1.00  0.00     0.031 C 
HETATM   12  C3  UNL     1      -4.953  -0.209   0.621  1.00  0.00     0.007 C 
HETATM   13  C2  UNL     1      -4.260  -0.517  -0.689  1.00  0.00     0.010 C 
HETATM   14  C1  UNL     1      -4.677   0.444  -1.788  1.00  0.00     0.011 C 
HETATM   15  C14 UNL     1      -2.759  -0.573  -0.532  1.00  0.00     0.276 C 
ENDBRANCH   8   9
ENDBRANCH   7   8
ENDBRANCH   1   7
BRANCH   4  16
HETATM   16  C10 UNL     1       5.178   0.038   0.140  1.00  0.00     0.316 C 
BRANCH  16  17
HETATM   17  C11 UNL     1       5.677   1.238  -0.580  1.00  0.00     0.083 C 
HETATM   18  N4  UNL     1       6.753   1.850  -0.242  1.00  0.00    -0.410 N 
ATOM     19  H42 UNL     1       7.275   1.485   0.555  1.00  0.00     0.155 HD
ATOM     20  H41 UNL     1       7.096   2.674  -0.736  1.00  0.00     0.155 HD
ENDBRANCH  16  17
ENDBRANCH   4  16
TORSDOF 5
