REMARK  4 active torsions:
REMARK  status: ('A' for Active; 'I' for Inactive)
REMARK    1  A    between atoms: C2_2  and  C3_4 
REMARK    2  A    between atoms: C5_6  and  C6_7 
REMARK    3  A    between atoms: C6_7  and  N1_8 
REMARK    4  A    between atoms: N1_8  and  C7_10 
ROOT
HETATM    1  C3  UNL     1      -0.998  -0.450  -0.757  1.00  0.00     0.056 C 
HETATM    2  C4  UNL     1      -0.254  -1.235   0.309  1.00  0.00     0.018 C 
HETATM    3  C5  UNL     1       0.820  -0.145   0.210  1.00  0.00     0.005 C 
HETATM    4  C8  UNL     1       0.395  -0.029  -1.255  1.00  0.00     0.018 C 
ENDROOT
BRANCH   3   5
HETATM    5  C6  UNL     1       2.170  -0.767   0.418  1.00  0.00     0.124 C 
BRANCH   5   6
HETATM    6  N1  UNL     1       3.252   0.155   0.347  1.00  0.00    -0.390 N 
ATOM      7  H1  UNL     1       4.202  -0.158   0.546  1.00  0.00     0.159 HD
BRANCH   6   8
HETATM    8  C7  UNL     1       3.037   1.364   0.037  1.00  0.00     0.165 C 
HETATM    9  S1  UNL     1       3.086   2.948  -0.088  1.00  0.00    -0.075 SA
ENDBRANCH   6   8
ENDBRANCH   5   6
ENDBRANCH   3   5
BRANCH   1  10
HETATM   10  C2  UNL     1      -1.764   0.700  -0.257  1.00  0.00     0.127 C 
HETATM   11  C1  UNL     1      -2.855   0.557   0.729  1.00  0.00     0.091 C 
HETATM   12  O1  UNL     1      -1.490   1.808  -0.671  1.00  0.00    -0.298 OA
ENDBRANCH   1  10
TORSDOF 4
