REMARK  3 active torsions:
REMARK  status: ('A' for Active; 'I' for Inactive)
REMARK    1  A    between atoms: C2_3  and  C3_4 
REMARK    2  A    between atoms: C3_4  and  C4_5 
REMARK    3  A    between atoms: C4_5  and  C5_6 
ROOT
HETATM    1  N1  UNL     1       4.910   1.076   1.463  1.00  0.00    -0.197 NA
HETATM    2  C1  UNL     1       3.961   0.863   0.842  1.00  0.00     0.059 C 
HETATM    3  C2  UNL     1       2.772   0.604   0.036  1.00  0.00     0.124 C 
ENDROOT
BRANCH   3   4
HETATM    4  C3  UNL     1       2.128  -0.723   0.404  1.00  0.00     0.017 C 
BRANCH   4   5
HETATM    5  C4  UNL     1       0.917  -0.963  -0.434  1.00  0.00     0.033 C 
BRANCH   5   6
HETATM    6  C5  UNL     1      -0.148   0.079  -0.291  1.00  0.00     0.132 C 
HETATM    7  C6  UNL     1      -1.282  -0.362  -1.227  1.00  0.00     0.033 C 
HETATM    8  C7  UNL     1      -2.549   0.403  -0.933  1.00  0.00     0.012 C 
HETATM    9  C8  UNL     1      -2.977  -0.001   0.480  1.00  0.00     0.111 C 
HETATM   10  C9  UNL     1      -1.906   0.505   1.387  1.00  0.00     0.259 C 
HETATM   11  O1  UNL     1      -2.215   1.135   2.448  1.00  0.00    -0.265 OA
HETATM   12  O2  UNL     1      -0.592   0.258   1.022  1.00  0.00    -0.316 OA
ENDBRANCH   5   6
ENDBRANCH   4   5
ENDBRANCH   3   4
TORSDOF 3
