REMARK  2 active torsions:
REMARK  status: ('A' for Active; 'I' for Inactive)
REMARK    1  A    between atoms: C5_5  and  C6_6 
REMARK    2  A    between atoms: C6_6  and  C7_7 
ROOT
HETATM    1  C7  UNL     1       2.906   0.256  -0.352  1.00  0.00     0.126 C 
HETATM    2  C8  UNL     1       4.187  -0.405  -0.110  1.00  0.00     0.059 C 
HETATM    3  N1  UNL     1       5.205  -0.922   0.070  1.00  0.00    -0.197 NA
ENDROOT
BRANCH   1   4
HETATM    4  C6  UNL     1       1.898  -0.088   0.726  1.00  0.00     0.049 C 
BRANCH   4   5
HETATM    5  C5  UNL     1       0.572   0.596   0.476  1.00  0.00     0.161 C 
HETATM    6  C4  UNL     1       0.031   0.159  -0.833  1.00  0.00     0.038 C 
HETATM    7  C3  UNL     1      -1.402  -0.214  -0.851  1.00  0.00     0.037 C 
HETATM    8  C2  UNL     1      -2.067  -0.265   0.483  1.00  0.00     0.156 C 
HETATM    9  C1  UNL     1      -3.550  -0.122   0.339  1.00  0.00     0.042 C 
HETATM   10  O2  UNL     1      -1.497   0.672   1.337  1.00  0.00    -0.236 OA
HETATM   11  O1  UNL     1      -0.256   0.250   1.561  1.00  0.00    -0.235 OA
ENDBRANCH   4   5
ENDBRANCH   1   4
TORSDOF 2
