REMARK  5 active torsions:
REMARK  status: ('A' for Active; 'I' for Inactive)
REMARK    1  A    between atoms: C2_2  and  C3_3 
REMARK    2  A    between atoms: C2_2  and  C9_10 
REMARK    3  A    between atoms: C9_10  and  O1_12 
REMARK    4  A    between atoms: C9_10  and  C11_14 
REMARK    5  A    between atoms: N3_20  and  C13_21 
ROOT
HETATM    1  C11 UNL     1       0.859   0.032   1.016  1.00  0.00     0.141 A 
HETATM    2  N1  UNL     1       0.383   0.096   2.271  1.00  0.00    -0.285 N 
ATOM      3  H1  UNL     1      -0.440  -0.392   2.624  1.00  0.00     0.188 HD
HETATM    4  N2  UNL     1       1.155   0.889   2.960  1.00  0.00    -0.294 N 
ATOM      5  H2  UNL     1       1.030   1.125   3.944  1.00  0.00     0.187 HD
HETATM    6  C12 UNL     1       2.135   1.343   2.176  1.00  0.00     0.208 A 
HETATM    7  N3  UNL     1       1.933   0.787   0.946  1.00  0.00    -0.272 N 
ENDROOT
BRANCH   1   8
HETATM    8  C9  UNL     1       0.272  -0.694  -0.154  1.00  0.00     0.121 C 
HETATM    9  C10 UNL     1       1.150  -1.959  -0.299  1.00  0.00     0.055 C 
BRANCH   8  10
HETATM   10  C2  UNL     1      -1.120  -1.178   0.065  1.00  0.00     0.056 C 
HETATM   11  C1  UNL     1      -1.277  -2.014   1.335  1.00  0.00     0.018 C 
BRANCH  10  12
HETATM   12  C3  UNL     1      -2.226  -0.217  -0.107  1.00  0.00    -0.051 A 
HETATM   13  C4  UNL     1      -2.310   1.053   0.367  1.00  0.00     0.009 A 
HETATM   14  C5  UNL     1      -3.446   1.845   0.182  1.00  0.00     0.019 A 
HETATM   15  C6  UNL     1      -4.540   1.393  -0.487  1.00  0.00     0.011 A 
HETATM   16 BR1  UNL     1      -6.074   2.529  -0.705  1.00  0.00    -0.051 Br
HETATM   17  C7  UNL     1      -4.487   0.115  -0.984  1.00  0.00     0.019 A 
HETATM   18  C8  UNL     1      -3.364  -0.650  -0.790  1.00  0.00     0.009 A 
ENDBRANCH  10  12
ENDBRANCH   8  10
BRANCH   8  19
HETATM   19  O1  UNL     1       0.364   0.056  -1.281  1.00  0.00    -0.382 OA
ATOM     20  H1  UNL     1       1.252   0.365  -1.421  1.00  0.00     0.211 HD
ENDBRANCH   8  19
ENDBRANCH   1   8
BRANCH   7  21
HETATM   21  C13 UNL     1       2.864   1.040  -0.129  1.00  0.00     0.159 A 
HETATM   22  C14 UNL     1       4.046   0.293  -0.208  1.00  0.00     0.062 A 
HETATM   23  C15 UNL     1       4.730   0.731  -1.302  1.00  0.00     0.073 A 
HETATM   24  C16 UNL     1       3.950   1.741  -1.869  1.00  0.00     0.231 A 
HETATM   25  F1  UNL     1       4.325   2.411  -2.976  1.00  0.00    -0.178 F 
HETATM   26  O2  UNL     1       2.869   1.857  -1.111  1.00  0.00    -0.266 OA
ENDBRANCH   7  21
TORSDOF 5
