REMARK  4 active torsions:
REMARK  status: ('A' for Active; 'I' for Inactive)
REMARK    1  A    between atoms: C2_2  and  C4_4 
REMARK    2  A    between atoms: C6_6  and  C7_7 
REMARK    3  A    between atoms: N1_10  and  C10_11 
REMARK    4  A    between atoms: N2_21  and  C18_22 
ROOT
HETATM    1  C4  UNL     1      -3.637   0.937  -0.271  1.00  0.00     0.032 A 
HETATM    2  C5  UNL     1      -2.343   0.763  -0.684  1.00  0.00     0.054 A 
HETATM    3  C6  UNL     1      -1.969  -0.544  -0.420  1.00  0.00     0.042 A 
HETATM    4  N2  UNL     1      -3.030  -1.144   0.143  1.00  0.00    -0.241 N 
HETATM    5  N6  UNL     1      -4.016  -0.238   0.224  1.00  0.00    -0.296 N 
ATOM      6  H6  UNL     1      -4.939  -0.426   0.615  1.00  0.00     0.187 HD
ENDROOT
BRANCH   3   7
HETATM    7  C7  UNL     1      -0.623  -1.118  -0.715  1.00  0.00     0.041 C 
HETATM    8  C8  UNL     1       0.266  -0.053  -1.295  1.00  0.00     0.030 C 
HETATM    9  C9  UNL     1       0.815   0.773  -0.141  1.00  0.00     0.118 C 
HETATM   10  N1  UNL     1       1.878   0.055   0.465  1.00  0.00    -0.408 N 
HETATM   11  C16 UNL     1       1.572  -1.355   0.474  1.00  0.00     0.118 C 
HETATM   12  C17 UNL     1       0.076  -1.574   0.560  1.00  0.00     0.030 C 
BRANCH  10  13
HETATM   13  C10 UNL     1       3.199   0.418   0.208  1.00  0.00     0.079 C 
HETATM   14  C11 UNL     1       4.163  -0.753   0.239  1.00  0.00     0.030 C 
HETATM   15  C12 UNL     1       5.596  -0.223   0.331  1.00  0.00     0.081 C 
HETATM   16  C13 UNL     1       5.913   0.742  -0.772  1.00  0.00     0.243 C 
HETATM   17  F1  UNL     1       6.122   0.080  -1.958  1.00  0.00    -0.206 F 
HETATM   18  F2  UNL     1       7.068   1.428  -0.376  1.00  0.00    -0.206 F 
HETATM   19  C14 UNL     1       4.836   1.775  -0.958  1.00  0.00     0.081 C 
HETATM   20  C15 UNL     1       3.462   1.138  -1.086  1.00  0.00     0.030 C 
ENDBRANCH  10  13
ENDBRANCH   3   7
BRANCH   4  21
HETATM   21  C18 UNL     1      -3.125  -2.495   0.587  1.00  0.00     0.157 A 
HETATM   22  C19 UNL     1      -3.630  -3.523  -0.161  1.00  0.00     0.156 A 
HETATM   23  N3  UNL     1      -3.568  -4.658   0.603  1.00  0.00    -0.292 N 
HETATM   24  N4  UNL     1      -3.040  -4.325   1.781  1.00  0.00    -0.021 NA
ATOM     25  H3  UNL     1      -3.871  -5.590   0.321  1.00  0.00     0.183 HD
HETATM   26  N5  UNL     1      -2.775  -3.015   1.761  1.00  0.00    -0.267 N 
ATOM     27  H5  UNL     1      -2.364  -2.490   2.533  1.00  0.00     0.186 HD
ENDBRANCH   4  21
BRANCH   1  28
HETATM   28  C2  UNL     1      -4.515   2.149  -0.365  1.00  0.00     0.029 C 
HETATM   29  C1  UNL     1      -5.890   1.870   0.124  1.00  0.00     0.016 C 
HETATM   30  C3  UNL     1      -3.925   3.338   0.371  1.00  0.00     0.016 C 
ENDBRANCH   1  28
TORSDOF 4
