REMARK  5 active torsions:
REMARK  status: ('A' for Active; 'I' for Inactive)
REMARK    1  A    between atoms: C5_7  and  C6_8 
REMARK    2  A    between atoms: C6_8  and  C7_9 
REMARK    3  A    between atoms: C7_9  and  N1_10 
REMARK    4  A    between atoms: C10_15  and  C11_16 
REMARK    5  A    between atoms: C20_28  and  O1_30 
ROOT
HETATM    1  C1  UNL     1      -4.065  -3.239   0.992  1.00  0.00     0.016 C 
HETATM    2  C2  UNL     1      -4.257  -2.047   0.972  1.00  0.00    -0.067 C 
HETATM    3  C3  UNL     1      -4.471  -0.583   0.947  1.00  0.00     0.230 C 
HETATM    4  F1  UNL     1      -5.101  -0.278   2.140  1.00  0.00    -0.222 F 
HETATM    5  C4  UNL     1      -3.174   0.125   0.893  1.00  0.00     0.233 C 
HETATM    6  F2  UNL     1      -3.092   1.065   1.931  1.00  0.00    -0.244 F 
HETATM    7  C5  UNL     1      -2.832   0.791  -0.383  1.00  0.00     0.048 C 
HETATM    8  C18 UNL     1      -3.592   0.402  -1.566  1.00  0.00    -0.020 C 
HETATM    9  C19 UNL     1      -4.795  -0.084  -1.467  1.00  0.00     0.011 C 
HETATM   10  C20 UNL     1      -5.428  -0.257  -0.156  1.00  0.00     0.122 C 
HETATM   11  C21 UNL     1      -6.208   1.033   0.129  1.00  0.00     0.055 C 
ENDROOT
BRANCH  10  12
HETATM   12  O1  UNL     1      -6.382  -1.270  -0.222  1.00  0.00    -0.382 OA
ATOM     13  H1  UNL     1      -6.990  -1.063  -0.922  1.00  0.00     0.211 HD
ENDBRANCH  10  12
BRANCH   7  14
HETATM   14  C6  UNL     1      -1.341   0.653  -0.725  1.00  0.00     0.032 C 
BRANCH  14  15
HETATM   15  C7  UNL     1      -0.523   1.292   0.391  1.00  0.00     0.128 C 
BRANCH  15  16
HETATM   16  N1  UNL     1       0.894   1.191   0.119  1.00  0.00    -0.363 N 
HETATM   17  C8  UNL     1       1.588   0.113   0.558  1.00  0.00     0.122 A 
HETATM   18  C9  UNL     1       2.926   0.019   0.300  1.00  0.00     0.077 A 
HETATM   19  N2  UNL     1       3.893  -0.876   0.573  1.00  0.00    -0.343 N 
HETATM   20  C14 UNL     1       3.561   1.102  -0.448  1.00  0.00     0.084 A 
HETATM   21  C10 UNL     1       5.059  -0.426   0.053  1.00  0.00     0.085 A 
ATOM     22  H2  UNL     1       3.768  -1.748   1.086  1.00  0.00     0.167 HD
HETATM   23  N3  UNL     1       4.848   0.759  -0.556  1.00  0.00    -0.342 N 
ATOM     24  H3  UNL     1       5.564   1.311  -1.028  1.00  0.00     0.167 HD
HETATM   25  C15 UNL     1       2.824   2.198  -0.886  1.00  0.00     0.089 A 
HETATM   26  C16 UNL     1       3.443   3.264  -1.622  1.00  0.00     0.103 C 
HETATM   27  C17 UNL     1       1.474   2.193  -0.571  1.00  0.00     0.115 A 
HETATM   28  N4  UNL     1       3.939   4.137  -2.202  1.00  0.00    -0.191 NA
BRANCH  21  29
HETATM   29  C11 UNL     1       6.385  -1.100   0.120  1.00  0.00     0.045 C 
HETATM   30  C12 UNL     1       6.343  -2.454  -0.536  1.00  0.00     0.017 C 
HETATM   31  C13 UNL     1       6.783  -1.200   1.583  1.00  0.00     0.017 C 
ENDBRANCH  21  29
ENDBRANCH  15  16
ENDBRANCH  14  15
ENDBRANCH   7  14
TORSDOF 5
