REMARK  9 active torsions:
REMARK  status: ('A' for Active; 'I' for Inactive)
REMARK    1  A    between atoms: C2_2  and  C3_3 
REMARK    2  A    between atoms: C2_2  and  C9_10 
REMARK    3  A    between atoms: C3_3  and  C4_4 
REMARK    4  A    between atoms: C4_4  and  C5_5 
REMARK    5  A    between atoms: C5_5  and  C6_6 
REMARK    6  A    between atoms: C6_6  and  C7_7 
REMARK    7  A    between atoms: C18_19  and  O1_20 
REMARK    8  A    between atoms: O1_20  and  S1_21 
REMARK    9  A    between atoms: S1_21  and  N2_22 
ROOT
HETATM    1  C7  UNL     1       7.263   2.927  -0.478  1.00  0.00     0.124 C 
HETATM    2  C8  UNL     1       8.168   4.018  -0.039  1.00  0.00     0.059 C 
HETATM    3  N1  UNL     1       8.861   4.881   0.294  1.00  0.00    -0.197 NA
ENDROOT
BRANCH   1   4
HETATM    4  C6  UNL     1       7.172   1.985   0.681  1.00  0.00     0.014 C 
BRANCH   4   5
HETATM    5  C5  UNL     1       6.284   0.771   0.369  1.00  0.00     0.001 C 
BRANCH   5   6
HETATM    6  C4  UNL     1       4.916   1.178   0.053  1.00  0.00     0.000 C 
BRANCH   6   7
HETATM    7  C3  UNL     1       3.863   0.220  -0.295  1.00  0.00     0.005 C 
BRANCH   7   8
HETATM    8  C2  UNL     1       3.421  -0.830   0.649  1.00  0.00    -0.014 C 
HETATM    9  C1  UNL     1       4.593  -1.756   0.914  1.00  0.00     0.010 C 
BRANCH   8  10
HETATM   10  C9  UNL     1       2.337  -1.678   0.036  1.00  0.00    -0.002 C 
HETATM   11  C10 UNL     1       1.940  -2.852   0.953  1.00  0.00     0.006 C 
HETATM   12  C11 UNL     1       0.601  -3.244   0.254  1.00  0.00     0.006 C 
HETATM   13  C12 UNL     1       0.001  -1.893   0.327  1.00  0.00    -0.001 C 
HETATM   14  C13 UNL     1      -1.378  -1.672  -0.015  1.00  0.00    -0.001 C 
HETATM   15  C26 UNL     1       1.052  -0.990  -0.297  1.00  0.00    -0.036 C 
HETATM   16  C14 UNL     1      -1.956  -2.138  -1.296  1.00  0.00     0.033 C 
HETATM   17  C23 UNL     1      -1.660  -0.165   0.054  1.00  0.00     0.003 C 
HETATM   18  C15 UNL     1      -3.441  -1.844  -1.161  1.00  0.00    -0.023 C 
HETATM   19  C16 UNL     1      -3.909  -0.905  -0.378  1.00  0.00    -0.072 C 
HETATM   20  C17 UNL     1      -5.390  -0.684  -0.306  1.00  0.00     0.068 C 
HETATM   21  C21 UNL     1      -3.067   0.001   0.483  1.00  0.00    -0.017 C 
HETATM   22  C18 UNL     1      -5.670   0.720  -0.770  1.00  0.00     0.148 C 
HETATM   23  C19 UNL     1      -4.396   1.496  -0.968  1.00  0.00     0.035 C 
HETATM   24  C20 UNL     1      -3.487   1.435   0.216  1.00  0.00     0.016 C 
HETATM   25  C22 UNL     1      -3.344  -0.325   1.911  1.00  0.00     0.020 C 
HETATM   26  C24 UNL     1      -0.634   0.486   0.888  1.00  0.00     0.007 C 
HETATM   27  C25 UNL     1       0.759   0.342   0.260  1.00  0.00     0.010 C 
HETATM   28  C27 UNL     1       0.949  -1.008  -1.828  1.00  0.00     0.016 C 
BRANCH  22  29
HETATM   29  O1  UNL     1      -6.446   1.382   0.171  1.00  0.00    -0.254 OA
BRANCH  29  30
HETATM   30  S1  UNL     1      -7.887   1.816  -0.534  1.00  0.00     0.355 S 
HETATM   31  O2  UNL     1      -7.594   2.516  -1.827  1.00  0.00    -0.176 OA
HETATM   32  O3  UNL     1      -8.720   0.575  -0.767  1.00  0.00    -0.176 OA
BRANCH  30  33
HETATM   33  N2  UNL     1      -8.810   2.880   0.456  1.00  0.00    -0.306 N 
ATOM     34  H22 UNL     1      -8.494   3.199   1.372  1.00  0.00     0.171 HD
ATOM     35  H21 UNL     1      -9.694   3.146   0.023  1.00  0.00     0.171 HD
ENDBRANCH  30  33
ENDBRANCH  29  30
ENDBRANCH  22  29
ENDBRANCH   8  10
ENDBRANCH   7   8
ENDBRANCH   6   7
ENDBRANCH   5   6
ENDBRANCH   4   5
ENDBRANCH   1   4
TORSDOF 9
