REMARK  7 active torsions:
REMARK  status: ('A' for Active; 'I' for Inactive)
REMARK       I    between atoms: C1_2  and  N2_3 
REMARK       I    between atoms: C1_2  and  N5_20 
REMARK    1  A    between atoms: N2_3  and  N3_4 
REMARK    2  A    between atoms: C2_6  and  C3_7 
REMARK    3  A    between atoms: C5_9  and  O1_10 
REMARK    4  A    between atoms: C6_12  and  O2_13 
REMARK    5  A    between atoms: C7_15  and  N4_16 
REMARK    6  A    between atoms: N5_20  and  C9_22 
REMARK    7  A    between atoms: C9_22  and  C10_23 
ROOT
HETATM    1  N1  UNL     1      -2.291  -0.621  -2.367  1.00  0.00    -0.047 NA
HETATM    2  C1  UNL     1      -1.627  -0.011  -1.201  1.00  0.00     0.287 C 
HETATM    3  N2  UNL     1      -0.505   0.229  -1.417  1.00  0.00    -0.292 NA
HETATM    4  N5  UNL     1      -2.341   0.201   0.003  1.00  0.00    -0.319 N 
ATOM      5  H5  UNL     1      -1.817  -0.041   0.844  1.00  0.00     0.166 HD
ENDROOT
BRANCH   3   6
HETATM    6  N3  UNL     1       0.805   0.656  -1.239  1.00  0.00    -0.243 N 
HETATM    7  C2  UNL     1       1.684  -0.115  -0.741  1.00  0.00     0.132 C 
ATOM      8  H3  UNL     1       1.065   1.604  -1.512  1.00  0.00     0.201 HD
BRANCH   7   9
HETATM    9  C3  UNL     1       3.071   0.017  -0.449  1.00  0.00    -0.013 A 
HETATM   10  C4  UNL     1       3.878   1.099  -0.779  1.00  0.00     0.052 A 
HETATM   11  C5  UNL     1       5.234   1.112  -0.488  1.00  0.00     0.102 A 
HETATM   12  C6  UNL     1       5.847   0.016   0.162  1.00  0.00     0.132 A 
HETATM   13  C7  UNL     1       5.085  -1.070   0.512  1.00  0.00     0.139 A 
HETATM   14  C8  UNL     1       3.728  -1.047   0.198  1.00  0.00     0.052 A 
BRANCH  11  15
HETATM   15  O1  UNL     1       6.036   2.200  -0.835  1.00  0.00    -0.358 OA
ATOM     16  H1  UNL     1       6.965   2.209  -0.636  1.00  0.00     0.217 HD
ENDBRANCH  11  15
BRANCH  12  17
HETATM   17  O2  UNL     1       7.196   0.078   0.415  1.00  0.00    -0.356 OA
ATOM     18  H2  UNL     1       7.608  -0.658   0.852  1.00  0.00     0.218 HD
ENDBRANCH  12  17
BRANCH  13  19
HETATM   19  N4  UNL     1       5.587  -2.231   1.173  1.00  0.00    -0.113 N 
HETATM   20  O3  UNL     1       5.048  -3.355   0.988  1.00  0.00    -0.532 OA
HETATM   21  O4  UNL     1       6.634  -2.198   2.013  1.00  0.00    -0.532 OA
ENDBRANCH  13  19
ENDBRANCH   7   9
ENDBRANCH   3   6
BRANCH   4  22
HETATM   22  C9  UNL     1      -3.644   0.685   0.257  1.00  0.00     0.197 C 
HETATM   23  C11 UNL     1      -3.688   1.156   1.758  1.00  0.00     0.189 C 
HETATM   24  N10 UNL     1      -4.553   2.166   1.230  1.00  0.00    -0.141 NA
HETATM   25  N11 UNL     1      -3.897   2.084   0.006  1.00  0.00    -0.106 NA
BRANCH  22  26
HETATM   26  C10 UNL     1      -4.836  -0.179  -0.002  1.00  0.00     0.161 A 
HETATM   27  N6  UNL     1      -5.358  -0.617  -1.124  1.00  0.00    -0.269 N 
HETATM   28  N7  UNL     1      -6.436  -1.310  -0.835  1.00  0.00    -0.227 N 
ATOM     29  H6  UNL     1      -4.990  -0.448  -2.060  1.00  0.00     0.190 HD
HETATM   30  N8  UNL     1      -6.591  -1.318   0.462  1.00  0.00    -0.227 N 
ATOM     31  H7  UNL     1      -7.049  -1.766  -1.511  1.00  0.00     0.210 HD
HETATM   32  N9  UNL     1      -5.629  -0.636   1.006  1.00  0.00    -0.269 N 
ATOM     33  H8  UNL     1      -7.345  -1.784   0.966  1.00  0.00     0.210 HD
ATOM     34  H9  UNL     1      -5.493  -0.473   2.004  1.00  0.00     0.190 HD
ENDBRANCH  22  26
ENDBRANCH   4  22
TORSDOF 7
