REMARK  10 active torsions:
REMARK  status: ('A' for Active; 'I' for Inactive)
REMARK    1  A    between atoms: C2_3  and  C3_4 
REMARK    2  A    between atoms: C3_4  and  O1_5 
REMARK    3  A    between atoms: C4_8  and  S1_9 
REMARK    4  A    between atoms: S1_9  and  S2_10 
REMARK    5  A    between atoms: S2_10  and  C5_11 
REMARK    6  A    between atoms: C6_14  and  N3_15 
REMARK    7  A    between atoms: C7_20  and  N5_21 
REMARK    8  A    between atoms: C8_27  and  O4_28 
REMARK    9  A    between atoms: C8_27  and  C9_30 
REMARK   10  A    between atoms: C9_30  and  O5_31 
ROOT
HETATM    1  N1  UNL     1      -5.417   2.179  -0.620  1.00  0.00    -0.197 NA
HETATM    2  C1  UNL     1      -4.406   1.734  -0.969  1.00  0.00     0.064 C 
HETATM    3  C2  UNL     1      -3.150   1.186  -1.431  1.00  0.00     0.198 C 
ENDROOT
BRANCH   3   4
HETATM    4  C3  UNL     1      -2.865  -0.201  -0.953  1.00  0.00     0.237 C 
HETATM    5  O2  UNL     1      -1.578  -0.588  -1.317  1.00  0.00    -0.309 OA
HETATM    6  C4  UNL     1      -0.742  -0.040  -0.384  1.00  0.00     0.344 C 
HETATM    7  O3  UNL     1      -1.508   0.479   0.669  1.00  0.00    -0.308 OA
HETATM    8  C8  UNL     1      -2.731  -0.187   0.552  1.00  0.00     0.245 C 
BRANCH   4   9
HETATM    9  O1  UNL     1      -3.821  -1.124  -1.348  1.00  0.00    -0.360 OA
ATOM     10  H1  UNL     1      -3.640  -2.006  -1.044  1.00  0.00     0.213 HD
ENDBRANCH   4   9
BRANCH   6  11
HETATM   11  S1  UNL     1       0.279   1.224  -1.184  1.00  0.00    -0.029 SA
BRANCH  11  12
HETATM   12  S2  UNL     1       1.600   2.109   0.231  1.00  0.00    -0.015 SA
BRANCH  12  13
HETATM   13  C5  UNL     1       3.114   1.154   0.229  1.00  0.00     0.185 A 
HETATM   14  N2  UNL     1       4.110   1.527   1.053  1.00  0.00    -0.169 N 
HETATM   15  C6  UNL     1       5.259   0.854   1.094  1.00  0.00     0.692 A 
ATOM     16  H2  UNL     1       3.983   2.339   1.657  1.00  0.00     0.186 HD
HETATM   17  N4  UNL     1       5.402  -0.214   0.288  1.00  0.00    -0.023 N 
HETATM   18  C7  UNL     1       4.432  -0.623  -0.553  1.00  0.00     0.692 A 
ATOM     19  H4  UNL     1       6.279  -0.734   0.315  1.00  0.00     0.203 HD
HETATM   20  N6  UNL     1       3.288   0.077  -0.569  1.00  0.00    -0.169 N 
ATOM     21  H6  UNL     1       2.535  -0.209  -1.195  1.00  0.00     0.186 HD
BRANCH  15  22
HETATM   22  N3  UNL     1       6.218   1.222   1.894  1.00  0.00    -0.234 N 
ATOM     23  H32 UNL     1       6.110   2.032   2.505  1.00  0.00     0.174 HD
ATOM     24  H31 UNL     1       7.098   0.707   1.925  1.00  0.00     0.174 HD
ENDBRANCH  15  22
BRANCH  18  25
HETATM   25  N5  UNL     1       4.546  -1.640  -1.332  1.00  0.00    -0.234 N 
ATOM     26  H52 UNL     1       5.416  -2.172  -1.320  1.00  0.00     0.174 HD
ATOM     27  H51 UNL     1       3.812  -1.950  -1.969  1.00  0.00     0.174 HD
ENDBRANCH  18  25
ENDBRANCH  12  13
ENDBRANCH  11  12
ENDBRANCH   6  11
BRANCH   8  28
HETATM   28  O4  UNL     1      -3.772   0.428   1.176  1.00  0.00    -0.359 OA
ATOM     29  H4  UNL     1      -3.688   0.437   2.122  1.00  0.00     0.213 HD
ENDBRANCH   8  28
BRANCH   8  30
HETATM   30  C9  UNL     1      -2.525  -1.622   0.988  1.00  0.00     0.238 C 
BRANCH  30  31
HETATM   31  O5  UNL     1      -3.690  -2.361   0.904  1.00  0.00    -0.395 OA
ATOM     32  H5  UNL     1      -3.561  -3.262   1.178  1.00  0.00     0.209 HD
ENDBRANCH  30  31
ENDBRANCH   8  30
ENDBRANCH   3   4
TORSDOF 10
