REMARK  9 active torsions:
REMARK  status: ('A' for Active; 'I' for Inactive)
REMARK    1  A    between atoms: N1_1  and  C1_4 
REMARK    2  A    between atoms: C2_7  and  N3_8 
REMARK    3  A    between atoms: N6_16  and  C4_17 
REMARK    4  A    between atoms: C4_17  and  C5_18 
REMARK    5  A    between atoms: C5_18  and  O1_19 
REMARK    6  A    between atoms: C5_18  and  C6_21 
REMARK    7  A    between atoms: C6_21  and  N7_22 
REMARK    8  A    between atoms: C7_25  and  N9_26 
REMARK    9  A    between atoms: C8_31  and  N11_32 
ROOT
HETATM    1  C1  UNL     1      -4.325   0.798   0.226  1.00  0.00     0.679 A 
HETATM    2  N2  UNL     1      -4.747   0.191   1.362  1.00  0.00    -0.175 N 
ATOM      3  H2  UNL     1      -5.746   0.137   1.559  1.00  0.00     0.186 HD
HETATM    4  C2  UNL     1      -3.872  -0.341   2.234  1.00  0.00     0.147 A 
HETATM    5  C3  UNL     1      -2.531  -0.229   1.901  1.00  0.00     0.140 A 
HETATM    6  N4  UNL     1      -1.426  -0.626   2.512  1.00  0.00    -0.279 N 
ATOM      7  H4  UNL     1      -1.394  -1.122   3.403  1.00  0.00     0.189 HD
HETATM    8  N5  UNL     1      -0.373  -0.284   1.797  1.00  0.00    -0.238 N 
ATOM      9  H5  UNL     1       0.594  -0.477   2.056  1.00  0.00     0.208 HD
HETATM   10  N6  UNL     1      -0.741   0.334   0.715  1.00  0.00    -0.257 N 
HETATM   11  C9  UNL     1      -2.103   0.390   0.745  1.00  0.00     0.171 A 
HETATM   12  N12 UNL     1      -3.025   0.910  -0.103  1.00  0.00    -0.173 N 
ATOM     13  H12 UNL     1      -2.741   1.373  -0.966  1.00  0.00     0.186 HD
ENDROOT
BRANCH  10  14
HETATM   14  C4  UNL     1       0.033   0.891  -0.374  1.00  0.00     0.185 C 
BRANCH  14  15
HETATM   15  C5  UNL     1       0.304  -0.082  -1.469  1.00  0.00     0.158 C 
BRANCH  15  16
HETATM   16  O1  UNL     1      -0.861  -0.559  -2.016  1.00  0.00    -0.392 OA
ATOM     17  H1  UNL     1      -0.688  -1.179  -2.714  1.00  0.00     0.210 HD
ENDBRANCH  15  16
BRANCH  15  18
HETATM   18  C6  UNL     1       1.278  -1.171  -1.139  1.00  0.00     0.201 C 
BRANCH  18  19
HETATM   19  N7  UNL     1       2.591  -0.684  -0.785  1.00  0.00    -0.119 N 
HETATM   20  N8  UNL     1       3.026  -0.376   0.407  1.00  0.00    -0.249 N 
HETATM   21  C7  UNL     1       4.291   0.042   0.398  1.00  0.00     0.279 A 
ATOM     22  H8  UNL     1       2.460  -0.448   1.252  1.00  0.00     0.191 HD
HETATM   23  N10 UNL     1       4.696  -0.000  -0.900  1.00  0.00    -0.153 N 
HETATM   24  C8  UNL     1       3.649  -0.445  -1.612  1.00  0.00     0.695 A 
ATOM     25  H10 UNL     1       5.615   0.256  -1.261  1.00  0.00     0.187 HD
BRANCH  21  26
HETATM   26  N9  UNL     1       5.084   0.458   1.511  1.00  0.00    -0.077 N 
HETATM   27  O2  UNL     1       6.251   0.829   1.389  1.00  0.00    -0.529 OA
HETATM   28  O3  UNL     1       4.511   0.437   2.750  1.00  0.00    -0.529 OA
ENDBRANCH  21  26
BRANCH  24  29
HETATM   29  N11 UNL     1       3.625  -0.629  -2.894  1.00  0.00    -0.233 N 
ATOM     30 2H11 UNL     1       2.829  -0.967  -3.435  1.00  0.00     0.174 HD
ATOM     31 1H11 UNL     1       4.416  -0.450  -3.512  1.00  0.00     0.174 HD
ENDBRANCH  24  29
ENDBRANCH  18  19
ENDBRANCH  15  18
ENDBRANCH  14  15
ENDBRANCH  10  14
BRANCH   4  32
HETATM   32  N3  UNL     1      -4.291  -0.916   3.310  1.00  0.00    -0.383 N 
ATOM     33  H32 UNL     1      -5.278  -0.998   3.555  1.00  0.00     0.157 HD
ATOM     34  H31 UNL     1      -3.627  -1.319   3.971  1.00  0.00     0.157 HD
ENDBRANCH   4  32
BRANCH   1  35
HETATM   35  N1  UNL     1      -5.220   1.283  -0.560  1.00  0.00    -0.234 N 
ATOM     36  H12 UNL     1      -6.205   1.198  -0.311  1.00  0.00     0.174 HD
ATOM     37  H11 UNL     1      -4.902   1.740  -1.415  1.00  0.00     0.174 HD
ENDBRANCH   1  35
TORSDOF 9
