REMARK  9 active torsions:
REMARK  status: ('A' for Active; 'I' for Inactive)
REMARK    1  A    between atoms: N3_7  and  C3_8 
REMARK    2  A    between atoms: C3_8  and  C4_9 
REMARK    3  A    between atoms: C4_9  and  C5_10 
REMARK    4  A    between atoms: C5_10  and  C6_11 
REMARK    5  A    between atoms: C7_12  and  C8_13 
REMARK    6  A    between atoms: C8_13  and  O2_14 
REMARK    7  A    between atoms: C8_13  and  O3_16 
REMARK    8  A    between atoms: C11_29  and  N8_30 
REMARK    9  A    between atoms: N8_30  and  N9_32 
ROOT
HETATM    1  C6  UNL     1      -0.819  -0.583   0.851  1.00  0.00     0.081 A 
HETATM    2  C7  UNL     1      -0.915   0.177   1.997  1.00  0.00     0.105 A 
HETATM    3  N4  UNL     1      -1.896   1.091   1.732  1.00  0.00    -0.187 N 
ATOM      4  H4  UNL     1      -2.206   1.806   2.390  1.00  0.00     0.184 HD
HETATM    5  C9  UNL     1      -2.397   0.932   0.510  1.00  0.00     0.718 A 
HETATM    6  N5  UNL     1      -3.385   1.623  -0.117  1.00  0.00    -0.021 N 
ATOM      7  H5  UNL     1      -3.847   2.401   0.354  1.00  0.00     0.203 HD
HETATM    8  C10 UNL     1      -3.747   1.275  -1.358  1.00  0.00     0.705 A 
HETATM    9  N6  UNL     1      -4.689   1.925  -1.971  1.00  0.00    -0.234 N 
ATOM     10  H61 UNL     1      -4.965   1.660  -2.917  1.00  0.00     0.174 HD
ATOM     11  H62 UNL     1      -5.182   2.710  -1.547  1.00  0.00     0.174 HD
HETATM   12  N7  UNL     1      -3.103   0.250  -1.912  1.00  0.00    -0.020 N 
ATOM     13  H7  UNL     1      -3.369  -0.028  -2.857  1.00  0.00     0.203 HD
HETATM   14  C11 UNL     1      -2.108  -0.453  -1.295  1.00  0.00     0.732 A 
HETATM   15  N10 UNL     1      -1.739  -0.101  -0.042  1.00  0.00     0.023 N 
ENDROOT
BRANCH   1  16
HETATM   16  C5  UNL     1       0.090  -1.685   0.640  1.00  0.00     0.063 C 
BRANCH  16  17
HETATM   17  C4  UNL     1       1.530  -1.375   0.344  1.00  0.00     0.027 C 
BRANCH  17  18
HETATM   18  C3  UNL     1       1.783  -0.514  -0.856  1.00  0.00     0.149 C 
BRANCH  18  19
HETATM   19  N3  UNL     1       3.197  -0.266  -1.051  1.00  0.00    -0.255 N 
HETATM   20  C2  UNL     1       3.983   0.720  -0.585  1.00  0.00     0.115 A 
HETATM   21  C1  UNL     1       3.535   1.825   0.278  1.00  0.00     0.092 C 
HETATM   22  N1  UNL     1       5.216   0.501  -1.048  1.00  0.00    -0.231 N 
HETATM   23  O1  UNL     1       5.187  -0.573  -1.768  1.00  0.00    -0.141 OA
ATOM     24  H1  UNL     1       6.036   1.079  -0.866  1.00  0.00     0.197 HD
HETATM   25  N2  UNL     1       3.988  -1.036  -1.775  1.00  0.00     0.051 NA
ENDBRANCH  18  19
ENDBRANCH  17  18
ENDBRANCH  16  17
ENDBRANCH   1  16
BRANCH   2  26
HETATM   26  C8  UNL     1      -0.263   0.160   3.298  1.00  0.00     0.307 C 
BRANCH  26  27
HETATM   27  O2  UNL     1       1.073   0.039   3.386  1.00  0.00    -0.366 OA
ATOM     28  H2  UNL     1       1.499   0.028   4.235  1.00  0.00     0.213 HD
ENDBRANCH  26  27
BRANCH  26  29
HETATM   29  O3  UNL     1      -0.756   1.252   4.061  1.00  0.00    -0.366 OA
ATOM     30  H3  UNL     1      -0.330   1.241   4.910  1.00  0.00     0.213 HD
ENDBRANCH  26  29
ENDBRANCH   2  26
BRANCH  14  31
HETATM   31  N8  UNL     1      -1.567  -1.442  -1.885  1.00  0.00    -0.137 N 
ATOM     32  H8  UNL     1      -0.829  -1.933  -1.380  1.00  0.00     0.205 HD
BRANCH  31  33
HETATM   33  N9  UNL     1      -1.882  -1.911  -3.137  1.00  0.00    -0.331 N 
ATOM     34  H92 UNL     1      -2.622  -1.407  -3.626  1.00  0.00     0.177 HD
ATOM     35  H91 UNL     1      -1.448  -2.704  -3.610  1.00  0.00     0.177 HD
ENDBRANCH  31  33
ENDBRANCH  14  31
TORSDOF 9
