REMARK  9 active torsions:
REMARK  status: ('A' for Active; 'I' for Inactive)
REMARK    1  A    between atoms: N1_1  and  C1_4 
REMARK    2  A    between atoms: C2_7  and  C3_8 
REMARK    3  A    between atoms: C3_8  and  N3_10 
REMARK    4  A    between atoms: N3_10  and  O1_12 
REMARK    5  A    between atoms: O1_12  and  C4_13 
REMARK    6  A    between atoms: C4_13  and  C5_14 
REMARK    7  A    between atoms: N4_16  and  C7_17 
REMARK    8  A    between atoms: C8_23  and  N7_24 
REMARK    9  A    between atoms: C9_33  and  N11_34 
ROOT
HETATM    1  N3  UNL     1       0.753  -0.511  -1.169  1.00  0.00    -0.252 N 
ATOM      2  H3  UNL     1      -0.118  -0.936  -1.486  1.00  0.00     0.195 HD
ENDROOT
BRANCH   1   3
HETATM    3  C3  UNL     1       1.797  -1.328  -0.673  1.00  0.00     0.166 C 
HETATM    4  S1  UNL     1       1.597  -2.927  -0.614  1.00  0.00    -0.054 SA
BRANCH   3   5
HETATM    5  C2  UNL     1       3.063  -0.773  -0.207  1.00  0.00     0.176 A 
HETATM    6  N2  UNL     1       4.168  -0.710  -0.970  1.00  0.00    -0.173 N 
HETATM    7  C1  UNL     1       5.317  -0.182  -0.479  1.00  0.00     0.692 A 
ATOM      8  H2  UNL     1       4.142  -1.062  -1.927  1.00  0.00     0.186 HD
HETATM    9  N12 UNL     1       5.353   0.286   0.790  1.00  0.00    -0.023 N 
HETATM   10  C9  UNL     1       4.271   0.231   1.555  1.00  0.00     0.692 A 
ATOM     11  H12 UNL     1       6.217   0.683   1.160  1.00  0.00     0.203 HD
HETATM   12  N10 UNL     1       3.135  -0.301   1.043  1.00  0.00    -0.173 N 
ATOM     13  H10 UNL     1       2.304  -0.343   1.632  1.00  0.00     0.186 HD
BRANCH   7  14
HETATM   14  N1  UNL     1       6.399  -0.103  -1.177  1.00  0.00    -0.234 N 
ATOM     15  H12 UNL     1       6.372  -0.456  -2.134  1.00  0.00     0.174 HD
ATOM     16  H11 UNL     1       7.263   0.294  -0.808  1.00  0.00     0.174 HD
ENDBRANCH   7  14
BRANCH  10  17
HETATM   17  N11 UNL     1       4.294   0.668   2.748  1.00  0.00    -0.234 N 
ATOM     18 2H11 UNL     1       3.462   0.626   3.336  1.00  0.00     0.174 HD
ATOM     19 1H11 UNL     1       5.149   1.069   3.133  1.00  0.00     0.174 HD
ENDBRANCH  10  17
ENDBRANCH   3   5
ENDBRANCH   1   3
BRANCH   1  20
HETATM   20  O1  UNL     1       0.906   0.828  -1.224  1.00  0.00    -0.273 OA
BRANCH  20  21
HETATM   21  C4  UNL     1       0.083   1.502  -0.336  1.00  0.00     0.261 C 
BRANCH  21  22
HETATM   22  C5  UNL     1      -1.341   1.227  -0.609  1.00  0.00     0.070 A 
HETATM   23  C6  UNL     1      -2.116   0.215  -0.082  1.00  0.00     0.148 A 
HETATM   24  N4  UNL     1      -3.368   0.298  -0.577  1.00  0.00    -0.230 N 
HETATM   25  N8  UNL     1      -3.364   1.337  -1.389  1.00  0.00    -0.234 N 
HETATM   26  N9  UNL     1      -2.173   1.910  -1.429  1.00  0.00    -0.286 N 
ATOM     27  H8  UNL     1      -4.175   1.657  -1.918  1.00  0.00     0.209 HD
ATOM     28  H9  UNL     1      -1.924   2.729  -1.984  1.00  0.00     0.188 HD
BRANCH  24  29
HETATM   29  C7  UNL     1      -4.464  -0.557  -0.284  1.00  0.00     0.195 A 
HETATM   30  N5  UNL     1      -4.469  -1.900  -0.328  1.00  0.00    -0.220 N 
HETATM   31  O2  UNL     1      -5.661  -2.312   0.008  1.00  0.00    -0.153 OA
ATOM     32  H5  UNL     1      -3.679  -2.494  -0.580  1.00  0.00     0.198 HD
HETATM   33  N6  UNL     1      -6.437  -1.292   0.271  1.00  0.00    -0.222 N 
HETATM   34  C8  UNL     1      -5.731  -0.173   0.102  1.00  0.00     0.169 A 
ATOM     35  H6  UNL     1      -7.415  -1.344   0.557  1.00  0.00     0.198 HD
BRANCH  34  36
HETATM   36  N7  UNL     1      -6.175   1.042   0.274  1.00  0.00    -0.381 N 
ATOM     37  H72 UNL     1      -5.635   1.898   0.145  1.00  0.00     0.157 HD
ATOM     38  H71 UNL     1      -7.112   1.326   0.560  1.00  0.00     0.157 HD
ENDBRANCH  34  36
ENDBRANCH  24  29
ENDBRANCH  21  22
ENDBRANCH  20  21
ENDBRANCH   1  20
TORSDOF 9
