REMARK  8 active torsions:
REMARK  status: ('A' for Active; 'I' for Inactive)
REMARK    1  A    between atoms: N1_1  and  C1_4 
REMARK    2  A    between atoms: C4_10  and  N4_11 
REMARK    3  A    between atoms: N4_11  and  N5_13 
REMARK    4  A    between atoms: C7_20  and  C8_21 
REMARK    5  A    between atoms: C8_21  and  N7_22 
REMARK    6  A    between atoms: C8_21  and  N8_26 
REMARK    7  A    between atoms: N9_31  and  C10_32 
REMARK    8  A    between atoms: C11_34  and  N10_35 
ROOT
HETATM    1  N5  UNL     1       0.379   0.813   0.461  1.00  0.00    -0.131 N 
ATOM      2  H5  UNL     1       0.619   0.850   1.452  1.00  0.00     0.205 HD
HETATM    3  C5  UNL     1      -0.836   0.690   0.437  1.00  0.00     0.708 A 
HETATM    4  N6  UNL     1      -1.503   0.638   1.648  1.00  0.00    -0.153 N 
ATOM      5  H6  UNL     1      -0.956   0.697   2.507  1.00  0.00     0.187 HD
HETATM    6  C6  UNL     1      -2.827   0.514   1.745  1.00  0.00     0.271 A 
HETATM    7  O1  UNL     1      -3.427   0.468   2.866  1.00  0.00    -0.267 OA
HETATM    8  C7  UNL     1      -3.613   0.428   0.616  1.00  0.00     0.084 A 
HETATM    9  C9  UNL     1      -2.961   0.477  -0.585  1.00  0.00     0.134 A 
HETATM   10  N9  UNL     1      -1.610   0.604  -0.654  1.00  0.00    -0.132 N 
ENDROOT
BRANCH   1  11
HETATM   11  N4  UNL     1       1.521   0.920  -0.165  1.00  0.00    -0.284 N 
ATOM     12  H4  UNL     1       1.565   1.665  -0.860  1.00  0.00     0.187 HD
BRANCH  11  13
HETATM   13  C4  UNL     1       2.709   0.157  -0.024  1.00  0.00     0.088 A 
HETATM   14  C3  UNL     1       3.256  -0.101   1.206  1.00  0.00     0.079 A 
HETATM   15  C2  UNL     1       4.430  -0.857   1.334  1.00  0.00     0.120 A 
HETATM   16  N2  UNL     1       5.022  -1.330   0.232  1.00  0.00    -0.329 N 
HETATM   17  N3  UNL     1       5.035  -1.145   2.587  1.00  0.00    -0.083 NA
HETATM   18  C1  UNL     1       4.499  -1.088  -1.008  1.00  0.00     0.136 A 
ATOM     19  H2  UNL     1       5.877  -1.880   0.318  1.00  0.00     0.168 HD
HETATM   20  C11 UNL     1       3.328  -0.335  -1.140  1.00  0.00     0.174 A 
BRANCH  18  21
HETATM   21  N1  UNL     1       5.073  -1.545  -2.045  1.00  0.00    -0.383 N 
ATOM     22  H12 UNL     1       5.927  -2.094  -1.949  1.00  0.00     0.157 HD
ATOM     23  H11 UNL     1       4.683  -1.364  -2.970  1.00  0.00     0.157 HD
ENDBRANCH  18  21
BRANCH  20  24
HETATM   24  N10 UNL     1       2.851  -0.137  -2.461  1.00  0.00    -0.109 N 
HETATM   25  O3  UNL     1       2.285  -1.059  -3.093  1.00  0.00    -0.532 OA
HETATM   26  O4  UNL     1       2.993   1.070  -3.080  1.00  0.00    -0.532 OA
ENDBRANCH  20  24
ENDBRANCH  11  13
ENDBRANCH   1  11
BRANCH  10  27
HETATM   27  C10 UNL     1      -1.077   0.634  -1.955  1.00  0.00     0.376 C 
HETATM   28  O2  UNL     1      -1.834   0.553  -2.990  1.00  0.00    -0.282 OA
ENDBRANCH  10  27
BRANCH   8  29
HETATM   29  C8  UNL     1      -5.085   0.278   0.730  1.00  0.00     0.418 C 
BRANCH  29  30
HETATM   30  N7  UNL     1      -5.784   1.193  -0.190  1.00  0.00    -0.046 N 
ATOM     31  H73 UNL     1      -5.493   2.161  -0.051  1.00  0.00     0.277 HD
ATOM     32  H72 UNL     1      -5.467   1.073  -1.152  1.00  0.00     0.277 HD
ATOM     33  H71 UNL     1      -6.796   1.090  -0.112  1.00  0.00     0.277 HD
ENDBRANCH  29  30
BRANCH  29  34
HETATM   34  N8  UNL     1      -5.519  -1.045   0.309  1.00  0.00    -0.046 N 
ATOM     35  H83 UNL     1      -5.193  -1.263  -0.633  1.00  0.00     0.277 HD
ATOM     36  H82 UNL     1      -5.028  -1.779   0.819  1.00  0.00     0.277 HD
ATOM     37  H81 UNL     1      -6.531  -1.148   0.387  1.00  0.00     0.277 HD
ENDBRANCH  29  34
ENDBRANCH   8  29
TORSDOF 8
