REMARK  2 active torsions:
REMARK  status: ('A' for Active; 'I' for Inactive)
REMARK    1  A    between atoms: C4_8  and  C5_9 
REMARK       I    between atoms: C5_9  and  N2_11 
REMARK    2  A    between atoms: N2_11  and  N3_13 
ROOT
HETATM    1  C1  UNL     1      -1.529  -1.225  -0.823  1.00  0.00     0.071 C 
HETATM    2  C2  UNL     1      -1.317   0.185  -0.402  1.00  0.00     0.051 A 
HETATM    3  N1  UNL     1      -2.316   1.128  -0.323  1.00  0.00    -0.261 N 
ATOM      4  H1  UNL     1      -3.299   0.964  -0.542  1.00  0.00     0.194 HD
HETATM    5  O1  UNL     1      -1.822   2.245   0.069  1.00  0.00    -0.194 OA
HETATM    6  C3  UNL     1      -0.537   2.153   0.271  1.00  0.00     0.322 A 
HETATM    7  O2  UNL     1       0.174   3.111   0.657  1.00  0.00    -0.257 OA
HETATM    8  C4  UNL     1      -0.180   0.834  -0.025  1.00  0.00     0.134 A 
ENDROOT
BRANCH   8   9
HETATM    9  C5  UNL     1       1.167   0.320   0.073  1.00  0.00     0.277 C 
HETATM   10  O3  UNL     1       2.088   1.144   0.469  1.00  0.00    -0.266 OA
HETATM   11  N2  UNL     1       1.631  -0.969  -0.206  1.00  0.00    -0.272 N 
ATOM     12  H2  UNL     1       0.978  -1.685  -0.524  1.00  0.00     0.189 HD
BRANCH  11  13
HETATM   13  N3  UNL     1       2.981  -1.281  -0.052  1.00  0.00    -0.342 N 
ATOM     14  H32 UNL     1       3.621  -0.553   0.267  1.00  0.00     0.176 HD
ATOM     15  H31 UNL     1       3.320  -2.221  -0.256  1.00  0.00     0.176 HD
ENDBRANCH  11  13
ENDBRANCH   8   9
TORSDOF 2
