REMARK  0 active torsions:
REMARK  status: ('A' for Active; 'I' for Inactive)
ROOT
HETATM    1  O1  UNL     1      -3.250  -0.214  -0.664  1.00  0.00    -0.247 OA
HETATM    2  C1  UNL     1      -2.033  -0.077  -0.343  1.00  0.00     0.328 A 
HETATM    3  N1  UNL     1      -1.741   0.718   0.702  1.00  0.00    -0.273 N 
ATOM      4  H1  UNL     1      -2.472   1.199   1.225  1.00  0.00     0.173 HD
HETATM    5  C2  UNL     1      -0.442   0.851   1.027  1.00  0.00     0.280 A 
HETATM    6  O2  UNL     1      -0.167   1.591   2.001  1.00  0.00    -0.265 OA
HETATM    7  C3  UNL     1       0.578   0.223   0.353  1.00  0.00     0.146 A 
HETATM    8  N2  UNL     1       1.916   0.176   0.455  1.00  0.00    -0.345 N 
ATOM      9  H2  UNL     1       2.462   0.676   1.156  1.00  0.00     0.167 HD
HETATM   10  C4  UNL     1       2.439  -0.625  -0.500  1.00  0.00     0.182 A 
HETATM   11  N3  UNL     1       1.399  -1.090  -1.216  1.00  0.00    -0.336 N 
ATOM     12  H3  UNL     1       1.471  -1.723  -2.012  1.00  0.00     0.168 HD
HETATM   13  C5  UNL     1       0.247  -0.593  -0.723  1.00  0.00     0.143 A 
HETATM   14  N4  UNL     1      -1.054  -0.704  -1.021  1.00  0.00    -0.292 N 
ATOM     15  H4  UNL     1      -1.318  -1.298  -1.807  1.00  0.00     0.172 HD
ENDROOT
TORSDOF 0
