REMARK  15 active torsions:
REMARK  status: ('A' for Active; 'I' for Inactive)
REMARK    1  A    between atoms: C2_2  and  O1_3 
REMARK    2  A    between atoms: O1_3  and  C3_4 
REMARK    3  A    between atoms: C3_4  and  C4_6 
REMARK    4  A    between atoms: C6_8  and  O3_9 
REMARK    5  A    between atoms: C9_13  and  C10_14 
REMARK    6  A    between atoms: C10_14  and  O4_15 
REMARK    7  A    between atoms: O4_15  and  C11_16 
REMARK    8  A    between atoms: C11_16  and  C12_18 
REMARK    9  A    between atoms: C13_19  and  C14_20 
REMARK   10  A    between atoms: C15_21  and  C16_22 
REMARK   11  A    between atoms: C16_22  and  O6_23 
REMARK   12  A    between atoms: C19_27  and  O7_28 
REMARK   13  A    between atoms: O7_28  and  C20_29 
REMARK   14  A    between atoms: C27_38  and  O9_39 
REMARK   15  A    between atoms: C33_45  and  O10_46 
ROOT
HETATM    1  C4  UNL     1      -5.266  -0.576  -1.118  1.00  0.00     0.095 C 
HETATM    2  C5  UNL     1      -4.174  -1.599  -0.862  1.00  0.00     0.047 C 
HETATM    3  C6  UNL     1      -2.862  -0.854  -1.074  1.00  0.00     0.132 C 
HETATM    4  C7  UNL     1      -2.657   0.223  -0.057  1.00  0.00     0.042 C 
HETATM    5  C8  UNL     1      -2.206  -0.445   1.232  1.00  0.00     0.024 C 
HETATM    6  C9  UNL     1      -1.592   1.215  -0.513  1.00  0.00     0.162 C 
HETATM    7  O8  UNL     1      -1.660   2.364   0.278  1.00  0.00    -0.352 OA
HETATM    8  C27 UNL     1      -2.725   3.183  -0.167  1.00  0.00     0.266 C 
HETATM    9  C29 UNL     1      -3.862   2.304  -0.599  1.00  0.00     0.076 C 
HETATM   10  C30 UNL     1      -5.213   2.878  -0.226  1.00  0.00     0.013 C 
HETATM   11  C31 UNL     1      -6.093   1.647  -0.314  1.00  0.00     0.009 C 
HETATM   12  C32 UNL     1      -5.183   0.452  -0.036  1.00  0.00     0.035 C 
HETATM   13  C33 UNL     1      -3.870   1.030   0.251  1.00  0.00     0.083 C 
ENDROOT
BRANCH   6  14
HETATM   14  C10 UNL     1      -0.222   0.634  -0.576  1.00  0.00     0.212 C 
BRANCH  14  15
HETATM   15  O4  UNL     1       0.291   0.244   0.658  1.00  0.00    -0.316 OA
BRANCH  15  16
HETATM   16  C11 UNL     1       1.621  -0.318   0.712  1.00  0.00     0.282 C 
HETATM   17  O5  UNL     1       2.132  -0.371  -0.395  1.00  0.00    -0.260 OA
BRANCH  16  18
HETATM   18  C12 UNL     1       2.146  -0.719   1.974  1.00  0.00     0.082 C 
HETATM   19  C13 UNL     1       3.232  -1.217   2.392  1.00  0.00     0.013 C 
BRANCH  19  20
HETATM   20  C14 UNL     1       4.513  -1.647   1.871  1.00  0.00    -0.051 C 
HETATM   21  C15 UNL     1       5.400  -2.167   2.704  1.00  0.00    -0.050 C 
HETATM   22  C17 UNL     1       6.741  -2.658   2.239  1.00  0.00     0.039 C 
HETATM   23  C18 UNL     1       6.691  -3.019   0.773  1.00  0.00     0.037 C 
HETATM   24  C19 UNL     1       6.262  -1.763   0.011  1.00  0.00     0.133 C 
HETATM   25  C26 UNL     1       4.838  -1.469   0.441  1.00  0.00     0.071 C 
BRANCH  21  26
HETATM   26  C16 UNL     1       5.187  -2.354   4.176  1.00  0.00     0.199 C 
BRANCH  26  27
HETATM   27  O6  UNL     1       6.213  -1.576   4.776  1.00  0.00    -0.397 OA
ATOM     28  H6  UNL     1       6.078  -1.695   5.709  1.00  0.00     0.209 HD
ENDBRANCH  26  27
ENDBRANCH  21  26
BRANCH  24  29
HETATM   29  O7  UNL     1       7.116  -0.703   0.252  1.00  0.00    -0.346 OA
BRANCH  29  30
HETATM   30  C20 UNL     1       7.803  -0.039  -0.726  1.00  0.00     0.070 A 
HETATM   31  C21 UNL     1       7.735  -0.324  -2.076  1.00  0.00     0.037 A 
HETATM   32  C22 UNL     1       8.472   0.406  -3.010  1.00  0.00     0.004 A 
HETATM   33  C23 UNL     1       9.284   1.423  -2.621  1.00  0.00     0.024 A 
HETATM   34  C24 UNL     1       9.344   1.697  -1.268  1.00  0.00     0.036 A 
HETATM   35 CL1  UNL     1      10.404   3.017  -0.792  1.00  0.00    -0.084 Cl
HETATM   36  C25 UNL     1       8.643   1.009  -0.342  1.00  0.00     0.060 A 
ENDBRANCH  29  30
ENDBRANCH  24  29
ENDBRANCH  19  20
ENDBRANCH  16  18
ENDBRANCH  15  16
ENDBRANCH  14  15
ENDBRANCH   6  14
BRANCH   3  37
HETATM   37  O3  UNL     1      -2.866  -0.396  -2.385  1.00  0.00    -0.395 OA
ATOM     38  H3  UNL     1      -2.048   0.069  -2.517  1.00  0.00     0.210 HD
ENDBRANCH   3  37
BRANCH  13  39
HETATM   39  O10 UNL     1      -3.848   1.472   1.585  1.00  0.00    -0.388 OA
ATOM     40  H10 UNL     1      -4.622   1.987   1.781  1.00  0.00     0.210 HD
ENDBRANCH  13  39
BRANCH   8  41
HETATM   41  O9  UNL     1      -3.087   4.109   0.785  1.00  0.00    -0.366 OA
HETATM   42  C28 UNL     1      -2.860   5.424   0.394  1.00  0.00     0.204 C 
ENDBRANCH   8  41
BRANCH   1  43
HETATM   43  C3  UNL     1      -6.616  -1.219  -1.004  1.00  0.00     0.263 C 
HETATM   44  O2  UNL     1      -6.690  -2.425  -0.727  1.00  0.00    -0.265 OA
BRANCH  43  45
HETATM   45  O1  UNL     1      -7.766  -0.504  -1.200  1.00  0.00    -0.322 OA
BRANCH  45  46
HETATM   46  C2  UNL     1      -9.064  -1.012  -1.117  1.00  0.00     0.174 C 
HETATM   47  C1  UNL     1      -9.361  -2.125  -2.079  1.00  0.00     0.034 C 
ENDBRANCH  45  46
ENDBRANCH  43  45
ENDBRANCH   1  43
TORSDOF 15
