REMARK  15 active torsions:
REMARK  status: ('A' for Active; 'I' for Inactive)
REMARK    1  A    between atoms: C2_2  and  O1_3 
REMARK    2  A    between atoms: O1_3  and  C3_4 
REMARK    3  A    between atoms: C3_4  and  C4_5 
REMARK    4  A    between atoms: C5_7  and  O3_8 
REMARK    5  A    between atoms: O3_8  and  C6_9 
REMARK    6  A    between atoms: C6_9  and  C7_10 
REMARK    7  A    between atoms: C7_10  and  C8_11 
REMARK    8  A    between atoms: C8_11  and  C9_12 
REMARK    9  A    between atoms: C17_21  and  C18_22 
REMARK   10  A    between atoms: C21_26  and  O5_27 
REMARK   11  A    between atoms: O5_27  and  C22_28 
REMARK   12  A    between atoms: C22_28  and  C23_30 
REMARK   13  A    between atoms: C32_39  and  O7_40 
REMARK   14  A    between atoms: C33_42  and  O8_43 
REMARK   15  A    between atoms: C34_45  and  O9_46 
ROOT
HETATM    1  C6  UNL     1       0.075   0.552  -1.310  1.00  0.00     0.120 C 
HETATM    2  C15 UNL     1      -1.044  -0.163  -1.320  1.00  0.00    -0.029 C 
HETATM    3  C16 UNL     1      -0.877  -1.673  -1.376  1.00  0.00     0.070 C 
HETATM    4  C17 UNL     1      -1.873  -2.367  -0.492  1.00  0.00     0.126 C 
HETATM    5  O4  UNL     1      -3.098  -1.776  -0.292  1.00  0.00    -0.377 OA
HETATM    6  C20 UNL     1      -2.917  -0.470  -0.011  1.00  0.00     0.160 C 
HETATM    7  C21 UNL     1      -4.010   0.410   0.433  1.00  0.00     0.166 C 
HETATM    8  C26 UNL     1      -4.356   1.412  -0.575  1.00  0.00     0.031 A 
HETATM    9  C27 UNL     1      -3.088   1.422  -1.457  1.00  0.00     0.012 A 
HETATM   10  C28 UNL     1      -2.431   0.156  -1.321  1.00  0.00     0.055 C 
HETATM   11  C29 UNL     1      -4.563   1.285  -1.997  1.00  0.00    -0.036 A 
HETATM   12  C30 UNL     1      -4.848   0.091  -2.812  1.00  0.00     0.015 C 
HETATM   13  C31 UNL     1      -5.012   2.565  -2.739  1.00  0.00     0.015 C 
ENDROOT
BRANCH   1  14
HETATM   14  O3  UNL     1       1.226  -0.276  -1.370  1.00  0.00    -0.309 OA
BRANCH  14  15
HETATM   15  C5  UNL     1       2.287  -0.185  -0.512  1.00  0.00     0.299 C 
HETATM   16  O2  UNL     1       3.230  -1.208  -0.824  1.00  0.00    -0.348 OA
HETATM   17  C4  UNL     1       4.365  -0.911  -0.005  1.00  0.00     0.179 C 
HETATM   18  C34 UNL     1       4.138  -1.403   1.363  1.00  0.00     0.180 C 
HETATM   19  C33 UNL     1       2.627  -1.303   1.659  1.00  0.00     0.183 C 
HETATM   20  C32 UNL     1       2.071  -0.119   0.941  1.00  0.00     0.205 C 
BRANCH  17  21
HETATM   21  C3  UNL     1       5.577  -1.406  -0.707  1.00  0.00     0.202 C 
BRANCH  21  22
HETATM   22  O1  UNL     1       6.786  -1.125  -0.232  1.00  0.00    -0.389 OA
BRANCH  22  23
HETATM   23  C2  UNL     1       7.399  -1.500   0.864  1.00  0.00     0.163 C 
HETATM   24  C1  UNL     1       7.810  -2.956   0.997  1.00  0.00     0.033 C 
ENDBRANCH  22  23
ENDBRANCH  21  22
ENDBRANCH  17  21
BRANCH  18  25
HETATM   25  O9  UNL     1       4.408  -2.753   1.574  1.00  0.00    -0.390 OA
ATOM     26  H9  UNL     1       4.261  -3.071   2.457  1.00  0.00     0.210 HD
ENDBRANCH  18  25
BRANCH  19  27
HETATM   27  O8  UNL     1       2.050  -2.470   1.210  1.00  0.00    -0.390 OA
ATOM     28  H8  UNL     1       2.404  -3.224   1.667  1.00  0.00     0.210 HD
ENDBRANCH  19  27
BRANCH  20  29
HETATM   29  O7  UNL     1       2.578   1.084   1.505  1.00  0.00    -0.388 OA
ATOM     30  H7  UNL     1       2.438   1.127   2.444  1.00  0.00     0.210 HD
ENDBRANCH  20  29
ENDBRANCH  14  15
ENDBRANCH   1  14
BRANCH   1  31
HETATM   31  C7  UNL     1       0.149   1.943  -1.225  1.00  0.00    -0.091 C 
BRANCH  31  32
HETATM   32  C8  UNL     1       0.219   3.210  -1.148  1.00  0.00     0.069 C 
BRANCH  32  33
HETATM   33  C9  UNL     1       1.275   4.189  -1.166  1.00  0.00    -0.029 A 
HETATM   34  C10 UNL     1       2.599   3.937  -1.264  1.00  0.00     0.013 A 
HETATM   35  C11 UNL     1       3.587   4.947  -1.309  1.00  0.00     0.024 A 
HETATM   36  C12 UNL     1       3.199   6.266  -1.251  1.00  0.00     0.034 A 
HETATM   37 CL1  UNL     1       4.390   7.558  -1.302  1.00  0.00    -0.084 Cl
HETATM   38  C13 UNL     1       1.858   6.532  -1.150  1.00  0.00     0.024 A 
HETATM   39  C14 UNL     1       0.905   5.526  -1.106  1.00  0.00     0.013 A 
ENDBRANCH  32  33
ENDBRANCH  31  32
ENDBRANCH   1  31
BRANCH   4  40
HETATM   40  C18 UNL     1      -1.961  -3.853  -0.736  1.00  0.00     0.028 C 
HETATM   41  C19 UNL     1      -0.690  -4.591  -0.478  1.00  0.00     0.007 C 
ENDBRANCH   4  40
BRANCH   7  42
HETATM   42  O5  UNL     1      -5.030  -0.175   1.156  1.00  0.00    -0.313 OA
BRANCH  42  43
HETATM   43  C22 UNL     1      -5.179  -0.181   2.481  1.00  0.00     0.263 C 
HETATM   44  O6  UNL     1      -4.262   0.401   3.102  1.00  0.00    -0.265 OA
BRANCH  43  45
HETATM   45  C23 UNL     1      -6.263  -0.778   3.290  1.00  0.00     0.085 A 
HETATM   46  C24 UNL     1      -5.720  -1.920   4.177  1.00  0.00     0.015 A 
HETATM   47  C25 UNL     1      -6.208  -0.668   4.798  1.00  0.00     0.015 A 
ENDBRANCH  43  45
ENDBRANCH  42  43
ENDBRANCH   7  42
TORSDOF 15
