REMARK  15 active torsions:
REMARK  status: ('A' for Active; 'I' for Inactive)
REMARK    1  A    between atoms: C2_2  and  C3_3 
REMARK    2  A    between atoms: C3_3  and  C4_4 
REMARK    3  A    between atoms: C4_4  and  O2_6 
REMARK    4  A    between atoms: O2_6  and  C5_7 
REMARK    5  A    between atoms: C6_8  and  O3_9 
REMARK    6  A    between atoms: O3_9  and  C7_10 
REMARK    7  A    between atoms: C13_17  and  C14_18 
REMARK    8  A    between atoms: C14_18  and  N1_19 
REMARK    9  A    between atoms: N1_19  and  C15_21 
REMARK   10  A    between atoms: C15_21  and  N2_23 
REMARK   11  A    between atoms: N2_23  and  C16_25 
REMARK   12  A    between atoms: C23_32  and  O5_33 
REMARK   13  A    between atoms: O5_33  and  C24_34 
REMARK   14  A    between atoms: C29_43  and  N4_44 
REMARK   15  A    between atoms: N4_44  and  N5_46 
ROOT
HETATM    1  C7  UNL     1      -1.754   1.481  -1.557  1.00  0.00     0.270 C 
HETATM    2  O4  UNL     1      -2.189   2.797  -1.746  1.00  0.00    -0.355 OA
HETATM    3  C8  UNL     1      -1.066   3.583  -1.997  1.00  0.00     0.125 C 
HETATM    4  C9  UNL     1      -0.695   3.436  -3.434  1.00  0.00     0.040 C 
HETATM    5  C10 UNL     1      -0.066   3.006  -1.030  1.00  0.00     0.029 C 
HETATM    6  C11 UNL     1       1.353   3.285  -1.288  1.00  0.00     0.035 C 
HETATM    7  C12 UNL     1       2.191   2.136  -0.829  1.00  0.00    -0.015 C 
HETATM    8  C13 UNL     1       1.750   1.020  -0.286  1.00  0.00    -0.017 C 
HETATM    9  C23 UNL     1       0.234   0.833  -0.094  1.00  0.00     0.176 C 
HETATM   10  C25 UNL     1      -0.298   1.516  -1.313  1.00  0.00     0.082 C 
ENDROOT
BRANCH   1  11
HETATM   11  O3  UNL     1      -2.496   0.786  -0.651  1.00  0.00    -0.328 OA
BRANCH  11  12
HETATM   12  C6  UNL     1      -3.111  -0.300  -1.212  1.00  0.00     0.295 C 
HETATM   13  C5  UNL     1      -4.600  -0.307  -1.177  1.00  0.00     0.214 C 
HETATM   14  C29 UNL     1      -5.235  -1.600  -1.637  1.00  0.00     0.171 C 
HETATM   15  C28 UNL     1      -4.535  -2.800  -1.055  1.00  0.00     0.225 C 
HETATM   16  C26 UNL     1      -3.041  -2.601  -1.226  1.00  0.00     0.157 C 
HETATM   17  F1  UNL     1      -4.856  -2.875   0.292  1.00  0.00    -0.244 F 
HETATM   18  O7  UNL     1      -2.614  -1.440  -0.593  1.00  0.00    -0.351 OA
HETATM   19  C27 UNL     1      -2.346  -3.775  -0.590  1.00  0.00     0.042 C 
BRANCH  13  20
HETATM   20  O2  UNL     1      -5.192   0.108   0.029  1.00  0.00    -0.309 OA
BRANCH  20  21
HETATM   21  C4  UNL     1      -5.975   1.246   0.121  1.00  0.00     0.259 C 
HETATM   22  O1  UNL     1      -6.146   1.924  -0.927  1.00  0.00    -0.265 OA
BRANCH  21  23
HETATM   23  C3  UNL     1      -6.623   1.716   1.363  1.00  0.00     0.111 C 
BRANCH  23  24
HETATM   24  C2  UNL     1      -5.949   2.947   1.941  1.00  0.00     0.005 C 
HETATM   25  C1  UNL     1      -4.520   2.528   2.273  1.00  0.00     0.005 C 
ENDBRANCH  23  24
ENDBRANCH  21  23
ENDBRANCH  20  21
ENDBRANCH  13  20
BRANCH  14  26
HETATM   26  N4  UNL     1      -6.650  -1.623  -1.282  1.00  0.00    -0.312 N 
ATOM     27  H4  UNL     1      -7.107  -0.815  -0.859  1.00  0.00     0.182 HD
BRANCH  26  28
HETATM   28  N5  UNL     1      -7.276  -2.679  -1.520  1.00  0.00    -0.253 N 
HETATM   29  N6  UNL     1      -8.160  -3.357  -2.071  1.00  0.00    -0.331 N 
ATOM     30  H62 UNL     1      -8.615  -2.640  -2.636  1.00  0.00     0.178 HD
ATOM     31  H61 UNL     1      -8.671  -4.218  -2.265  1.00  0.00     0.178 HD
ATOM     32  H5  UNL     1      -6.793  -3.365  -0.940  1.00  0.00     0.207 HD
ENDBRANCH  26  28
ENDBRANCH  14  26
ENDBRANCH  11  12
ENDBRANCH   1  11
BRANCH   9  33
HETATM   33  O5  UNL     1      -0.055   1.626   1.044  1.00  0.00    -0.296 OA
BRANCH  33  34
HETATM   34  C24 UNL     1      -0.611   1.110   2.189  1.00  0.00     0.373 C 
HETATM   35  N3  UNL     1      -0.888   1.946   3.329  1.00  0.00    -0.032 NA
HETATM   36  O6  UNL     1      -0.860  -0.124   2.185  1.00  0.00    -0.242 OA
ENDBRANCH  33  34
ENDBRANCH   9  33
BRANCH   8  37
HETATM   37  C14 UNL     1       2.603  -0.063   0.139  1.00  0.00     0.100 C 
BRANCH  37  38
HETATM   38  N1  UNL     1       4.004   0.104  -0.047  1.00  0.00    -0.343 N 
ATOM     39  H1  UNL     1       4.356   0.983  -0.426  1.00  0.00     0.167 HD
BRANCH  38  40
HETATM   40  C15 UNL     1       4.940  -0.948   0.291  1.00  0.00     0.176 C 
HETATM   41  S1  UNL     1       4.338  -2.329   0.840  1.00  0.00    -0.041 SA
BRANCH  40  42
HETATM   42  N2  UNL     1       6.310  -0.740   0.100  1.00  0.00    -0.333 N 
ATOM     43  H2  UNL     1       6.573   0.166  -0.288  1.00  0.00     0.168 HD
BRANCH  42  44
HETATM   44  C16 UNL     1       7.371  -1.620   0.375  1.00  0.00     0.034 A 
HETATM   45  C17 UNL     1       8.518  -1.499  -0.419  1.00  0.00     0.029 A 
HETATM   46  C18 UNL     1       9.603  -2.315  -0.203  1.00  0.00     0.003 A 
HETATM   47  C19 UNL     1       9.609  -3.270   0.785  1.00  0.00     0.007 A 
HETATM   48  C20 UNL     1       8.494  -3.406   1.578  1.00  0.00    -0.060 A 
HETATM   49  C21 UNL     1       8.499  -4.430   2.643  1.00  0.00     0.048 C 
HETATM   50  C22 UNL     1       7.414  -2.570   1.341  1.00  0.00     0.036 A 
ENDBRANCH  42  44
ENDBRANCH  40  42
ENDBRANCH  38  40
ENDBRANCH  37  38
ENDBRANCH   8  37
TORSDOF 15
