REMARK  15 active torsions:
REMARK  status: ('A' for Active; 'I' for Inactive)
REMARK    1  A    between atoms: C13_16  and  C14_17 
REMARK    2  A    between atoms: C14_17  and  C15_18 
REMARK    3  A    between atoms: C15_18  and  C16_19 
REMARK    4  A    between atoms: C18_21  and  O3_22 
REMARK    5  A    between atoms: C19_24  and  C20_25 
REMARK    6  A    between atoms: C20_25  and  O4_26 
REMARK    7  A    between atoms: C21_28  and  O5_29 
REMARK    8  A    between atoms: C22_31  and  C23_32 
REMARK    9  A    between atoms: C23_32  and  O6_33 
REMARK   10  A    between atoms: O6_33  and  C24_34 
REMARK   11  A    between atoms: C24_34  and  C25_36 
REMARK   12  A    between atoms: C25_36  and  C26_37 
REMARK   13  A    between atoms: C25_36  and  C28_39 
REMARK   14  A    between atoms: C33_44  and  O8_45 
REMARK   15  A    between atoms: O8_45  and  C34_46 
ROOT
HETATM    1  C16 UNL     1       0.709   1.364  -0.614  1.00  0.00    -0.010 C 
HETATM    2  C17 UNL     1       1.460   1.013  -1.904  1.00  0.00     0.018 C 
HETATM    3  C18 UNL     1       0.563   2.931  -0.784  1.00  0.00     0.135 C 
HETATM    4  C19 UNL     1       1.840   3.642  -0.831  1.00  0.00     0.068 C 
HETATM    5  C21 UNL     1       2.989   3.117  -0.115  1.00  0.00     0.133 C 
HETATM    6  C22 UNL     1       2.948   1.599   0.202  1.00  0.00     0.048 C 
HETATM    7  C30 UNL     1       1.563   1.191   0.574  1.00  0.00    -0.030 C 
HETATM    8  C31 UNL     1       1.555  -0.244   1.075  1.00  0.00     0.016 C 
HETATM    9  C32 UNL     1       1.113   1.977   1.792  1.00  0.00     0.016 C 
ENDROOT
BRANCH   1  10
HETATM   10  C15 UNL     1      -0.690   0.917  -0.693  1.00  0.00     0.013 C 
BRANCH  10  11
HETATM   11  C14 UNL     1      -1.012  -0.516  -0.986  1.00  0.00     0.011 C 
BRANCH  11  12
HETATM   12  C13 UNL     1      -2.475  -0.762  -1.216  1.00  0.00     0.057 C 
HETATM   13  C12 UNL     1      -2.961   0.092  -2.343  1.00  0.00     0.171 C 
HETATM   14  C10 UNL     1      -4.202  -0.477  -2.936  1.00  0.00     0.160 C 
HETATM   15  O2  UNL     1      -3.620   1.250  -2.230  1.00  0.00    -0.379 OA
HETATM   16  C9  UNL     1      -5.230  -0.750  -1.910  1.00  0.00     0.091 C 
HETATM   17  F1  UNL     1      -4.029  -1.462  -3.877  1.00  0.00    -0.237 F 
HETATM   18  C11 UNL     1      -4.167   0.938  -3.509  1.00  0.00     0.215 C 
HETATM   19  C2  UNL     1      -5.885   0.393  -1.260  1.00  0.00    -0.079 C 
HETATM   20  C8  UNL     1      -4.727  -1.675  -0.880  1.00  0.00     0.176 C 
HETATM   21  C1  UNL     1      -6.874   0.943  -1.960  1.00  0.00     0.015 C 
HETATM   22  C3  UNL     1      -5.710   1.083   0.029  1.00  0.00     0.034 C 
HETATM   23  C4  UNL     1      -4.570   0.776   0.885  1.00  0.00     0.019 C 
HETATM   24  C5  UNL     1      -3.901  -0.498   0.936  1.00  0.00     0.080 C 
HETATM   25  C6  UNL     1      -4.919  -1.501   1.430  1.00  0.00     0.045 C 
HETATM   26  C33 UNL     1      -3.368  -1.250  -0.194  1.00  0.00     0.113 C 
HETATM   27  C7  UNL     1      -5.194  -2.046   2.531  1.00  0.00     0.046 C 
HETATM   28  O1  UNL     1      -5.618  -1.780   0.222  1.00  0.00    -0.347 OA
BRANCH  26  29
HETATM   29  O8  UNL     1      -2.993  -2.548   0.212  1.00  0.00    -0.306 OA
BRANCH  29  30
HETATM   30  C34 UNL     1      -2.225  -3.082   1.121  1.00  0.00     0.255 C 
HETATM   31  C35 UNL     1      -1.957  -4.527   1.366  1.00  0.00     0.126 C 
HETATM   32  O9  UNL     1      -1.681  -2.235   1.842  1.00  0.00    -0.266 OA
ENDBRANCH  29  30
ENDBRANCH  26  29
ENDBRANCH  11  12
ENDBRANCH  10  11
ENDBRANCH   1  10
BRANCH   3  33
HETATM   33  O3  UNL     1      -0.374   3.380   0.138  1.00  0.00    -0.394 OA
ATOM     34  H3  UNL     1      -0.462   4.320   0.036  1.00  0.00     0.210 HD
ENDBRANCH   3  33
BRANCH   4  35
HETATM   35  C20 UNL     1       1.544   5.130  -0.655  1.00  0.00     0.173 C 
BRANCH  35  36
HETATM   36  O4  UNL     1       0.915   5.500   0.492  1.00  0.00    -0.400 OA
ATOM     37  H4  UNL     1       0.731   6.426   0.601  1.00  0.00     0.209 HD
ENDBRANCH  35  36
ENDBRANCH   4  35
BRANCH   6  38
HETATM   38  C23 UNL     1       4.077   1.395   1.126  1.00  0.00     0.186 C 
BRANCH  38  39
HETATM   39  O6  UNL     1       4.420   0.127   1.573  1.00  0.00    -0.321 OA
BRANCH  39  40
HETATM   40  C24 UNL     1       4.852  -0.889   0.692  1.00  0.00     0.263 C 
HETATM   41  O7  UNL     1       4.915  -0.628  -0.505  1.00  0.00    -0.265 OA
BRANCH  40  42
HETATM   42  C25 UNL     1       5.220  -2.231   1.232  1.00  0.00     0.085 C 
BRANCH  42  43
HETATM   43  C26 UNL     1       4.988  -3.217   0.096  1.00  0.00     0.010 C 
HETATM   44  C27 UNL     1       5.308  -4.613   0.482  1.00  0.00     0.006 C 
ENDBRANCH  42  43
BRANCH  42  45
HETATM   45  C28 UNL     1       6.732  -2.211   1.497  1.00  0.00     0.010 C 
HETATM   46  C29 UNL     1       7.113  -1.120   2.483  1.00  0.00     0.006 C 
ENDBRANCH  42  45
ENDBRANCH  40  42
ENDBRANCH  39  40
ENDBRANCH  38  39
ENDBRANCH   6  38
BRANCH   5  47
HETATM   47  O5  UNL     1       3.413   3.752   1.040  1.00  0.00    -0.395 OA
ATOM     48  H5  UNL     1       4.165   3.409   1.508  1.00  0.00     0.210 HD
ENDBRANCH   5  47
TORSDOF 15
