REMARK  12 active torsions:
REMARK  status: ('A' for Active; 'I' for Inactive)
REMARK    1  A    between atoms: C2_2  and  C3_3 
REMARK    2  A    between atoms: C3_3  and  N1_4 
REMARK    3  A    between atoms: N2_7  and  C6_8 
REMARK    4  A    between atoms: C8_10  and  O1_11 
REMARK    5  A    between atoms: C10_13  and  N3_14 
REMARK    6  A    between atoms: N3_14  and  C11_16 
REMARK    7  A    between atoms: C12_19  and  N5_20 
REMARK    8  A    between atoms: N5_20  and  C13_22 
REMARK    9  A    between atoms: C16_25  and  N6_26 
REMARK   10  A    between atoms: N7_29  and  C19_30 
REMARK   11  A    between atoms: C23_34  and  N8_35 
REMARK   12  A    between atoms: C29_46  and  O2_47 
ROOT
HETATM    1  C11 UNL     1      -1.015  -1.250  -2.487  1.00  0.00     0.144 A 
HETATM    2  N4  UNL     1      -0.501  -0.841  -1.323  1.00  0.00    -0.175 N 
ATOM      3  H4  UNL     1      -1.133  -0.581  -0.565  1.00  0.00     0.186 HD
HETATM    4  C12 UNL     1       0.846  -0.762  -1.121  1.00  0.00     0.684 A 
HETATM    5  N10 UNL     1       1.708  -1.095  -2.094  1.00  0.00    -0.200 N 
ATOM      6  H10 UNL     1       2.713  -1.030  -1.930  1.00  0.00     0.183 HD
HETATM    7  C27 UNL     1       1.247  -1.515  -3.287  1.00  0.00     0.133 A 
HETATM    8  C28 UNL     1      -0.139  -1.594  -3.490  1.00  0.00     0.094 A 
HETATM    9 CL1  UNL     1      -0.702  -2.139  -5.039  1.00  0.00    -0.079 Cl
ENDROOT
BRANCH   1  10
HETATM   10  N3  UNL     1      -2.252  -1.320  -2.668  1.00  0.00    -0.336 N 
ATOM     11  H3  UNL     1      -2.544  -1.643  -3.590  1.00  0.00     0.168 HD
BRANCH  10  12
HETATM   12  C10 UNL     1      -3.294  -1.015  -1.776  1.00  0.00     0.101 A 
HETATM   13  C8  UNL     1      -4.096  -1.994  -1.225  1.00  0.00     0.100 A 
HETATM   14  C7  UNL     1      -5.121  -1.697  -0.351  1.00  0.00     0.068 A 
HETATM   15  C6  UNL     1      -5.388  -0.380   0.015  1.00  0.00     0.036 A 
HETATM   16  C31 UNL     1      -4.602   0.597  -0.522  1.00  0.00     0.068 A 
HETATM   17  C29 UNL     1      -3.560   0.287  -1.413  1.00  0.00     0.100 A 
BRANCH  13  18
HETATM   18  O1  UNL     1      -3.836  -3.311  -1.585  1.00  0.00    -0.353 OA
HETATM   19  C9  UNL     1      -4.634  -4.349  -1.044  1.00  0.00     0.210 C 
ENDBRANCH  13  18
BRANCH  15  20
HETATM   20  N2  UNL     1      -6.466  -0.093   0.932  1.00  0.00    -0.371 N 
HETATM   21  C5  UNL     1      -7.169  -1.194   1.538  1.00  0.00     0.168 C 
HETATM   22  C4  UNL     1      -8.261  -0.802   2.447  1.00  0.00     0.083 C 
HETATM   23  N1  UNL     1      -8.926   0.404   2.154  1.00  0.00    -0.371 N 
HETATM   24  C33 UNL     1      -8.125   1.511   1.827  1.00  0.00     0.083 C 
HETATM   25  C32 UNL     1      -6.805   1.252   1.209  1.00  0.00     0.168 C 
BRANCH  23  26
HETATM   26  C3  UNL     1     -10.216   0.337   1.576  1.00  0.00     0.127 C 
BRANCH  26  27
HETATM   27  C2  UNL     1     -10.287  -0.186   0.180  1.00  0.00     0.016 C 
HETATM   28  C1  UNL     1     -11.765  -0.163  -0.236  1.00  0.00     0.006 C 
ENDBRANCH  26  27
ENDBRANCH  23  26
ENDBRANCH  15  20
BRANCH  17  29
HETATM   29  O2  UNL     1      -2.784   1.295  -1.939  1.00  0.00    -0.353 OA
HETATM   30  C30 UNL     1      -3.027   2.648  -1.590  1.00  0.00     0.210 C 
ENDBRANCH  17  29
ENDBRANCH  10  12
ENDBRANCH   1  10
BRANCH   4  31
HETATM   31  N5  UNL     1       1.292  -0.350   0.039  1.00  0.00    -0.192 N 
ATOM     32  H5  UNL     1       0.612  -0.101   0.757  1.00  0.00     0.184 HD
BRANCH  31  33
HETATM   33  C13 UNL     1       2.668  -0.232   0.350  1.00  0.00     0.051 A 
HETATM   34  C14 UNL     1       3.337  -1.117   1.164  1.00  0.00     0.032 A 
HETATM   35  C15 UNL     1       4.669  -0.998   1.466  1.00  0.00     0.034 A 
HETATM   36  C16 UNL     1       5.417   0.062   0.942  1.00  0.00     0.057 A 
HETATM   37  C23 UNL     1       4.781   0.955   0.133  1.00  0.00     0.062 A 
HETATM   38  C26 UNL     1       3.426   0.813  -0.161  1.00  0.00     0.061 A 
BRANCH  36  39
HETATM   39  N6  UNL     1       6.804   0.146   1.285  1.00  0.00    -0.376 N 
HETATM   40  C17 UNL     1       7.297   1.308   1.969  1.00  0.00     0.153 C 
HETATM   41  C18 UNL     1       8.704   0.990   2.492  1.00  0.00     0.292 C 
HETATM   42  N7  UNL     1       9.572   0.602   1.421  1.00  0.00     0.091 N 
HETATM   43  C21 UNL     1       9.081  -0.454   0.595  1.00  0.00     0.292 C 
HETATM   44  C22 UNL     1       7.693  -0.924   0.953  1.00  0.00     0.153 C 
BRANCH  42  45
HETATM   45  C19 UNL     1      10.891   0.361   1.943  1.00  0.00     0.268 C 
HETATM   46  C20 UNL     1      11.789  -0.053   0.800  1.00  0.00     0.037 C 
ENDBRANCH  42  45
ENDBRANCH  36  39
BRANCH  37  47
HETATM   47  N8  UNL     1       5.522   2.043  -0.417  1.00  0.00    -0.347 N 
HETATM   48  C24 UNL     1       6.009   1.970  -1.611  1.00  0.00     0.089 C 
HETATM   49  C25 UNL     1       5.846   0.784  -2.491  1.00  0.00     0.085 C 
HETATM   50  N9  UNL     1       6.735   3.069  -2.117  1.00  0.00    -0.088 NA
ATOM     51  H8  UNL     1       5.669   2.886   0.138  1.00  0.00     0.167 HD
ENDBRANCH  37  47
ENDBRANCH  31  33
ENDBRANCH   4  31
TORSDOF 12
