REMARK  3 active torsions:
REMARK  status: ('A' for Active; 'I' for Inactive)
REMARK    1  A    between atoms: N1_1  and  N2_4 
REMARK    2  A    between atoms: N3_6  and  C1_8 
REMARK    3  A    between atoms: C5_13  and  O1_14 
ROOT
HETATM    1  C1  UNL     1      -1.840  -0.036  -1.218  1.00  0.00     0.204 C 
HETATM    2  C2  UNL     1      -1.783   0.919  -0.044  1.00  0.00    -0.046 C 
HETATM    3  C3  UNL     1      -2.194   0.283   1.260  1.00  0.00     0.056 C 
HETATM    4  C4  UNL     1      -1.770  -1.155   1.312  1.00  0.00     0.129 C 
HETATM    5  N4  UNL     1      -0.674  -1.312   0.393  1.00  0.00    -0.358 N 
HETATM    6  C5  UNL     1      -1.208  -1.396  -0.877  1.00  0.00     0.143 C 
HETATM    7  C6  UNL     1       0.609  -1.280   0.831  1.00  0.00     0.091 C 
HETATM    8  C7  UNL     1       0.651  -0.399   2.112  1.00  0.00     0.030 C 
HETATM    9  C8  UNL     1       0.966   1.021   1.762  1.00  0.00     0.036 C 
HETATM   10  C9  UNL     1       0.729   1.419   0.332  1.00  0.00    -0.073 C 
HETATM   11  C10 UNL     1      -0.640   1.822  -0.002  1.00  0.00     0.009 C 
HETATM   12  C11 UNL     1       1.442   0.552  -0.654  1.00  0.00     0.046 C 
HETATM   13  C12 UNL     1       2.897   0.974  -0.914  1.00  0.00     0.160 C 
HETATM   14 CL1  UNL     1       3.023   2.134  -2.219  1.00  0.00    -0.116 Cl
HETATM   15  C13 UNL     1       3.535  -0.337  -1.223  1.00  0.00     0.146 C 
HETATM   16  O2  UNL     1       4.640  -0.479  -1.701  1.00  0.00    -0.296 OA
HETATM   17  C14 UNL     1       2.589  -1.473  -0.847  1.00  0.00     0.087 C 
HETATM   18  C15 UNL     1       1.733  -0.745   0.083  1.00  0.00     0.025 C 
ENDROOT
BRANCH   1  19
HETATM   19  N3  UNL     1      -3.218  -0.210  -1.693  1.00  0.00    -0.306 N 
HETATM   20  N2  UNL     1      -4.154   0.329  -1.083  1.00  0.00    -0.253 N 
ATOM     21  H2  UNL     1      -4.123  -0.131  -0.173  1.00  0.00     0.207 HD
ATOM     22  H3  UNL     1      -3.405  -0.773  -2.523  1.00  0.00     0.183 HD
BRANCH  20  23
HETATM   23  N1  UNL     1      -5.104   1.112  -0.960  1.00  0.00    -0.331 N 
ATOM     24  H12 UNL     1      -5.100   1.547  -1.883  1.00  0.00     0.178 HD
ATOM     25  H11 UNL     1      -5.874   1.555  -0.458  1.00  0.00     0.178 HD
ENDBRANCH  20  23
ENDBRANCH   1  19
BRANCH   6  26
HETATM   26  O1  UNL     1      -0.573  -1.961  -1.923  1.00  0.00    -0.348 OA
ATOM     27  H1  UNL     1      -0.183  -2.801  -1.712  1.00  0.00     0.219 HD
ENDBRANCH   6  26
TORSDOF 3
