REMARK  3 active torsions:
REMARK  status: ('A' for Active; 'I' for Inactive)
REMARK    1  A    between atoms: O1_2  and  C2_3 
REMARK    2  A    between atoms: C9_10  and  N1_11 
REMARK    3  A    between atoms: C14_19  and  O2_20 
ROOT
HETATM    1  C2  UNL     1       1.993   0.338  -0.117  1.00  0.00     0.129 C 
HETATM    2  C3  UNL     1       1.157  -0.211  -1.252  1.00  0.00     0.018 C 
HETATM    3  C4  UNL     1       1.118  -1.710  -1.102  1.00  0.00     0.014 C 
HETATM    4  C5  UNL     1       0.405  -2.016   0.195  1.00  0.00     0.018 C 
HETATM    5  C6  UNL     1       1.105  -1.452   1.390  1.00  0.00     0.014 C 
HETATM    6  C7  UNL     1       1.242   0.040   1.161  1.00  0.00     0.018 C 
HETATM    7  C8  UNL     1      -0.138   0.595   1.089  1.00  0.00     0.041 C 
HETATM    8  C9  UNL     1      -0.982   0.030  -0.042  1.00  0.00     0.066 C 
HETATM    9  C13 UNL     1      -0.218   0.398  -1.311  1.00  0.00     0.041 C 
HETATM   10  C14 UNL     1      -1.000  -1.469   0.058  1.00  0.00     0.151 C 
ENDROOT
BRANCH   8  11
HETATM   11  N1  UNL     1      -2.265   0.641   0.046  1.00  0.00    -0.323 N 
HETATM   12  C10 UNL     1      -2.658   1.532   1.010  1.00  0.00     0.184 A 
HETATM   13  N2  UNL     1      -3.926   1.924   0.815  1.00  0.00    -0.359 N 
HETATM   14  C11 UNL     1      -4.351   1.281  -0.279  1.00  0.00     0.126 A 
ATOM     15  H2  UNL     1      -4.459   2.580   1.386  1.00  0.00     0.166 HD
HETATM   16  C12 UNL     1      -3.325   0.493  -0.748  1.00  0.00     0.099 A 
HETATM   17 BR1  UNL     1      -3.390  -0.631  -2.279  1.00  0.00    -0.029 Br
ENDBRANCH   8  11
BRANCH  10  18
HETATM   18  O2  UNL     1      -1.706  -1.880   1.184  1.00  0.00    -0.393 OA
ATOM     19  H2  UNL     1      -2.588  -1.537   1.098  1.00  0.00     0.210 HD
ENDBRANCH  10  18
BRANCH   1  20
HETATM   20  O1  UNL     1       2.110   1.703  -0.260  1.00  0.00    -0.390 OA
HETATM   21  C1  UNL     1       3.438   2.118  -0.375  1.00  0.00     0.202 C 
ENDBRANCH   1  20
TORSDOF 3
