REMARK  3 active torsions:
REMARK  status: ('A' for Active; 'I' for Inactive)
REMARK    1  A    between atoms: O1_2  and  C2_3 
REMARK    2  A    between atoms: C10_12  and  C11_13 
REMARK    3  A    between atoms: C17_21  and  O4_22 
ROOT
HETATM    1  C2  UNL     1      -2.249  -0.140   0.372  1.00  0.00     0.092 C 
HETATM    2  C3  UNL     1      -3.387   0.858   0.736  1.00  0.00     0.049 C 
HETATM    3  C4  UNL     1      -2.923  -1.142  -0.454  1.00  0.00     0.185 A 
HETATM    4  O2  UNL     1      -3.306  -2.380  -0.314  1.00  0.00    -0.372 OA
HETATM    5  C5  UNL     1      -1.996  -2.350  -0.414  1.00  0.00     0.154 A 
HETATM    6  C6  UNL     1      -1.052  -2.066  -1.512  1.00  0.00     0.035 C 
HETATM    7  C7  UNL     1       0.170  -1.424  -0.850  1.00  0.00     0.012 C 
HETATM    8  C8  UNL     1       0.085   0.048  -0.707  1.00  0.00    -0.029 C 
HETATM    9  C9  UNL     1       0.551   0.589  -2.077  1.00  0.00     0.016 C 
HETATM   10  C10 UNL     1       1.042   0.463   0.372  1.00  0.00     0.026 C 
HETATM   11  C15 UNL     1       1.120   1.977   0.566  1.00  0.00     0.048 C 
HETATM   12  C16 UNL     1      -0.257   2.375   1.073  1.00  0.00     0.199 C 
HETATM   13  F1  UNL     1      -0.235   3.732   1.279  1.00  0.00    -0.247 F 
HETATM   14  C17 UNL     1      -1.181   2.099  -0.079  1.00  0.00     0.160 C 
HETATM   15  C18 UNL     1      -1.250   0.638  -0.460  1.00  0.00     0.062 C 
ENDROOT
BRANCH  10  16
HETATM   16  C11 UNL     1       2.403  -0.046   0.412  1.00  0.00     0.126 C 
HETATM   17  C12 UNL     1       3.352   0.194  -0.687  1.00  0.00     0.034 C 
HETATM   18  C13 UNL     1       4.509  -0.741  -0.285  1.00  0.00     0.029 C 
HETATM   19  C14 UNL     1       3.921  -1.601   0.785  1.00  0.00     0.168 C 
HETATM   20  O3  UNL     1       2.568  -1.381   0.821  1.00  0.00    -0.385 OA
ENDBRANCH  10  16
BRANCH   1  21
HETATM   21  O1  UNL     1      -1.774  -0.547   1.577  1.00  0.00    -0.382 OA
HETATM   22  C1  UNL     1      -2.643  -1.101   2.465  1.00  0.00     0.202 C 
ENDBRANCH   1  21
BRANCH  14  23
HETATM   23  O4  UNL     1      -0.659   2.839  -1.169  1.00  0.00    -0.392 OA
ATOM     24  H4  UNL     1      -1.243   2.664  -1.897  1.00  0.00     0.210 HD
ENDBRANCH  14  23
TORSDOF 3
