REMARK  4 active torsions:
REMARK  status: ('A' for Active; 'I' for Inactive)
REMARK    1  A    between atoms: N1_2  and  C2_4 
REMARK    2  A    between atoms: C2_4  and  N2_6 
REMARK    3  A    between atoms: N2_6  and  C3_8 
REMARK    4  A    between atoms: C10_15  and  C11_16 
ROOT
HETATM    1  C3  UNL     1       1.923   0.189   0.063  1.00  0.00     0.084 C 
HETATM    2  C4  UNL     1       0.860   0.393   1.163  1.00  0.00     0.028 C 
HETATM    3  C5  UNL     1      -0.330  -0.476   0.899  1.00  0.00     0.043 C 
HETATM    4  C6  UNL     1      -0.519  -0.605  -0.589  1.00  0.00     0.094 C 
HETATM    5  C7  UNL     1       0.566  -1.446  -1.213  1.00  0.00     0.043 C 
HETATM    6  C8  UNL     1       1.804  -1.271  -0.373  1.00  0.00     0.028 C 
HETATM    7  C9  UNL     1      -1.903  -1.174  -0.826  1.00  0.00     0.100 C 
HETATM    8  C10 UNL     1      -2.718   0.082  -0.721  1.00  0.00     0.046 C 
HETATM    9  N4  UNL     1      -1.929   1.075  -0.945  1.00  0.00    -0.269 N 
ATOM     10  H4  UNL     1      -2.225   2.051  -0.936  1.00  0.00     0.194 HD
HETATM   11  O1  UNL     1      -0.643   0.666  -1.198  1.00  0.00    -0.269 OA
ENDROOT
BRANCH   8  12
HETATM   12  C11 UNL     1      -4.129   0.209  -0.426  1.00  0.00     0.007 A 
HETATM   13  C12 UNL     1      -4.942  -0.892  -0.190  1.00  0.00     0.101 A 
HETATM   14  N3  UNL     1      -6.262  -0.745   0.084  1.00  0.00    -0.372 N 
HETATM   15  C13 UNL     1      -6.822   0.472   0.137  1.00  0.00     0.130 A 
ATOM     16  H3  UNL     1      -6.836  -1.571   0.252  1.00  0.00     0.164 HD
HETATM   17  C14 UNL     1      -6.068   1.607  -0.087  1.00  0.00     0.132 A 
HETATM   18  F1  UNL     1      -6.595   2.846  -0.043  1.00  0.00    -0.205 F 
HETATM   19  C15 UNL     1      -4.742   1.441  -0.362  1.00  0.00     0.058 A 
ENDBRANCH   8  12
BRANCH   1  20
HETATM   20  N2  UNL     1       3.203   0.423   0.662  1.00  0.00    -0.363 N 
ATOM     21  H2  UNL     1       3.219   0.580   1.670  1.00  0.00     0.162 HD
BRANCH  20  22
HETATM   22  C2  UNL     1       4.446   0.457  -0.011  1.00  0.00     0.167 C 
HETATM   23  S1  UNL     1       4.493   0.240  -1.622  1.00  0.00    -0.041 SA
BRANCH  22  24
HETATM   24  N1  UNL     1       5.671   0.689   0.664  1.00  0.00    -0.372 N 
HETATM   25  C1  UNL     1       6.940   0.724  -0.031  1.00  0.00     0.148 C 
ATOM     26  H1  UNL     1       5.658   0.836   1.673  1.00  0.00     0.161 HD
ENDBRANCH  22  24
ENDBRANCH  20  22
ENDBRANCH   1  20
TORSDOF 4
