REMARK  4 active torsions:
REMARK  status: ('A' for Active; 'I' for Inactive)
REMARK    1  A    between atoms: C2_2  and  N1_3 
REMARK    2  A    between atoms: N2_6  and  C5_7 
REMARK    3  A    between atoms: C5_7  and  N3_9 
REMARK    4  A    between atoms: N3_9  and  C6_11 
ROOT
HETATM    1  N3  UNL     1       0.533   0.796   0.440  1.00  0.00    -0.313 N 
ATOM      2  H3  UNL     1       0.133   1.640   0.851  1.00  0.00     0.170 HD
ENDROOT
BRANCH   1   3
HETATM    3  C5  UNL     1      -0.314  -0.247   0.012  1.00  0.00     0.175 C 
HETATM    4  S1  UNL     1       0.305  -1.627  -0.653  1.00  0.00    -0.041 SA
BRANCH   3   5
HETATM    5  N2  UNL     1      -1.742  -0.134   0.148  1.00  0.00    -0.355 N 
HETATM    6  C4  UNL     1      -2.575  -1.231  -0.306  1.00  0.00     0.144 C 
HETATM    7  C3  UNL     1      -4.004  -0.757  -0.477  1.00  0.00     0.136 C 
HETATM    8  N1  UNL     1      -4.444  -0.319   0.808  1.00  0.00    -0.410 N 
HETATM    9  C14 UNL     1      -3.697   0.744   1.385  1.00  0.00     0.136 C 
HETATM   10  C13 UNL     1      -2.372   1.014   0.712  1.00  0.00     0.144 C 
BRANCH   8  11
HETATM   11  C2  UNL     1      -5.852  -0.254   0.974  1.00  0.00     0.112 C 
HETATM   12  C1  UNL     1      -6.520   0.817   0.160  1.00  0.00     0.026 C 
ENDBRANCH   8  11
ENDBRANCH   3   5
ENDBRANCH   1   3
BRANCH   1  13
HETATM   13  C6  UNL     1       1.944   0.676   0.301  1.00  0.00     0.151 A 
HETATM   14  N4  UNL     1       2.603  -0.347  -0.215  1.00  0.00    -0.339 N 
HETATM   15  C7  UNL     1       3.897  -0.329  -0.278  1.00  0.00     0.024 A 
ATOM     16  H4  UNL     1       2.090  -1.156  -0.566  1.00  0.00     0.168 HD
HETATM   17  C8  UNL     1       4.540   0.786   0.208  1.00  0.00     0.011 A 
HETATM   18  C12 UNL     1       4.852  -1.382  -0.829  1.00  0.00     0.061 C 
HETATM   19  S2  UNL     1       3.213   1.741   0.729  1.00  0.00    -0.056 SA
HETATM   20  C9  UNL     1       6.039   0.934   0.195  1.00  0.00     0.085 C 
HETATM   21  C10 UNL     1       6.703   0.176  -0.898  1.00  0.00     0.175 C 
HETATM   22  F1  UNL     1       7.536  -0.810  -0.345  1.00  0.00    -0.249 F 
HETATM   23  C11 UNL     1       5.743  -0.585  -1.786  1.00  0.00     0.043 C 
ENDBRANCH   1  13
TORSDOF 4
