REMARK  4 active torsions:
REMARK  status: ('A' for Active; 'I' for Inactive)
REMARK    1  A    between atoms: N1_2  and  C3_4 
REMARK    2  A    between atoms: C3_4  and  C4_5 
REMARK    3  A    between atoms: C4_5  and  C5_6 
REMARK    4  A    between atoms: C8_13  and  N4_14 
ROOT
HETATM    1  C5  UNL     1       1.262   0.078   0.570  1.00  0.00     0.003 A 
HETATM    2  C6  UNL     1       2.014   1.231   0.560  1.00  0.00     0.099 A 
HETATM    3  N2  UNL     1       3.373   1.141   0.465  1.00  0.00    -0.361 N 
ATOM      4  H2  UNL     1       3.938   1.990   0.456  1.00  0.00     0.166 HD
HETATM    5  C7  UNL     1       3.968  -0.058   0.383  1.00  0.00     0.181 A 
HETATM    6  N3  UNL     1       3.213  -1.168   0.395  1.00  0.00    -0.339 N 
ATOM      7  H3  UNL     1       3.683  -2.071   0.332  1.00  0.00     0.168 HD
HETATM    8  C8  UNL     1       1.873  -1.155   0.486  1.00  0.00     0.107 A 
ENDROOT
BRANCH   1   9
HETATM    9  C4  UNL     1      -0.211   0.167   0.677  1.00  0.00     0.074 C 
BRANCH   9  10
HETATM   10  C3  UNL     1      -0.878  -0.105  -0.637  1.00  0.00     0.276 C 
BRANCH  10  11
HETATM   11  N1  UNL     1      -2.299  -0.030  -0.531  1.00  0.00     0.080 N 
HETATM   12  C1  UNL     1      -2.864  -1.077   0.252  1.00  0.00     0.309 C 
HETATM   13  C2  UNL     1      -2.762   1.242  -0.068  1.00  0.00     0.309 C 
ENDBRANCH  10  11
ENDBRANCH   9  10
ENDBRANCH   1   9
BRANCH   8  14
HETATM   14  N4  UNL     1       1.162  -2.236   0.495  1.00  0.00    -0.385 N 
ATOM     15  H42 UNL     1       0.144  -2.226   0.564  1.00  0.00     0.157 HD
ATOM     16  H41 UNL     1       1.614  -3.148   0.433  1.00  0.00     0.157 HD
ENDBRANCH   8  14
TORSDOF 4
