REMARK  5 active torsions:
REMARK  status: ('A' for Active; 'I' for Inactive)
REMARK    1  A    between atoms: C3_5  and  N2_6 
REMARK    2  A    between atoms: C5_12  and  C6_13 
REMARK    3  A    between atoms: C6_13  and  C7_14 
REMARK    4  A    between atoms: C7_14  and  C8_15 
REMARK    5  A    between atoms: C8_15  and  N4_16 
ROOT
HETATM    1  C1  UNL     1       0.758   2.482   0.211  1.00  0.00     0.069 C 
HETATM    2  C2  UNL     1       1.413   1.137   0.125  1.00  0.00     0.030 A 
HETATM    3  N1  UNL     1       2.758   1.074   0.271  1.00  0.00    -0.196 N 
ATOM      4  H1  UNL     1       3.290   1.930   0.429  1.00  0.00     0.184 HD
HETATM    5  C3  UNL     1       3.399  -0.110   0.209  1.00  0.00     0.675 A 
HETATM    6  N3  UNL     1       2.685  -1.211   0.004  1.00  0.00    -0.202 N 
ATOM      7  H3  UNL     1       3.173  -2.105  -0.042  1.00  0.00     0.183 HD
HETATM    8  C4  UNL     1       1.335  -1.202  -0.147  1.00  0.00     0.115 A 
HETATM    9  C5  UNL     1       0.665  -0.000  -0.089  1.00  0.00    -0.019 A 
ENDROOT
BRANCH   9  10
HETATM   10  C6  UNL     1      -0.778   0.118  -0.271  1.00  0.00     0.043 C 
BRANCH  10  11
HETATM   11  C7  UNL     1      -1.547  -1.152  -0.104  1.00  0.00     0.032 C 
BRANCH  11  12
HETATM   12  C8  UNL     1      -3.006  -0.819  -0.386  1.00  0.00     0.230 C 
BRANCH  12  13
HETATM   13  N4  UNL     1      -3.564   0.174   0.463  1.00  0.00    -0.079 N 
ATOM     14  H43 UNL     1      -3.444  -0.089   1.441  1.00  0.00     0.274 HD
ATOM     15  H42 UNL     1      -2.996   1.021   0.437  1.00  0.00     0.274 HD
ATOM     16  H41 UNL     1      -4.541   0.397   0.274  1.00  0.00     0.274 HD
ENDBRANCH  12  13
ENDBRANCH  11  12
ENDBRANCH  10  11
ENDBRANCH   9  10
BRANCH   5  17
HETATM   17  N2  UNL     1       4.701  -0.155   0.349  1.00  0.00    -0.234 N 
ATOM     18  H22 UNL     1       5.249   0.691   0.506  1.00  0.00     0.174 HD
ATOM     19  H21 UNL     1       5.186  -1.051   0.302  1.00  0.00     0.174 HD
ENDBRANCH   5  17
TORSDOF 5
