REMARK  3 active torsions:
REMARK  status: ('A' for Active; 'I' for Inactive)
REMARK    1  A    between atoms: C3_3  and  C4_4 
REMARK    2  A    between atoms: C4_4  and  N1_5 
REMARK    3  A    between atoms: N1_5  and  C5_8 
ROOT
HETATM    1  C1  UNL     1      -4.657   1.039  -0.289  1.00  0.00     0.012 C 
HETATM    2  C2  UNL     1      -3.989   0.038  -0.407  1.00  0.00    -0.116 C 
HETATM    3  C3  UNL     1      -3.214  -1.187  -0.533  1.00  0.00     0.120 C 
ENDROOT
BRANCH   3   4
HETATM    4  C4  UNL     1      -1.751  -0.835  -0.663  1.00  0.00     0.245 C 
BRANCH   4   5
HETATM    5  N1  UNL     1      -1.352  -0.112   0.516  1.00  0.00    -0.067 N 
ATOM      6  H12 UNL     1      -1.866   0.765   0.603  1.00  0.00     0.277 HD
ATOM      7  H11 UNL     1      -1.680  -0.577   1.363  1.00  0.00     0.277 HD
BRANCH   5   8
HETATM    8  C5  UNL     1       0.078   0.112   0.561  1.00  0.00     0.236 C 
HETATM    9  C6  UNL     1       0.636   0.940  -0.538  1.00  0.00     0.267 C 
HETATM   10  N2  UNL     1       1.751   1.728  -0.022  1.00  0.00    -0.072 N 
HETATM   11  C7  UNL     1       3.028   1.087  -0.148  1.00  0.00     0.259 C 
ATOM     12  H22 UNL     1       1.769   2.650  -0.458  1.00  0.00     0.277 HD
ATOM     13  H21 UNL     1       1.580   1.998   0.947  1.00  0.00     0.277 HD
HETATM   14  C8  UNL     1       3.001  -0.402  -0.040  1.00  0.00     0.259 C 
HETATM   15  N3  UNL     1       2.191  -0.866   1.075  1.00  0.00    -0.072 N 
HETATM   16  C9  UNL     1       0.848  -1.189   0.632  1.00  0.00     0.267 C 
ATOM     17  H32 UNL     1       2.628  -1.650   1.560  1.00  0.00     0.277 HD
ATOM     18  H31 UNL     1       2.185  -0.195   1.843  1.00  0.00     0.277 HD
ENDBRANCH   5   8
ENDBRANCH   4   5
ENDBRANCH   3   4
TORSDOF 3
