REMARK  8 active torsions:
REMARK  status: ('A' for Active; 'I' for Inactive)
REMARK    1  A    between atoms: C2_2  and  N1_3 
REMARK    2  A    between atoms: N1_3  and  C3_4 
REMARK    3  A    between atoms: N1_3  and  C26_35 
REMARK    4  A    between atoms: C3_4  and  C4_5 
REMARK    5  A    between atoms: C5_6  and  C6_7 
REMARK       I    between atoms: N2_11  and  C10_12 
REMARK       I    between atoms: C10_12  and  N5_17 
REMARK    6  A    between atoms: N5_17  and  C12_19 
REMARK    7  A    between atoms: C13_20  and  C14_21 
REMARK    8  A    between atoms: C15_24  and  C16_25 
ROOT
HETATM    1  C6  UNL     1      -2.072   2.106  -0.664  1.00  0.00     0.182 C 
HETATM    2  C7  UNL     1      -2.925   3.282  -0.160  1.00  0.00     0.040 C 
HETATM    3  C8  UNL     1      -2.056   4.031   0.782  1.00  0.00     0.023 C 
HETATM    4  C9  UNL     1      -0.752   3.311   0.787  1.00  0.00     0.143 C 
HETATM    5  N2  UNL     1      -1.036   1.960   0.271  1.00  0.00    -0.202 N 
HETATM    6  C10 UNL     1      -0.309   0.848   0.732  1.00  0.00     0.686 C 
HETATM    7  N3  UNL     1      -0.918  -0.258   0.890  1.00  0.00    -0.126 N 
ATOM      8  H3  UNL     1      -1.913  -0.263   0.666  1.00  0.00     0.197 HD
HETATM    9  C11 UNL     1      -0.379  -1.460   1.334  1.00  0.00     0.196 C 
HETATM   10  N4  UNL     1       0.076  -2.451   1.721  1.00  0.00    -0.171 NA
HETATM   11  N5  UNL     1       1.077   0.899   1.042  1.00  0.00    -0.220 N 
ATOM     12  H5  UNL     1       1.446   0.186   1.671  1.00  0.00     0.178 HD
ENDROOT
BRANCH  11  13
HETATM   13  C12 UNL     1       1.987   1.869   0.542  1.00  0.00     0.119 A 
HETATM   14  C13 UNL     1       2.322   1.997  -0.895  1.00  0.00     0.117 A 
HETATM   15  C15 UNL     1       3.330   1.426  -0.062  1.00  0.00     0.031 A 
BRANCH  14  16
HETATM   16  C14 UNL     1       1.523   1.456  -1.974  1.00  0.00     0.179 C 
HETATM   17  O1  UNL     1       1.091   0.281  -2.000  1.00  0.00    -0.648 OA
HETATM   18  O2  UNL     1       1.167   2.224  -3.094  1.00  0.00    -0.648 OA
ENDBRANCH  14  16
BRANCH  15  19
HETATM   19  C16 UNL     1       3.848   0.157   0.353  1.00  0.00     0.002 C 
HETATM   20  C17 UNL     1       3.316  -1.162   0.220  1.00  0.00     0.011 C 
HETATM   21  C18 UNL     1       4.510  -2.100  -0.098  1.00  0.00    -0.006 C 
HETATM   22  C19 UNL     1       4.767  -1.927  -1.574  1.00  0.00     0.006 C 
HETATM   23  C23 UNL     1       5.659  -1.301   0.483  1.00  0.00    -0.036 C 
HETATM   24  C20 UNL     1       5.158  -0.440  -1.632  1.00  0.00     0.011 C 
HETATM   25  C21 UNL     1       5.283   0.011  -0.222  1.00  0.00    -0.033 C 
HETATM   26  C22 UNL     1       6.170   1.126   0.069  1.00  0.00     0.016 C 
HETATM   27  C24 UNL     1       5.640  -1.195   1.967  1.00  0.00     0.016 C 
HETATM   28  C25 UNL     1       6.986  -1.818  -0.034  1.00  0.00     0.016 C 
ENDBRANCH  15  19
ENDBRANCH  11  13
BRANCH   1  29
HETATM   29  C5  UNL     1      -2.892   0.896  -0.716  1.00  0.00    -0.079 C 
HETATM   30  C4  UNL     1      -3.591  -0.109  -0.786  1.00  0.00    -0.074 C 
BRANCH  30  31
HETATM   31  C3  UNL     1      -4.402  -1.321  -0.880  1.00  0.00     0.366 C 
BRANCH  31  32
HETATM   32  N1  UNL     1      -5.584  -1.270  -0.022  1.00  0.00     0.102 N 
BRANCH  32  33
HETATM   33  C2  UNL     1      -6.534  -0.330  -0.437  1.00  0.00     0.269 C 
HETATM   34  C1  UNL     1      -7.732  -0.226   0.434  1.00  0.00     0.037 C 
ENDBRANCH  32  33
BRANCH  32  35
HETATM   35  C26 UNL     1      -6.006  -2.563   0.331  1.00  0.00     0.216 C 
HETATM   36  C27 UNL     1      -6.726  -3.338  -0.755  1.00  0.00     0.042 C 
HETATM   37  C28 UNL     1      -6.723  -2.718   1.632  1.00  0.00     0.042 C 
ENDBRANCH  32  35
ENDBRANCH  31  32
ENDBRANCH  30  31
ENDBRANCH   1  29
TORSDOF 8
