REMARK  5 active torsions:
REMARK  status: ('A' for Active; 'I' for Inactive)
REMARK    1  A    between atoms: C5_5  and  O1_6 
REMARK    2  A    between atoms: C19_21  and  N1_22 
REMARK    3  A    between atoms: N1_22  and  S1_24 
REMARK    4  A    between atoms: S1_24  and  N2_27 
REMARK    5  A    between atoms: C22_30  and  C23_31 
ROOT
HETATM    1  C1  UNL     1      -3.579   1.521   1.825  1.00  0.00     0.016 C 
HETATM    2  C2  UNL     1      -3.582   0.335   0.864  1.00  0.00    -0.036 C 
HETATM    3  C3  UNL     1      -4.147  -0.839   1.635  1.00  0.00     0.012 C 
HETATM    4  C4  UNL     1      -5.607  -0.757   1.885  1.00  0.00     0.032 C 
HETATM    5  C5  UNL     1      -6.271   0.511   1.517  1.00  0.00     0.118 C 
HETATM    6  C6  UNL     1      -5.847   1.095   0.211  1.00  0.00     0.037 C 
HETATM    7  C7  UNL     1      -4.518   0.610  -0.287  1.00  0.00    -0.004 C 
HETATM    8  C8  UNL     1      -3.999   1.643  -1.248  1.00  0.00     0.006 C 
HETATM    9  C9  UNL     1      -2.511   1.679  -1.346  1.00  0.00     0.006 C 
HETATM   10  C10 UNL     1      -1.998   0.292  -1.032  1.00  0.00    -0.005 C 
HETATM   11  C11 UNL     1      -2.174   0.082   0.451  1.00  0.00    -0.002 C 
HETATM   12  C12 UNL     1      -1.675  -1.299   0.793  1.00  0.00     0.006 C 
HETATM   13  C13 UNL     1      -0.157  -1.269   0.528  1.00  0.00     0.011 C 
HETATM   14  C14 UNL     1      -0.020  -1.156  -0.955  1.00  0.00    -0.031 C 
HETATM   15  C15 UNL     1      -0.219  -2.481  -1.571  1.00  0.00     0.010 C 
HETATM   16  C16 UNL     1       1.065  -3.204  -1.125  1.00  0.00     0.001 C 
HETATM   17  C17 UNL     1       2.077  -2.092  -0.812  1.00  0.00     0.007 C 
HETATM   18  C18 UNL     1       1.437  -0.934  -1.397  1.00  0.00     0.018 C 
HETATM   19  C19 UNL     1       1.717   0.426  -1.039  1.00  0.00     0.099 C 
HETATM   20  C25 UNL     1       0.369   1.126  -1.124  1.00  0.00     0.032 C 
HETATM   21  C26 UNL     1      -0.629   0.039  -1.544  1.00  0.00     0.001 C 
ENDROOT
BRANCH  19  22
HETATM   22  N1  UNL     1       2.421   0.677   0.182  1.00  0.00    -0.302 N 
ATOM     23  H1  UNL     1       2.098   0.371   1.100  1.00  0.00     0.173 HD
BRANCH  22  24
HETATM   24  S1  UNL     1       3.899   1.569  -0.085  1.00  0.00     0.299 S 
HETATM   25  O2  UNL     1       4.212   2.363   1.165  1.00  0.00    -0.188 OA
HETATM   26  O3  UNL     1       3.731   2.476  -1.249  1.00  0.00    -0.188 OA
BRANCH  24  27
HETATM   27  N2  UNL     1       5.169   0.441  -0.389  1.00  0.00    -0.193 NA
HETATM   28  C20 UNL     1       5.427  -0.452   0.689  1.00  0.00     0.109 C 
HETATM   29  C21 UNL     1       6.874  -0.275   1.097  1.00  0.00     0.028 C 
HETATM   30  C22 UNL     1       7.517   0.328  -0.129  1.00  0.00     0.062 C 
HETATM   31  C24 UNL     1       6.375   1.139  -0.703  1.00  0.00     0.120 C 
BRANCH  30  32
HETATM   32  C23 UNL     1       8.688   1.172   0.244  1.00  0.00     0.236 C 
HETATM   33  O4  UNL     1       9.164   1.016   1.352  1.00  0.00    -0.306 OA
ENDBRANCH  30  32
ENDBRANCH  24  27
ENDBRANCH  22  24
ENDBRANCH  19  22
BRANCH   5  34
HETATM   34  O1  UNL     1      -7.659   0.248   1.417  1.00  0.00    -0.396 OA
ATOM     35  H1  UNL     1      -8.086   1.063   1.180  1.00  0.00     0.210 HD
ENDBRANCH   5  34
TORSDOF 5
