REMARK  5 active torsions:
REMARK  status: ('A' for Active; 'I' for Inactive)
REMARK    1  A    between atoms: C3_5  and  N2_6 
REMARK    2  A    between atoms: N2_6  and  C4_8 
REMARK    3  A    between atoms: C4_8  and  C5_9 
REMARK    4  A    between atoms: C5_9  and  N3_11 
REMARK    5  A    between atoms: C7_17  and  N5_18 
ROOT
HETATM    1  C1  UNL     1      -3.768  -1.923   0.030  1.00  0.00     0.090 C 
HETATM    2  C2  UNL     1      -2.723  -0.845   0.054  1.00  0.00     0.109 A 
HETATM    3  N1  UNL     1      -1.417  -1.141  -0.032  1.00  0.00    -0.180 N 
ATOM      4  H1  UNL     1      -1.122  -2.114  -0.115  1.00  0.00     0.185 HD
HETATM    5  C3  UNL     1      -0.488  -0.155  -0.009  1.00  0.00     0.694 A 
HETATM    6  N4  UNL     1      -0.944   1.105   0.104  1.00  0.00    -0.023 N 
ATOM      7  H4  UNL     1      -0.265   1.866   0.124  1.00  0.00     0.203 HD
HETATM    8  C7  UNL     1      -2.249   1.413   0.192  1.00  0.00     0.691 A 
HETATM    9  N6  UNL     1      -3.149   0.415   0.166  1.00  0.00    -0.180 N 
ATOM     10  H6  UNL     1      -4.146   0.618   0.231  1.00  0.00     0.185 HD
ENDROOT
BRANCH   5  11
HETATM   11  N2  UNL     1       0.767  -0.443  -0.092  1.00  0.00    -0.224 N 
ATOM     12  H2  UNL     1       1.079  -1.410  -0.176  1.00  0.00     0.177 HD
BRANCH  11  13
HETATM   13  C4  UNL     1       1.705   0.631  -0.063  1.00  0.00     0.170 C 
BRANCH  13  14
HETATM   14  C5  UNL     1       3.141   0.186  -0.093  1.00  0.00     0.197 C 
HETATM   15  C6  UNL     1       3.531  -0.683   1.046  1.00  0.00     0.041 C 
BRANCH  14  16
HETATM   16  N3  UNL     1       3.345  -0.481  -1.384  1.00  0.00    -0.074 N 
ATOM     17  H33 UNL     1       2.684  -1.239  -1.556  1.00  0.00     0.274 HD
ATOM     18  H32 UNL     1       3.085   0.098  -2.183  1.00  0.00     0.274 HD
ATOM     19  H31 UNL     1       4.319  -0.783  -1.404  1.00  0.00     0.274 HD
ENDBRANCH  14  16
ENDBRANCH  13  14
ENDBRANCH  11  13
ENDBRANCH   5  11
BRANCH   8  20
HETATM   20  N5  UNL     1      -2.560   2.655   0.296  1.00  0.00    -0.234 N 
ATOM     21  H52 UNL     1      -1.877   3.412   0.316  1.00  0.00     0.174 HD
ATOM     22  H51 UNL     1      -3.551   2.889   0.363  1.00  0.00     0.174 HD
ENDBRANCH   8  20
TORSDOF 5
