REMARK  3 active torsions:
REMARK  status: ('A' for Active; 'I' for Inactive)
REMARK    1  A    between atoms: N1_1  and  C1_4 
REMARK    2  A    between atoms: C4_7  and  C5_8 
REMARK    3  A    between atoms: N2_9  and  N3_11 
ROOT
HETATM    1  C1  UNL     1      -3.567  -0.821  -0.310  1.00  0.00     0.098 A 
HETATM    2  C2  UNL     1      -3.464   0.551  -0.331  1.00  0.00     0.049 A 
HETATM    3  C3  UNL     1      -2.244   1.209  -0.144  1.00  0.00     0.018 A 
HETATM    4  C4  UNL     1      -1.133   0.421   0.066  1.00  0.00    -0.004 A 
HETATM    5  C7  UNL     1      -1.267  -0.951   0.082  1.00  0.00     0.102 A 
HETATM    6  N6  UNL     1      -2.463  -1.559  -0.102  1.00  0.00    -0.352 N 
ATOM      7  H6  UNL     1      -2.526  -2.577  -0.083  1.00  0.00     0.166 HD
ENDROOT
BRANCH   4   8
HETATM    8  C5  UNL     1       0.184   1.033   0.270  1.00  0.00     0.120 C 
HETATM    9  N2  UNL     1       1.222   0.292   0.466  1.00  0.00    -0.309 N 
ATOM     10  H2  UNL     1       1.112  -0.722   0.476  1.00  0.00     0.186 HD
BRANCH   9  11
HETATM   11  N3  UNL     1       2.476   0.832   0.663  1.00  0.00    -0.276 N 
HETATM   12  C6  UNL     1       3.582   0.276   0.312  1.00  0.00     0.215 C 
HETATM   13  N4  UNL     1       3.632  -0.991  -0.332  1.00  0.00    -0.065 NA
HETATM   14  N5  UNL     1       4.782   0.967   0.588  1.00  0.00    -0.065 NA
ATOM     15  H3  UNL     1       2.531   1.741   1.122  1.00  0.00     0.189 HD
ENDBRANCH   9  11
ENDBRANCH   4   8
BRANCH   1  16
HETATM   16  N1  UNL     1      -4.729  -1.362  -0.490  1.00  0.00    -0.385 N 
ATOM     17  H12 UNL     1      -5.567  -0.802  -0.648  1.00  0.00     0.157 HD
ATOM     18  H11 UNL     1      -4.805  -2.379  -0.474  1.00  0.00     0.157 HD
ENDBRANCH   1  16
TORSDOF 3
