REMARK  3 active torsions:
REMARK  status: ('A' for Active; 'I' for Inactive)
REMARK    1  A    between atoms: C4_9  and  C5_10 
REMARK    2  A    between atoms: C5_10  and  C6_11 
REMARK    3  A    between atoms: C6_11  and  N4_12 
REMARK       I    between atoms: N4_12  and  C7_14 
ROOT
HETATM    1  N1  UNL     1      -2.765   2.540  -0.689  1.00  0.00    -0.191 NA
HETATM    2  C1  UNL     1      -2.568   1.407  -0.589  1.00  0.00     0.103 C 
HETATM    3  C2  UNL     1      -2.315  -0.008  -0.471  1.00  0.00     0.085 A 
HETATM    4  C3  UNL     1      -2.894  -1.033  -1.194  1.00  0.00     0.131 A 
HETATM    5  N2  UNL     1      -2.343  -2.181  -0.731  1.00  0.00    -0.310 N 
ATOM      6  H2  UNL     1      -2.561  -3.121  -1.061  1.00  0.00     0.186 HD
HETATM    7  N3  UNL     1      -1.478  -1.880   0.218  1.00  0.00    -0.304 N 
ATOM      8  H3  UNL     1      -0.925  -2.566   0.731  1.00  0.00     0.186 HD
HETATM    9  C4  UNL     1      -1.419  -0.566   0.420  1.00  0.00     0.049 A 
ENDROOT
BRANCH   9  10
HETATM   10  C5  UNL     1      -0.583   0.198   1.386  1.00  0.00     0.080 C 
BRANCH  10  11
HETATM   11  C6  UNL     1       0.581   0.870   0.706  1.00  0.00     0.128 C 
BRANCH  11  12
HETATM   12  N4  UNL     1       1.447  -0.097   0.058  1.00  0.00    -0.364 N 
HETATM   13  C7  UNL     1       2.599   0.357  -0.636  1.00  0.00     0.181 C 
HETATM   14  N5  UNL     1       2.550   1.385  -1.411  1.00  0.00    -0.374 N 
HETATM   15  N6  UNL     1       3.875  -0.286  -0.525  1.00  0.00    -0.064 NA
ATOM     16  H52 UNL     1       1.642   1.843  -1.490  1.00  0.00     0.158 HD
ATOM     17  H51 UNL     1       3.378   1.711  -1.910  1.00  0.00     0.158 HD
ATOM     18  H4  UNL     1       1.230  -1.093   0.101  1.00  0.00     0.162 HD
ENDBRANCH  11  12
ENDBRANCH  10  11
ENDBRANCH   9  10
TORSDOF 3
