REMARK  7 active torsions:
REMARK  status: ('A' for Active; 'I' for Inactive)
REMARK    1  A    between atoms: N1_1  and  C1_5 
REMARK    2  A    between atoms: C1_5  and  C2_6 
REMARK    3  A    between atoms: C5_9  and  C6_10 
REMARK    4  A    between atoms: C6_10  and  N2_11 
REMARK    5  A    between atoms: N2_11  and  C7_13 
REMARK    6  A    between atoms: C7_13  and  N3_15 
REMARK    7  A    between atoms: N3_15  and  C8_17 
ROOT
HETATM    1  N2  UNL     1       0.546  -0.094  -0.135  1.00  0.00    -0.367 N 
ATOM      2  H2  UNL     1       0.493   0.604   0.607  1.00  0.00     0.161 HD
ENDROOT
BRANCH   1   3
HETATM    3  C6  UNL     1      -0.617  -0.325  -0.968  1.00  0.00     0.126 C 
BRANCH   3   4
HETATM    4  C5  UNL     1      -1.774   0.567  -0.564  1.00  0.00     0.003 C 
HETATM    5  C4  UNL     1      -2.123   0.273   0.843  1.00  0.00     0.007 C 
HETATM    6  C3  UNL     1      -3.556   0.413   1.205  1.00  0.00     0.007 C 
HETATM    7  C2  UNL     1      -4.390  -0.289   0.158  1.00  0.00     0.011 C 
HETATM    8  C13 UNL     1      -4.238   0.575  -1.094  1.00  0.00     0.007 C 
HETATM    9  C12 UNL     1      -2.843   0.446  -1.574  1.00  0.00     0.007 C 
BRANCH   7  10
HETATM   10  C1  UNL     1      -5.853  -0.325   0.518  1.00  0.00     0.234 C 
BRANCH  10  11
HETATM   11  N1  UNL     1      -6.334   1.033   0.647  1.00  0.00    -0.079 N 
ATOM     12  H13 UNL     1      -5.783   1.581   1.308  1.00  0.00     0.274 HD
ATOM     13  H12 UNL     1      -6.151   1.592  -0.186  1.00  0.00     0.274 HD
ATOM     14  H11 UNL     1      -7.324   1.009   0.891  1.00  0.00     0.274 HD
ENDBRANCH  10  11
ENDBRANCH   7  10
ENDBRANCH   3   4
ENDBRANCH   1   3
BRANCH   1  15
HETATM   15  C7  UNL     1       1.757  -0.812  -0.322  1.00  0.00     0.169 C 
HETATM   16  S1  UNL     1       1.903  -1.934  -1.483  1.00  0.00    -0.041 SA
BRANCH  15  17
HETATM   17  N3  UNL     1       2.865  -0.550   0.517  1.00  0.00    -0.338 N 
ATOM     18  H3  UNL     1       2.788   0.153   1.252  1.00  0.00     0.164 HD
BRANCH  17  19
HETATM   19  C8  UNL     1       4.097  -1.266   0.343  1.00  0.00     0.311 C 
HETATM   20  C9  UNL     1       4.668  -1.050  -1.019  1.00  0.00     0.286 C 
HETATM   21  N4  UNL     1       6.079  -0.715  -0.927  1.00  0.00    -0.070 N 
HETATM   22  C10 UNL     1       6.280   0.508  -0.205  1.00  0.00     0.260 C 
ATOM     23  H42 UNL     1       6.620  -1.480  -0.524  1.00  0.00     0.277 HD
ATOM     24  H41 UNL     1       6.516  -0.682  -1.848  1.00  0.00     0.277 HD
HETATM   25  C11 UNL     1       5.552   0.468   1.123  1.00  0.00     0.262 C 
HETATM   26  N5  UNL     1       5.054  -0.869   1.378  1.00  0.00    -0.051 N 
ATOM     27  H52 UNL     1       4.657  -0.954   2.314  1.00  0.00     0.279 HD
ATOM     28  H51 UNL     1       5.812  -1.545   1.472  1.00  0.00     0.279 HD
ENDBRANCH  17  19
ENDBRANCH  15  17
ENDBRANCH   1  15
TORSDOF 7
