REMARK  6 active torsions:
REMARK  status: ('A' for Active; 'I' for Inactive)
REMARK    1  A    between atoms: C2_2  and  C4_4 
REMARK    2  A    between atoms: C4_4  and  N1_5 
REMARK    3  A    between atoms: N1_5  and  C5_7 
REMARK    4  A    between atoms: C6_10  and  N3_11 
REMARK    5  A    between atoms: N5_17  and  C8_19 
REMARK    6  A    between atoms: C8_19  and  C9_20 
ROOT
HETATM    1  C5  UNL     1       2.027  -0.083  -0.265  1.00  0.00     0.707 A 
HETATM    2  N2  UNL     1       1.952  -1.146   0.564  1.00  0.00    -0.022 N 
ATOM      3  H2  UNL     1       2.747  -1.378   1.159  1.00  0.00     0.203 HD
HETATM    4  C6  UNL     1       0.842  -1.901   0.614  1.00  0.00     0.705 A 
HETATM    5  N4  UNL     1      -0.200  -1.571  -0.187  1.00  0.00    -0.022 N 
ATOM      6  H4  UNL     1      -1.044  -2.142  -0.152  1.00  0.00     0.203 HD
HETATM    7  C7  UNL     1      -0.166  -0.524  -1.023  1.00  0.00     0.707 A 
HETATM    8  N5  UNL     1      -1.119  -0.165  -1.801  1.00  0.00    -0.225 N 
ATOM      9  H5  UNL     1      -0.999   0.650  -2.403  1.00  0.00     0.177 HD
HETATM   10  N7  UNL     1       0.978   0.223  -1.049  1.00  0.00    -0.022 N 
ATOM     11  H7  UNL     1       1.037   1.027  -1.674  1.00  0.00     0.203 HD
ENDROOT
BRANCH   8  12
HETATM   12  C8  UNL     1      -2.344  -0.890  -1.835  1.00  0.00     0.144 C 
BRANCH  12  13
HETATM   13  C9  UNL     1      -3.301  -0.490  -0.714  1.00  0.00     0.030 C 
HETATM   14  C10 UNL     1      -4.543  -1.339  -0.884  1.00  0.00     0.009 C 
HETATM   15  C11 UNL     1      -5.766  -0.494  -0.596  1.00  0.00     0.028 C 
HETATM   16  C12 UNL     1      -5.543   0.406   0.592  1.00  0.00     0.232 C 
HETATM   17  N6  UNL     1      -4.462   1.322   0.329  1.00  0.00    -0.075 N 
HETATM   18  C13 UNL     1      -3.706   0.965  -0.848  1.00  0.00     0.238 C 
ATOM     19  H62 UNL     1      -4.801   2.282   0.269  1.00  0.00     0.277 HD
ATOM     20  H61 UNL     1      -3.853   1.413   1.142  1.00  0.00     0.277 HD
ENDBRANCH  12  13
ENDBRANCH   8  12
BRANCH   4  21
HETATM   21  N3  UNL     1       0.756  -2.918   1.399  1.00  0.00    -0.234 N 
ATOM     22  H32 UNL     1       1.540  -3.166   2.002  1.00  0.00     0.174 HD
ATOM     23  H31 UNL     1      -0.087  -3.491   1.437  1.00  0.00     0.174 HD
ENDBRANCH   4  21
BRANCH   1  24
HETATM   24  N1  UNL     1       3.099   0.633  -0.302  1.00  0.00    -0.225 N 
ATOM     25  H1  UNL     1       3.157   1.436  -0.928  1.00  0.00     0.177 HD
BRANCH  24  26
HETATM   26  C4  UNL     1       4.219   0.291   0.549  1.00  0.00     0.142 C 
BRANCH  26  27
HETATM   27  C2  UNL     1       5.359   1.246   0.421  1.00  0.00    -0.004 C 
HETATM   28  C1  UNL     1       4.943   2.666   0.798  1.00  0.00     0.011 C 
HETATM   29  C3  UNL     1       6.415   0.839   1.441  1.00  0.00     0.011 C 
ENDBRANCH  26  27
ENDBRANCH  24  26
ENDBRANCH   1  24
TORSDOF 6
