REMARK  8 active torsions:
REMARK  status: ('A' for Active; 'I' for Inactive)
REMARK    1  A    between atoms: C2_2  and  N2_6 
REMARK    2  A    between atoms: N2_6  and  C3_8 
REMARK    3  A    between atoms: C4_11  and  N4_12 
REMARK    4  A    between atoms: C5_17  and  N6_18 
REMARK    5  A    between atoms: N6_18  and  C6_20 
REMARK    6  A    between atoms: C6_20  and  C7_21 
REMARK    7  A    between atoms: C7_21  and  C8_22 
REMARK    8  A    between atoms: C8_22  and  N7_23 
ROOT
HETATM    1  C3  UNL     1      -3.930   0.401   0.021  1.00  0.00     0.712 A 
HETATM    2  N3  UNL     1      -4.361  -0.564  -0.811  1.00  0.00    -0.021 N 
ATOM      3  H3  UNL     1      -5.361  -0.740  -0.910  1.00  0.00     0.203 HD
HETATM    4  C4  UNL     1      -3.481  -1.296  -1.512  1.00  0.00     0.705 A 
HETATM    5  N5  UNL     1      -2.162  -1.049  -1.368  1.00  0.00    -0.022 N 
ATOM      6  H5  UNL     1      -1.493  -1.606  -1.900  1.00  0.00     0.203 HD
HETATM    7  C5  UNL     1      -1.703  -0.089  -0.542  1.00  0.00     0.707 A 
HETATM    8  N8  UNL     1      -2.617   0.617   0.138  1.00  0.00    -0.021 N 
ATOM      9  H8  UNL     1      -2.297   1.350   0.771  1.00  0.00     0.203 HD
ENDROOT
BRANCH   7  10
HETATM   10  N6  UNL     1      -0.449   0.160  -0.392  1.00  0.00    -0.225 N 
ATOM     11  H6  UNL     1       0.244  -0.380  -0.910  1.00  0.00     0.177 HD
BRANCH  10  12
HETATM   12  C6  UNL     1      -0.026   1.202   0.509  1.00  0.00     0.140 C 
BRANCH  12  13
HETATM   13  C7  UNL     1       1.484   1.338   0.481  1.00  0.00     0.050 C 
BRANCH  13  14
HETATM   14  C8  UNL     1       2.180   0.082   0.889  1.00  0.00     0.274 C 
BRANCH  14  15
HETATM   15  N7  UNL     1       3.612   0.314   0.831  1.00  0.00     0.088 N 
HETATM   16  C9  UNL     1       4.262  -0.902   1.227  1.00  0.00     0.272 C 
HETATM   17  C10 UNL     1       4.913  -1.628   0.078  1.00  0.00     0.030 C 
HETATM   18  C11 UNL     1       5.995  -0.701  -0.437  1.00  0.00     0.003 C 
HETATM   19  C12 UNL     1       5.399   0.588  -0.853  1.00  0.00     0.030 C 
HETATM   20  C13 UNL     1       3.981   0.808  -0.453  1.00  0.00     0.272 C 
ENDBRANCH  14  15
ENDBRANCH  13  14
ENDBRANCH  12  13
ENDBRANCH  10  12
ENDBRANCH   7  10
BRANCH   4  21
HETATM   21  N4  UNL     1      -3.866  -2.239  -2.327  1.00  0.00    -0.234 N 
ATOM     22  H42 UNL     1      -4.863  -2.426  -2.436  1.00  0.00     0.174 HD
ATOM     23  H41 UNL     1      -3.197  -2.795  -2.860  1.00  0.00     0.174 HD
ENDBRANCH   4  21
BRANCH   1  24
HETATM   24  N2  UNL     1      -4.749   1.123   0.710  1.00  0.00    -0.180 N 
ATOM     25  H2  UNL     1      -4.386   1.846   1.331  1.00  0.00     0.185 HD
BRANCH  24  26
HETATM   26  C2  UNL     1      -6.142   0.921   0.611  1.00  0.00     0.087 C 
HETATM   27  C1  UNL     1      -6.763  -0.213   1.339  1.00  0.00     0.089 C 
HETATM   28  N1  UNL     1      -6.840   1.728  -0.110  1.00  0.00    -0.389 N 
ATOM     29  H12 UNL     1      -7.847   1.582  -0.182  1.00  0.00     0.157 HD
ATOM     30  H11 UNL     1      -6.413   2.508  -0.610  1.00  0.00     0.157 HD
ENDBRANCH  24  26
ENDBRANCH   1  24
TORSDOF 8
