REMARK  4 active torsions:
REMARK  status: ('A' for Active; 'I' for Inactive)
REMARK    1  A    between atoms: C2_2  and  N1_3 
REMARK    2  A    between atoms: N1_3  and  C3_5 
REMARK    3  A    between atoms: C10_12  and  C11_13 
REMARK    4  A    between atoms: N3_15  and  N4_17 
ROOT
HETATM    1  C3  UNL     1      -1.693  -0.157  -0.175  1.00  0.00     0.027 C 
HETATM    2  C4  UNL     1      -1.632   1.336  -0.455  1.00  0.00     0.035 C 
HETATM    3  C5  UNL     1      -0.283   1.870  -0.013  1.00  0.00    -0.011 C 
HETATM    4  C6  UNL     1      -0.014   1.642   1.443  1.00  0.00     0.009 C 
HETATM    5  C7  UNL     1      -0.211   0.184   1.723  1.00  0.00    -0.011 C 
HETATM    6  C8  UNL     1      -1.600  -0.305   1.324  1.00  0.00     0.035 C 
HETATM    7  C9  UNL     1       0.831  -0.610   1.015  1.00  0.00     0.021 C 
HETATM    8  C10 UNL     1       0.810  -0.312  -0.468  1.00  0.00     0.020 C 
HETATM    9  C13 UNL     1       0.756   1.122  -0.840  1.00  0.00     0.021 C 
HETATM   10  C14 UNL     1      -0.578  -0.869  -0.904  1.00  0.00     0.047 C 
ENDROOT
BRANCH   8  11
HETATM   11  C11 UNL     1       1.811  -1.069  -1.205  1.00  0.00     0.116 C 
HETATM   12  N2  UNL     1       1.435  -2.179  -2.011  1.00  0.00    -0.085 NA
HETATM   13  N3  UNL     1       3.054  -0.814  -1.153  1.00  0.00    -0.288 N 
ATOM     14  H3  UNL     1       3.683  -1.396  -1.706  1.00  0.00     0.188 HD
BRANCH  13  15
HETATM   15  N4  UNL     1       3.599   0.178  -0.413  1.00  0.00    -0.275 N 
HETATM   16  C12 UNL     1       4.624   0.196   0.328  1.00  0.00     0.215 C 
HETATM   17  N5  UNL     1       5.402  -0.974   0.475  1.00  0.00    -0.065 NA
HETATM   18  N6  UNL     1       4.972   1.394   0.999  1.00  0.00    -0.065 NA
ATOM     19  H4  UNL     1       3.097   1.065  -0.461  1.00  0.00     0.189 HD
ENDBRANCH  13  15
ENDBRANCH   8  11
BRANCH   1  20
HETATM   20  N1  UNL     1      -2.915  -0.649  -0.729  1.00  0.00    -0.413 N 
ATOM     21  H1  UNL     1      -2.929  -1.340  -1.479  1.00  0.00     0.154 HD
BRANCH  20  22
HETATM   22  C2  UNL     1      -4.111  -0.118  -0.172  1.00  0.00     0.110 C 
HETATM   23  C1  UNL     1      -5.318  -0.726  -0.856  1.00  0.00     0.026 C 
ENDBRANCH  20  22
ENDBRANCH   1  20
TORSDOF 4
