REMARK  8 active torsions:
REMARK  status: ('A' for Active; 'I' for Inactive)
REMARK    1  A    between atoms: N1_1  and  C1_5 
REMARK    2  A    between atoms: C3_7  and  C4_8 
REMARK    3  A    between atoms: C4_8  and  N2_9 
REMARK    4  A    between atoms: N2_9  and  C5_11 
REMARK    5  A    between atoms: C5_11  and  N3_13 
REMARK    6  A    between atoms: N3_13  and  C6_15 
REMARK    7  A    between atoms: C12_21  and  C13_22 
REMARK    8  A    between atoms: C13_22  and  O1_23 
ROOT
HETATM    1  C4  UNL     1      -1.276  -0.046   0.344  1.00  0.00     0.127 C 
ENDROOT
BRANCH   1   2
HETATM    2  C3  UNL     1      -2.756   0.148   0.358  1.00  0.00     0.013 C 
HETATM    3  C2  UNL     1      -3.166   1.329  -0.527  1.00  0.00     0.040 C 
HETATM    4  C1  UNL     1      -4.255   0.434  -1.086  1.00  0.00     0.190 C 
HETATM    5  C12 UNL     1      -3.544  -0.789  -0.528  1.00  0.00     0.045 C 
BRANCH   4   6
HETATM    6  N1  UNL     1      -5.528   0.603  -0.430  1.00  0.00    -0.075 N 
ATOM      7  H13 UNL     1      -5.436   0.474   0.578  1.00  0.00     0.274 HD
ATOM      8  H12 UNL     1      -5.818   1.581  -0.449  1.00  0.00     0.274 HD
ATOM      9  H11 UNL     1      -6.261   0.001  -0.806  1.00  0.00     0.274 HD
ENDBRANCH   4   6
BRANCH   5  10
HETATM   10  C13 UNL     1      -4.431  -1.681   0.313  1.00  0.00     0.171 C 
BRANCH  10  11
HETATM   11  O1  UNL     1      -5.512  -2.169  -0.406  1.00  0.00    -0.400 OA
ATOM     12  H1  UNL     1      -6.069  -2.729   0.122  1.00  0.00     0.209 HD
ENDBRANCH  10  11
ENDBRANCH   5  10
ENDBRANCH   1   2
BRANCH   1  13
HETATM   13  N2  UNL     1      -0.639   1.151   0.839  1.00  0.00    -0.367 N 
ATOM     14  H2  UNL     1      -1.201   1.951   1.129  1.00  0.00     0.161 HD
BRANCH  13  15
HETATM   15  C5  UNL     1       0.760   1.202   0.917  1.00  0.00     0.167 C 
HETATM   16  S1  UNL     1       1.476   2.542   1.471  1.00  0.00    -0.041 SA
BRANCH  15  17
HETATM   17  N3  UNL     1       1.536   0.096   0.516  1.00  0.00    -0.363 N 
ATOM     18  H3  UNL     1       1.056  -0.735   0.171  1.00  0.00     0.162 HD
BRANCH  17  19
HETATM   19  C6  UNL     1       2.983   0.083   0.571  1.00  0.00     0.083 C 
HETATM   20  C7  UNL     1       3.462  -1.257   0.068  1.00  0.00     0.025 C 
HETATM   21  C8  UNL     1       4.957  -1.364   0.128  1.00  0.00     0.002 C 
HETATM   22  C9  UNL     1       5.547  -0.139  -0.529  1.00  0.00     0.000 C 
HETATM   23  C10 UNL     1       4.499   0.639  -1.296  1.00  0.00     0.002 C 
HETATM   24  C11 UNL     1       3.455   1.212  -0.349  1.00  0.00     0.025 C 
ENDBRANCH  17  19
ENDBRANCH  15  17
ENDBRANCH  13  15
ENDBRANCH   1  13
TORSDOF 8
