REMARK  9 active torsions:
REMARK  status: ('A' for Active; 'I' for Inactive)
REMARK    1  A    between atoms: N1_1  and  C1_4 
REMARK    2  A    between atoms: C3_12  and  C4_13 
REMARK    3  A    between atoms: C4_13  and  C5_14 
REMARK    4  A    between atoms: C5_14  and  C6_15 
REMARK    5  A    between atoms: C6_15  and  C7_16 
REMARK    6  A    between atoms: C7_16  and  O1_17 
REMARK    7  A    between atoms: C8_22  and  N7_23 
REMARK    8  A    between atoms: C11_28  and  N9_29 
REMARK    9  A    between atoms: C12_34  and  N11_35 
ROOT
HETATM    1  N7  UNL     1      -0.239  -2.537  -1.150  1.00  0.00    -0.217 N 
HETATM    2  N8  UNL     1      -0.353  -3.842  -1.248  1.00  0.00    -0.301 N 
ATOM      3  H8  UNL     1       0.353  -4.466  -1.638  1.00  0.00     0.186 HD
HETATM    4  C9  UNL     1      -1.558  -4.235  -0.749  1.00  0.00     0.127 A 
HETATM    5  C10 UNL     1      -2.221  -3.093  -0.320  1.00  0.00     0.071 A 
HETATM    6  C11 UNL     1      -3.429  -2.807   0.257  1.00  0.00     0.130 A 
HETATM    7  N10 UNL     1      -3.768  -1.551   0.554  1.00  0.00    -0.176 N 
ATOM      8  H10 UNL     1      -4.673  -1.361   0.984  1.00  0.00     0.186 HD
HETATM    9  C12 UNL     1      -2.925  -0.528   0.291  1.00  0.00     0.683 A 
HETATM   10  N13 UNL     1      -1.729  -0.772  -0.276  1.00  0.00    -0.174 N 
ATOM     11  H13 UNL     1      -1.092  -0.001  -0.475  1.00  0.00     0.186 HD
HETATM   12  C17 UNL     1      -1.376  -2.029  -0.579  1.00  0.00     0.160 A 
ENDROOT
BRANCH   1  13
HETATM   13  C8  UNL     1       0.819  -1.677  -1.555  1.00  0.00     0.189 A 
HETATM   14  C1  UNL     1       1.198  -1.570  -2.892  1.00  0.00     0.162 A 
HETATM   15  N2  UNL     1       2.172  -0.739  -3.287  1.00  0.00    -0.170 N 
HETATM   16  C2  UNL     1       2.820   0.029  -2.376  1.00  0.00     0.721 A 
ATOM     17  H2  UNL     1       2.426  -0.684  -4.273  1.00  0.00     0.186 HD
HETATM   18  N3  UNL     1       3.794   0.946  -2.452  1.00  0.00    -0.129 N 
HETATM   19  N5  UNL     1       2.460  -0.072  -1.098  1.00  0.00    -0.069 N 
HETATM   20  N4  UNL     1       4.056   1.424  -1.256  1.00  0.00    -0.272 N 
ATOM     21  H3  UNL     1       4.263   1.231  -3.312  1.00  0.00     0.205 HD
HETATM   22  C3  UNL     1       3.239   0.807  -0.393  1.00  0.00     0.140 A 
ATOM     23  H4  UNL     1       4.752   2.133  -1.028  1.00  0.00     0.189 HD
HETATM   24  N6  UNL     1       1.488  -0.900  -0.691  1.00  0.00    -0.258 N 
ATOM     25  H6  UNL     1       1.251  -0.940   0.300  1.00  0.00     0.190 HD
BRANCH  14  26
HETATM   26  N1  UNL     1       0.582  -2.301  -3.744  1.00  0.00    -0.382 N 
ATOM     27  H12 UNL     1       0.859  -2.223  -4.722  1.00  0.00     0.157 HD
ATOM     28  H11 UNL     1      -0.159  -2.934  -3.443  1.00  0.00     0.157 HD
ENDBRANCH  14  26
BRANCH  22  29
HETATM   29  C4  UNL     1       3.076   0.961   1.082  1.00  0.00     0.107 C 
BRANCH  29  30
HETATM   30  C5  UNL     1       4.143   1.743   1.718  1.00  0.00    -0.021 C 
BRANCH  30  31
HETATM   31  C6  UNL     1       5.472   1.209   1.993  1.00  0.00    -0.005 C 
BRANCH  31  32
HETATM   32  C7  UNL     1       6.342   0.585   0.986  1.00  0.00     0.191 C 
BRANCH  32  33
HETATM   33  O1  UNL     1       5.808  -0.606   0.532  1.00  0.00    -0.397 OA
ATOM     34  H1  UNL     1       6.370  -1.009  -0.119  1.00  0.00     0.209 HD
ENDBRANCH  32  33
ENDBRANCH  31  32
ENDBRANCH  30  31
ENDBRANCH  29  30
ENDBRANCH  22  29
ENDBRANCH   1  13
BRANCH   6  35
HETATM   35  N9  UNL     1      -4.239  -3.769   0.517  1.00  0.00    -0.384 N 
ATOM     36  H92 UNL     1      -3.980  -4.729   0.290  1.00  0.00     0.157 HD
ATOM     37  H91 UNL     1      -5.139  -3.556   0.947  1.00  0.00     0.157 HD
ENDBRANCH   6  35
BRANCH   9  38
HETATM   38  N11 UNL     1      -3.367   0.769   0.627  1.00  0.00    -0.214 N 
HETATM   39  C13 UNL     1      -3.387   1.186   1.998  1.00  0.00     0.168 C 
HETATM   40  C14 UNL     1      -4.505   2.171   2.281  1.00  0.00     0.252 C 
HETATM   41  N12 UNL     1      -4.517   3.242   1.304  1.00  0.00    -0.072 N 
HETATM   42  C15 UNL     1      -4.828   2.647   0.018  1.00  0.00     0.252 C 
ATOM     43 2H12 UNL     1      -5.147   4.004   1.554  1.00  0.00     0.277 HD
ATOM     44 1H12 UNL     1      -3.653   3.784   1.295  1.00  0.00     0.277 HD
HETATM   45  C16 UNL     1      -3.775   1.657  -0.421  1.00  0.00     0.168 C 
ENDBRANCH   9  38
TORSDOF 9
