REMARK  9 active torsions:
REMARK  status: ('A' for Active; 'I' for Inactive)
REMARK       I    between atoms: C2_2  and  N1_4 
REMARK    1  A    between atoms: N1_4  and  N2_5 
REMARK    2  A    between atoms: C3_7  and  C4_8 
REMARK    3  A    between atoms: C3_7  and  C15_30 
REMARK    4  A    between atoms: C7_14  and  C8_15 
REMARK    5  A    between atoms: C8_15  and  N5_16 
REMARK    6  A    between atoms: N5_16  and  N6_17 
REMARK       I    between atoms: N6_17  and  C9_18 
REMARK    7  A    between atoms: C9_18  and  C10_20 
REMARK    8  A    between atoms: C14_27  and  O3_28 
REMARK    9  A    between atoms: C16_36  and  N11_37 
ROOT
HETATM    1  C10 UNL     1       5.002   0.472  -0.984  1.00  0.00     0.103 A 
HETATM    2  C11 UNL     1       6.349   0.524  -1.254  1.00  0.00     0.064 A 
HETATM    3  C12 UNL     1       7.058   0.302  -0.105  1.00  0.00     0.117 A 
HETATM    4  C13 UNL     1       8.506   0.267   0.087  1.00  0.00     0.117 C 
HETATM    5  N7  UNL     1       9.646   0.260   0.226  1.00  0.00    -0.190 NA
HETATM    6  N8  UNL     1       6.140   0.112   0.872  1.00  0.00    -0.328 N 
ATOM      7  H8  UNL     1       6.360  -0.078   1.850  1.00  0.00     0.168 HD
HETATM    8  C14 UNL     1       4.885   0.211   0.363  1.00  0.00     0.158 A 
ENDROOT
BRANCH   1   9
HETATM    9  C9  UNL     1       3.881   0.656  -1.970  1.00  0.00     0.365 C 
HETATM   10  N6  UNL     1       2.618   0.566  -1.527  1.00  0.00    -0.204 NA
HETATM   11  O2  UNL     1       4.270   0.884  -3.148  1.00  0.00    -0.248 OA
BRANCH  10  12
HETATM   12  N5  UNL     1       1.445   0.483  -1.115  1.00  0.00    -0.257 NA
BRANCH  12  13
HETATM   13  C8  UNL     1       0.297   0.509  -0.778  1.00  0.00     0.240 C 
BRANCH  13  14
HETATM   14  C7  UNL     1      -0.232  -0.601   0.054  1.00  0.00     0.043 A 
HETATM   15  C4  UNL     1      -1.470  -0.779   0.516  1.00  0.00     0.093 A 
HETATM   16  N3  UNL     1      -1.440  -1.889   1.231  1.00  0.00    -0.296 N 
HETATM   17  N4  UNL     1      -0.274  -2.450   1.269  1.00  0.00    -0.306 N 
ATOM     18  H3  UNL     1      -2.258  -2.268   1.708  1.00  0.00     0.187 HD
HETATM   19  C5  UNL     1       0.052  -3.666   1.968  1.00  0.00     0.177 C 
HETATM   20  C6  UNL     1       0.534  -1.666   0.531  1.00  0.00     0.126 A 
BRANCH  15  21
HETATM   21  C3  UNL     1      -2.671   0.036   0.218  1.00  0.00     0.122 C 
HETATM   22  N2  UNL     1      -2.581   0.966  -0.617  1.00  0.00    -0.228 N 
ATOM     23  H2  UNL     1      -1.631   1.016  -0.984  1.00  0.00     0.202 HD
BRANCH  22  24
HETATM   24  N1  UNL     1      -3.321   1.891  -1.165  1.00  0.00    -0.287 NA
HETATM   25  C2  UNL     1      -4.088   2.848  -1.732  1.00  0.00     0.308 C 
HETATM   26  C1  UNL     1      -5.481   2.649  -2.280  1.00  0.00     0.137 C 
HETATM   27  O1  UNL     1      -3.706   4.067  -1.879  1.00  0.00    -0.256 OA
ENDBRANCH  22  24
BRANCH  21  28
HETATM   28  C15 UNL     1      -3.939  -0.200   0.851  1.00  0.00     0.133 A 
HETATM   29  N9  UNL     1      -5.074   0.456   0.473  1.00  0.00    -0.236 N 
HETATM   30  O4  UNL     1      -6.091   0.045   1.140  1.00  0.00    -0.155 OA
ATOM     31  H9  UNL     1      -5.110   1.179  -0.246  1.00  0.00     0.197 HD
HETATM   32  N10 UNL     1      -5.737  -0.874   1.981  1.00  0.00    -0.224 N 
HETATM   33  C16 UNL     1      -4.361  -1.053   1.820  1.00  0.00     0.152 A 
ATOM     34  H10 UNL     1      -6.344  -1.370   2.633  1.00  0.00     0.198 HD
BRANCH  33  35
HETATM   35  N11 UNL     1      -3.717  -1.884   2.540  1.00  0.00    -0.382 N 
ATOM     36 2H11 UNL     1      -2.712  -2.015   2.422  1.00  0.00     0.157 HD
ATOM     37 1H11 UNL     1      -4.034  -2.525   3.268  1.00  0.00     0.157 HD
ENDBRANCH  33  35
ENDBRANCH  21  28
ENDBRANCH  15  21
ENDBRANCH  13  14
ENDBRANCH  12  13
ENDBRANCH  10  12
ENDBRANCH   1   9
BRANCH   8  38
HETATM   38  O3  UNL     1       3.679   0.081   1.033  1.00  0.00    -0.345 OA
ATOM     39  H3  UNL     1       3.598  -0.099   1.962  1.00  0.00     0.219 HD
ENDBRANCH   8  38
TORSDOF 9
