REMARK  7 active torsions:
REMARK  status: ('A' for Active; 'I' for Inactive)
REMARK       I    between atoms: C1_2  and  N1_3 
REMARK    1  A    between atoms: C1_2  and  C19_28 
REMARK    2  A    between atoms: N1_3  and  C2_5 
REMARK    3  A    between atoms: C5_8  and  N2_9 
REMARK    4  A    between atoms: N2_9  and  C6_11 
REMARK    5  A    between atoms: C6_11  and  N3_13 
REMARK    6  A    between atoms: N3_13  and  C7_15 
REMARK    7  A    between atoms: C10_18  and  C11_19 
ROOT
HETATM    1  N2  UNL     1       0.621  -4.594  -0.783  1.00  0.00    -0.333 N 
ATOM      2  H2  UNL     1       0.075  -5.415  -1.044  1.00  0.00     0.168 HD
ENDROOT
BRANCH   1   3
HETATM    3  C5  UNL     1      -0.107  -3.411  -0.631  1.00  0.00     0.034 A 
HETATM    4  C4  UNL     1      -0.278  -2.742   0.556  1.00  0.00     0.032 A 
HETATM    5  C3  UNL     1      -1.043  -1.573   0.620  1.00  0.00     0.032 A 
HETATM    6  C2  UNL     1      -1.664  -1.022  -0.472  1.00  0.00     0.035 A 
HETATM    7  C18 UNL     1      -1.468  -1.734  -1.674  1.00  0.00     0.032 A 
HETATM    8  C17 UNL     1      -0.726  -2.875  -1.755  1.00  0.00     0.032 A 
BRANCH   6   9
HETATM    9  N1  UNL     1      -2.467   0.130  -0.484  1.00  0.00    -0.323 N 
HETATM   10  C1  UNL     1      -3.092   0.708   0.613  1.00  0.00     0.256 C 
HETATM   11  O1  UNL     1      -2.983   0.204   1.776  1.00  0.00    -0.267 OA
ATOM     12  H1  UNL     1      -2.604   0.586  -1.386  1.00  0.00     0.169 HD
BRANCH  10  13
HETATM   13  C19 UNL     1      -3.916   1.935   0.503  1.00  0.00     0.032 A 
HETATM   14  C20 UNL     1      -4.588   2.437   1.597  1.00  0.00     0.017 A 
HETATM   15  C21 UNL     1      -5.361   3.565   1.552  1.00  0.00     0.001 A 
HETATM   16  C22 UNL     1      -5.483   4.248   0.359  1.00  0.00     0.000 A 
HETATM   17  C23 UNL     1      -4.828   3.776  -0.744  1.00  0.00     0.001 A 
HETATM   18  C24 UNL     1      -4.041   2.617  -0.679  1.00  0.00     0.017 A 
ENDBRANCH  10  13
ENDBRANCH   6   9
ENDBRANCH   1   3
BRANCH   1  19
HETATM   19  C6  UNL     1       1.966  -4.804  -0.630  1.00  0.00     0.176 C 
HETATM   20  S1  UNL     1       2.445  -6.425  -0.848  1.00  0.00    -0.041 SA
BRANCH  19  21
HETATM   21  N3  UNL     1       2.989  -3.934  -0.333  1.00  0.00    -0.333 N 
ATOM     22  H3  UNL     1       3.896  -4.393  -0.246  1.00  0.00     0.168 HD
BRANCH  21  23
HETATM   23  C7  UNL     1       3.048  -2.537  -0.123  1.00  0.00     0.034 A 
HETATM   24  C8  UNL     1       3.455  -2.062   1.132  1.00  0.00     0.030 A 
HETATM   25  C9  UNL     1       3.601  -0.716   1.374  1.00  0.00     0.016 A 
HETATM   26  C10 UNL     1       3.359   0.234   0.406  1.00  0.00    -0.002 A 
HETATM   27  C15 UNL     1       2.958  -0.232  -0.830  1.00  0.00     0.016 A 
HETATM   28  C16 UNL     1       2.808  -1.577  -1.083  1.00  0.00     0.030 A 
BRANCH  26  29
HETATM   29  C11 UNL     1       3.515   1.663   0.666  1.00  0.00     0.085 A 
HETATM   30  C12 UNL     1       3.314   2.723  -0.182  1.00  0.00     0.040 A 
HETATM   31  C13 UNL     1       3.585   3.879   0.504  1.00  0.00     0.027 A 
HETATM   32  C14 UNL     1       3.952   3.462   1.788  1.00  0.00     0.142 A 
HETATM   33  O2  UNL     1       3.895   2.144   1.832  1.00  0.00    -0.322 OA
ENDBRANCH  26  29
ENDBRANCH  21  23
ENDBRANCH  19  21
ENDBRANCH   1  19
TORSDOF 7
