REMARK  5 active torsions:
REMARK  status: ('A' for Active; 'I' for Inactive)
REMARK    1  A    between atoms: C1_4  and  C2_6 
REMARK    2  A    between atoms: C5_9  and  C6_10 
REMARK    3  A    between atoms: C9_13  and  C10_14 
REMARK    4  A    between atoms: C15_23  and  N5_24 
REMARK    5  A    between atoms: N5_24  and  C16_26 
ROOT
HETATM    1  C10 UNL     1      -0.919   1.874  -0.373  1.00  0.00    -0.025 A 
HETATM    2  C11 UNL     1      -1.072   3.225  -0.631  1.00  0.00     0.014 A 
HETATM    3  C12 UNL     1      -2.357   3.759  -0.698  1.00  0.00     0.031 A 
HETATM    4  C13 UNL     1      -3.466   2.957  -0.511  1.00  0.00     0.047 A 
HETATM    5  N3  UNL     1      -4.703   3.470  -0.575  1.00  0.00    -0.352 N 
ATOM      6  H3  UNL     1      -4.843   4.463  -0.764  1.00  0.00     0.166 HD
HETATM    7  C14 UNL     1      -5.762   2.652  -0.385  1.00  0.00     0.182 A 
HETATM    8  N4  UNL     1      -5.642   1.338  -0.133  1.00  0.00    -0.338 N 
ATOM      9  H4  UNL     1      -6.468   0.755   0.004  1.00  0.00     0.168 HD
HETATM   10  C15 UNL     1      -4.407   0.809  -0.066  1.00  0.00     0.119 A 
HETATM   11  C22 UNL     1      -3.292   1.610  -0.255  1.00  0.00     0.035 A 
HETATM   12  C23 UNL     1      -2.012   1.056  -0.183  1.00  0.00     0.029 A 
ENDROOT
BRANCH   1  13
HETATM   13  C9  UNL     1       0.415   1.262  -0.287  1.00  0.00    -0.026 A 
HETATM   14  C8  UNL     1       1.500   1.980   0.190  1.00  0.00     0.013 A 
HETATM   15  C7  UNL     1       2.759   1.402   0.269  1.00  0.00     0.013 A 
HETATM   16  C6  UNL     1       2.988   0.098  -0.118  1.00  0.00    -0.026 A 
HETATM   17  C25 UNL     1       1.905  -0.618  -0.594  1.00  0.00     0.013 A 
HETATM   18  C24 UNL     1       0.643  -0.040  -0.674  1.00  0.00     0.013 A 
BRANCH  16  19
HETATM   19  C5  UNL     1       4.314  -0.503  -0.032  1.00  0.00    -0.026 A 
HETATM   20  C4  UNL     1       4.548  -1.820   0.200  1.00  0.00     0.013 A 
HETATM   21  C3  UNL     1       5.861  -2.281   0.262  1.00  0.00     0.015 A 
HETATM   22  C2  UNL     1       6.932  -1.448   0.095  1.00  0.00     0.004 A 
HETATM   23  C27 UNL     1       6.695  -0.106  -0.142  1.00  0.00     0.015 A 
HETATM   24  C26 UNL     1       5.416   0.343  -0.202  1.00  0.00     0.013 A 
BRANCH  22  25
HETATM   25  C1  UNL     1       8.337  -1.918   0.156  1.00  0.00     0.120 C 
HETATM   26  N1  UNL     1       8.673  -3.125   0.362  1.00  0.00    -0.387 N 
ATOM     27  H12 UNL     1       9.639  -3.448   0.404  1.00  0.00     0.157 HD
ATOM     28  H11 UNL     1       7.921  -3.802   0.492  1.00  0.00     0.157 HD
HETATM   29  N2  UNL     1       9.386  -0.973  -0.025  1.00  0.00    -0.082 NA
ENDBRANCH  22  25
ENDBRANCH  16  19
ENDBRANCH   1  13
BRANCH  10  30
HETATM   30  N5  UNL     1      -4.210  -0.443   0.174  1.00  0.00    -0.342 N 
ATOM     31  H5  UNL     1      -3.265  -0.824   0.220  1.00  0.00     0.167 HD
BRANCH  30  32
HETATM   32  C16 UNL     1      -5.356  -1.287   0.375  1.00  0.00     0.033 A 
HETATM   33  C17 UNL     1      -5.704  -1.717   1.632  1.00  0.00     0.029 A 
HETATM   34  C18 UNL     1      -6.803  -2.521   1.802  1.00  0.00     0.002 A 
HETATM   35  C19 UNL     1      -7.582  -2.918   0.738  1.00  0.00     0.000 A 
HETATM   36  C20 UNL     1      -7.227  -2.483  -0.520  1.00  0.00     0.002 A 
HETATM   37  C21 UNL     1      -6.133  -1.682  -0.688  1.00  0.00     0.029 A 
ENDBRANCH  30  32
ENDBRANCH  10  30
TORSDOF 5
