REMARK  6 active torsions:
REMARK  status: ('A' for Active; 'I' for Inactive)
REMARK    1  A    between atoms: N1_1  and  C1_4 
REMARK    2  A    between atoms: C5_12  and  C6_13 
REMARK    3  A    between atoms: C12_21  and  C13_22 
REMARK    4  A    between atoms: C17_26  and  O1_27 
REMARK    5  A    between atoms: O1_27  and  C18_28 
REMARK    6  A    between atoms: C18_28  and  C19_29 
ROOT
HETATM    1  C6  UNL     1      -2.984  -1.210   0.313  1.00  0.00     0.043 A 
HETATM    2  C7  UNL     1      -2.896  -2.366   1.041  1.00  0.00     0.044 A 
HETATM    3  C8  UNL     1      -1.653  -2.812   1.507  1.00  0.00    -0.004 A 
HETATM    4  C9  UNL     1      -1.267  -3.911   2.250  1.00  0.00     0.031 A 
HETATM    5  C10 UNL     1       0.097  -3.866   2.434  1.00  0.00     0.089 A 
HETATM    6  N4  UNL     1       0.549  -2.746   1.808  1.00  0.00    -0.363 N 
ATOM      7  H4  UNL     1       1.521  -2.440   1.769  1.00  0.00     0.165 HD
HETATM    8  C11 UNL     1      -0.494  -2.108   1.249  1.00  0.00     0.070 A 
HETATM    9  C12 UNL     1      -0.624  -0.952   0.514  1.00  0.00     0.071 A 
HETATM   10  N5  UNL     1      -1.847  -0.537   0.071  1.00  0.00    -0.353 N 
ATOM     11  H5  UNL     1      -1.900   0.326  -0.470  1.00  0.00     0.166 HD
ENDROOT
BRANCH   1  12
HETATM   12  C5  UNL     1      -4.263  -0.674  -0.214  1.00  0.00    -0.008 A 
HETATM   13  C4  UNL     1      -5.452  -1.316   0.002  1.00  0.00     0.016 A 
HETATM   14  C3  UNL     1      -6.642  -0.824  -0.485  1.00  0.00     0.033 A 
HETATM   15  C2  UNL     1      -6.656   0.351  -1.213  1.00  0.00     0.062 A 
HETATM   16  N3  UNL     1      -7.646   1.066  -1.806  1.00  0.00    -0.298 N 
HETATM   17  C27 UNL     1      -5.449   0.990  -1.423  1.00  0.00     0.038 A 
HETATM   18  N2  UNL     1      -7.104   2.121  -2.375  1.00  0.00    -0.285 N 
ATOM     19  H3  UNL     1      -8.638   0.827  -1.810  1.00  0.00     0.187 HD
HETATM   20  C1  UNL     1      -5.778   2.125  -2.175  1.00  0.00     0.126 A 
ATOM     21  H2  UNL     1      -7.618   2.833  -2.893  1.00  0.00     0.188 HD
HETATM   22  C26 UNL     1      -4.265   0.497  -0.938  1.00  0.00     0.031 A 
BRANCH  20  23
HETATM   23  N1  UNL     1      -4.898   2.983  -2.570  1.00  0.00    -0.384 N 
ATOM     24  H12 UNL     1      -5.138   3.810  -3.118  1.00  0.00     0.157 HD
ATOM     25  H11 UNL     1      -3.889   2.986  -2.418  1.00  0.00     0.157 HD
ENDBRANCH  20  23
ENDBRANCH   1  12
BRANCH   9  26
HETATM   26  C13 UNL     1       0.576  -0.178   0.226  1.00  0.00    -0.004 A 
HETATM   27  C14 UNL     1       0.504   1.189   0.449  1.00  0.00     0.014 A 
HETATM   28  C15 UNL     1       1.604   1.960   0.185  1.00  0.00     0.004 A 
HETATM   29  C16 UNL     1       2.785   1.404  -0.299  1.00  0.00     0.037 A 
HETATM   30  C17 UNL     1       2.874   0.050  -0.526  1.00  0.00     0.070 A 
HETATM   31  C25 UNL     1       1.742  -0.728  -0.252  1.00  0.00     0.050 A 
BRANCH  30  32
HETATM   32  O1  UNL     1       4.015  -0.553  -1.002  1.00  0.00    -0.347 OA
BRANCH  32  33
HETATM   33  C18 UNL     1       5.222   0.052  -1.315  1.00  0.00     0.214 C 
BRANCH  33  34
HETATM   34  C19 UNL     1       5.890   0.730  -0.170  1.00  0.00    -0.034 A 
HETATM   35  C20 UNL     1       5.584   0.277   1.112  1.00  0.00     0.009 A 
HETATM   36  C21 UNL     1       6.189   0.887   2.221  1.00  0.00     0.001 A 
HETATM   37  C22 UNL     1       7.071   1.918   2.052  1.00  0.00     0.000 A 
HETATM   38  C23 UNL     1       7.362   2.354   0.783  1.00  0.00     0.001 A 
HETATM   39  C24 UNL     1       6.776   1.765  -0.337  1.00  0.00     0.009 A 
ENDBRANCH  33  34
ENDBRANCH  32  33
ENDBRANCH  30  32
ENDBRANCH   9  26
TORSDOF 6
