REMARK  12 active torsions:
REMARK  status: ('A' for Active; 'I' for Inactive)
REMARK    1  A    between atoms: C2_2  and  C3_3 
REMARK    2  A    between atoms: C3_3  and  C4_4 
REMARK    3  A    between atoms: C4_4  and  C5_5 
REMARK    4  A    between atoms: C5_5  and  C6_6 
REMARK    5  A    between atoms: C6_6  and  C7_7 
REMARK    6  A    between atoms: C7_7  and  O1_8 
REMARK    7  A    between atoms: O1_8  and  C8_9 
REMARK    8  A    between atoms: C9_10  and  C10_11 
REMARK    9  A    between atoms: N1_13  and  N2_15 
REMARK       I    between atoms: N2_15  and  C12_17 
REMARK   10  A    between atoms: C12_17  and  C13_19 
REMARK   11  A    between atoms: C18_26  and  O3_27 
REMARK   12  A    between atoms: C23_34  and  O4_35 
ROOT
HETATM    1  C8  UNL     1      -0.306  -1.145   0.111  1.00  0.00     0.114 A 
HETATM    2  C9  UNL     1       0.972  -0.712   0.222  1.00  0.00     0.025 A 
HETATM    3  C19 UNL     1       1.936  -1.673   0.544  1.00  0.00     0.041 A 
HETATM    4  C20 UNL     1       1.587  -3.009   0.734  1.00  0.00     0.043 A 
HETATM    5 CL1  UNL     1       2.864  -4.150   1.135  1.00  0.00    -0.084 Cl
HETATM    6  C21 UNL     1       0.287  -3.406   0.607  1.00  0.00    -0.004 A 
HETATM    7  C22 UNL     1      -0.068  -4.827   0.811  1.00  0.00     0.053 C 
HETATM    8  C23 UNL     1      -0.678  -2.476   0.293  1.00  0.00     0.110 A 
ENDROOT
BRANCH   2   9
HETATM    9  C10 UNL     1       1.449   0.608  -0.101  1.00  0.00     0.035 C 
HETATM   10  C11 UNL     1       0.545   1.602  -0.830  1.00  0.00     0.070 C 
HETATM   11  N1  UNL     1       2.594   1.058   0.084  1.00  0.00    -0.301 N 
ATOM     12  H1  UNL     1       2.574   2.018  -0.260  1.00  0.00     0.186 HD
BRANCH  11  13
HETATM   13  N2  UNL     1       3.820   0.860   0.521  1.00  0.00    -0.266 N 
HETATM   14  C12 UNL     1       4.995   0.661  -0.298  1.00  0.00     0.272 C 
HETATM   15  O2  UNL     1       4.754   0.683  -1.524  1.00  0.00    -0.266 OA
ATOM     16  H2  UNL     1       3.954   0.846   1.532  1.00  0.00     0.190 HD
BRANCH  14  17
HETATM   17  C13 UNL     1       6.321   0.456   0.200  1.00  0.00     0.069 A 
HETATM   18  C14 UNL     1       6.543   0.475   1.584  1.00  0.00     0.039 A 
HETATM   19  C15 UNL     1       7.797   0.308   2.148  1.00  0.00     0.013 A 
HETATM   20 BR1  UNL     1       8.034   0.349   4.052  1.00  0.00    -0.051 Br
HETATM   21  C16 UNL     1       8.850   0.115   1.298  1.00  0.00     0.041 A 
HETATM   22  C17 UNL     1       8.692   0.087  -0.052  1.00  0.00     0.046 A 
HETATM   23 BR2  UNL     1      10.183  -0.182  -1.204  1.00  0.00    -0.048 Br
HETATM   24  C18 UNL     1       7.398   0.261  -0.605  1.00  0.00     0.099 A 
BRANCH  24  25
HETATM   25  O3  UNL     1       7.337   0.218  -1.954  1.00  0.00    -0.358 OA
ATOM     26  H3  UNL     1       8.090   0.082  -2.517  1.00  0.00     0.217 HD
ENDBRANCH  24  25
ENDBRANCH  14  17
ENDBRANCH  11  13
ENDBRANCH   2   9
BRANCH   1  27
HETATM   27  O1  UNL     1      -1.332  -0.280  -0.182  1.00  0.00    -0.347 OA
BRANCH  27  28
HETATM   28  C7  UNL     1      -2.048   0.380   0.839  1.00  0.00     0.176 C 
BRANCH  28  29
HETATM   29  C6  UNL     1      -3.143   1.273   0.234  1.00  0.00     0.027 C 
BRANCH  29  30
HETATM   30  C5  UNL     1      -4.097   0.409  -0.556  1.00  0.00     0.002 C 
BRANCH  30  31
HETATM   31  C4  UNL     1      -5.200   1.223  -1.186  1.00  0.00     0.000 C 
BRANCH  31  32
HETATM   32  C3  UNL     1      -6.038   1.963  -0.194  1.00  0.00    -0.000 C 
BRANCH  32  33
HETATM   33  C2  UNL     1      -7.091   2.731  -0.988  1.00  0.00    -0.005 C 
HETATM   34  C1  UNL     1      -6.481   3.702  -1.950  1.00  0.00     0.005 C 
ENDBRANCH  32  33
ENDBRANCH  31  32
ENDBRANCH  30  31
ENDBRANCH  29  30
ENDBRANCH  28  29
ENDBRANCH  27  28
ENDBRANCH   1  27
BRANCH   8  35
HETATM   35  O4  UNL     1      -1.950  -2.939   0.178  1.00  0.00    -0.352 OA
HETATM   36  C24 UNL     1      -2.959  -3.147   1.081  1.00  0.00     0.210 C 
ENDBRANCH   8  35
TORSDOF 12
