REMARK  12 active torsions:
REMARK  status: ('A' for Active; 'I' for Inactive)
REMARK       I    between atoms: C1_2  and  N1_3 
REMARK    1  A    between atoms: C1_2  and  C12_19 
REMARK    2  A    between atoms: N1_3  and  C2_5 
REMARK    3  A    between atoms: C2_5  and  C3_6 
REMARK    4  A    between atoms: C3_6  and  C4_7 
REMARK    5  A    between atoms: C4_7  and  C5_8 
REMARK    6  A    between atoms: C5_8  and  C6_9 
REMARK    7  A    between atoms: C6_9  and  N2_10 
REMARK    8  A    between atoms: N2_10  and  C7_12 
REMARK    9  A    between atoms: C15_23  and  O2_24 
REMARK   10  A    between atoms: O2_24  and  C16_25 
REMARK   11  A    between atoms: C23_36  and  O5_37 
REMARK   12  A    between atoms: O5_37  and  C24_38 
ROOT
HETATM    1  C12 UNL     1      -0.335  -0.603  -0.810  1.00  0.00     0.036 A 
HETATM    2  C13 UNL     1      -0.524  -1.827  -1.411  1.00  0.00     0.044 A 
HETATM    3  C14 UNL     1      -1.751  -2.435  -1.411  1.00  0.00     0.071 A 
HETATM    4 CL1  UNL     1      -1.898  -3.960  -2.296  1.00  0.00    -0.081 Cl
HETATM    5  C15 UNL     1      -2.832  -1.810  -0.790  1.00  0.00     0.131 A 
HETATM    6  C23 UNL     1      -2.700  -0.562  -0.164  1.00  0.00     0.105 A 
HETATM    7  C29 UNL     1      -1.388  -0.007  -0.216  1.00  0.00     0.057 A 
ENDROOT
BRANCH   1   8
HETATM    8  C1  UNL     1       1.039  -0.005  -0.844  1.00  0.00     0.251 C 
HETATM    9  O1  UNL     1       1.746  -0.277  -1.843  1.00  0.00    -0.268 OA
HETATM   10  N1  UNL     1       1.425   0.793   0.217  1.00  0.00    -0.357 N 
ATOM     11  H1  UNL     1       0.684   0.888   0.911  1.00  0.00     0.162 HD
BRANCH  10  12
HETATM   12  C2  UNL     1       2.585   1.510   0.584  1.00  0.00     0.123 C 
BRANCH  12  13
HETATM   13  C3  UNL     1       3.851   0.812   0.884  1.00  0.00     0.020 C 
BRANCH  13  14
HETATM   14  C4  UNL     1       4.576   0.069  -0.157  1.00  0.00     0.003 C 
BRANCH  14  15
HETATM   15  C5  UNL     1       5.002   0.962  -1.331  1.00  0.00     0.020 C 
BRANCH  15  16
HETATM   16  C6  UNL     1       5.942   2.051  -0.802  1.00  0.00     0.119 C 
BRANCH  16  17
HETATM   17  N2  UNL     1       7.111   1.451  -0.205  1.00  0.00    -0.390 N 
ATOM     18  H2  UNL     1       7.071   1.218   0.787  1.00  0.00     0.159 HD
BRANCH  17  19
HETATM   19  C7  UNL     1       8.190   1.192  -0.833  1.00  0.00     0.030 A 
HETATM   20  C8  UNL     1       9.215   0.614  -0.107  1.00  0.00     0.046 A 
HETATM   21  C9  UNL     1      10.402   0.311  -0.730  1.00  0.00     0.089 A 
HETATM   22  N3  UNL     1      10.579   0.572  -2.051  1.00  0.00    -0.375 N 
HETATM   23  C10 UNL     1       9.603   1.132  -2.785  1.00  0.00     0.089 A 
ATOM     24  H3  UNL     1      11.468   0.339  -2.493  1.00  0.00     0.164 HD
HETATM   25  C11 UNL     1       8.404   1.442  -2.169  1.00  0.00     0.046 A 
ENDBRANCH  17  19
ENDBRANCH  16  17
ENDBRANCH  15  16
ENDBRANCH  14  15
ENDBRANCH  13  14
ENDBRANCH  12  13
ENDBRANCH  10  12
ENDBRANCH   1   8
BRANCH   6  26
HETATM   26  O5  UNL     1      -3.622   0.120   0.442  1.00  0.00    -0.343 OA
BRANCH  26  27
HETATM   27  C24 UNL     1      -4.536   0.795   1.042  1.00  0.00     0.129 C 
HETATM   28  C25 UNL     1      -4.970   2.108   0.353  1.00  0.00     0.032 C 
HETATM   29  C26 UNL     1      -5.947   2.655   1.394  1.00  0.00     0.002 C 
HETATM   30  C27 UNL     1      -5.076   2.557   2.634  1.00  0.00     0.002 C 
HETATM   31  C28 UNL     1      -4.234   1.317   2.448  1.00  0.00     0.032 C 
ENDBRANCH  26  27
ENDBRANCH   6  26
BRANCH   5  32
HETATM   32  O2  UNL     1      -3.997  -2.460  -0.810  1.00  0.00    -0.301 OA
BRANCH  32  33
HETATM   33  C16 UNL     1      -4.916  -2.985  -0.017  1.00  0.00     0.136 A 
HETATM   34  C17 UNL     1      -4.738  -3.994   0.875  1.00  0.00     0.092 A 
HETATM   35 CL2  UNL     1      -3.171  -4.688   1.119  1.00  0.00    -0.079 Cl
HETATM   36  C18 UNL     1      -5.760  -4.511   1.678  1.00  0.00     0.061 A 
HETATM   37 CL3  UNL     1      -5.444  -5.816   2.802  1.00  0.00    -0.082 Cl
HETATM   38  C19 UNL     1      -7.030  -3.993   1.586  1.00  0.00     0.065 A 
HETATM   39  C20 UNL     1      -7.255  -2.969   0.697  1.00  0.00     0.109 A 
HETATM   40  C21 UNL     1      -6.240  -2.477  -0.080  1.00  0.00     0.140 A 
HETATM   41  O4  UNL     1      -8.443  -2.301   0.440  1.00  0.00    -0.323 OA
HETATM   42  O3  UNL     1      -6.774  -1.474  -0.855  1.00  0.00    -0.320 OA
HETATM   43  C22 UNL     1      -8.162  -1.321  -0.538  1.00  0.00     0.352 A 
ENDBRANCH  32  33
ENDBRANCH   5  32
TORSDOF 12
