REMARK  11 active torsions:
REMARK  status: ('A' for Active; 'I' for Inactive)
REMARK    1  A    between atoms: C3_7  and  C4_8 
REMARK    2  A    between atoms: C4_8  and  N3_9 
REMARK    3  A    between atoms: N3_9  and  C5_11 
REMARK    4  A    between atoms: C9_15  and  O1_16 
REMARK    5  A    between atoms: O1_16  and  C10_17 
REMARK    6  A    between atoms: C10_17  and  C11_18 
REMARK    7  A    between atoms: C16_24  and  C17_25 
REMARK    8  A    between atoms: C17_25  and  C19_27 
REMARK    9  A    between atoms: C17_25  and  C28_38 
REMARK   10  A    between atoms: N5_29  and  C21_31 
REMARK   11  A    between atoms: C21_31  and  C22_32 
ROOT
HETATM    1  C11 UNL     1       0.434   0.672  -0.659  1.00  0.00    -0.025 A 
HETATM    2  C12 UNL     1       1.087   1.475   0.246  1.00  0.00     0.033 A 
HETATM    3  C13 UNL     1       0.334   2.341   1.017  1.00  0.00     0.034 A 
HETATM    4 CL1  UNL     1       1.179   3.361   2.165  1.00  0.00    -0.084 Cl
HETATM    5  C14 UNL     1      -1.024   2.370   0.857  1.00  0.00     0.024 A 
HETATM    6  C15 UNL     1      -1.638   1.520  -0.084  1.00  0.00     0.011 A 
HETATM    7  C16 UNL     1      -0.941   0.636  -0.876  1.00  0.00    -0.031 A 
ENDROOT
BRANCH   1   8
HETATM    8  C10 UNL     1       1.271   0.006  -1.662  1.00  0.00     0.215 C 
BRANCH   8   9
HETATM    9  O1  UNL     1       2.621  -0.046  -1.469  1.00  0.00    -0.346 OA
BRANCH   9  10
HETATM   10  C9  UNL     1       3.587  -0.492  -0.736  1.00  0.00     0.078 A 
HETATM   11  C7  UNL     1       4.901  -0.168  -1.057  1.00  0.00    -0.026 A 
HETATM   12  C6  UNL     1       5.956  -0.632  -0.298  1.00  0.00     0.041 A 
HETATM   13  C8  UNL     1       5.226   0.691  -2.225  1.00  0.00     0.051 C 
HETATM   14  C5  UNL     1       5.747  -1.436   0.811  1.00  0.00     0.068 A 
HETATM   15  C32 UNL     1       4.453  -1.769   1.146  1.00  0.00     0.145 A 
HETATM   16  C31 UNL     1       3.429  -1.288   0.367  1.00  0.00     0.082 A 
HETATM   17  F2  UNL     1       4.186  -2.547   2.212  1.00  0.00    -0.204 F 
BRANCH  14  18
HETATM   18  N3  UNL     1       6.806  -1.946   1.602  1.00  0.00    -0.380 N 
ATOM     19  H3  UNL     1       6.565  -2.606   2.342  1.00  0.00     0.160 HD
BRANCH  18  20
HETATM   20  C4  UNL     1       8.204  -1.603   1.442  1.00  0.00     0.206 C 
BRANCH  20  21
HETATM   21  C3  UNL     1       8.385  -0.165   1.851  1.00  0.00     0.158 A 
HETATM   22  N2  UNL     1       8.041   0.312   3.072  1.00  0.00    -0.280 N 
HETATM   23  N1  UNL     1       8.330   1.594   3.097  1.00  0.00    -0.282 N 
ATOM     24  H2  UNL     1       7.631  -0.227   3.835  1.00  0.00     0.189 HD
HETATM   25  C2  UNL     1       8.852   1.918   1.898  1.00  0.00     0.136 A 
ATOM     26  H1  UNL     1       8.185   2.229   3.882  1.00  0.00     0.189 HD
HETATM   27  C1  UNL     1       9.291   3.311   1.586  1.00  0.00     0.099 C 
HETATM   28  O2  UNL     1       8.870   0.836   1.173  1.00  0.00    -0.281 OA
ENDBRANCH  20  21
ENDBRANCH  18  20
ENDBRANCH  14  18
ENDBRANCH   9  10
ENDBRANCH   8   9
ENDBRANCH   1   8
BRANCH   7  29
HETATM   29  C17 UNL     1      -1.662  -0.415  -1.598  1.00  0.00     0.075 C 
HETATM   30  C18 UNL     1      -1.403  -0.827  -2.933  1.00  0.00     0.032 C 
BRANCH  29  31
HETATM   31  C19 UNL     1      -3.068   0.187  -1.721  1.00  0.00     0.107 C 
HETATM   32  N4  UNL     1      -2.911   1.376  -2.408  1.00  0.00    -0.086 NA
HETATM   33  N5  UNL     1      -4.352  -0.059  -1.482  1.00  0.00    -0.376 N 
HETATM   34  C20 UNL     1      -5.017  -1.284  -1.904  1.00  0.00     0.150 C 
BRANCH  33  35
HETATM   35  C21 UNL     1      -5.285   0.901  -0.927  1.00  0.00     0.128 C 
BRANCH  35  36
HETATM   36  C22 UNL     1      -5.969   0.670   0.339  1.00  0.00     0.003 C 
HETATM   37  C23 UNL     1      -6.839  -0.547   0.474  1.00  0.00     0.006 C 
HETATM   38  C24 UNL     1      -7.759  -0.332   1.674  1.00  0.00     0.000 C 
HETATM   39  C25 UNL     1      -7.533   0.956   2.387  1.00  0.00     0.000 C 
HETATM   40  C26 UNL     1      -6.110   1.285   2.703  1.00  0.00     0.000 C 
HETATM   41  C27 UNL     1      -5.177   0.810   1.604  1.00  0.00     0.006 C 
ENDBRANCH  35  36
ENDBRANCH  33  35
ENDBRANCH  29  31
BRANCH  29  42
HETATM   42  C28 UNL     1      -1.806  -1.597  -0.639  1.00  0.00     0.114 C 
HETATM   43  C29 UNL     1      -0.558  -2.111   0.036  1.00  0.00     0.053 C 
HETATM   44  C30 UNL     1      -2.166  -2.885  -1.444  1.00  0.00     0.053 C 
HETATM   45  F1  UNL     1      -2.732  -1.454   0.317  1.00  0.00    -0.242 F 
ENDBRANCH  29  42
ENDBRANCH   7  29
TORSDOF 11
