REMARK  12 active torsions:
REMARK  status: ('A' for Active; 'I' for Inactive)
REMARK    1  A    between atoms: C2_2  and  C3_3 
REMARK    2  A    between atoms: C3_3  and  C4_4 
REMARK    3  A    between atoms: C4_4  and  O1_5 
REMARK    4  A    between atoms: O1_5  and  C5_6 
REMARK    5  A    between atoms: C5_6  and  C6_7 
REMARK    6  A    between atoms: C6_7  and  N1_8 
REMARK    7  A    between atoms: N2_11  and  C9_12 
REMARK    8  A    between atoms: C12_17  and  S1_18 
REMARK    9  A    between atoms: S1_18  and  C13_19 
REMARK   10  A    between atoms: C16_23  and  C17_24 
REMARK       I    between atoms: C17_24  and  N4_26 
REMARK   11  A    between atoms: N4_26  and  C18_28 
REMARK   12  A    between atoms: C21_31  and  C22_32 
ROOT
HETATM    1  C9  UNL     1       1.492   0.395   0.223  1.00  0.00     0.055 A 
HETATM    2  C10 UNL     1       0.533   0.929   1.076  1.00  0.00     0.063 A 
HETATM    3  C11 UNL     1      -0.609   0.257   1.408  1.00  0.00     0.063 A 
HETATM    4  N3  UNL     1      -1.687   0.518   2.190  1.00  0.00    -0.335 N 
ATOM      5  H3  UNL     1      -1.839   1.371   2.728  1.00  0.00     0.168 HD
HETATM    6  C12 UNL     1      -2.520  -0.532   2.139  1.00  0.00     0.150 A 
HETATM    7  N5  UNL     1      -1.961  -1.444   1.327  1.00  0.00    -0.335 N 
ATOM      8  H5  UNL     1      -2.372  -2.349   1.098  1.00  0.00     0.168 HD
HETATM    9  C25 UNL     1      -0.783  -0.995   0.858  1.00  0.00     0.062 A 
HETATM   10  C26 UNL     1       0.135  -1.567   0.010  1.00  0.00     0.058 A 
HETATM   11  C27 UNL     1       1.272  -0.850  -0.295  1.00  0.00     0.062 A 
HETATM   12 CL2  UNL     1       2.427  -1.606  -1.378  1.00  0.00    -0.082 Cl
ENDROOT
BRANCH   6  13
HETATM   13  S1  UNL     1      -4.090  -0.767   2.944  1.00  0.00    -0.052 SA
BRANCH  13  14
HETATM   14  C13 UNL     1      -5.449  -0.149   2.003  1.00  0.00     0.036 A 
HETATM   15  C14 UNL     1      -5.827   1.163   2.192  1.00  0.00     0.052 A 
HETATM   16 CL1  UNL     1      -4.989   2.212   3.340  1.00  0.00    -0.083 Cl
HETATM   17  C15 UNL     1      -6.875   1.732   1.502  1.00  0.00     0.042 A 
HETATM   18  C16 UNL     1      -7.585   0.961   0.575  1.00  0.00     0.034 A 
HETATM   19  C20 UNL     1      -7.184  -0.343   0.410  1.00  0.00     0.026 A 
HETATM   20  C21 UNL     1      -6.133  -0.926   1.098  1.00  0.00    -0.035 A 
BRANCH  18  21
HETATM   21  C17 UNL     1      -8.694   1.568  -0.155  1.00  0.00     0.251 C 
HETATM   22  O2  UNL     1      -9.009   2.784   0.051  1.00  0.00    -0.268 OA
HETATM   23  N4  UNL     1      -9.473   0.871  -1.113  1.00  0.00    -0.357 N 
ATOM     24  H4  UNL     1      -9.250  -0.106  -1.304  1.00  0.00     0.162 HD
BRANCH  23  25
HETATM   25  C18 UNL     1     -10.565   1.479  -1.829  1.00  0.00     0.118 C 
HETATM   26  C19 UNL     1     -11.645   1.972  -0.893  1.00  0.00     0.026 C 
ENDBRANCH  23  25
ENDBRANCH  18  21
BRANCH  20  27
HETATM   27  C22 UNL     1      -5.759  -2.359   0.859  1.00  0.00     0.012 C 
HETATM   28  C23 UNL     1      -6.640  -2.966  -0.214  1.00  0.00     0.015 C 
HETATM   29  C24 UNL     1      -5.741  -3.176   2.112  1.00  0.00     0.015 C 
ENDBRANCH  20  27
ENDBRANCH  13  14
ENDBRANCH   6  13
BRANCH   1  30
HETATM   30  N2  UNL     1       2.672   1.133  -0.105  1.00  0.00    -0.370 N 
HETATM   31  C8  UNL     1       2.980   1.492  -1.468  1.00  0.00     0.168 C 
HETATM   32  C7  UNL     1       4.412   1.270  -1.766  1.00  0.00     0.083 C 
HETATM   33  N1  UNL     1       5.280   0.915  -0.741  1.00  0.00    -0.369 N 
HETATM   34  C29 UNL     1       5.001   1.152   0.601  1.00  0.00     0.083 C 
HETATM   35  C28 UNL     1       3.601   1.563   0.917  1.00  0.00     0.168 C 
BRANCH  33  36
HETATM   36  C6  UNL     1       6.503   0.238  -1.079  1.00  0.00     0.153 C 
BRANCH  36  37
HETATM   37  C5  UNL     1       7.385   1.185  -1.820  1.00  0.00     0.187 C 
BRANCH  37  38
HETATM   38  O1  UNL     1       8.547   0.756  -2.241  1.00  0.00    -0.390 OA
BRANCH  38  39
HETATM   39  C4  UNL     1       9.640   0.353  -1.646  1.00  0.00     0.167 C 
BRANCH  39  40
HETATM   40  C3  UNL     1       9.618  -0.838  -0.738  1.00  0.00     0.026 C 
BRANCH  40  41
HETATM   41  C2  UNL     1      11.066  -1.095  -0.258  1.00  0.00    -0.002 C 
HETATM   42  C1  UNL     1      11.110  -2.289   0.664  1.00  0.00     0.005 C 
ENDBRANCH  40  41
ENDBRANCH  39  40
ENDBRANCH  38  39
ENDBRANCH  37  38
ENDBRANCH  36  37
ENDBRANCH  33  36
ENDBRANCH   1  30
TORSDOF 12
