REMARK  13 active torsions:
REMARK  status: ('A' for Active; 'I' for Inactive)
REMARK    1  A    between atoms: O1_2  and  C2_3 
REMARK    2  A    between atoms: C2_3  and  C3_4 
REMARK    3  A    between atoms: C3_4  and  N1_5 
REMARK    4  A    between atoms: N1_5  and  C5_7 
REMARK    5  A    between atoms: C5_7  and  C6_8 
REMARK    6  A    between atoms: C6_8  and  C7_9 
REMARK    7  A    between atoms: C7_9  and  C8_10 
REMARK    8  A    between atoms: C8_10  and  C9_11 
REMARK    9  A    between atoms: C9_11  and  N2_12 
REMARK   10  A    between atoms: C17_22  and  N3_23 
REMARK   11  A    between atoms: N3_23  and  C18_24 
REMARK   12  A    between atoms: C23_30  and  O2_31 
REMARK   13  A    between atoms: C25_34  and  C26_35 
ROOT
HETATM    1  N2  UNL     1      -0.222   1.085  -0.523  1.00  0.00    -0.332 N 
HETATM    2  C10 UNL     1      -0.935   1.968   0.206  1.00  0.00     0.049 A 
HETATM    3  C11 UNL     1      -0.532   3.138   0.789  1.00  0.00     0.056 A 
HETATM    4  C12 UNL     1      -1.428   3.921   1.508  1.00  0.00     0.058 A 
HETATM    5 CL1  UNL     1      -0.888   5.408   2.243  1.00  0.00    -0.082 Cl
HETATM    6  C13 UNL     1      -2.719   3.486   1.614  1.00  0.00     0.056 A 
HETATM    7 CL2  UNL     1      -3.891   4.448   2.519  1.00  0.00    -0.083 Cl
HETATM    8  C14 UNL     1      -3.172   2.304   1.039  1.00  0.00     0.040 A 
HETATM    9  C15 UNL     1      -2.257   1.548   0.330  1.00  0.00     0.010 A 
HETATM   10  C16 UNL     1      -2.335   0.345  -0.368  1.00  0.00     0.062 A 
HETATM   11  C17 UNL     1      -3.424  -0.540  -0.591  1.00  0.00     0.137 A 
HETATM   12  C25 UNL     1      -3.127  -1.663  -1.348  1.00  0.00     0.066 A 
HETATM   13  C28 UNL     1      -1.837  -1.894  -1.852  1.00  0.00     0.108 A 
HETATM   14  N4  UNL     1      -0.888  -1.003  -1.587  1.00  0.00    -0.350 N 
ATOM     15  H4  UNL     1       0.047  -1.176  -1.957  1.00  0.00     0.166 HD
HETATM   16  C29 UNL     1      -1.081   0.108  -0.865  1.00  0.00     0.122 A 
ENDROOT
BRANCH   1  17
HETATM   17  C9  UNL     1       1.195   1.185  -0.866  1.00  0.00     0.131 C 
BRANCH  17  18
HETATM   18  C8  UNL     1       2.046   0.510   0.202  1.00  0.00     0.020 C 
BRANCH  18  19
HETATM   19  C7  UNL     1       3.513   0.642  -0.163  1.00  0.00     0.003 C 
BRANCH  19  20
HETATM   20  C6  UNL     1       4.410  -0.016   0.861  1.00  0.00     0.030 C 
BRANCH  20  21
HETATM   21  C5  UNL     1       5.845   0.181   0.431  1.00  0.00     0.272 C 
BRANCH  21  22
HETATM   22  N1  UNL     1       6.739  -0.447   1.390  1.00  0.00     0.086 N 
HETATM   23  C4  UNL     1       6.498  -1.904   1.368  1.00  0.00     0.310 C 
BRANCH  22  24
HETATM   24  C3  UNL     1       8.115  -0.157   1.198  1.00  0.00     0.297 C 
BRANCH  24  25
HETATM   25  C2  UNL     1       8.723  -0.384  -0.127  1.00  0.00     0.197 C 
BRANCH  25  26
HETATM   26  O1  UNL     1       8.120   0.379  -1.098  1.00  0.00    -0.394 OA
HETATM   27  C1  UNL     1       8.684   0.170  -2.354  1.00  0.00     0.201 C 
ENDBRANCH  25  26
ENDBRANCH  24  25
ENDBRANCH  22  24
ENDBRANCH  21  22
ENDBRANCH  20  21
ENDBRANCH  19  20
ENDBRANCH  18  19
ENDBRANCH  17  18
ENDBRANCH   1  17
BRANCH  11  28
HETATM   28  N3  UNL     1      -4.506  -0.317  -0.167  1.00  0.00    -0.404 NA
BRANCH  28  29
HETATM   29  C18 UNL     1      -5.763  -0.244   0.216  1.00  0.00     0.111 A 
HETATM   30  C19 UNL     1      -6.850   0.222  -0.553  1.00  0.00     0.053 A 
HETATM   31  C20 UNL     1      -8.129   0.286  -0.067  1.00  0.00    -0.034 A 
HETATM   32  C21 UNL     1      -9.270   0.784  -0.898  1.00  0.00     0.050 C 
HETATM   33  C22 UNL     1      -8.382  -0.118   1.231  1.00  0.00     0.073 A 
HETATM   34 CL3  UNL     1     -10.019  -0.025   1.827  1.00  0.00    -0.081 Cl
HETATM   35  C23 UNL     1      -7.372  -0.575   2.016  1.00  0.00     0.091 A 
HETATM   36  C24 UNL     1      -6.111  -0.635   1.526  1.00  0.00     0.083 A 
BRANCH  35  37
HETATM   37  O2  UNL     1      -7.686  -0.966   3.309  1.00  0.00    -0.359 OA
ATOM     38  H2  UNL     1      -6.980  -1.286   3.858  1.00  0.00     0.217 HD
ENDBRANCH  35  37
ENDBRANCH  28  29
ENDBRANCH  11  28
BRANCH  12  39
HETATM   39  C26 UNL     1      -4.066  -2.728  -1.671  1.00  0.00     0.160 C 
HETATM   40  C27 UNL     1      -3.730  -3.751  -2.733  1.00  0.00     0.097 C 
HETATM   41  O3  UNL     1      -5.157  -2.823  -1.092  1.00  0.00    -0.293 OA
ENDBRANCH  12  39
TORSDOF 13
