REMARK  13 active torsions:
REMARK  status: ('A' for Active; 'I' for Inactive)
REMARK    1  A    between atoms: C2_2  and  O2_4 
REMARK    2  A    between atoms: O2_4  and  C3_5 
REMARK    3  A    between atoms: C3_5  and  C4_6 
REMARK    4  A    between atoms: C4_6  and  C5_7 
REMARK    5  A    between atoms: C7_9  and  C8_10 
REMARK    6  A    between atoms: C8_10  and  C9_11 
REMARK    7  A    between atoms: C15_17  and  C16_18 
REMARK    8  A    between atoms: C16_18  and  C17_19 
REMARK    9  A    between atoms: C21_23  and  O3_24 
REMARK   10  A    between atoms: C22_26  and  C23_27 
REMARK   11  A    between atoms: C23_27  and  C24_28 
REMARK   12  A    between atoms: C28_32  and  O4_33 
REMARK   13  A    between atoms: O4_33  and  S1_34 
ROOT
HETATM    1  C9  UNL     1       1.816  -2.067  -0.354  1.00  0.00     0.025 C 
HETATM    2  C10 UNL     1       2.340  -3.027  -1.414  1.00  0.00     0.022 C 
HETATM    3  C11 UNL     1       0.725  -2.874   0.339  1.00  0.00     0.020 C 
HETATM    4  C12 UNL     1       0.003  -2.129   1.394  1.00  0.00     0.043 C 
HETATM    5  C13 UNL     1      -0.895  -1.049   0.908  1.00  0.00    -0.015 A 
HETATM    6  C14 UNL     1      -0.484   0.056   0.168  1.00  0.00    -0.034 A 
HETATM    7  C15 UNL     1      -1.366   1.003  -0.211  1.00  0.00    -0.014 A 
HETATM    8  C21 UNL     1      -2.719   0.816   0.177  1.00  0.00     0.082 A 
HETATM    9  C22 UNL     1      -3.134  -0.248   0.891  1.00  0.00     0.014 A 
HETATM   10  C28 UNL     1      -2.208  -1.225   1.281  1.00  0.00     0.108 A 
HETATM   11  C29 UNL     1       0.894   0.308  -0.301  1.00  0.00     0.119 C 
HETATM   12  C30 UNL     1       1.292  -0.905  -1.095  1.00  0.00     0.255 C 
HETATM   13  F1  UNL     1       0.133  -1.362  -1.756  1.00  0.00    -0.205 F 
HETATM   14  F2  UNL     1       2.144  -0.545  -2.108  1.00  0.00    -0.205 F 
ENDROOT
BRANCH   1  15
HETATM   15  C8  UNL     1       2.953  -1.786   0.597  1.00  0.00     0.042 C 
BRANCH  15  16
HETATM   16  C7  UNL     1       4.147  -1.168  -0.038  1.00  0.00    -0.023 C 
HETATM   17  C5  UNL     1       5.342  -1.710  -0.036  1.00  0.00    -0.086 C 
HETATM   18  C6  UNL     1       5.620  -3.015   0.622  1.00  0.00     0.043 C 
BRANCH  17  19
HETATM   19  C4  UNL     1       6.484  -1.040  -0.686  1.00  0.00     0.060 C 
BRANCH  19  20
HETATM   20  C3  UNL     1       6.221   0.282  -1.302  1.00  0.00     0.183 C 
BRANCH  20  21
HETATM   21  O2  UNL     1       5.815   1.198  -0.314  1.00  0.00    -0.321 OA
BRANCH  21  22
HETATM   22  C2  UNL     1       5.502   2.512  -0.583  1.00  0.00     0.254 C 
HETATM   23  C1  UNL     1       5.080   3.434   0.495  1.00  0.00     0.126 C 
HETATM   24  O1  UNL     1       5.584   2.909  -1.772  1.00  0.00    -0.266 OA
ENDBRANCH  21  22
ENDBRANCH  20  21
ENDBRANCH  19  20
ENDBRANCH  17  19
ENDBRANCH  15  16
ENDBRANCH   1  15
BRANCH  10  25
HETATM   25  O4  UNL     1      -2.610  -2.314   2.008  1.00  0.00    -0.213 OA
BRANCH  25  26
HETATM   26  S1  UNL     1      -3.145  -3.793   1.442  1.00  0.00     0.257 S 
HETATM   27  O5  UNL     1      -3.047  -3.950  -0.037  1.00  0.00    -0.572 OA
HETATM   28  O6  UNL     1      -2.386  -4.963   2.055  1.00  0.00    -0.572 OA
HETATM   29  O7  UNL     1      -4.767  -4.086   1.862  1.00  0.00    -0.572 OA
ENDBRANCH  25  26
ENDBRANCH  10  25
BRANCH   7  30
HETATM   30  C16 UNL     1      -0.929   2.185  -0.968  1.00  0.00     0.069 C 
BRANCH  30  31
HETATM   31  C17 UNL     1      -0.267   3.227  -0.152  1.00  0.00    -0.020 C 
HETATM   32  C18 UNL     1      -0.674   4.482  -0.120  1.00  0.00    -0.091 C 
HETATM   33  C19 UNL     1      -0.002   5.528   0.707  1.00  0.00     0.042 C 
HETATM   34  C20 UNL     1      -1.829   4.932  -0.933  1.00  0.00     0.042 C 
ENDBRANCH  30  31
ENDBRANCH   7  30
BRANCH   9  35
HETATM   35  C23 UNL     1      -4.538  -0.444   1.290  1.00  0.00     0.072 C 
BRANCH  35  36
HETATM   36  C24 UNL     1      -5.429  -0.917   0.201  1.00  0.00    -0.020 C 
HETATM   37  C25 UNL     1      -6.606  -0.426  -0.086  1.00  0.00    -0.091 C 
HETATM   38  C26 UNL     1      -7.181   0.694   0.691  1.00  0.00     0.042 C 
HETATM   39  C27 UNL     1      -7.386  -1.004  -1.217  1.00  0.00     0.042 C 
ENDBRANCH  35  36
ENDBRANCH   9  35
BRANCH   8  40
HETATM   40  O3  UNL     1      -3.564   1.817  -0.243  1.00  0.00    -0.359 OA
ATOM     41  H3  UNL     1      -4.469   1.692   0.017  1.00  0.00     0.217 HD
ENDBRANCH   8  40
TORSDOF 13
