REMARK  5 active torsions:
REMARK  status: ('A' for Active; 'I' for Inactive)
REMARK    1  A    between atoms: C1_4  and  C2_6 
REMARK    2  A    between atoms: C6_12  and  C7_13 
REMARK    3  A    between atoms: C11_17  and  C12_18 
REMARK    4  A    between atoms: C15_21  and  C16_22 
REMARK    5  A    between atoms: C16_22  and  C17_24 
ROOT
HETATM    1  C7  UNL     1      -1.634   1.426  -0.953  1.00  0.00     0.059 A 
HETATM    2  C8  UNL     1      -1.598   2.623  -1.623  1.00  0.00     0.032 A 
HETATM    3  C9  UNL     1      -0.410   3.212  -2.028  1.00  0.00     0.005 A 
HETATM    4  C10 UNL     1       0.755   2.508  -1.710  1.00  0.00     0.030 A 
HETATM    5  C11 UNL     1       0.734   1.310  -1.040  1.00  0.00     0.043 A 
HETATM    6  N4  UNL     1      -0.466   0.813  -0.685  1.00  0.00    -0.354 N 
ATOM      7  H4  UNL     1      -0.491  -0.076  -0.186  1.00  0.00     0.166 HD
ENDROOT
BRANCH   1   8
HETATM    8  C6  UNL     1      -2.889   0.819  -0.533  1.00  0.00     0.060 A 
HETATM    9  N3  UNL     1      -3.099  -0.327   0.125  1.00  0.00    -0.354 N 
HETATM   10  C5  UNL     1      -4.413  -0.528   0.304  1.00  0.00     0.043 A 
ATOM     11  H3  UNL     1      -2.364  -0.958   0.445  1.00  0.00     0.166 HD
HETATM   12  C4  UNL     1      -5.115  -1.541   0.907  1.00  0.00     0.031 A 
HETATM   13  C26 UNL     1      -5.110   0.519  -0.254  1.00  0.00    -0.006 A 
HETATM   14  C3  UNL     1      -6.491  -1.482   0.937  1.00  0.00     0.017 A 
HETATM   15  C2  UNL     1      -7.189  -0.424   0.373  1.00  0.00     0.005 A 
HETATM   16  C27 UNL     1      -6.490   0.595  -0.233  1.00  0.00     0.028 A 
HETATM   17  C25 UNL     1      -4.128   1.362  -0.778  1.00  0.00     0.045 A 
BRANCH  15  18
HETATM   18  C1  UNL     1      -8.655  -0.381   0.411  1.00  0.00     0.120 C 
HETATM   19  N1  UNL     1      -9.267   0.615  -0.127  1.00  0.00    -0.387 N 
ATOM     20  H12 UNL     1     -10.286   0.645  -0.101  1.00  0.00     0.157 HD
ATOM     21  H11 UNL     1      -8.755   1.373  -0.579  1.00  0.00     0.157 HD
HETATM   22  N2  UNL     1      -9.362  -1.426   1.034  1.00  0.00    -0.082 NA
ENDBRANCH  15  18
ENDBRANCH   1   8
BRANCH   5  23
HETATM   23  C12 UNL     1       1.931   0.541  -0.703  1.00  0.00    -0.009 A 
HETATM   24  C13 UNL     1       1.839  -0.674  -0.045  1.00  0.00     0.014 A 
HETATM   25  C14 UNL     1       2.935  -1.432   0.284  1.00  0.00     0.016 A 
HETATM   26  C15 UNL     1       4.236  -1.005  -0.037  1.00  0.00     0.015 A 
HETATM   27  C23 UNL     1       4.324   0.202  -0.690  1.00  0.00     0.016 A 
HETATM   28  C24 UNL     1       3.198   0.963  -1.018  1.00  0.00     0.014 A 
BRANCH  26  29
HETATM   29  C16 UNL     1       5.369  -1.844   0.297  1.00  0.00     0.192 C 
HETATM   30  O1  UNL     1       5.242  -3.117   0.329  1.00  0.00    -0.287 OA
BRANCH  29  31
HETATM   31  C17 UNL     1       6.659  -1.288   0.601  1.00  0.00     0.015 A 
HETATM   32  C18 UNL     1       6.867  -0.008   1.086  1.00  0.00     0.015 A 
HETATM   33  C19 UNL     1       8.115   0.498   1.347  1.00  0.00     0.001 A 
HETATM   34  C20 UNL     1       9.224  -0.313   1.114  1.00  0.00     0.000 A 
HETATM   35  C21 UNL     1       9.008  -1.597   0.628  1.00  0.00     0.001 A 
HETATM   36  C22 UNL     1       7.769  -2.083   0.374  1.00  0.00     0.015 A 
ENDBRANCH  29  31
ENDBRANCH  26  29
ENDBRANCH   5  23
TORSDOF 5
