REMARK  6 active torsions:
REMARK  status: ('A' for Active; 'I' for Inactive)
REMARK    1  A    between atoms: N1_1  and  C1_4 
REMARK    2  A    between atoms: C3_6  and  C4_7 
REMARK    3  A    between atoms: C5_9  and  C6_10 
REMARK    4  A    between atoms: C6_10  and  C7_11 
REMARK    5  A    between atoms: C11_19  and  C12_20 
REMARK    6  A    between atoms: C19_27  and  C20_28 
ROOT
HETATM    1  C4  UNL     1      -0.620  -0.172   1.218  1.00  0.00     0.044 A 
HETATM    2  S1  UNL     1      -1.542  -1.634   1.339  1.00  0.00    -0.073 SA
HETATM    3  C5  UNL     1      -3.106  -0.963   1.148  1.00  0.00     0.057 A 
HETATM    4  N3  UNL     1      -2.842   0.309   1.007  1.00  0.00    -0.352 N 
ATOM      5  H3  UNL     1      -3.608   0.969   0.873  1.00  0.00     0.166 HD
HETATM    6  C11 UNL     1      -1.618   0.747   1.035  1.00  0.00     0.061 A 
ENDROOT
BRANCH   1   7
HETATM    7  C3  UNL     1       0.826  -0.059   1.297  1.00  0.00    -0.011 A 
HETATM    8  C2  UNL     1       1.480   0.453   2.388  1.00  0.00     0.061 A 
HETATM    9  C1  UNL     1       2.848   0.554   2.437  1.00  0.00     0.100 A 
HETATM   10  N4  UNL     1       3.583   0.132   1.367  1.00  0.00    -0.342 N 
HETATM   11  C19 UNL     1       3.015  -0.383   0.259  1.00  0.00     0.044 A 
ATOM     12  H4  UNL     1       4.599   0.209   1.408  1.00  0.00     0.167 HD
HETATM   13  C18 UNL     1       1.639  -0.475   0.230  1.00  0.00     0.043 A 
BRANCH   9  14
HETATM   14  N1  UNL     1       3.387   1.046   3.495  1.00  0.00    -0.385 N 
ATOM     15  H12 UNL     1       2.838   1.361   4.295  1.00  0.00     0.157 HD
ATOM     16  H11 UNL     1       4.404   1.121   3.531  1.00  0.00     0.157 HD
ENDBRANCH   9  14
BRANCH  11  17
HETATM   17  C20 UNL     1       3.848  -0.832  -0.854  1.00  0.00    -0.009 A 
HETATM   18  C21 UNL     1       5.221  -0.764  -0.828  1.00  0.00     0.013 A 
HETATM   19  C22 UNL     1       6.006  -1.204  -1.899  1.00  0.00     0.001 A 
HETATM   20  C23 UNL     1       5.448  -1.724  -3.027  1.00  0.00     0.000 A 
HETATM   21  C24 UNL     1       4.077  -1.799  -3.073  1.00  0.00     0.001 A 
HETATM   22  C25 UNL     1       3.290  -1.358  -2.000  1.00  0.00     0.013 A 
ENDBRANCH  11  17
ENDBRANCH   1   7
BRANCH   6  23
HETATM   23  C12 UNL     1      -1.307   2.190   0.865  1.00  0.00    -0.008 A 
HETATM   24  C13 UNL     1      -1.378   2.833  -0.350  1.00  0.00     0.014 A 
HETATM   25  C14 UNL     1      -1.099   4.176  -0.481  1.00  0.00     0.001 A 
HETATM   26  C15 UNL     1      -0.740   4.891   0.633  1.00  0.00     0.000 A 
HETATM   27  C16 UNL     1      -0.661   4.272   1.863  1.00  0.00     0.001 A 
HETATM   28  C17 UNL     1      -0.950   2.906   1.971  1.00  0.00     0.014 A 
ENDBRANCH   6  23
BRANCH   3  29
HETATM   29  C6  UNL     1      -4.439  -1.679   1.138  1.00  0.00     0.121 C 
BRANCH  29  30
HETATM   30  C7  UNL     1      -4.790  -2.075  -0.251  1.00  0.00     0.015 A 
HETATM   31  C8  UNL     1      -4.443  -3.251  -0.854  1.00  0.00     0.026 A 
HETATM   32  C9  UNL     1      -4.942  -3.244  -2.122  1.00  0.00     0.019 A 
HETATM   33  C10 UNL     1      -5.590  -2.038  -2.254  1.00  0.00     0.088 A 
HETATM   34  N2  UNL     1      -5.491  -1.341  -1.114  1.00  0.00    -0.369 N 
ATOM     35  H2  UNL     1      -5.882  -0.415  -0.939  1.00  0.00     0.165 HD
ENDBRANCH  29  30
ENDBRANCH   3  29
TORSDOF 6
