REMARK  5 active torsions:
REMARK  status: ('A' for Active; 'I' for Inactive)
REMARK       I    between atoms: C1_2  and  N1_3 
REMARK    1  A    between atoms: C1_2  and  C8_11 
REMARK    2  A    between atoms: N1_3  and  C2_5 
REMARK    3  A    between atoms: C12_15  and  S1_16 
REMARK    4  A    between atoms: S1_16  and  C13_17 
REMARK    5  A    between atoms: C16_20  and  C17_21 
ROOT
HETATM    1  C13 UNL     1       2.101   1.973  -0.290  1.00  0.00     0.005 A 
HETATM    2  C14 UNL     1       1.921   0.960   0.619  1.00  0.00     0.020 A 
HETATM    3  C15 UNL     1       2.961   0.130   0.980  1.00  0.00     0.015 A 
HETATM    4  C16 UNL     1       4.238   0.287   0.436  1.00  0.00    -0.007 A 
HETATM    5  C22 UNL     1       4.406   1.308  -0.476  1.00  0.00     0.015 A 
HETATM    6  C23 UNL     1       3.350   2.149  -0.841  1.00  0.00     0.020 A 
ENDROOT
BRANCH   1   7
HETATM    7  S1  UNL     1       0.745   3.056  -0.761  1.00  0.00    -0.091 SA
BRANCH   7   8
HETATM    8  C12 UNL     1      -0.751   2.588   0.115  1.00  0.00     0.006 A 
HETATM    9  C11 UNL     1      -1.056   3.140   1.337  1.00  0.00     0.019 A 
HETATM   10  C10 UNL     1      -2.202   2.770   1.992  1.00  0.00     0.002 A 
HETATM   11  C9  UNL     1      -3.071   1.828   1.423  1.00  0.00     0.017 A 
HETATM   12  C8  UNL     1      -2.785   1.268   0.210  1.00  0.00     0.033 A 
HETATM   13  C24 UNL     1      -1.621   1.662  -0.425  1.00  0.00     0.035 A 
BRANCH  12  14
HETATM   14  C1  UNL     1      -3.681   0.274  -0.432  1.00  0.00     0.256 C 
HETATM   15  O1  UNL     1      -3.154  -0.476  -1.283  1.00  0.00    -0.267 OA
HETATM   16  N1  UNL     1      -5.029   0.268  -0.031  1.00  0.00    -0.323 N 
ATOM     17  H1  UNL     1      -5.313   0.950   0.672  1.00  0.00     0.169 HD
BRANCH  16  18
HETATM   18  C2  UNL     1      -6.023  -0.609  -0.525  1.00  0.00     0.035 A 
HETATM   19  C3  UNL     1      -7.385  -0.331  -0.288  1.00  0.00     0.029 A 
HETATM   20  C4  UNL     1      -8.397  -1.142  -0.721  1.00  0.00     0.002 A 
HETATM   21  C5  UNL     1      -8.099  -2.282  -1.417  1.00  0.00     0.000 A 
HETATM   22  C6  UNL     1      -6.797  -2.606  -1.677  1.00  0.00     0.002 A 
HETATM   23  C7  UNL     1      -5.784  -1.761  -1.225  1.00  0.00     0.029 A 
ENDBRANCH  16  18
ENDBRANCH  12  14
ENDBRANCH   7   8
ENDBRANCH   1   7
BRANCH   4  24
HETATM   24  C17 UNL     1       5.344  -0.595   0.820  1.00  0.00     0.071 A 
HETATM   25  N2  UNL     1       5.652  -0.971   2.074  1.00  0.00    -0.362 N 
HETATM   26  C18 UNL     1       6.703  -1.775   2.133  1.00  0.00     0.103 A 
ATOM     27  H2  UNL     1       5.129  -0.668   2.896  1.00  0.00     0.165 HD
HETATM   28  C19 UNL     1       7.155  -1.973   0.852  1.00  0.00     0.026 A 
HETATM   29  C20 UNL     1       8.070  -2.573   0.016  1.00  0.00     0.122 A 
HETATM   30  C21 UNL     1       6.263  -1.200  -0.001  1.00  0.00     0.088 A 
HETATM   31  N3  UNL     1       7.760  -2.196  -1.235  1.00  0.00    -0.310 N 
HETATM   32  N4  UNL     1       6.695  -1.387  -1.244  1.00  0.00    -0.298 N 
ATOM     33  H3  UNL     1       8.270  -2.488  -2.069  1.00  0.00     0.186 HD
ATOM     34  H4  UNL     1       6.277  -0.976  -2.079  1.00  0.00     0.187 HD
ENDBRANCH   4  24
TORSDOF 5
