REMARK  0 active torsions:
REMARK  status: ('A' for Active; 'I' for Inactive)
ROOT
HETATM    1  C1  UNL     1       2.053  -0.337   1.446  1.00  0.00     0.165 C 
HETATM    2  N1  UNL     1       1.554   0.566   0.455  1.00  0.00    -0.228 N 
ATOM      3  H1  UNL     1       2.137   1.354   0.174  1.00  0.00     0.177 HD
HETATM    4  C2  UNL     1       0.390   0.424  -0.101  1.00  0.00     0.706 A 
HETATM    5  N2  UNL     1      -0.050   1.355  -1.081  1.00  0.00    -0.130 N 
ATOM      6  H2  UNL     1       0.555   2.133  -1.342  1.00  0.00     0.205 HD
HETATM    7  N3  UNL     1      -1.304   1.219  -1.694  1.00  0.00    -0.281 N 
ATOM      8  H3  UNL     1      -1.579   1.910  -2.392  1.00  0.00     0.188 HD
HETATM    9  C3  UNL     1      -2.127   0.264  -1.419  1.00  0.00     0.214 A 
HETATM   10  N4  UNL     1      -1.713  -0.683  -0.442  1.00  0.00    -0.281 N 
ATOM     11  H4  UNL     1      -2.353  -1.444  -0.215  1.00  0.00     0.188 HD
HETATM   12  N5  UNL     1      -0.498  -0.640   0.221  1.00  0.00    -0.130 N 
ATOM     13  H5  UNL     1      -0.249  -1.345   0.915  1.00  0.00     0.205 HD
ENDROOT
TORSDOF 0
