REMARK  2 active torsions:
REMARK  status: ('A' for Active; 'I' for Inactive)
REMARK    1  A    between atoms: N1_1  and  C1_5 
REMARK    2  A    between atoms: N3_7  and  C2_8 
ROOT
HETATM    1  C1  UNL     1       1.373   0.639  -0.172  1.00  0.00     0.383 A 
HETATM    2  N2  UNL     1       0.529   0.750   1.014  1.00  0.00    -0.111 NA
HETATM    3  N3  UNL     1       0.410  -0.313   0.041  1.00  0.00    -0.172 NA
ENDROOT
BRANCH   3   4
HETATM    4  C2  UNL     1      -0.890  -0.369  -0.586  1.00  0.00     0.156 A 
HETATM    5  C3  UNL     1      -1.820   0.732  -0.310  1.00  0.00     0.086 A 
HETATM    6  N4  UNL     1      -2.584   0.006   0.374  1.00  0.00    -0.379 N 
HETATM    7  C4  UNL     1      -1.846  -1.153   0.233  1.00  0.00     0.086 A 
ATOM      8  H4  UNL     1      -3.455   0.205   0.867  1.00  0.00     0.164 HD
ENDBRANCH   3   4
BRANCH   1   9
HETATM    9  N1  UNL     1       2.757   0.294   0.160  1.00  0.00    -0.046 N 
ATOM     10  H13 UNL     1       3.150   0.954   0.831  1.00  0.00     0.277 HD
ATOM     11  H12 UNL     1       2.800  -0.555   0.723  1.00  0.00     0.277 HD
ATOM     12  H11 UNL     1       3.347   0.216  -0.669  1.00  0.00     0.277 HD
ENDBRANCH   1   9
TORSDOF 2
