REMARK  1 active torsions:
REMARK  status: ('A' for Active; 'I' for Inactive)
REMARK    1  A    between atoms: C2_2  and  N1_3 
ROOT
HETATM    1  N1  UNL     1      -0.303  -0.301   0.961  1.00  0.00    -0.360 N 
ATOM      2  H1  UNL     1      -0.376  -0.108   1.960  1.00  0.00     0.162 HD
HETATM    3  C3  UNL     1       0.850  -0.169   0.400  1.00  0.00     0.214 C 
HETATM    4  N2  UNL     1       2.081   0.221   0.994  1.00  0.00    -0.246 N 
ATOM      5  H2  UNL     1       2.270   0.361   1.986  1.00  0.00     0.188 HD
HETATM    6  N3  UNL     1       2.976   0.372  -0.066  1.00  0.00     0.050 NA
HETATM    7  O1  UNL     1       2.465  -0.194  -1.142  1.00  0.00    -0.140 OA
HETATM    8  N4  UNL     1       1.151  -0.390  -0.967  1.00  0.00    -0.212 N 
ATOM      9  H4  UNL     1       0.483  -0.653  -1.692  1.00  0.00     0.199 HD
ENDROOT
BRANCH   1  10
HETATM   10  C2  UNL     1      -1.487  -0.702   0.264  1.00  0.00     0.118 C 
HETATM   11  C1  UNL     1      -2.375   0.464  -0.123  1.00  0.00     0.026 C 
ENDBRANCH   1  10
TORSDOF 1
