REMARK  1 active torsions:
REMARK  status: ('A' for Active; 'I' for Inactive)
REMARK    1  A    between atoms: N1_1  and  C1_4 
ROOT
HETATM    1  C1  UNL     1      -0.744  -0.071  -0.044  1.00  0.00     0.694 A 
HETATM    2  N2  UNL     1       0.208   0.757   0.357  1.00  0.00    -0.120 N 
ATOM      3  H2  UNL     1       0.154   1.674   0.801  1.00  0.00     0.196 HD
HETATM    4  S1  UNL     1       1.508  -0.155  -0.085  1.00  0.00     0.250 S 
HETATM    5  O1  UNL     1       3.235  -0.252  -0.048  1.00  0.00    -0.211 OA
HETATM    6  N3  UNL     1       0.138  -0.962  -0.476  1.00  0.00    -0.120 N 
ATOM      7  H3  UNL     1       0.004  -1.872  -0.917  1.00  0.00     0.196 HD
ENDROOT
BRANCH   1   8
HETATM    8  N1  UNL     1      -2.054   0.027   0.005  1.00  0.00    -0.233 N 
ATOM      9  H12 UNL     1      -2.732   0.712   0.337  1.00  0.00     0.174 HD
ATOM     10  H11 UNL     1      -2.787  -0.611  -0.304  1.00  0.00     0.174 HD
ENDBRANCH   1   8
TORSDOF 1
