REMARK  1 active torsions:
REMARK  status: ('A' for Active; 'I' for Inactive)
REMARK    1  A    between atoms: C3_5  and  N2_6 
ROOT
HETATM    1  C1  UNL     1      -1.540  -1.392   0.290  1.00  0.00     0.091 C 
HETATM    2  C2  UNL     1      -0.216  -0.713   0.151  1.00  0.00     0.110 A 
HETATM    3  N1  UNL     1       1.015  -1.251   0.270  1.00  0.00    -0.179 N 
ATOM      4  H1  UNL     1       1.214  -2.229   0.478  1.00  0.00     0.185 HD
HETATM    5  C3  UNL     1       1.940  -0.292   0.070  1.00  0.00     0.692 A 
HETATM    6  N3  UNL     1       1.250   0.836  -0.171  1.00  0.00    -0.129 N 
ATOM      7  H3  UNL     1       1.667   1.747  -0.362  1.00  0.00     0.206 HD
HETATM    8  N4  UNL     1      -0.048   0.592  -0.125  1.00  0.00    -0.270 N 
HETATM    9  C4  UNL     1      -1.131   1.543  -0.330  1.00  0.00     0.179 C 
ENDROOT
BRANCH   5  10
HETATM   10  N2  UNL     1       3.244  -0.418   0.102  1.00  0.00    -0.233 N 
ATOM     11  H22 UNL     1       3.768  -1.274   0.285  1.00  0.00     0.174 HD
ATOM     12  H21 UNL     1       3.944   0.308  -0.049  1.00  0.00     0.174 HD
ENDBRANCH   5  10
TORSDOF 1
