REMARK  3 active torsions:
REMARK  status: ('A' for Active; 'I' for Inactive)
REMARK    1  A    between atoms: O1_1  and  C1_3 
REMARK    2  A    between atoms: C1_3  and  N1_4 
REMARK    3  A    between atoms: N2_8  and  O2_9 
ROOT
HETATM    1  N1  UNL     1       0.157  -0.180   0.514  1.00  0.00     0.048 N 
HETATM    2  C2  UNL     1      -0.340  -1.498   0.764  1.00  0.00     0.301 A 
HETATM    3  C3  UNL     1      -0.847  -0.774  -0.396  1.00  0.00     0.259 A 
HETATM    4  C4  UNL     1      -1.842   0.336  -0.034  1.00  0.00     0.191 C 
HETATM    5  N2  UNL     1      -0.637   0.934   0.531  1.00  0.00    -0.014 NA
ENDROOT
BRANCH   1   6
HETATM    6  C1  UNL     1       1.519  -0.092   0.024  1.00  0.00     0.426 C 
BRANCH   6   7
HETATM    7  O1  UNL     1       1.638   0.609  -1.149  1.00  0.00    -0.373 OA
ATOM      8  H1  UNL     1       2.530   0.667  -1.470  1.00  0.00     0.211 HD
ENDBRANCH   6   7
ENDBRANCH   1   6
BRANCH   5   9
HETATM    9  O2  UNL     1      -0.205   1.891  -0.355  1.00  0.00    -0.288 OA
ATOM     10  H2  UNL     1      -0.756   2.665  -0.343  1.00  0.00     0.239 HD
ENDBRANCH   5   9
TORSDOF 3
