REMARK  2 active torsions:
REMARK  status: ('A' for Active; 'I' for Inactive)
REMARK    1  A    between atoms: C11_12  and  C12_13 
REMARK    2  A    between atoms: C13_14  and  C14_15 
ROOT
HETATM    1  C1  UNL     1      -2.818   1.286   1.967  1.00  0.00     0.156 C 
HETATM    2  N1  UNL     1      -2.736   0.396   0.835  1.00  0.00    -0.350 N 
HETATM    3  C2  UNL     1      -3.797  -0.185   0.248  1.00  0.00     0.045 A 
HETATM    4  C3  UNL     1      -5.162  -0.144   0.488  1.00  0.00     0.030 A 
HETATM    5  C4  UNL     1      -6.017  -0.872  -0.312  1.00  0.00     0.002 A 
HETATM    6  C5  UNL     1      -5.579  -1.656  -1.359  1.00  0.00     0.001 A 
HETATM    7  C6  UNL     1      -4.220  -1.697  -1.596  1.00  0.00     0.014 A 
HETATM    8  C7  UNL     1      -3.362  -0.969  -0.798  1.00  0.00     0.003 A 
HETATM    9  C8  UNL     1      -1.981  -0.820  -0.799  1.00  0.00     0.003 A 
HETATM   10  C9  UNL     1      -0.993  -1.353  -1.605  1.00  0.00     0.016 A 
HETATM   11  C10 UNL     1       0.330  -1.032  -1.381  1.00  0.00     0.022 A 
HETATM   12  C11 UNL     1       0.706  -0.182  -0.362  1.00  0.00     0.020 A 
HETATM   13  C19 UNL     1      -0.269   0.358   0.450  1.00  0.00     0.051 A 
HETATM   14  C20 UNL     1      -1.588   0.028   0.215  1.00  0.00     0.047 A 
ENDROOT
BRANCH  12  15
HETATM   15  C12 UNL     1       2.092   0.133  -0.155  1.00  0.00    -0.060 C 
HETATM   16  C13 UNL     1       3.261   0.386   0.002  1.00  0.00    -0.043 C 
BRANCH  16  17
HETATM   17  C14 UNL     1       4.675   0.676   0.173  1.00  0.00     0.086 A 
HETATM   18  C15 UNL     1       5.422   0.048   1.143  1.00  0.00     0.039 A 
HETATM   19  C16 UNL     1       6.758   0.340   1.284  1.00  0.00     0.004 A 
HETATM   20  C17 UNL     1       7.321   1.259   0.446  1.00  0.00     0.017 A 
HETATM   21  C18 UNL     1       6.544   1.869  -0.515  1.00  0.00     0.089 A 
HETATM   22  N2  UNL     1       5.242   1.569  -0.634  1.00  0.00    -0.359 N 
ATOM     23  H2  UNL     1       4.681   2.030  -1.350  1.00  0.00     0.166 HD
ENDBRANCH  16  17
ENDBRANCH  12  15
TORSDOF 2
