REMARK  0 active torsions:
REMARK  status: ('A' for Active; 'I' for Inactive)
ROOT
HETATM    1  C1  UNL     1       5.011   1.216  -0.172  1.00  0.00     0.156 C 
HETATM    2  N1  UNL     1       3.583   1.272  -0.088  1.00  0.00    -0.358 N 
HETATM    3  C2  UNL     1       2.954   2.458   0.033  1.00  0.00     0.107 A 
HETATM    4  C3  UNL     1       1.595   2.562   0.117  1.00  0.00     0.105 A 
HETATM    5  N2  UNL     1       0.815   1.487   0.082  1.00  0.00    -0.362 N 
ATOM      6  H2  UNL     1      -0.200   1.570   0.144  1.00  0.00     0.165 HD
HETATM    7  C4  UNL     1       1.416   0.271  -0.040  1.00  0.00     0.072 A 
HETATM    8  C5  UNL     1       0.603  -0.866  -0.078  1.00  0.00     0.031 A 
HETATM    9  C6  UNL     1       1.232  -2.084  -0.202  1.00  0.00    -0.021 A 
HETATM   10  C7  UNL     1       0.428  -3.216  -0.240  1.00  0.00     0.013 A 
HETATM   11  C8  UNL     1      -0.947  -3.121  -0.156  1.00  0.00     0.014 A 
HETATM   12  C9  UNL     1      -1.543  -1.876  -0.032  1.00  0.00    -0.008 A 
HETATM   13  C10 UNL     1      -2.911  -1.709   0.057  1.00  0.00     0.027 A 
HETATM   14  C11 UNL     1      -3.451  -0.438   0.180  1.00  0.00    -0.009 A 
HETATM   15  C12 UNL     1      -4.824  -0.243   0.271  1.00  0.00     0.014 A 
HETATM   16  C13 UNL     1      -5.349   1.027   0.393  1.00  0.00     0.001 A 
HETATM   17  C14 UNL     1      -4.532   2.122   0.428  1.00  0.00     0.002 A 
HETATM   18  C15 UNL     1      -3.173   1.968   0.340  1.00  0.00     0.030 A 
HETATM   19  C16 UNL     1      -2.651   0.679   0.217  1.00  0.00     0.043 A 
HETATM   20  N3  UNL     1      -1.316   0.498   0.129  1.00  0.00    -0.354 N 
ATOM     21  H3  UNL     1      -0.702   1.312   0.154  1.00  0.00     0.166 HD
HETATM   22  C17 UNL     1      -0.772  -0.728   0.009  1.00  0.00     0.056 A 
HETATM   23  C18 UNL     1       2.603  -2.152  -0.284  1.00  0.00     0.014 A 
HETATM   24  C19 UNL     1       3.410  -1.033  -0.247  1.00  0.00     0.033 A 
HETATM   25  C20 UNL     1       2.789   0.182  -0.124  1.00  0.00     0.061 A 
ENDROOT
TORSDOF 0
