REMARK  5 active torsions:
REMARK  status: ('A' for Active; 'I' for Inactive)
REMARK    1  A    between atoms: C12_14  and  O3_15 
REMARK    2  A    between atoms: C17_22  and  C18_23 
REMARK    3  A    between atoms: N2_29  and  C21_30 
REMARK    4  A    between atoms: C21_30  and  C22_31 
REMARK    5  A    between atoms: C22_31  and  N3_32 
ROOT
HETATM    1  C1  UNL     1       1.950   3.441  -0.752  1.00  0.00     0.037 C 
HETATM    2  C2  UNL     1       0.896   2.451  -0.607  1.00  0.00    -0.017 C 
HETATM    3  C3  UNL     1       0.895   1.121  -0.712  1.00  0.00     0.001 A 
HETATM    4  C4  UNL     1       2.085   0.350  -1.037  1.00  0.00     0.038 A 
HETATM    5  C5  UNL     1       1.742  -0.960  -1.033  1.00  0.00     0.079 A 
HETATM    6  O1  UNL     1       2.780  -1.894  -1.297  1.00  0.00    -0.353 OA
HETATM    7  C6  UNL     1       3.815  -2.328  -0.495  1.00  0.00     0.178 C 
HETATM    8  C7  UNL     1       3.792  -1.946   0.936  1.00  0.00     0.065 C 
HETATM    9  C8  UNL     1       4.777  -0.816   1.254  1.00  0.00     0.063 A 
HETATM   10  C9  UNL     1       5.604  -0.914   2.482  1.00  0.00     0.041 A 
HETATM   11  C10 UNL     1       6.217  -1.000   1.088  1.00  0.00     0.041 A 
HETATM   12  O2  UNL     1       4.149   0.348   0.901  1.00  0.00    -0.374 OA
HETATM   13  C11 UNL     1       4.499   0.754  -0.370  1.00  0.00     0.234 C 
HETATM   14  C12 UNL     1       3.495   0.642  -1.424  1.00  0.00     0.080 C 
HETATM   15  C13 UNL     1       0.333  -1.078  -0.778  1.00  0.00     0.159 A 
HETATM   16  S1  UNL     1      -0.298  -2.344   0.311  1.00  0.00    -0.119 SA
HETATM   17  C14 UNL     1      -2.038  -2.059  -0.129  1.00  0.00     0.204 C 
HETATM   18  C15 UNL     1      -2.998  -2.943   0.478  1.00  0.00    -0.030 C 
HETATM   19  C16 UNL     1      -2.781  -4.396   0.711  1.00  0.00     0.048 C 
HETATM   20  C17 UNL     1      -4.063  -2.207   0.775  1.00  0.00     0.084 C 
HETATM   21  C20 UNL     1      -3.702  -0.780   0.512  1.00  0.00     0.277 C 
HETATM   22  O5  UNL     1      -4.568   0.098   0.711  1.00  0.00    -0.265 OA
HETATM   23  N1  UNL     1      -2.371  -0.692   0.062  1.00  0.00    -0.235 N 
HETATM   24  N2  UNL     1      -1.474   0.399  -0.094  1.00  0.00    -0.286 N 
HETATM   25  C25 UNL     1      -0.236   0.224  -0.475  1.00  0.00     0.060 A 
ENDROOT
BRANCH  24  26
HETATM   26  C21 UNL     1      -2.034   1.694   0.184  1.00  0.00     0.168 C 
BRANCH  26  27
HETATM   27  C22 UNL     1      -2.828   2.307  -0.947  1.00  0.00     0.137 C 
BRANCH  27  28
HETATM   28  N3  UNL     1      -3.341   3.583  -0.563  1.00  0.00    -0.419 N 
HETATM   29  C23 UNL     1      -4.326   3.687   0.401  1.00  0.00     0.142 C 
HETATM   30  C24 UNL     1      -2.732   4.705  -1.136  1.00  0.00     0.142 C 
ENDBRANCH  27  28
ENDBRANCH  26  27
ENDBRANCH  24  26
BRANCH  20  31
HETATM   31  C18 UNL     1      -5.301  -2.682   1.393  1.00  0.00     0.161 C 
HETATM   32  C19 UNL     1      -5.568  -4.062   1.790  1.00  0.00     0.097 C 
HETATM   33  O4  UNL     1      -6.206  -1.807   1.595  1.00  0.00    -0.293 OA
ENDBRANCH  20  31
BRANCH  14  34
HETATM   34  O3  UNL     1       3.592   1.628  -2.367  1.00  0.00    -0.362 OA
ATOM     35  H3  UNL     1       4.490   1.814  -2.614  1.00  0.00     0.217 HD
ENDBRANCH  14  34
TORSDOF 5
