REMARK  8 active torsions:
REMARK  status: ('A' for Active; 'I' for Inactive)
REMARK    1  A    between atoms: C2_2  and  O1_3 
REMARK    2  A    between atoms: O1_3  and  C3_4 
REMARK       I    between atoms: C3_4  and  N1_6 
REMARK    3  A    between atoms: C4_7  and  C5_8 
REMARK    4  A    between atoms: C5_8  and  C6_10 
REMARK    5  A    between atoms: N3_15  and  C7_16 
REMARK    6  A    between atoms: C7_16  and  C8_17 
REMARK    7  A    between atoms: C8_17  and  C9_18 
REMARK    8  A    between atoms: C9_18  and  C10_20 
REMARK       I    between atoms: N4_24  and  C14_26 
ROOT
HETATM    1  C3  UNL     1       3.813  -0.016   0.690  1.00  0.00     0.365 C 
HETATM    2  O2  UNL     1       4.460  -0.715   1.516  1.00  0.00    -0.238 OA
HETATM    3  N1  UNL     1       2.562  -0.388   0.142  1.00  0.00    -0.290 N 
HETATM    4  C4  UNL     1       1.912   0.470  -0.796  1.00  0.00     0.284 C 
HETATM    5  N2  UNL     1       0.478   0.575  -0.511  1.00  0.00    -0.103 NA
HETATM    6  N3  UNL     1      -0.092  -0.620  -0.174  1.00  0.00    -0.279 N 
HETATM    7  C16 UNL     1       0.600  -1.853  -0.070  1.00  0.00     0.176 C 
HETATM    8  C17 UNL     1       1.951  -1.620   0.558  1.00  0.00     0.050 C 
HETATM    9  C18 UNL     1       2.779  -2.853   0.233  1.00  0.00     0.040 C 
HETATM   10  C19 UNL     1       1.782  -1.647   2.083  1.00  0.00     0.040 C 
ENDROOT
BRANCH   6  11
HETATM   11  C7  UNL     1      -1.539  -0.628   0.099  1.00  0.00     0.104 C 
HETATM   12  N4  UNL     1      -2.077  -1.735  -0.105  1.00  0.00    -0.316 N 
HETATM   13  C14 UNL     1      -3.245  -2.392  -0.065  1.00  0.00     0.218 C 
ATOM     14  H4  UNL     1      -1.357  -2.385  -0.421  1.00  0.00     0.170 HD
HETATM   15  C15 UNL     1      -3.463  -3.507   0.922  1.00  0.00     0.117 C 
HETATM   16  O5  UNL     1      -4.223  -2.153  -0.814  1.00  0.00    -0.274 OA
BRANCH  11  17
HETATM   17  C8  UNL     1      -2.112   0.646   0.546  1.00  0.00     0.157 C 
BRANCH  17  18
HETATM   18  C9  UNL     1      -3.514   0.690   0.918  1.00  0.00     0.141 C 
HETATM   19  O4  UNL     1      -3.934  -0.048   1.792  1.00  0.00    -0.297 OA
BRANCH  18  20
HETATM   20  C10 UNL     1      -4.500   1.611   0.281  1.00  0.00     0.010 C 
HETATM   21  C11 UNL     1      -4.089   3.072   0.494  1.00  0.00     0.022 C 
HETATM   22  C12 UNL     1      -4.630   1.433  -1.201  1.00  0.00     0.022 C 
HETATM   23  C13 UNL     1      -5.840   1.416   0.944  1.00  0.00     0.022 C 
ENDBRANCH  18  20
ENDBRANCH  17  18
ENDBRANCH  11  17
ENDBRANCH   6  11
BRANCH   4  24
HETATM   24  C5  UNL     1       2.065   0.106  -2.213  1.00  0.00     0.272 C 
HETATM   25  O3  UNL     1       1.027  -0.113  -2.863  1.00  0.00    -0.284 OA
BRANCH  24  26
HETATM   26  C6  UNL     1       3.317  -0.029  -2.967  1.00  0.00     0.454 C 
HETATM   27  F1  UNL     1       3.904   1.248  -3.025  1.00  0.00    -0.163 F 
HETATM   28  F2  UNL     1       4.248  -0.865  -2.435  1.00  0.00    -0.163 F 
HETATM   29  F3  UNL     1       3.098  -0.378  -4.293  1.00  0.00    -0.163 F 
ENDBRANCH  24  26
ENDBRANCH   4  24
BRANCH   1  30
HETATM   30  O1  UNL     1       4.436   1.194   0.341  1.00  0.00    -0.304 OA
BRANCH  30  31
HETATM   31  C2  UNL     1       5.683   1.560   0.891  1.00  0.00     0.176 C 
HETATM   32  C1  UNL     1       6.058   2.908   0.316  1.00  0.00     0.034 C 
ENDBRANCH  30  31
ENDBRANCH   1  30
TORSDOF 8
