REMARK  3 active torsions:
REMARK  status: ('A' for Active; 'I' for Inactive)
REMARK    1  A    between atoms: O1_2  and  C2_3 
REMARK    2  A    between atoms: C3_4  and  N1_5 
REMARK       I    between atoms: N1_5  and  C4_7 
REMARK    3  A    between atoms: C4_7  and  C5_9 
ROOT
HETATM    1  N1  UNL     1      -0.340  -0.126  -0.051  1.00  0.00    -0.308 N 
ATOM      2  H1  UNL     1      -0.358   0.660  -0.701  1.00  0.00     0.170 HD
HETATM    3  C4  UNL     1      -1.513  -0.525   0.640  1.00  0.00     0.235 C 
HETATM    4  O2  UNL     1      -1.465  -1.517   1.455  1.00  0.00    -0.272 OA
ENDROOT
BRANCH   1   5
HETATM    5  C3  UNL     1       0.876  -0.859   0.188  1.00  0.00     0.174 A 
HETATM    6  C2  UNL     1       2.076  -0.567  -0.419  1.00  0.00     0.203 A 
HETATM    7  N4  UNL     1       2.964  -1.457   0.045  1.00  0.00    -0.256 N 
HETATM    8  N3  UNL     1       2.328  -2.258   0.900  1.00  0.00    -0.017 NA
HETATM    9  C9  UNL     1       4.364  -1.544  -0.310  1.00  0.00     0.177 C 
HETATM   10  N2  UNL     1       1.054  -1.911   1.002  1.00  0.00    -0.265 N 
ATOM     11  H2  UNL     1       0.346  -2.357   1.586  1.00  0.00     0.186 HD
BRANCH   6  12
HETATM   12  O1  UNL     1       2.334   0.453  -1.339  1.00  0.00    -0.337 OA
HETATM   13  C1  UNL     1       2.862   1.713  -0.900  1.00  0.00     0.212 C 
ENDBRANCH   6  12
ENDBRANCH   1   5
BRANCH   3  14
HETATM   14  C5  UNL     1      -2.783   0.174   0.442  1.00  0.00     0.081 A 
HETATM   15  C6  UNL     1      -3.820  -0.071   1.531  1.00  0.00     0.029 C 
HETATM   16  C7  UNL     1      -2.723   1.538  -0.183  1.00  0.00     0.109 A 
HETATM   17 BR1  UNL     1      -3.865   2.844   0.679  1.00  0.00    -0.087 Br
HETATM   18  C8  UNL     1      -3.333   0.409  -0.924  1.00  0.00     0.107 A 
HETATM   19 BR2  UNL     1      -5.260   0.481  -1.074  1.00  0.00    -0.070 Br
HETATM   20 BR3  UNL     1      -2.341  -0.327  -2.404  1.00  0.00    -0.070 Br
ENDBRANCH   3  14
TORSDOF 3
