REMARK  7 active torsions:
REMARK  status: ('A' for Active; 'I' for Inactive)
REMARK    1  A    between atoms: O1_2  and  C2_3 
REMARK    2  A    between atoms: C2_3  and  C3_5 
REMARK       I    between atoms: N1_7  and  C5_8 
REMARK    3  A    between atoms: C5_8  and  C6_10 
REMARK       I    between atoms: N2_14  and  C10_15 
REMARK    4  A    between atoms: C10_15  and  C11_17 
REMARK    5  A    between atoms: N3_19  and  C13_21 
REMARK    6  A    between atoms: C13_21  and  N4_23 
REMARK    7  A    between atoms: N4_23  and  C15_25 
ROOT
HETATM    1  C6  UNL     1       0.640   0.317  -1.535  1.00  0.00     0.179 C 
HETATM    2  C7  UNL     1       1.237   1.471  -2.325  1.00  0.00     0.037 C 
HETATM    3  C8  UNL     1       1.821   0.798  -3.534  1.00  0.00     0.022 C 
HETATM    4  C9  UNL     1       1.072  -0.476  -3.723  1.00  0.00     0.127 C 
HETATM    5  N2  UNL     1       0.262  -0.662  -2.501  1.00  0.00    -0.334 N 
HETATM    6  C10 UNL     1      -0.702  -1.670  -2.393  1.00  0.00     0.266 C 
HETATM    7  O4  UNL     1      -0.881  -2.431  -3.402  1.00  0.00    -0.266 OA
ENDROOT
BRANCH   1   8
HETATM    8  C5  UNL     1       1.613  -0.253  -0.586  1.00  0.00     0.244 C 
HETATM    9  N1  UNL     1       2.103   0.507   0.543  1.00  0.00    -0.321 N 
HETATM   10  C3  UNL     1       3.030   0.184   1.583  1.00  0.00     0.187 C 
HETATM   11  C19 UNL     1       1.927   1.808   1.102  1.00  0.00     0.209 C 
HETATM   12  C4  UNL     1       2.737  -1.155   2.232  1.00  0.00     0.057 C 
HETATM   13  C20 UNL     1       2.630   1.378   2.352  1.00  0.00     0.293 C 
HETATM   14  F1  UNL     1       1.781   1.137   3.417  1.00  0.00    -0.201 F 
HETATM   15  F2  UNL     1       3.658   2.259   2.661  1.00  0.00    -0.201 F 
HETATM   16  O3  UNL     1       2.004  -1.426  -0.796  1.00  0.00    -0.271 OA
BRANCH  10  17
HETATM   17  C2  UNL     1       4.470   0.316   1.164  1.00  0.00     0.293 C 
HETATM   18  O2  UNL     1       5.407   0.046   1.940  1.00  0.00    -0.262 OA
BRANCH  17  19
HETATM   19  O1  UNL     1       4.797   0.752  -0.121  1.00  0.00    -0.324 OA
HETATM   20  C1  UNL     1       6.124   0.896  -0.569  1.00  0.00     0.213 C 
ENDBRANCH  17  19
ENDBRANCH  10  17
ENDBRANCH   1   8
BRANCH   6  21
HETATM   21  C11 UNL     1      -1.540  -1.954  -1.235  1.00  0.00     0.071 C 
HETATM   22  C12 UNL     1      -2.525  -3.082  -1.363  1.00  0.00     0.074 C 
HETATM   23  N3  UNL     1      -1.449  -1.296  -0.209  1.00  0.00    -0.369 N 
ATOM     24  H3  UNL     1      -0.725  -0.596  -0.370  1.00  0.00     0.161 HD
BRANCH  23  25
HETATM   25  C13 UNL     1      -1.913  -1.103   1.073  1.00  0.00     0.173 C 
HETATM   26  C14 UNL     1      -2.904  -2.120   1.526  1.00  0.00     0.055 C 
BRANCH  25  27
HETATM   27  N4  UNL     1      -2.262   0.249   1.427  1.00  0.00    -0.394 N 
ATOM     28  H4  UNL     1      -1.666   0.789   2.054  1.00  0.00     0.156 HD
BRANCH  27  29
HETATM   29  C15 UNL     1      -3.432   0.814   0.898  1.00  0.00     0.016 C 
HETATM   30  C16 UNL     1      -3.400   2.303   1.333  1.00  0.00     0.037 C 
HETATM   31  C17 UNL     1      -3.539   0.865  -0.603  1.00  0.00     0.037 C 
HETATM   32  C18 UNL     1      -4.740   0.295   1.490  1.00  0.00     0.037 C 
ENDBRANCH  27  29
ENDBRANCH  25  27
ENDBRANCH  23  25
ENDBRANCH   6  21
TORSDOF 7
