REMARK  6 active torsions:
REMARK  status: ('A' for Active; 'I' for Inactive)
REMARK       I    between atoms: C2_2  and  N1_4 
REMARK    1  A    between atoms: N2_7  and  C5_8 
REMARK    2  A    between atoms: C5_8  and  C6_9 
REMARK    3  A    between atoms: C6_9  and  N3_10 
REMARK    4  A    between atoms: C10_14  and  N4_15 
REMARK       I    between atoms: N4_15  and  C11_17 
REMARK    5  A    between atoms: C11_17  and  O3_19 
REMARK    6  A    between atoms: O3_19  and  C12_20 
ROOT
HETATM    1  N3  UNL     1       0.547   0.771   0.317  1.00  0.00    -0.349 N 
HETATM    2  C7  UNL     1       0.776   1.821   1.276  1.00  0.00     0.126 C 
HETATM    3  C8  UNL     1       1.100   1.234   2.610  1.00  0.00     0.022 C 
HETATM    4  C9  UNL     1       2.132   0.173   2.636  1.00  0.00     0.037 C 
HETATM    5  C10 UNL     1       2.594  -0.360   1.325  1.00  0.00     0.179 C 
HETATM    6  C16 UNL     1       1.527  -0.250   0.264  1.00  0.00     0.242 C 
HETATM    7  O4  UNL     1       1.563  -1.109  -0.655  1.00  0.00    -0.271 OA
ENDROOT
BRANCH   1   8
HETATM    8  C6  UNL     1      -0.589   0.716  -0.557  1.00  0.00     0.145 C 
BRANCH   8   9
HETATM    9  C5  UNL     1      -1.760  -0.030   0.032  1.00  0.00     0.142 C 
BRANCH   9  10
HETATM   10  N2  UNL     1      -2.871  -0.052  -0.883  1.00  0.00    -0.347 N 
HETATM   11  C4  UNL     1      -3.498   1.199  -1.114  1.00  0.00     0.142 C 
HETATM   12  C3  UNL     1      -4.765   1.254  -0.245  1.00  0.00     0.146 C 
HETATM   13  N1  UNL     1      -5.683   0.337  -0.886  1.00  0.00    -0.334 N 
HETATM   14  C2  UNL     1      -6.997   0.746  -1.129  1.00  0.00     0.216 C 
HETATM   15  C18 UNL     1      -5.135  -0.958  -1.222  1.00  0.00     0.114 C 
HETATM   16  C1  UNL     1      -7.445   2.090  -0.739  1.00  0.00     0.117 C 
HETATM   17  O1  UNL     1      -7.811  -0.018  -1.680  1.00  0.00    -0.274 OA
HETATM   18  C17 UNL     1      -3.747  -1.157  -0.723  1.00  0.00     0.344 C 
HETATM   19  C19 UNL     1      -5.239  -1.276  -2.686  1.00  0.00     0.047 C 
HETATM   20  C20 UNL     1      -6.016  -1.987  -0.498  1.00  0.00     0.047 C 
HETATM   21  F1  UNL     1      -3.193  -2.233  -1.426  1.00  0.00    -0.180 F 
HETATM   22  F2  UNL     1      -3.778  -1.585   0.610  1.00  0.00    -0.180 F 
ENDBRANCH   9  10
ENDBRANCH   8   9
ENDBRANCH   1   8
BRANCH   5  23
HETATM   23  N4  UNL     1       3.778   0.330   0.842  1.00  0.00    -0.324 N 
HETATM   24  C11 UNL     1       5.000  -0.363   0.623  1.00  0.00     0.362 C 
HETATM   25  O2  UNL     1       5.077  -1.613   0.850  1.00  0.00    -0.238 OA
ATOM     26  H4  UNL     1       3.732   1.332   0.656  1.00  0.00     0.165 HD
BRANCH  24  27
HETATM   27  O3  UNL     1       6.139   0.258   0.166  1.00  0.00    -0.294 OA
BRANCH  27  28
HETATM   28  C12 UNL     1       7.330  -0.479  -0.033  1.00  0.00     0.061 C 
HETATM   29  C13 UNL     1       7.819  -1.127   1.247  1.00  0.00     0.046 C 
HETATM   30  C14 UNL     1       8.386   0.525  -0.505  1.00  0.00     0.046 C 
HETATM   31  C15 UNL     1       7.164  -1.550  -1.072  1.00  0.00     0.046 C 
ENDBRANCH  27  28
ENDBRANCH  24  27
ENDBRANCH   5  23
TORSDOF 6
