REMARK  7 active torsions:
REMARK  status: ('A' for Active; 'I' for Inactive)
REMARK    1  A    between atoms: C1_2  and  O2_3 
REMARK    2  A    between atoms: C1_2  and  C9_16 
REMARK    3  A    between atoms: O2_3  and  C2_4 
REMARK    4  A    between atoms: C2_4  and  C3_5 
REMARK    5  A    between atoms: C3_5  and  N1_6 
REMARK    6  A    between atoms: C3_5  and  C8_12 
REMARK    7  A    between atoms: C15_22  and  O4_23 
ROOT
HETATM    1  O1  UNL     1       0.220  -0.606   1.397  1.00  0.00    -0.264 OA
HETATM    2  C1  UNL     1      -0.309  -0.075   0.363  1.00  0.00     0.268 C 
ENDROOT
BRANCH   2   3
HETATM    3  O2  UNL     1       0.557   0.422  -0.572  1.00  0.00    -0.315 OA
BRANCH   3   4
HETATM    4  C2  UNL     1       1.953   0.418  -0.541  1.00  0.00     0.238 C 
BRANCH   4   5
HETATM    5  C3  UNL     1       2.636  -0.898  -0.583  1.00  0.00     0.096 C 
BRANCH   5   6
HETATM    6  N1  UNL     1       4.066  -0.823  -0.479  1.00  0.00    -0.356 N 
HETATM    7  C4  UNL     1       4.482  -0.305   0.812  1.00  0.00     0.154 C 
HETATM    8  C5  UNL     1       5.212   0.981   0.791  1.00  0.00     0.188 C 
HETATM    9  O3  UNL     1       6.074   1.137  -0.273  1.00  0.00    -0.385 OA
HETATM   10  C6  UNL     1       5.282   1.107  -1.422  1.00  0.00     0.212 C 
HETATM   11  C7  UNL     1       4.802  -0.320  -1.561  1.00  0.00     0.090 C 
ENDBRANCH   5   6
BRANCH   5  12
HETATM   12  C8  UNL     1       2.138  -1.868  -1.617  1.00  0.00     0.340 C 
HETATM   13  F1  UNL     1       2.206  -1.427  -2.912  1.00  0.00    -0.186 F 
HETATM   14  F2  UNL     1       0.896  -2.402  -1.337  1.00  0.00    -0.186 F 
HETATM   15 BR1  UNL     1       3.381  -3.398  -1.509  1.00  0.00    -0.004 Br
ENDBRANCH   5  12
ENDBRANCH   4   5
ENDBRANCH   3   4
ENDBRANCH   2   3
BRANCH   2  16
HETATM   16  C9  UNL     1      -1.785  -0.032   0.245  1.00  0.00     0.051 C 
HETATM   17  C10 UNL     1      -2.365  -0.699   1.474  1.00  0.00     0.024 C 
HETATM   18  C11 UNL     1      -3.857  -0.642   1.512  1.00  0.00    -0.010 C 
HETATM   19  C12 UNL     1      -4.372  -1.354   0.274  1.00  0.00     0.009 C 
HETATM   20  C16 UNL     1      -4.271   0.817   1.521  1.00  0.00     0.042 C 
HETATM   21  C13 UNL     1      -3.819  -0.649  -0.943  1.00  0.00    -0.010 C 
HETATM   22  C14 UNL     1      -4.349   0.756  -0.948  1.00  0.00     0.042 C 
HETATM   23  C18 UNL     1      -2.327  -0.717  -0.971  1.00  0.00     0.024 C 
HETATM   24  C15 UNL     1      -3.763   1.459   0.269  1.00  0.00     0.060 C 
HETATM   25  C17 UNL     1      -2.275   1.418   0.163  1.00  0.00     0.057 C 
BRANCH  24  26
HETATM   26  O4  UNL     1      -4.147   2.816   0.267  1.00  0.00    -0.390 OA
ATOM     27  H4  UNL     1      -3.781   3.255   1.026  1.00  0.00     0.210 HD
ENDBRANCH  24  26
ENDBRANCH   2  16
TORSDOF 7
