REMARK  4 active torsions:
REMARK  status: ('A' for Active; 'I' for Inactive)
REMARK    1  A    between atoms: C6_6  and  N1_7 
REMARK    2  A    between atoms: C9_11  and  C22_29 
REMARK    3  A    between atoms: C10_12  and  C11_13 
REMARK    4  A    between atoms: N3_20  and  C14_21 
ROOT
HETATM    1  C1  UNL     1       7.597   0.671   1.364  1.00  0.00     0.018 C 
HETATM    2  C2  UNL     1       6.480   0.398   1.003  1.00  0.00    -0.078 C 
HETATM    3  C3  UNL     1       5.137   0.044   0.574  1.00  0.00     0.017 A 
HETATM    4  C4  UNL     1       4.919  -0.329  -0.728  1.00  0.00     0.023 A 
HETATM    5  C5  UNL     1       3.653  -0.664  -1.133  1.00  0.00     0.031 A 
HETATM    6  C6  UNL     1       2.577  -0.642  -0.276  1.00  0.00     0.043 A 
HETATM    7  C24 UNL     1       2.847  -0.255   1.043  1.00  0.00     0.031 A 
HETATM    8  C25 UNL     1       4.106   0.086   1.473  1.00  0.00     0.023 A 
ENDROOT
BRANCH   6   9
HETATM    9  N1  UNL     1       1.339  -1.106  -0.733  1.00  0.00    -0.279 N 
HETATM   10  C7  UNL     1       1.222  -2.418  -1.368  1.00  0.00     0.233 A 
HETATM   11  O1  UNL     1       2.207  -3.125  -1.681  1.00  0.00    -0.272 OA
HETATM   12  C8  UNL     1      -0.182  -2.749  -1.565  1.00  0.00     0.145 A 
HETATM   13  C9  UNL     1      -0.857  -1.559  -1.011  1.00  0.00    -0.008 A 
HETATM   14  C10 UNL     1       0.038  -0.662  -0.572  1.00  0.00     0.088 A 
BRANCH  13  15
HETATM   15  C22 UNL     1      -2.313  -1.499  -0.765  1.00  0.00    -0.014 A 
HETATM   16  C21 UNL     1      -2.884  -2.610  -1.355  1.00  0.00     0.013 A 
HETATM   17  C20 UNL     1      -4.190  -2.954  -1.189  1.00  0.00     0.002 A 
HETATM   18  C19 UNL     1      -4.963  -2.144  -0.389  1.00  0.00     0.012 A 
HETATM   19  C18 UNL     1      -4.418  -1.033   0.208  1.00  0.00    -0.023 A 
HETATM   20  C17 UNL     1      -5.299  -0.299   0.994  1.00  0.00     0.012 A 
HETATM   21  C23 UNL     1      -3.075  -0.655   0.044  1.00  0.00     0.014 A 
HETATM   22  C16 UNL     1      -4.871   0.833   1.640  1.00  0.00     0.003 A 
HETATM   23  C15 UNL     1      -3.546   1.211   1.478  1.00  0.00     0.032 A 
HETATM   24  C14 UNL     1      -2.671   0.491   0.700  1.00  0.00     0.069 A 
BRANCH  24  25
HETATM   25  N3  UNL     1      -1.412   1.224   0.550  1.00  0.00    -0.243 N 
HETATM   26  C11 UNL     1      -0.268   0.678  -0.069  1.00  0.00     0.157 A 
HETATM   27  S1  UNL     1       0.711   1.965  -0.244  1.00  0.00     0.119 S 
HETATM   28  O2  UNL     1       2.221   2.246  -0.972  1.00  0.00    -0.244 OA
HETATM   29  C12 UNL     1      -0.356   3.232   0.510  1.00  0.00     0.095 A 
HETATM   30  C13 UNL     1      -0.027   4.687   0.678  1.00  0.00     0.081 C 
HETATM   31  N2  UNL     1      -1.372   2.565   0.822  1.00  0.00    -0.288 N 
ATOM     32  H2  UNL     1      -2.164   3.020   1.276  1.00  0.00     0.188 HD
ENDBRANCH  24  25
ENDBRANCH  13  15
ENDBRANCH   6   9
TORSDOF 4
