REMARK  1 active torsions:
REMARK  status: ('A' for Active; 'I' for Inactive)
REMARK    1  A    between atoms: C9_13  and  C10_14 
ROOT
HETATM    1  O1  UNL     1       5.291   2.950   0.857  1.00  0.00    -0.268 OA
HETATM    2  C1  UNL     1       4.063   3.202   0.918  1.00  0.00     0.248 A 
HETATM    3  C2  UNL     1       3.694   4.496   1.203  1.00  0.00     0.074 A 
HETATM    4  C3  UNL     1       2.355   4.792   1.273  1.00  0.00     0.008 A 
HETATM    5  C4  UNL     1       1.436   3.796   1.060  1.00  0.00     0.032 A 
HETATM    6  C5  UNL     1       1.886   2.518   0.778  1.00  0.00     0.065 A 
HETATM    7  N1  UNL     1       3.183   2.225   0.708  1.00  0.00    -0.308 N 
HETATM    8  C6  UNL     1       3.371   0.803   0.395  1.00  0.00     0.174 A 
HETATM    9  C7  UNL     1       2.056   0.221   0.278  1.00  0.00     0.001 A 
HETATM   10  C8  UNL     1       1.156   1.269   0.511  1.00  0.00     0.069 A 
HETATM   11  N2  UNL     1      -0.155   1.088   0.487  1.00  0.00    -0.353 N 
ATOM     12  H2  UNL     1      -0.756   1.893   0.665  1.00  0.00     0.166 HD
HETATM   13  C9  UNL     1      -0.743  -0.105   0.239  1.00  0.00     0.053 A 
HETATM   14  C19 UNL     1       0.080  -1.152   0.003  1.00  0.00     0.005 A 
HETATM   15  C20 UNL     1       1.486  -1.003   0.024  1.00  0.00    -0.002 A 
HETATM   16  C21 UNL     1       2.321  -2.188  -0.084  1.00  0.00     0.009 A 
HETATM   17  C22 UNL     1       3.676  -2.061  -0.155  1.00  0.00     0.015 A 
HETATM   18  C23 UNL     1       4.437  -3.231  -0.337  1.00  0.00     0.001 A 
HETATM   19  C24 UNL     1       3.845  -4.450  -0.438  1.00  0.00     0.003 A 
HETATM   20  C25 UNL     1       2.479  -4.547  -0.362  1.00  0.00     0.037 A 
HETATM   21  C26 UNL     1       1.694  -3.432  -0.184  1.00  0.00     0.080 A 
HETATM   22  O2  UNL     1       0.318  -3.565  -0.103  1.00  0.00    -0.346 OA
HETATM   23  C27 UNL     1      -0.458  -2.451  -0.449  1.00  0.00     0.217 C 
ENDROOT
BRANCH  13  24
HETATM   24  C10 UNL     1      -2.188  -0.193   0.219  1.00  0.00     0.007 A 
HETATM   25  C11 UNL     1      -2.889  -1.044   1.017  1.00  0.00     0.102 A 
HETATM   26  N3  UNL     1      -4.241  -1.068   0.921  1.00  0.00    -0.364 N 
HETATM   27  C12 UNL     1      -4.892  -0.273   0.060  1.00  0.00     0.042 A 
ATOM     28  H3  UNL     1      -4.773  -1.703   1.515  1.00  0.00     0.165 HD
HETATM   29  C13 UNL     1      -6.267  -0.339   0.005  1.00  0.00     0.030 A 
HETATM   30  C17 UNL     1      -4.224   0.600  -0.763  1.00  0.00    -0.009 A 
HETATM   31  C14 UNL     1      -6.954   0.475  -0.878  1.00  0.00     0.002 A 
HETATM   32  C15 UNL     1      -6.270   1.343  -1.694  1.00  0.00     0.001 A 
HETATM   33  C16 UNL     1      -4.898   1.419  -1.650  1.00  0.00     0.014 A 
HETATM   34  C18 UNL     1      -2.853   0.643  -0.685  1.00  0.00     0.029 A 
ENDBRANCH  13  24
TORSDOF 1
