REMARK  1 active torsions:
REMARK  status: ('A' for Active; 'I' for Inactive)
REMARK    1  A    between atoms: N2_8  and  C6_9 
ROOT
HETATM    1  C1  UNL     1      -0.593   5.019  -0.516  1.00  0.00     0.050 C 
HETATM    2  C2  UNL     1       0.084   3.715  -0.588  1.00  0.00    -0.033 A 
HETATM    3  C3  UNL     1       1.409   3.616  -1.001  1.00  0.00     0.024 A 
HETATM    4  C4  UNL     1       2.040   2.412  -1.020  1.00  0.00     0.011 A 
HETATM    5  C5  UNL     1       3.355   2.078  -1.260  1.00  0.00     0.121 A 
HETATM    6  N1  UNL     1       3.473   0.826  -1.021  1.00  0.00    -0.304 N 
ATOM      7  H1  UNL     1       4.347   0.309  -1.115  1.00  0.00     0.186 HD
HETATM    8  N2  UNL     1       2.266   0.249  -0.617  1.00  0.00    -0.255 N 
HETATM    9  C12 UNL     1       1.396   1.213  -0.633  1.00  0.00     0.083 A 
HETATM   10  C13 UNL     1       0.063   1.266  -0.226  1.00  0.00     0.050 A 
HETATM   11  C14 UNL     1      -0.533   2.550  -0.221  1.00  0.00     0.065 A 
HETATM   12  N3  UNL     1      -1.909   2.709   0.119  1.00  0.00    -0.275 N 
HETATM   13  C15 UNL     1      -2.721   3.623  -0.580  1.00  0.00     0.170 C 
HETATM   14  S1  UNL     1      -2.509   1.637   1.388  1.00  0.00     0.267 S 
HETATM   15  O1  UNL     1      -1.965   1.994   2.711  1.00  0.00    -0.200 OA
HETATM   16  O2  UNL     1      -3.986   1.657   1.292  1.00  0.00    -0.200 OA
HETATM   17  C16 UNL     1      -1.904   0.090   0.775  1.00  0.00     0.108 A 
HETATM   18  C17 UNL     1      -2.699  -0.960   0.895  1.00  0.00     0.041 A 
HETATM   19  C18 UNL     1      -2.279  -2.194   0.463  1.00  0.00    -0.008 A 
HETATM   20  C19 UNL     1      -3.053  -3.315   0.545  1.00  0.00     0.014 A 
HETATM   21  C20 UNL     1      -2.623  -4.547   0.095  1.00  0.00     0.001 A 
HETATM   22  C21 UNL     1      -1.363  -4.654  -0.461  1.00  0.00     0.002 A 
HETATM   23  C22 UNL     1      -0.592  -3.509  -0.537  1.00  0.00     0.030 A 
HETATM   24  C23 UNL     1      -1.016  -2.262  -0.084  1.00  0.00     0.043 A 
HETATM   25  N4  UNL     1      -0.272  -1.144  -0.167  1.00  0.00    -0.353 N 
ATOM     26  H4  UNL     1       0.656  -1.247  -0.578  1.00  0.00     0.166 HD
HETATM   27  C24 UNL     1      -0.613   0.086   0.229  1.00  0.00     0.071 A 
ENDROOT
BRANCH   8  28
HETATM   28  C6  UNL     1       2.501  -1.061  -0.205  1.00  0.00     0.057 A 
HETATM   29  C7  UNL     1       2.587  -1.526   1.110  1.00  0.00     0.031 A 
HETATM   30  C8  UNL     1       3.013  -2.763   1.480  1.00  0.00     0.002 A 
HETATM   31  C9  UNL     1       3.389  -3.623   0.460  1.00  0.00     0.000 A 
HETATM   32  C10 UNL     1       3.336  -3.253  -0.855  1.00  0.00     0.002 A 
HETATM   33  C11 UNL     1       2.901  -1.999  -1.186  1.00  0.00     0.031 A 
ENDBRANCH   8  28
TORSDOF 1
