REMARK  3 active torsions:
REMARK  status: ('A' for Active; 'I' for Inactive)
REMARK    1  A    between atoms: C3_4  and  C4_5 
REMARK    2  A    between atoms: C10_11  and  C11_12 
REMARK    3  A    between atoms: N2_17  and  O1_18 
ROOT
HETATM    1  N1  UNL     1      -0.556   1.137   3.714  1.00  0.00    -0.191 NA
HETATM    2  C1  UNL     1      -0.317   0.772   2.635  1.00  0.00     0.102 C 
HETATM    3  C2  UNL     1      -0.017   0.324   1.327  1.00  0.00     0.077 A 
HETATM    4  C3  UNL     1      -1.043   0.050   0.421  1.00  0.00     0.027 A 
HETATM    5  C10 UNL     1      -0.632  -0.377  -0.820  1.00  0.00     0.093 A 
HETATM    6  N2  UNL     1       0.648  -0.534  -1.179  1.00  0.00    -0.217 N 
HETATM    7  C15 UNL     1       1.676  -0.275  -0.316  1.00  0.00     0.132 A 
HETATM    8  C16 UNL     1       2.966  -0.452  -0.732  1.00  0.00     0.213 A 
HETATM    9  O2  UNL     1       3.124  -0.860  -1.934  1.00  0.00    -0.285 OA
HETATM   10  C17 UNL     1       4.097  -0.242  -0.002  1.00  0.00     0.034 A 
HETATM   11  C18 UNL     1       5.345  -0.476  -0.591  1.00  0.00     0.017 A 
HETATM   12  C19 UNL     1       6.526  -0.284   0.091  1.00  0.00     0.001 A 
HETATM   13  C20 UNL     1       6.526   0.151   1.389  1.00  0.00     0.001 A 
HETATM   14  C21 UNL     1       5.311   0.391   1.998  1.00  0.00     0.020 A 
HETATM   15  C22 UNL     1       4.134   0.195   1.306  1.00  0.00     0.020 A 
HETATM   16  S2  UNL     1       2.607   0.475   2.007  1.00  0.00    -0.085 SA
HETATM   17  C23 UNL     1       1.295   0.156   0.938  1.00  0.00     0.060 A 
ENDROOT
BRANCH   4  18
HETATM   18  C4  UNL     1      -2.440   0.207   0.776  1.00  0.00    -0.022 A 
HETATM   19  C5  UNL     1      -2.985   1.425   1.121  1.00  0.00     0.012 A 
HETATM   20  C6  UNL     1      -4.323   1.485   1.447  1.00  0.00     0.001 A 
HETATM   21  C7  UNL     1      -5.135   0.345   1.435  1.00  0.00     0.000 A 
HETATM   22  C8  UNL     1      -4.585  -0.870   1.089  1.00  0.00     0.001 A 
HETATM   23  C9  UNL     1      -3.260  -0.929   0.767  1.00  0.00     0.012 A 
ENDBRANCH   4  18
BRANCH   5  24
HETATM   24  C11 UNL     1      -1.693  -0.678  -1.811  1.00  0.00     0.035 A 
HETATM   25  C12 UNL     1      -2.619   0.191  -2.327  1.00  0.00     0.022 A 
HETATM   26  C13 UNL     1      -3.491  -0.294  -3.217  1.00  0.00     0.008 A 
HETATM   27  C14 UNL     1      -3.388  -1.620  -3.541  1.00  0.00     0.050 A 
HETATM   28  S1  UNL     1      -2.076  -2.146  -2.591  1.00  0.00    -0.100 SA
ENDBRANCH   5  24
BRANCH   6  29
HETATM   29  O1  UNL     1       0.911  -0.974  -2.469  1.00  0.00    -0.282 OA
ATOM     30  H1  UNL     1       1.819  -1.085  -2.724  1.00  0.00     0.245 HD
ENDBRANCH   6  29
TORSDOF 3
