REMARK  1 active torsions:
REMARK  status: ('A' for Active; 'I' for Inactive)
REMARK    1  A    between atoms: O1_2  and  C2_3 
ROOT
HETATM    1  C2  UNL     1       5.111  -0.786   0.969  1.00  0.00     0.068 A 
HETATM    2  C3  UNL     1       5.363   0.536   0.667  1.00  0.00     0.039 A 
HETATM    3  C4  UNL     1       4.383   1.345   0.129  1.00  0.00     0.033 A 
HETATM    4  C5  UNL     1       3.113   0.855  -0.124  1.00  0.00     0.040 A 
HETATM    5  N1  UNL     1       2.141   1.597  -0.640  1.00  0.00    -0.355 N 
ATOM      6  H1  UNL     1       2.340   2.573  -0.859  1.00  0.00     0.166 HD
HETATM    7  C6  UNL     1       0.864   1.108  -0.896  1.00  0.00     0.053 A 
HETATM    8  C7  UNL     1       0.614  -0.099  -0.623  1.00  0.00    -0.008 A 
HETATM    9  C8  UNL     1       0.200  -1.307  -0.398  1.00  0.00    -0.011 A 
HETATM   10  C9  UNL     1      -1.078  -1.821  -0.635  1.00  0.00     0.042 C 
HETATM   11  C10 UNL     1      -1.221  -3.110  -1.382  1.00  0.00     0.071 C 
HETATM   12  N2  UNL     1      -2.200  -1.199  -0.171  1.00  0.00    -0.222 N 
HETATM   13  N3  UNL     1      -2.888  -1.969   0.711  1.00  0.00    -0.289 N 
ATOM     14  H3  UNL     1      -2.539  -2.906   0.911  1.00  0.00     0.188 HD
HETATM   15  C11 UNL     1      -3.979  -1.568   1.318  1.00  0.00     0.075 A 
HETATM   16  C12 UNL     1      -4.637  -2.378   2.201  1.00  0.00     0.033 A 
HETATM   17  C13 UNL     1      -5.798  -1.969   2.859  1.00  0.00     0.002 A 
HETATM   18  C14 UNL     1      -6.244  -0.698   2.567  1.00  0.00     0.002 A 
HETATM   19  C15 UNL     1      -5.582   0.119   1.679  1.00  0.00     0.032 A 
HETATM   20  C16 UNL     1      -4.431  -0.297   1.031  1.00  0.00     0.063 A 
HETATM   21  N4  UNL     1      -3.755   0.433   0.176  1.00  0.00    -0.318 N 
ATOM     22  H4  UNL     1      -4.112   1.369  -0.017  1.00  0.00     0.169 HD
HETATM   23  C17 UNL     1      -2.595   0.050  -0.493  1.00  0.00     0.251 A 
HETATM   24  O2  UNL     1      -2.049   0.835  -1.291  1.00  0.00    -0.277 OA
HETATM   25  C18 UNL     1      -1.381   1.797  -1.686  1.00  0.00     0.091 A 
HETATM   26  C19 UNL     1      -2.052   2.822  -2.416  1.00  0.00     0.038 A 
HETATM   27  C20 UNL     1      -1.456   3.945  -2.911  1.00  0.00     0.003 A 
HETATM   28  C21 UNL     1      -0.112   4.138  -2.711  1.00  0.00     0.001 A 
HETATM   29  C22 UNL     1       0.575   3.171  -2.014  1.00  0.00     0.016 A 
HETATM   30  C23 UNL     1      -0.025   2.037  -1.516  1.00  0.00     0.025 A 
HETATM   31  C24 UNL     1       1.586  -1.000  -0.061  1.00  0.00     0.092 A 
HETATM   32  C25 UNL     1       2.837  -0.471   0.173  1.00  0.00    -0.016 A 
HETATM   33  C26 UNL     1       3.845  -1.252   0.710  1.00  0.00     0.047 A 
ENDROOT
BRANCH   1  34
HETATM   34  O1  UNL     1       6.106  -1.596   1.511  1.00  0.00    -0.356 OA
HETATM   35  C1  UNL     1       7.395  -1.168   1.788  1.00  0.00     0.210 C 
ENDBRANCH   1  34
TORSDOF 1
