REMARK  14 active torsions:
REMARK  status: ('A' for Active; 'I' for Inactive)
REMARK    1  A    between atoms: C5_5  and  C6_6 
REMARK    2  A    between atoms: C6_6  and  C8_8 
REMARK    3  A    between atoms: C8_8  and  C9_9 
REMARK    4  A    between atoms: C15_16  and  O2_17 
REMARK    5  A    between atoms: C16_19  and  C17_20 
REMARK    6  A    between atoms: C17_20  and  C19_22 
REMARK    7  A    between atoms: C21_26  and  O3_27 
REMARK    8  A    between atoms: C22_29  and  N2_30 
REMARK       I    between atoms: N2_30  and  C23_32 
REMARK    9  A    between atoms: C23_32  and  C24_34 
REMARK   10  A    between atoms: C24_34  and  C25_35 
REMARK   11  A    between atoms: C25_35  and  C26_36 
REMARK   12  A    between atoms: C26_36  and  C27_37 
REMARK   13  A    between atoms: C27_37  and  C28_38 
REMARK   14  A    between atoms: C28_38  and  C29_39 
ROOT
HETATM    1  C1  UNL     1      -5.030   2.614  -1.534  1.00  0.00     0.015 C 
HETATM    2  C2  UNL     1      -4.187   1.607  -1.354  1.00  0.00    -0.081 C 
HETATM    3  C3  UNL     1      -4.425   0.514  -0.367  1.00  0.00     0.034 C 
HETATM    4  C4  UNL     1      -3.623   0.829   0.863  1.00  0.00     0.012 C 
HETATM    5  C5  UNL     1      -3.795  -0.177   1.979  1.00  0.00     0.024 C 
HETATM    6  C12 UNL     1      -2.807  -1.291   1.716  1.00  0.00     0.061 C 
HETATM    7  C13 UNL     1      -2.216  -1.777   3.047  1.00  0.00     0.046 C 
HETATM    8  C14 UNL     1      -3.508  -2.548   1.184  1.00  0.00     0.046 C 
HETATM    9  O1  UNL     1      -1.724  -0.898   0.935  1.00  0.00    -0.349 OA
HETATM   10  C15 UNL     1      -0.443  -1.179   0.722  1.00  0.00     0.280 C 
HETATM   11  C16 UNL     1       0.776  -0.407   1.151  1.00  0.00     0.142 C 
HETATM   12  N1  UNL     1       1.974  -0.860   0.443  1.00  0.00    -0.363 N 
ATOM     13  H1  UNL     1       2.810  -0.732   1.013  1.00  0.00     0.162 HD
HETATM   14  C21 UNL     1       2.283  -1.408  -0.773  1.00  0.00     0.135 C 
HETATM   15  C22 UNL     1       2.320  -1.001  -2.186  1.00  0.00     0.159 C 
HETATM   16  C30 UNL     1       1.282  -1.483  -3.128  1.00  0.00     0.035 C 
HETATM   17  C31 UNL     1       0.276  -0.421  -3.559  1.00  0.00     0.022 C 
HETATM   18  C32 UNL     1      -1.147  -0.802  -3.206  1.00  0.00     0.122 C 
HETATM   19  N5  UNL     1      -2.114  -0.057  -3.951  1.00  0.00    -0.361 N 
ATOM     20  H5  UNL     1      -2.092  -0.151  -4.966  1.00  0.00     0.162 HD
HETATM   21  C33 UNL     1      -3.106   0.806  -3.398  1.00  0.00     0.221 C 
HETATM   22  O5  UNL     1      -4.225   0.889  -4.005  1.00  0.00    -0.273 OA
HETATM   23  C34 UNL     1      -2.941   1.606  -2.189  1.00  0.00     0.136 C 
ENDROOT
BRANCH  15  24
HETATM   24  N2  UNL     1       3.582  -1.496  -2.801  1.00  0.00    -0.349 N 
HETATM   25  C23 UNL     1       4.597  -0.575  -3.259  1.00  0.00     0.218 C 
HETATM   26  O4  UNL     1       4.446   0.650  -3.151  1.00  0.00    -0.274 OA
ATOM     27  H2  UNL     1       3.732  -2.500  -2.901  1.00  0.00     0.163 HD
BRANCH  25  28
HETATM   28  C24 UNL     1       5.804  -1.194  -3.847  1.00  0.00     0.103 C 
BRANCH  28  29
HETATM   29  C25 UNL     1       6.934  -0.240  -3.980  1.00  0.00     0.009 C 
BRANCH  29  30
HETATM   30  C26 UNL     1       7.368   0.281  -2.639  1.00  0.00     0.001 C 
BRANCH  30  31
HETATM   31  C27 UNL     1       7.756  -0.823  -1.665  1.00  0.00     0.007 C 
BRANCH  31  32
HETATM   32  C28 UNL     1       8.223  -0.168  -0.388  1.00  0.00     0.072 C 
BRANCH  32  33
HETATM   33  C29 UNL     1       7.190   0.664   0.248  1.00  0.00     0.086 C 
HETATM   34  N3  UNL     1       5.912   0.414   0.150  1.00  0.00    -0.391 N 
ATOM     35  H32 UNL     1       5.655  -0.380  -0.437  1.00  0.00     0.157 HD
ATOM     36  H31 UNL     1       5.196   0.991   0.591  1.00  0.00     0.157 HD
HETATM   37  N4  UNL     1       7.552   1.780   1.073  1.00  0.00    -0.088 NA
ENDBRANCH  32  33
ENDBRANCH  31  32
ENDBRANCH  30  31
ENDBRANCH  29  30
ENDBRANCH  28  29
ENDBRANCH  25  28
ENDBRANCH  15  24
BRANCH  14  38
HETATM   38  O3  UNL     1       2.672  -2.673  -0.684  1.00  0.00    -0.348 OA
ATOM     39  H3  UNL     1       2.886  -3.053  -1.528  1.00  0.00     0.219 HD
ENDBRANCH  14  38
BRANCH  11  40
HETATM   40  C17 UNL     1       0.636   1.080   1.124  1.00  0.00     0.009 C 
HETATM   41  C18 UNL     1       1.989   1.571   1.747  1.00  0.00     0.012 C 
BRANCH  40  42
HETATM   42  C19 UNL     1       0.693   1.698  -0.243  1.00  0.00     0.002 C 
HETATM   43  C20 UNL     1       0.472   3.181  -0.196  1.00  0.00     0.005 C 
ENDBRANCH  40  42
ENDBRANCH  11  40
BRANCH  10  44
HETATM   44  O2  UNL     1      -0.053  -2.239   0.067  1.00  0.00    -0.369 OA
ATOM     45  H2  UNL     1       0.863  -2.440  -0.085  1.00  0.00     0.212 HD
ENDBRANCH  10  44
BRANCH   5  46
HETATM   46  C6  UNL     1      -5.234  -0.571   2.134  1.00  0.00    -0.008 C 
HETATM   47  C7  UNL     1      -6.027   0.714   2.431  1.00  0.00     0.011 C 
BRANCH  46  48
HETATM   48  C8  UNL     1      -5.576  -1.460   3.288  1.00  0.00     0.031 C 
BRANCH  48  49
HETATM   49  C9  UNL     1      -5.321  -0.946   4.634  1.00  0.00    -0.031 C 
HETATM   50  C10 UNL     1      -6.269  -0.807   5.570  1.00  0.00    -0.035 C 
HETATM   51  C11 UNL     1      -5.980  -0.290   6.905  1.00  0.00     0.036 C 
ENDBRANCH  48  49
ENDBRANCH  46  48
ENDBRANCH   5  46
TORSDOF 14
