REMARK  13 active torsions:
REMARK  status: ('A' for Active; 'I' for Inactive)
REMARK    1  A    between atoms: C2_2  and  C3_3 
REMARK    2  A    between atoms: C3_3  and  C4_4 
REMARK    3  A    between atoms: C4_4  and  C5_5 
REMARK    4  A    between atoms: C5_5  and  N1_6 
REMARK       I    between atoms: N1_6  and  C6_8 
REMARK       I    between atoms: C6_8  and  N3_12 
REMARK    5  A    between atoms: N3_12  and  C7_14 
REMARK    6  A    between atoms: C7_14  and  C8_15 
REMARK    7  A    between atoms: C8_15  and  C9_16 
REMARK    8  A    between atoms: C9_16  and  C10_17 
REMARK    9  A    between atoms: C11_19  and  O2_20 
REMARK   10  A    between atoms: O2_20  and  C12_21 
REMARK   11  A    between atoms: C27_39  and  C28_40 
REMARK   12  A    between atoms: C28_40  and  C29_41 
REMARK   13  A    between atoms: C34_48  and  N5_49 
ROOT
HETATM    1  C12 UNL     1      -0.321   0.187   0.766  1.00  0.00     0.125 C 
HETATM    2  C13 UNL     1      -0.838   0.922  -0.429  1.00  0.00     0.033 C 
HETATM    3  C14 UNL     1      -1.959   1.831   0.017  1.00  0.00     0.013 C 
HETATM    4  C15 UNL     1      -3.141   1.115   0.607  1.00  0.00    -0.027 C 
HETATM    5  C16 UNL     1      -3.463   1.930   1.898  1.00  0.00     0.016 C 
HETATM    6  C17 UNL     1      -2.783  -0.241   1.175  1.00  0.00     0.001 C 
HETATM    7  C18 UNL     1      -1.375  -0.313   1.692  1.00  0.00     0.037 C 
HETATM    8  C19 UNL     1      -3.061  -1.395   0.260  1.00  0.00    -0.013 C 
HETATM    9  C20 UNL     1      -3.050  -2.650   1.150  1.00  0.00     0.010 C 
HETATM   10  C21 UNL     1      -4.452  -1.322  -0.344  1.00  0.00     0.010 C 
HETATM   11  C22 UNL     1      -5.208  -0.176   0.220  1.00  0.00     0.006 C 
HETATM   12  C23 UNL     1      -4.385   1.084  -0.160  1.00  0.00     0.091 C 
HETATM   13  C24 UNL     1      -4.404   1.141  -1.609  1.00  0.00     0.223 C 
HETATM   14  O3  UNL     1      -3.443   1.330  -2.402  1.00  0.00    -0.273 OA
HETATM   15  N4  UNL     1      -5.668   0.961  -2.257  1.00  0.00    -0.351 N 
ATOM     16  H4  UNL     1      -5.806   1.426  -3.154  1.00  0.00     0.163 HD
HETATM   17  C25 UNL     1      -6.747   0.186  -1.750  1.00  0.00     0.037 C 
HETATM   18  C26 UNL     1      -6.966  -1.113  -2.445  1.00  0.00     0.039 C 
HETATM   19  C27 UNL     1      -8.095   0.875  -1.708  1.00  0.00     0.024 C 
HETATM   20  C30 UNL     1      -8.815   0.001  -0.700  1.00  0.00     0.008 C 
HETATM   21  C31 UNL     1      -7.717  -0.708   0.122  1.00  0.00     0.008 C 
HETATM   22  C32 UNL     1      -6.552   0.096  -0.253  1.00  0.00     0.019 C 
ENDROOT
BRANCH   1  23
HETATM   23  O2  UNL     1       0.402  -0.927   0.309  1.00  0.00    -0.356 OA
BRANCH  23  24
HETATM   24  C11 UNL     1       1.740  -0.880   0.606  1.00  0.00     0.262 C 
HETATM   25  O1  UNL     1       2.177  -1.990   1.329  1.00  0.00    -0.354 OA
HETATM   26  C10 UNL     1       3.571  -1.739   1.403  1.00  0.00     0.155 C 
HETATM   27  C34 UNL     1       3.922  -1.481  -0.046  1.00  0.00     0.217 C 
HETATM   28  C33 UNL     1       2.588  -1.006  -0.640  1.00  0.00     0.096 C 
BRANCH  26  29
HETATM   29  C9  UNL     1       4.267  -2.972   1.897  1.00  0.00     0.036 C 
BRANCH  29  30
HETATM   30  C8  UNL     1       5.743  -2.769   2.004  1.00  0.00     0.023 C 
BRANCH  30  31
HETATM   31  C7  UNL     1       6.152  -1.666   2.943  1.00  0.00     0.138 C 
BRANCH  31  32
HETATM   32  N3  UNL     1       7.582  -1.557   3.014  1.00  0.00    -0.227 N 
HETATM   33  C6  UNL     1       8.372  -1.121   1.934  1.00  0.00     0.667 C 
HETATM   34  N1  UNL     1       8.831   0.213   1.776  1.00  0.00    -0.227 N 
HETATM   35  N2  UNL     1       8.722  -1.990   1.036  1.00  0.00    -0.235 N 
ATOM     36  H1  UNL     1       9.638   0.516   2.321  1.00  0.00     0.177 HD
ATOM     37  H22 UNL     1       9.295  -1.674   0.253  1.00  0.00     0.174 HD
ATOM     38  H21 UNL     1       8.392  -2.949   1.150  1.00  0.00     0.174 HD
ATOM     39  H3  UNL     1       8.046  -1.807   3.887  1.00  0.00     0.177 HD
BRANCH  34  40
HETATM   40  C5  UNL     1       8.211   1.163   0.880  1.00  0.00     0.138 C 
BRANCH  40  41
HETATM   41  C4  UNL     1       8.408   0.789  -0.567  1.00  0.00     0.020 C 
BRANCH  41  42
HETATM   42  C3  UNL     1       7.743   1.838  -1.442  1.00  0.00     0.001 C 
BRANCH  42  43
HETATM   43  C2  UNL     1       8.307   3.218  -1.243  1.00  0.00    -0.004 C 
HETATM   44  C1  UNL     1       9.783   3.143  -1.587  1.00  0.00     0.005 C 
ENDBRANCH  42  43
ENDBRANCH  41  42
ENDBRANCH  40  41
ENDBRANCH  34  40
ENDBRANCH  31  32
ENDBRANCH  30  31
ENDBRANCH  29  30
ENDBRANCH  26  29
BRANCH  27  45
HETATM   45  N5  UNL     1       4.842  -0.376  -0.207  1.00  0.00    -0.072 N 
ATOM     46  H53 UNL     1       4.483   0.468   0.239  1.00  0.00     0.274 HD
ATOM     47  H52 UNL     1       5.682  -0.514   0.355  1.00  0.00     0.274 HD
ATOM     48  H51 UNL     1       5.079  -0.202  -1.184  1.00  0.00     0.274 HD
ENDBRANCH  27  45
ENDBRANCH  23  24
ENDBRANCH   1  23
BRANCH  19  49
HETATM   49  C28 UNL     1      -8.756   0.966  -3.034  1.00  0.00     0.120 C 
BRANCH  49  50
HETATM   50  C29 UNL     1     -10.070   1.636  -2.996  1.00  0.00     0.172 C 
HETATM   51  O4  UNL     1     -10.711   1.763  -4.073  1.00  0.00    -0.648 OA
HETATM   52  O5  UNL     1     -10.617   2.123  -1.833  1.00  0.00    -0.648 OA
ENDBRANCH  49  50
ENDBRANCH  19  49
TORSDOF 13
