REMARK  15 active torsions:
REMARK  status: ('A' for Active; 'I' for Inactive)
REMARK    1  A    between atoms: C2_2  and  C3_3 
REMARK    2  A    between atoms: C3_3  and  C4_4 
REMARK    3  A    between atoms: C4_4  and  C5_5 
REMARK    4  A    between atoms: C5_5  and  C6_6 
REMARK    5  A    between atoms: C5_5  and  N3_45 
REMARK    6  A    between atoms: C6_6  and  C7_7 
REMARK       I    between atoms: C7_7  and  N1_9 
REMARK    7  A    between atoms: N1_9  and  C8_11 
REMARK    8  A    between atoms: C8_11  and  C9_12 
REMARK    9  A    between atoms: C17_20  and  C19_22 
REMARK   10  A    between atoms: C19_22  and  C20_23 
REMARK   11  A    between atoms: C26_33  and  O3_34 
REMARK   12  A    between atoms: C27_36  and  O4_37 
REMARK   13  A    between atoms: C28_39  and  O5_40 
REMARK       I    between atoms: N3_45  and  C32_47 
REMARK   14  A    between atoms: C32_47  and  C33_49 
REMARK   15  A    between atoms: C33_49  and  C34_50 
ROOT
HETATM    1  C9  UNL     1      -0.409  -0.384   0.349  1.00  0.00     0.008 C 
HETATM    2  C10 UNL     1       1.089  -0.059   0.201  1.00  0.00     0.013 C 
HETATM    3  C11 UNL     1       1.641  -1.101  -0.736  1.00  0.00     0.007 C 
HETATM    4  C12 UNL     1       1.212  -2.422  -0.259  1.00  0.00    -0.035 C 
HETATM    5  C13 UNL     1       1.974  -3.617  -0.628  1.00  0.00     0.010 C 
HETATM    6  C14 UNL     1       3.405  -3.409  -0.937  1.00  0.00     0.006 C 
HETATM    7  C15 UNL     1       3.949  -2.057  -0.546  1.00  0.00    -0.006 C 
HETATM    8  C16 UNL     1       4.213  -2.016   0.915  1.00  0.00     0.011 C 
HETATM    9  C17 UNL     1       3.104  -0.933  -1.091  1.00  0.00    -0.016 C 
HETATM   10  C18 UNL     1       3.205  -1.101  -2.611  1.00  0.00     0.020 C 
HETATM   11  C29 UNL     1      -0.266  -2.611  -0.683  1.00  0.00     0.015 C 
HETATM   12  C30 UNL     1      -0.600  -1.852   0.581  1.00  0.00    -0.007 C 
HETATM   13  C31 UNL     1       0.657  -2.454   1.142  1.00  0.00     0.015 C 
ENDROOT
BRANCH   9  14
HETATM   14  C19 UNL     1       3.512   0.414  -0.731  1.00  0.00     0.018 C 
BRANCH  14  15
HETATM   15  C20 UNL     1       4.868   0.956  -0.933  1.00  0.00     0.078 C 
HETATM   16  O2  UNL     1       5.891   0.276  -0.312  1.00  0.00    -0.312 OA
HETATM   17  C21 UNL     1       7.112   0.838  -0.334  1.00  0.00     0.259 C 
HETATM   18  C22 UNL     1       7.258   2.114   0.435  1.00  0.00     0.072 C 
HETATM   19  N2  UNL     1       8.036  -0.139   0.280  1.00  0.00    -0.040 N 
HETATM   20  C26 UNL     1       7.571   0.948  -1.765  1.00  0.00     0.213 C 
HETATM   21  C23 UNL     1       8.520   2.102   1.282  1.00  0.00     0.007 C 
HETATM   22  C24 UNL     1       8.489   0.995   2.321  1.00  0.00     0.028 C 
HETATM   23  C25 UNL     1       7.686  -0.142   1.701  1.00  0.00     0.236 C 
ATOM     24  H22 UNL     1       8.013  -1.061  -0.155  1.00  0.00     0.280 HD
ATOM     25  H21 UNL     1       9.021   0.050   0.096  1.00  0.00     0.280 HD
HETATM   26  C27 UNL     1       6.623   1.779  -2.551  1.00  0.00     0.186 C 
HETATM   27  C28 UNL     1       5.178   1.569  -2.253  1.00  0.00     0.206 C 
BRANCH  20  28
HETATM   28  O3  UNL     1       8.878   1.423  -1.830  1.00  0.00    -0.388 OA
ATOM     29  H3  UNL     1       9.167   1.492  -2.732  1.00  0.00     0.210 HD
ENDBRANCH  20  28
BRANCH  26  30
HETATM   30  O4  UNL     1       6.900   1.543  -3.918  1.00  0.00    -0.390 OA
ATOM     31  H4  UNL     1       6.294   2.074  -4.421  1.00  0.00     0.210 HD
ENDBRANCH  26  30
BRANCH  27  32
HETATM   32  O5  UNL     1       4.515   2.813  -2.427  1.00  0.00    -0.386 OA
ATOM     33  H5  UNL     1       4.713   3.204  -3.270  1.00  0.00     0.210 HD
ENDBRANCH  27  32
ENDBRANCH  14  15
ENDBRANCH   9  14
BRANCH   1  34
HETATM   34  C8  UNL     1      -1.163   0.164  -0.819  1.00  0.00     0.127 C 
BRANCH  34  35
HETATM   35  N1  UNL     1      -2.554  -0.080  -0.814  1.00  0.00    -0.361 N 
HETATM   36  C7  UNL     1      -3.410   0.427   0.207  1.00  0.00     0.219 C 
HETATM   37  O1  UNL     1      -2.934   1.122   1.138  1.00  0.00    -0.274 OA
ATOM     38  H1  UNL     1      -2.960  -0.637  -1.566  1.00  0.00     0.162 HD
BRANCH  36  39
HETATM   39  C6  UNL     1      -4.861   0.121   0.146  1.00  0.00     0.128 C 
BRANCH  39  40
HETATM   40  C5  UNL     1      -5.726   1.045   1.024  1.00  0.00     0.093 C 
BRANCH  40  41
HETATM   41  C4  UNL     1      -5.576   2.414   0.546  1.00  0.00     0.026 C 
BRANCH  41  42
HETATM   42  C3  UNL     1      -6.327   3.522   1.156  1.00  0.00     0.002 C 
BRANCH  42  43
HETATM   43  C2  UNL     1      -7.789   3.572   0.942  1.00  0.00    -0.004 C 
HETATM   44  C1  UNL     1      -8.359   4.812   1.666  1.00  0.00     0.005 C 
ENDBRANCH  42  43
ENDBRANCH  41  42
ENDBRANCH  40  41
BRANCH  40  45
HETATM   45  N3  UNL     1      -7.001   0.492   1.282  1.00  0.00    -0.356 N 
HETATM   46  C32 UNL     1      -7.586  -0.630   0.682  1.00  0.00     0.218 C 
HETATM   47  O6  UNL     1      -7.064  -1.335  -0.206  1.00  0.00    -0.274 OA
ATOM     48  H3  UNL     1      -7.562   0.967   1.989  1.00  0.00     0.162 HD
BRANCH  46  49
HETATM   49  C33 UNL     1      -8.961  -1.042   1.129  1.00  0.00     0.106 C 
BRANCH  49  50
HETATM   50  C34 UNL     1      -9.409  -2.285   0.413  1.00  0.00    -0.014 C 
HETATM   51  C35 UNL     1     -10.793  -2.643   0.908  1.00  0.00     0.010 C 
HETATM   52  C36 UNL     1      -8.470  -3.445   0.657  1.00  0.00     0.010 C 
ENDBRANCH  49  50
ENDBRANCH  46  49
ENDBRANCH  40  45
ENDBRANCH  39  40
ENDBRANCH  36  39
ENDBRANCH  34  35
ENDBRANCH   1  34
TORSDOF 15
