REMARK  5 active torsions:
REMARK  status: ('A' for Active; 'I' for Inactive)
REMARK    1  A    between atoms: C5_5  and  C6_6 
REMARK    2  A    between atoms: C6_6  and  C7_7 
REMARK    3  A    between atoms: C12_17  and  N2_18 
REMARK    4  A    between atoms: N3_21  and  C13_22 
REMARK    5  A    between atoms: C13_22  and  C14_23 
ROOT
HETATM    1  C1  UNL     1      -3.493  -0.862   2.157  1.00  0.00     0.046 C 
HETATM    2  C2  UNL     1      -3.109   0.076   1.014  1.00  0.00     0.125 C 
HETATM    3  C3  UNL     1      -4.303   0.967   0.784  1.00  0.00     0.046 C 
HETATM    4  C4  UNL     1      -2.757  -0.774  -0.205  1.00  0.00     0.081 C 
HETATM    5  C5  UNL     1      -2.103   0.051  -1.226  1.00  0.00     0.095 C 
HETATM    6  O1  UNL     1      -2.349   1.405  -0.883  1.00  0.00    -0.339 OA
HETATM    7  C8  UNL     1      -1.545   1.635   0.227  1.00  0.00     0.361 C 
HETATM    8  N1  UNL     1      -1.949   0.856   1.385  1.00  0.00    -0.036 N 
ATOM      9  H11 UNL     1      -1.192   0.284   1.760  1.00  0.00     0.281 HD
ATOM     10  H12 UNL     1      -2.108   1.431   2.212  1.00  0.00     0.281 HD
HETATM   11  C9  UNL     1      -0.248   1.057  -0.212  1.00  0.00     0.046 A 
HETATM   12  C10 UNL     1      -0.586   0.060  -1.089  1.00  0.00    -0.006 A 
HETATM   13  C11 UNL     1       0.447  -0.650  -1.629  1.00  0.00     0.059 A 
HETATM   14  C12 UNL     1       1.782  -0.347  -1.281  1.00  0.00     0.106 A 
HETATM   15  N3  UNL     1       2.124   0.618  -0.429  1.00  0.00    -0.297 N 
HETATM   16  C20 UNL     1       1.062   1.322   0.099  1.00  0.00     0.122 A 
HETATM   17 CL3  UNL     1       1.425   2.692   1.169  1.00  0.00    -0.063 Cl
ENDROOT
BRANCH  15  18
HETATM   18  C13 UNL     1       3.443   1.032  -0.057  1.00  0.00     0.113 C 
BRANCH  18  19
HETATM   19  C14 UNL     1       4.188   0.260   0.917  1.00  0.00     0.002 A 
HETATM   20  C15 UNL     1       3.842   0.147   2.238  1.00  0.00     0.014 A 
HETATM   21  C16 UNL     1       4.506  -0.687   3.146  1.00  0.00     0.001 A 
HETATM   22  C17 UNL     1       5.564  -1.444   2.721  1.00  0.00     0.002 A 
HETATM   23  C18 UNL     1       5.937  -1.357   1.421  1.00  0.00     0.024 A 
HETATM   24  C19 UNL     1       5.271  -0.524   0.527  1.00  0.00     0.045 A 
HETATM   25 CL2  UNL     1       6.006  -0.445  -1.071  1.00  0.00    -0.083 Cl
ENDBRANCH  18  19
ENDBRANCH  15  18
BRANCH  14  26
HETATM   26  N2  UNL     1       2.672  -1.057  -1.827  1.00  0.00    -0.385 N 
ATOM     27  H22 UNL     1       2.410  -1.796  -2.479  1.00  0.00     0.157 HD
ATOM     28  H21 UNL     1       3.636  -0.838  -1.576  1.00  0.00     0.157 HD
ENDBRANCH  14  26
BRANCH   5  29
HETATM   29  C6  UNL     1      -2.430  -0.099  -2.646  1.00  0.00     0.058 C 
BRANCH  29  30
HETATM   30  C7  UNL     1      -3.774   0.113  -3.178  1.00  0.00     0.118 C 
HETATM   31 CL1  UNL     1      -5.048  -0.972  -2.603  1.00  0.00    -0.130 Cl
ENDBRANCH  29  30
ENDBRANCH   5  29
TORSDOF 5
