REMARK  7 active torsions:
REMARK  status: ('A' for Active; 'I' for Inactive)
REMARK    1  A    between atoms: C2_2  and  O1_3 
REMARK    2  A    between atoms: O1_3  and  C3_4 
REMARK    3  A    between atoms: C3_4  and  C4_6 
REMARK    4  A    between atoms: C4_6  and  O3_7 
REMARK    5  A    between atoms: C8_12  and  C9_13 
REMARK    6  A    between atoms: C9_13  and  C10_14 
REMARK    7  A    between atoms: C20_27  and  O4_29 
ROOT
HETATM    1  C4  UNL     1       2.119  -0.219   0.368  1.00  0.00     0.177 C 
HETATM    2  C5  UNL     1       1.196  -0.001   1.571  1.00  0.00     0.056 C 
HETATM    3  C6  UNL     1       0.071  -1.003   1.565  1.00  0.00     0.039 C 
HETATM    4  C7  UNL     1      -0.556  -1.182   0.248  1.00  0.00    -0.066 C 
HETATM    5  C8  UNL     1      -1.853  -1.238  -0.123  1.00  0.00    -0.072 C 
HETATM    6  C16 UNL     1      -1.921  -1.403  -1.578  1.00  0.00     0.036 C 
HETATM    7  C17 UNL     1      -0.520  -1.274  -2.136  1.00  0.00     0.021 C 
HETATM    8  C18 UNL     1       0.333  -1.363  -0.925  1.00  0.00     0.014 C 
HETATM    9  C19 UNL     1       0.989  -2.725  -0.903  1.00  0.00     0.023 C 
HETATM   10  C20 UNL     1       1.321  -0.225  -0.903  1.00  0.00     0.106 C 
HETATM   11  C21 UNL     1       0.521   1.054  -1.029  1.00  0.00     0.051 C 
ENDROOT
BRANCH   5  12
HETATM   12  C9  UNL     1      -2.988  -1.121   0.808  1.00  0.00     0.076 C 
BRANCH  12  13
HETATM   13  C10 UNL     1      -3.950  -0.054   0.505  1.00  0.00    -0.014 A 
HETATM   14  C11 UNL     1      -3.861   1.160   1.191  1.00  0.00     0.012 A 
HETATM   15  C12 UNL     1      -4.721   2.209   0.943  1.00  0.00     0.026 A 
HETATM   16  C13 UNL     1      -5.690   2.017  -0.022  1.00  0.00     0.058 A 
HETATM   17 CL1  UNL     1      -6.789   3.340  -0.349  1.00  0.00    -0.082 Cl
HETATM   18  C14 UNL     1      -5.780   0.820  -0.700  1.00  0.00     0.094 A 
HETATM   19 CL2  UNL     1      -7.018   0.605  -1.918  1.00  0.00    -0.079 Cl
HETATM   20  C15 UNL     1      -4.922  -0.235  -0.456  1.00  0.00     0.146 A 
HETATM   21  F1  UNL     1      -5.082  -1.396  -1.152  1.00  0.00    -0.204 F 
ENDBRANCH  12  13
ENDBRANCH   5  12
BRANCH  10  22
HETATM   22  O4  UNL     1       2.199  -0.274  -1.984  1.00  0.00    -0.385 OA
ATOM     23  H4  UNL     1       1.694  -0.278  -2.789  1.00  0.00     0.210 HD
ENDBRANCH  10  22
BRANCH   1  24
HETATM   24  C3  UNL     1       3.223   0.746   0.360  1.00  0.00     0.296 C 
HETATM   25  O2  UNL     1       2.998   1.964   0.163  1.00  0.00    -0.262 OA
BRANCH  24  26
HETATM   26  O1  UNL     1       4.555   0.397   0.563  1.00  0.00    -0.319 OA
BRANCH  26  27
HETATM   27  C2  UNL     1       5.628   1.319   0.557  1.00  0.00     0.174 C 
HETATM   28  C1  UNL     1       5.530   2.388   1.590  1.00  0.00     0.034 C 
ENDBRANCH  26  27
ENDBRANCH  24  26
ENDBRANCH   1  24
BRANCH   1  29
HETATM   29  O3  UNL     1       2.650  -1.513   0.607  1.00  0.00    -0.377 OA
ATOM     30  H3  UNL     1       1.935  -2.138   0.612  1.00  0.00     0.211 HD
ENDBRANCH   1  29
TORSDOF 7
