REMARK  16 active torsions:
REMARK  status: ('A' for Active; 'I' for Inactive)
REMARK    1  A    between atoms: C3_3  and  C4_4 
REMARK    2  A    between atoms: C4_4  and  C6_6 
REMARK    3  A    between atoms: C4_4  and  O3_16 
REMARK    4  A    between atoms: C6_6  and  C7_7 
REMARK    5  A    between atoms: C7_7  and  O1_8 
REMARK    6  A    between atoms: C7_7  and  C8_10 
REMARK    7  A    between atoms: C8_10  and  C9_11 
REMARK    8  A    between atoms: C9_11  and  O2_14 
REMARK    9  A    between atoms: O3_16  and  O4_17 
REMARK   10  A    between atoms: O4_17  and  C12_18 
REMARK   11  A    between atoms: C12_18  and  C13_19 
REMARK   12  A    between atoms: C15_21  and  O5_22 
REMARK   13  A    between atoms: C17_25  and  O6_26 
REMARK   14  A    between atoms: C18_28  and  O7_29 
REMARK   15  A    between atoms: C20_32  and  O8_33 
REMARK   16  A    between atoms: C23_37  and  O9_38 
ROOT
HETATM    1  C13 UNL     1       2.001   1.138   0.251  1.00  0.00     0.044 C 
HETATM    2  C14 UNL     1       2.154   0.240  -0.949  1.00  0.00     0.041 C 
HETATM    3  C15 UNL     1       3.615   0.130  -1.364  1.00  0.00     0.126 C 
HETATM    4  C16 UNL     1       4.261  -0.638  -0.201  1.00  0.00     0.059 C 
HETATM    5  C17 UNL     1       5.636  -1.024  -0.682  1.00  0.00     0.154 C 
HETATM    6  C18 UNL     1       6.506   0.171  -0.955  1.00  0.00     0.149 C 
HETATM    7  C19 UNL     1       6.640   0.949   0.324  1.00  0.00     0.067 C 
HETATM    8  C20 UNL     1       5.317   1.410   0.805  1.00  0.00     0.132 C 
HETATM    9  C21 UNL     1       4.287   0.285   0.969  1.00  0.00     0.017 C 
HETATM   10  C22 UNL     1       4.804  -0.539   2.159  1.00  0.00     0.021 C 
HETATM   11  C23 UNL     1       2.993   0.923   1.316  1.00  0.00     0.135 C 
ENDROOT
BRANCH   1  12
HETATM   12  C12 UNL     1       0.547   0.963   0.774  1.00  0.00     0.217 C 
BRANCH  12  13
HETATM   13  O4  UNL     1      -0.256   1.304  -0.238  1.00  0.00    -0.239 OA
BRANCH  13  14
HETATM   14  O3  UNL     1      -1.397   1.387  -0.393  1.00  0.00    -0.226 OA
BRANCH  14  15
HETATM   15  C4  UNL     1      -2.431   0.514  -0.349  1.00  0.00     0.112 C 
HETATM   16  C5  UNL     1      -2.285  -0.571  -1.445  1.00  0.00     0.054 C 
BRANCH  15  17
HETATM   17  C3  UNL     1      -2.667  -0.137   0.925  1.00  0.00     0.009 C 
HETATM   18  C2  UNL     1      -2.349  -1.275   1.467  1.00  0.00    -0.032 C 
HETATM   19  C1  UNL     1      -1.560  -2.376   0.880  1.00  0.00     0.036 C 
ENDBRANCH  15  17
BRANCH  15  20
HETATM   20  C6  UNL     1      -3.626   1.336  -0.858  1.00  0.00     0.076 C 
BRANCH  20  21
HETATM   21  C7  UNL     1      -4.904   0.708  -1.144  1.00  0.00     0.124 C 
BRANCH  21  22
HETATM   22  O1  UNL     1      -5.778   1.757  -1.665  1.00  0.00    -0.395 OA
ATOM     23  H1  UNL     1      -6.614   1.346  -1.852  1.00  0.00     0.210 HD
ENDBRANCH  21  22
BRANCH  21  24
HETATM   24  C8  UNL     1      -5.684   0.178   0.015  1.00  0.00     0.069 C 
BRANCH  24  25
HETATM   25  C9  UNL     1      -7.014  -0.439  -0.396  1.00  0.00     0.053 C 
HETATM   26  C10 UNL     1      -7.955   0.521  -1.065  1.00  0.00     0.045 C 
HETATM   27  C11 UNL     1      -7.653  -1.017   0.860  1.00  0.00     0.045 C 
BRANCH  25  28
HETATM   28  O2  UNL     1      -6.765  -1.508  -1.260  1.00  0.00    -0.391 OA
ATOM     29  H2  UNL     1      -7.595  -1.893  -1.516  1.00  0.00     0.210 HD
ENDBRANCH  25  28
ENDBRANCH  24  25
ENDBRANCH  21  24
ENDBRANCH  20  21
ENDBRANCH  15  20
ENDBRANCH  14  15
ENDBRANCH  13  14
ENDBRANCH  12  13
ENDBRANCH   1  12
BRANCH  11  30
HETATM   30  O9  UNL     1       2.381   0.104   2.296  1.00  0.00    -0.394 OA
ATOM     31  H9  UNL     1       3.022  -0.035   2.984  1.00  0.00     0.210 HD
ENDBRANCH  11  30
BRANCH   3  32
HETATM   32  O5  UNL     1       3.676  -0.602  -2.529  1.00  0.00    -0.395 OA
ATOM     33  H5  UNL     1       4.587  -0.671  -2.788  1.00  0.00     0.210 HD
ENDBRANCH   3  32
BRANCH   8  34
HETATM   34  O8  UNL     1       5.438   1.974   2.096  1.00  0.00    -0.395 OA
ATOM     35  H8  UNL     1       4.590   2.270   2.404  1.00  0.00     0.210 HD
ENDBRANCH   8  34
BRANCH   5  36
HETATM   36  O6  UNL     1       6.292  -1.897   0.158  1.00  0.00    -0.393 OA
ATOM     37  H6  UNL     1       7.159  -2.140  -0.145  1.00  0.00     0.210 HD
ENDBRANCH   5  36
BRANCH   6  38
HETATM   38  O7  UNL     1       7.750  -0.323  -1.380  1.00  0.00    -0.393 OA
ATOM     39  H7  UNL     1       8.300   0.432  -1.553  1.00  0.00     0.210 HD
ENDBRANCH   6  38
TORSDOF 16
