REMARK  15 active torsions:
REMARK  status: ('A' for Active; 'I' for Inactive)
REMARK    1  A    between atoms: C2_2  and  C3_3 
REMARK    2  A    between atoms: C3_3  and  C4_4 
REMARK    3  A    between atoms: C3_3  and  C5_7 
REMARK    4  A    between atoms: C5_7  and  O3_8 
REMARK    5  A    between atoms: C6_10  and  O4_11 
REMARK    6  A    between atoms: C8_14  and  O5_15 
REMARK    7  A    between atoms: C9_17  and  C10_18 
REMARK    8  A    between atoms: C10_18  and  C11_19 
REMARK    9  A    between atoms: C11_19  and  C12_20 
REMARK   10  A    between atoms: C12_20  and  C13_21 
REMARK   11  A    between atoms: C16_24  and  O6_25 
REMARK   12  A    between atoms: O6_25  and  C17_26 
REMARK   13  A    between atoms: C20_30  and  O8_31 
REMARK   14  A    between atoms: C21_33  and  O9_34 
REMARK   15  A    between atoms: C22_36  and  O10_37 
ROOT
HETATM    1  C5  UNL     1       0.040   2.251   0.662  1.00  0.00     0.123 C 
HETATM    2  C6  UNL     1       0.577   2.480   2.030  1.00  0.00     0.158 C 
HETATM    3  C7  UNL     1       2.009   1.902   2.027  1.00  0.00     0.067 C 
HETATM    4  C8  UNL     1       1.802   0.409   1.857  1.00  0.00     0.127 C 
HETATM    5  C9  UNL     1       1.114   0.038   0.615  1.00  0.00     0.047 C 
HETATM    6  C16 UNL     1      -0.208   0.823   0.380  1.00  0.00     0.169 C 
ENDROOT
BRANCH   6   7
HETATM    7  O6  UNL     1      -1.167   0.168   1.101  1.00  0.00    -0.350 OA
BRANCH   7   8
HETATM    8  C17 UNL     1      -2.033  -0.577   0.315  1.00  0.00     0.292 C 
HETATM    9  O7  UNL     1      -1.937  -1.944   0.596  1.00  0.00    -0.351 OA
HETATM   10  C18 UNL     1      -2.377  -2.672  -0.496  1.00  0.00     0.152 C 
HETATM   11  C19 UNL     1      -2.576  -4.111  -0.064  1.00  0.00     0.042 C 
HETATM   12  C20 UNL     1      -3.582  -2.096  -1.166  1.00  0.00     0.178 C 
HETATM   13  C21 UNL     1      -4.313  -1.071  -0.360  1.00  0.00     0.183 C 
HETATM   14  C22 UNL     1      -3.453  -0.193   0.494  1.00  0.00     0.204 C 
BRANCH  12  15
HETATM   15  O8  UNL     1      -4.480  -3.159  -1.394  1.00  0.00    -0.390 OA
ATOM     16  H8  UNL     1      -5.246  -2.793  -1.820  1.00  0.00     0.210 HD
ENDBRANCH  12  15
BRANCH  13  17
HETATM   17  O9  UNL     1      -5.023  -0.223  -1.243  1.00  0.00    -0.390 OA
ATOM     18  H9  UNL     1      -5.488   0.428  -0.731  1.00  0.00     0.210 HD
ENDBRANCH  13  17
BRANCH  14  19
HETATM   19  O10 UNL     1      -3.766  -0.395   1.859  1.00  0.00    -0.388 OA
ATOM     20  H10 UNL     1      -4.676  -0.149   1.974  1.00  0.00     0.210 HD
ENDBRANCH  14  19
ENDBRANCH   7   8
ENDBRANCH   6   7
BRANCH   1  21
HETATM   21  C3  UNL     1      -0.997   3.232   0.251  1.00  0.00     0.126 C 
BRANCH  21  22
HETATM   22  C2  UNL     1      -1.368   3.062  -1.216  1.00  0.00     0.014 C 
HETATM   23  C1  UNL     1      -2.016   4.342  -1.701  1.00  0.00     0.006 C 
ENDBRANCH  21  22
BRANCH  21  24
HETATM   24  C4  UNL     1      -2.109   3.509   1.132  1.00  0.00     0.180 C 
HETATM   25  O1  UNL     1      -2.421   2.810   2.101  1.00  0.00    -0.648 OA
HETATM   26  O2  UNL     1      -2.935   4.638   0.926  1.00  0.00    -0.648 OA
ENDBRANCH  21  24
ENDBRANCH   1  21
BRANCH   1  27
HETATM   27  O3  UNL     1       1.152   2.599  -0.213  1.00  0.00    -0.384 OA
ATOM     28  H3  UNL     1       1.815   1.972   0.050  1.00  0.00     0.210 HD
ENDBRANCH   1  27
BRANCH   5  29
HETATM   29  C10 UNL     1       1.869  -0.138  -0.640  1.00  0.00     0.010 C 
BRANCH  29  30
HETATM   30  C11 UNL     1       2.909  -1.226  -0.647  1.00  0.00     0.001 C 
BRANCH  30  31
HETATM   31  C12 UNL     1       3.568  -1.298  -2.035  1.00  0.00     0.004 C 
BRANCH  31  32
HETATM   32  C13 UNL     1       4.610  -2.370  -2.085  1.00  0.00    -0.023 C 
HETATM   33  C14 UNL     1       4.071  -3.739  -1.799  1.00  0.00     0.009 C 
HETATM   34  C15 UNL     1       5.757  -2.110  -1.140  1.00  0.00     0.009 C 
ENDBRANCH  31  32
ENDBRANCH  30  31
ENDBRANCH  29  30
ENDBRANCH   5  29
BRANCH   2  35
HETATM   35  O4  UNL     1      -0.070   1.728   3.036  1.00  0.00    -0.392 OA
ATOM     36  H4  UNL     1       0.273   1.874   3.910  1.00  0.00     0.210 HD
ENDBRANCH   2  35
BRANCH   4  37
HETATM   37  O5  UNL     1       2.956  -0.278   2.067  1.00  0.00    -0.395 OA
ATOM     38  H5  UNL     1       2.826  -1.213   1.961  1.00  0.00     0.210 HD
ENDBRANCH   4  37
TORSDOF 15
