REMARK  16 active torsions:
REMARK  status: ('A' for Active; 'I' for Inactive)
REMARK    1  A    between atoms: C2_2  and  C3_3 
REMARK    2  A    between atoms: C3_3  and  O1_4 
REMARK    3  A    between atoms: C7_9  and  O2_10 
REMARK    4  A    between atoms: C9_13  and  O3_14 
REMARK    5  A    between atoms: C12_18  and  O4_19 
REMARK    6  A    between atoms: C12_18  and  C13_21 
REMARK    7  A    between atoms: C13_21  and  O5_22 
REMARK    8  A    between atoms: O5_22  and  N1_23 
REMARK    9  A    between atoms: C14_25  and  O6_26 
REMARK   10  A    between atoms: C14_25  and  C15_28 
REMARK   11  A    between atoms: C15_28  and  C16_29 
REMARK   12  A    between atoms: C16_29  and  C17_30 
REMARK   13  A    between atoms: C16_29  and  C20_38 
REMARK       I    between atoms: C17_30  and  N2_32 
REMARK   14  A    between atoms: N2_32  and  C18_34 
REMARK   15  A    between atoms: C18_34  and  C19_35 
REMARK   16  A    between atoms: C19_35  and  O8_36 
ROOT
HETATM    1  C3  UNL     1      -2.590   0.022  -1.897  1.00  0.00     0.109 C 
HETATM    2  C4  UNL     1      -4.092  -0.088  -1.592  1.00  0.00     0.057 C 
HETATM    3  C5  UNL     1      -4.280   0.677  -0.277  1.00  0.00    -0.008 C 
HETATM    4  C6  UNL     1      -5.133   1.886  -0.585  1.00  0.00     0.018 C 
HETATM    5  C7  UNL     1      -5.040  -0.235   0.636  1.00  0.00     0.129 C 
HETATM    6  C8  UNL     1      -4.787  -0.073   2.081  1.00  0.00     0.064 C 
HETATM    7  C9  UNL     1      -3.961   1.133   2.444  1.00  0.00     0.121 C 
HETATM    8  C10 UNL     1      -2.700   1.196   1.618  1.00  0.00     0.040 C 
HETATM    9  C11 UNL     1      -2.908   1.022   0.171  1.00  0.00     0.039 C 
HETATM   10  C12 UNL     1      -2.061  -0.060  -0.458  1.00  0.00     0.120 C 
ENDROOT
BRANCH  10  11
HETATM   11  O4  UNL     1      -2.342  -1.308   0.052  1.00  0.00    -0.384 OA
ATOM     12  H4  UNL     1      -2.015  -1.359   0.942  1.00  0.00     0.210 HD
ENDBRANCH  10  11
BRANCH  10  13
HETATM   13  C13 UNL     1      -0.595   0.179  -0.375  1.00  0.00     0.243 C 
BRANCH  13  14
HETATM   14  O5  UNL     1       0.051  -0.831  -1.134  1.00  0.00    -0.276 OA
BRANCH  14  15
HETATM   15  N1  UNL     1       1.388  -0.941  -1.297  1.00  0.00    -0.248 N 
HETATM   16  C14 UNL     1       2.120  -1.833  -0.722  1.00  0.00     0.136 C 
ATOM     17  H1  UNL     1       1.849  -0.274  -1.916  1.00  0.00     0.196 HD
BRANCH  16  18
HETATM   18  O6  UNL     1       1.477  -2.732   0.117  1.00  0.00    -0.348 OA
ATOM     19  H6  UNL     1       2.016  -3.389   0.541  1.00  0.00     0.219 HD
ENDBRANCH  16  18
BRANCH  16  20
HETATM   20  C15 UNL     1       3.575  -1.935  -0.913  1.00  0.00     0.100 C 
BRANCH  20  21
HETATM   21  C16 UNL     1       4.417  -1.598   0.267  1.00  0.00     0.088 C 
BRANCH  21  22
HETATM   22  C17 UNL     1       4.283  -0.229   0.781  1.00  0.00     0.222 C 
HETATM   23  O7  UNL     1       5.263   0.541   0.619  1.00  0.00    -0.273 OA
HETATM   24  N2  UNL     1       3.123   0.225   1.426  1.00  0.00    -0.359 N 
ATOM     25  H2  UNL     1       2.363  -0.446   1.536  1.00  0.00     0.162 HD
BRANCH  24  26
HETATM   26  C18 UNL     1       2.903   1.555   1.949  1.00  0.00     0.148 C 
BRANCH  26  27
HETATM   27  C19 UNL     1       2.979   2.561   0.834  1.00  0.00     0.183 C 
BRANCH  27  28
HETATM   28  O8  UNL     1       2.764   3.868   1.327  1.00  0.00    -0.399 OA
ATOM     29  H8  UNL     1       2.812   4.504   0.623  1.00  0.00     0.209 HD
ENDBRANCH  27  28
ENDBRANCH  26  27
ENDBRANCH  24  26
ENDBRANCH  21  22
BRANCH  21  30
HETATM   30  C20 UNL     1       5.878  -1.946   0.050  1.00  0.00    -0.009 C 
HETATM   31  C21 UNL     1       6.469  -1.219  -1.115  1.00  0.00     0.010 C 
HETATM   32  C22 UNL     1       6.015  -3.446  -0.054  1.00  0.00     0.010 C 
ENDBRANCH  21  30
ENDBRANCH  20  21
ENDBRANCH  16  20
ENDBRANCH  14  15
ENDBRANCH  13  14
ENDBRANCH  10  13
BRANCH   1  33
HETATM   33  C2  UNL     1      -2.309   1.342  -2.504  1.00  0.00     0.003 C 
HETATM   34  C1  UNL     1      -1.256   1.596  -3.268  1.00  0.00     0.010 C 
ENDBRANCH   1  33
BRANCH   1  35
HETATM   35  O1  UNL     1      -2.122  -1.043  -2.624  1.00  0.00    -0.383 OA
ATOM     36  H1  UNL     1      -2.302  -1.890  -2.234  1.00  0.00     0.211 HD
ENDBRANCH   1  35
BRANCH   5  37
HETATM   37  O2  UNL     1      -6.411  -0.055   0.342  1.00  0.00    -0.395 OA
ATOM     38  H2  UNL     1      -6.893  -0.634   0.921  1.00  0.00     0.210 HD
ENDBRANCH   5  37
BRANCH   7  39
HETATM   39  O3  UNL     1      -3.569   0.980   3.775  1.00  0.00    -0.395 OA
ATOM     40  H3  UNL     1      -3.048   1.741   4.004  1.00  0.00     0.210 HD
ENDBRANCH   7  39
TORSDOF 16
