REMARK  16 active torsions:
REMARK  status: ('A' for Active; 'I' for Inactive)
REMARK    1  A    between atoms: C2_2  and  C3_3 
REMARK    2  A    between atoms: C3_3  and  C4_4 
REMARK    3  A    between atoms: C4_4  and  C5_5 
REMARK    4  A    between atoms: C5_5  and  C6_6 
REMARK    5  A    between atoms: C6_6  and  O1_7 
REMARK    6  A    between atoms: C6_6  and  C13_21 
REMARK    7  A    between atoms: O1_7  and  C7_8 
REMARK    8  A    between atoms: C9_10  and  O2_11 
REMARK    9  A    between atoms: C10_13  and  O3_14 
REMARK   10  A    between atoms: C11_16  and  C12_17 
REMARK   11  A    between atoms: C12_17  and  O4_18 
REMARK   12  A    between atoms: C13_21  and  O6_22 
REMARK   13  A    between atoms: C13_21  and  C14_24 
REMARK   14  A    between atoms: C21_31  and  O7_32 
REMARK   15  A    between atoms: C22_34  and  O8_35 
REMARK   16  A    between atoms: C23_37  and  O9_38 
ROOT
HETATM    1  C6  UNL     1      -0.841   0.814   0.133  1.00  0.00     0.154 C 
ENDROOT
BRANCH   1   2
HETATM    2  C5  UNL     1      -1.526   1.779   1.076  1.00  0.00     0.035 C 
BRANCH   2   3
HETATM    3  C4  UNL     1      -1.160   1.679   2.505  1.00  0.00     0.002 C 
BRANCH   3   4
HETATM    4  C3  UNL     1      -2.001   2.725   3.275  1.00  0.00    -0.000 C 
BRANCH   4   5
HETATM    5  C2  UNL     1      -1.575   2.569   4.735  1.00  0.00    -0.005 C 
HETATM    6  C1  UNL     1      -2.300   3.514   5.638  1.00  0.00     0.005 C 
ENDBRANCH   4   5
ENDBRANCH   3   4
ENDBRANCH   2   3
ENDBRANCH   1   2
BRANCH   1   7
HETATM    7  O1  UNL     1      -1.175  -0.469   0.569  1.00  0.00    -0.353 OA
BRANCH   7   8
HETATM    8  C7  UNL     1      -2.064  -1.146  -0.269  1.00  0.00     0.263 C 
HETATM    9  C8  UNL     1      -3.363  -1.429   0.438  1.00  0.00     0.095 C 
HETATM   10  C9  UNL     1      -3.451  -2.907   0.715  1.00  0.00     0.154 C 
HETATM   11  C10 UNL     1      -3.436  -3.691  -0.605  1.00  0.00     0.178 C 
HETATM   12  C11 UNL     1      -2.378  -3.076  -1.527  1.00  0.00     0.179 C 
HETATM   13  O5  UNL     1      -1.523  -2.275  -0.803  1.00  0.00    -0.351 OA
BRANCH  10  14
HETATM   14  O2  UNL     1      -2.395  -3.373   1.474  1.00  0.00    -0.393 OA
ATOM     15  H2  UNL     1      -2.451  -4.305   1.649  1.00  0.00     0.210 HD
ENDBRANCH  10  14
BRANCH  11  16
HETATM   16  O3  UNL     1      -2.984  -4.967  -0.275  1.00  0.00    -0.390 OA
ATOM     17  H3  UNL     1      -2.975  -5.452  -1.092  1.00  0.00     0.210 HD
ENDBRANCH  11  16
BRANCH  12  18
HETATM   18  C12 UNL     1      -3.025  -2.401  -2.712  1.00  0.00     0.198 C 
BRANCH  18  19
HETATM   19  O4  UNL     1      -2.103  -1.957  -3.635  1.00  0.00    -0.398 OA
ATOM     20  H4  UNL     1      -2.510  -1.532  -4.381  1.00  0.00     0.209 HD
ENDBRANCH  18  19
ENDBRANCH  12  18
ENDBRANCH   7   8
ENDBRANCH   1   7
BRANCH   1  21
HETATM   21  C13 UNL     1       0.613   1.002  -0.013  1.00  0.00     0.158 C 
BRANCH  21  22
HETATM   22  O6  UNL     1       1.187   0.709   1.251  1.00  0.00    -0.392 OA
ATOM     23  H6  UNL     1       2.125   0.830   1.157  1.00  0.00     0.210 HD
ENDBRANCH  21  22
BRANCH  21  24
HETATM   24  C14 UNL     1       1.336   0.321  -1.119  1.00  0.00     0.077 C 
HETATM   25  C15 UNL     1       2.829   0.622  -1.002  1.00  0.00    -0.065 C 
HETATM   26  C16 UNL     1       3.562   0.701  -2.071  1.00  0.00    -0.046 C 
HETATM   27  C20 UNL     1       3.620   0.829   0.256  1.00  0.00     0.039 C 
HETATM   28  C17 UNL     1       4.977   1.008  -1.675  1.00  0.00     0.041 C 
HETATM   29  C21 UNL     1       3.110   0.515  -3.487  1.00  0.00     0.178 C 
HETATM   30  C18 UNL     1       5.054   0.588  -0.252  1.00  0.00    -0.011 C 
HETATM   31  C19 UNL     1       5.472  -0.842  -0.049  1.00  0.00     0.010 C 
HETATM   32  C22 UNL     1       1.690   0.092  -3.572  1.00  0.00     0.180 C 
HETATM   33  C23 UNL     1       0.955   0.887  -2.465  1.00  0.00     0.160 C 
BRANCH  29  34
HETATM   34  O7  UNL     1       3.932  -0.396  -4.153  1.00  0.00    -0.389 OA
ATOM     35  H7  UNL     1       3.645  -0.514  -5.051  1.00  0.00     0.210 HD
ENDBRANCH  29  34
BRANCH  32  36
HETATM   36  O8  UNL     1       1.451  -1.240  -3.342  1.00  0.00    -0.390 OA
ATOM     37  H8  UNL     1       0.542  -1.511  -3.396  1.00  0.00     0.210 HD
ENDBRANCH  32  36
BRANCH  33  38
HETATM   38  O9  UNL     1      -0.365   0.816  -2.819  1.00  0.00    -0.392 OA
ATOM     39  H9  UNL     1      -0.605   1.172  -3.666  1.00  0.00     0.210 HD
ENDBRANCH  33  38
ENDBRANCH  21  24
ENDBRANCH   1  21
TORSDOF 16
