REMARK  6 active torsions:
REMARK  status: ('A' for Active; 'I' for Inactive)
REMARK    1  A    between atoms: N1_1  and  C1_5 
REMARK    2  A    between atoms: C1_5  and  C2_6 
REMARK    3  A    between atoms: C2_6  and  C3_7 
REMARK    4  A    between atoms: C10_17  and  C11_18 
REMARK    5  A    between atoms: C11_18  and  C12_19 
REMARK    6  A    between atoms: C12_19  and  C13_20 
ROOT
HETATM    1  C3  UNL     1      -1.559  -1.016   0.277  1.00  0.00     0.002 C 
HETATM    2  C4  UNL     1      -2.760  -0.115   0.434  1.00  0.00     0.036 C 
HETATM    3  C5  UNL     1      -2.471   1.343   0.140  1.00  0.00     0.033 C 
HETATM    4  C6  UNL     1      -1.868   2.140   1.242  1.00  0.00     0.031 C 
HETATM    5  C7  UNL     1      -2.926   3.212   0.985  1.00  0.00     0.005 C 
HETATM    6  C8  UNL     1      -3.729   2.152   0.253  1.00  0.00     0.031 C 
HETATM    7  N2  UNL     1      -1.801   1.465  -1.169  1.00  0.00    -0.351 N 
ATOM      8  H2  UNL     1      -2.004   2.235  -1.807  1.00  0.00     0.163 HD
HETATM    9  C9  UNL     1      -0.854   0.449  -1.495  1.00  0.00     0.222 C 
HETATM   10  O1  UNL     1      -0.531   0.338  -2.700  1.00  0.00    -0.273 OA
HETATM   11  C10 UNL     1      -0.377  -0.341  -0.365  1.00  0.00     0.082 C 
ENDROOT
BRANCH  11  12
HETATM   12  C11 UNL     1       0.701  -1.299  -0.611  1.00  0.00     0.015 C 
BRANCH  12  13
HETATM   13  C12 UNL     1       1.950  -0.759  -1.239  1.00  0.00     0.005 C 
BRANCH  13  14
HETATM   14  C13 UNL     1       2.606   0.319  -0.402  1.00  0.00    -0.011 C 
HETATM   15  C14 UNL     1       3.853   0.760  -1.174  1.00  0.00     0.032 C 
HETATM   16  C15 UNL     1       4.469   1.885  -0.372  1.00  0.00     0.232 C 
HETATM   17  N3  UNL     1       4.998   1.353   0.865  1.00  0.00    -0.075 N 
HETATM   18  C16 UNL     1       4.556   0.023   1.154  1.00  0.00     0.232 C 
ATOM     19  H32 UNL     1       6.017   1.403   0.872  1.00  0.00     0.277 HD
ATOM     20  H31 UNL     1       4.791   1.978   1.644  1.00  0.00     0.277 HD
HETATM   21  C17 UNL     1       3.075  -0.182   0.930  1.00  0.00     0.032 C 
ENDBRANCH  13  14
ENDBRANCH  12  13
ENDBRANCH  11  12
BRANCH   1  22
HETATM   22  C2  UNL     1      -2.025  -2.254  -0.432  1.00  0.00     0.032 C 
BRANCH  22  23
HETATM   23  C1  UNL     1      -3.106  -2.927   0.407  1.00  0.00     0.230 C 
BRANCH  23  24
HETATM   24  N1  UNL     1      -3.531  -4.129  -0.319  1.00  0.00    -0.079 N 
ATOM     25  H13 UNL     1      -3.830  -3.934  -1.275  1.00  0.00     0.274 HD
ATOM     26  H12 UNL     1      -2.757  -4.752  -0.548  1.00  0.00     0.274 HD
ATOM     27  H11 UNL     1      -4.254  -4.579   0.242  1.00  0.00     0.274 HD
ENDBRANCH  23  24
ENDBRANCH  22  23
ENDBRANCH   1  22
TORSDOF 6
