REMARK  9 active torsions:
REMARK  status: ('A' for Active; 'I' for Inactive)
REMARK    1  A    between atoms: C2_2  and  C3_3 
REMARK    2  A    between atoms: C3_3  and  C4_4 
REMARK    3  A    between atoms: C4_4  and  C5_5 
REMARK    4  A    between atoms: C5_5  and  N1_6 
REMARK    5  A    between atoms: N1_6  and  C6_8 
REMARK    6  A    between atoms: C6_8  and  N2_10 
REMARK    7  A    between atoms: N2_10  and  C7_12 
REMARK    8  A    between atoms: C7_12  and  C8_13 
REMARK    9  A    between atoms: C15_20  and  O1_21 
ROOT
HETATM    1  N2  UNL     1      -0.381  -0.093  -0.920  1.00  0.00    -0.366 N 
ATOM      2  H2  UNL     1      -0.889  -0.419  -1.743  1.00  0.00     0.161 HD
ENDROOT
BRANCH   1   3
HETATM    3  C6  UNL     1       1.038  -0.016  -0.926  1.00  0.00     0.167 C 
HETATM    4  S1  UNL     1       1.786  -0.449  -2.308  1.00  0.00    -0.041 SA
BRANCH   3   5
HETATM    5  N1  UNL     1       1.716   0.438   0.221  1.00  0.00    -0.367 N 
ATOM      6  H1  UNL     1       1.161   0.710   1.033  1.00  0.00     0.161 HD
BRANCH   5   7
HETATM    7  C5  UNL     1       3.148   0.540   0.312  1.00  0.00     0.122 C 
BRANCH   7   8
HETATM    8  C4  UNL     1       3.745  -0.838   0.362  1.00  0.00     0.020 C 
BRANCH   8   9
HETATM    9  C3  UNL     1       5.256  -0.799   0.461  1.00  0.00     0.001 C 
BRANCH   9  10
HETATM   10  C2  UNL     1       5.828  -0.090  -0.737  1.00  0.00    -0.004 C 
HETATM   11  C1  UNL     1       7.330  -0.053  -0.640  1.00  0.00     0.005 C 
ENDBRANCH   9  10
ENDBRANCH   8   9
ENDBRANCH   7   8
ENDBRANCH   5   7
ENDBRANCH   3   5
ENDBRANCH   1   3
BRANCH   1  12
HETATM   12  C7  UNL     1      -1.084   0.297   0.268  1.00  0.00     0.134 C 
BRANCH  12  13
HETATM   13  C8  UNL     1      -2.572   0.197   0.179  1.00  0.00     0.002 C 
HETATM   14  C9  UNL     1      -3.114   0.656   1.539  1.00  0.00     0.014 C 
HETATM   15  C10 UNL     1      -4.611   0.616   1.477  1.00  0.00     0.005 C 
HETATM   16  C11 UNL     1      -5.094   0.223   0.094  1.00  0.00    -0.012 C 
HETATM   17  C12 UNL     1      -4.534   1.272  -0.859  1.00  0.00     0.005 C 
HETATM   18  C14 UNL     1      -4.558  -1.142  -0.293  1.00  0.00     0.037 C 
HETATM   19  C13 UNL     1      -3.050   1.134  -0.903  1.00  0.00     0.014 C 
HETATM   20  C15 UNL     1      -3.069  -1.209  -0.030  1.00  0.00     0.128 C 
BRANCH  20  21
HETATM   21  O1  UNL     1      -2.821  -1.916   1.154  1.00  0.00    -0.395 OA
ATOM     22  H1  UNL     1      -3.135  -2.803   1.022  1.00  0.00     0.210 HD
ENDBRANCH  20  21
ENDBRANCH  12  13
ENDBRANCH   1  12
TORSDOF 9
