REMARK  7 active torsions:
REMARK  status: ('A' for Active; 'I' for Inactive)
REMARK       I    between atoms: C1_2  and  N1_3 
REMARK       I    between atoms: C1_2  and  N2_12 
REMARK    1  A    between atoms: N1_3  and  C2_5 
REMARK    2  A    between atoms: C2_5  and  C3_6 
REMARK    3  A    between atoms: C3_6  and  C4_7 
REMARK    4  A    between atoms: C4_7  and  C5_8 
REMARK    5  A    between atoms: C5_8  and  C6_9 
REMARK    6  A    between atoms: C6_9  and  O2_10 
REMARK    7  A    between atoms: N2_12  and  C7_14 
ROOT
HETATM    1  O1  UNL     1       0.639  -0.530   0.106  1.00  0.00    -0.247 OA
HETATM    2  C1  UNL     1       0.585   0.698   0.355  1.00  0.00     0.316 C 
HETATM    3  N1  UNL     1       1.787   1.392   0.520  1.00  0.00    -0.343 N 
ATOM      4  H1  UNL     1       1.725   2.389   0.726  1.00  0.00     0.164 HD
HETATM    5  N2  UNL     1      -0.654   1.330   0.460  1.00  0.00    -0.334 N 
ATOM      6  H2  UNL     1      -0.635   2.329   0.664  1.00  0.00     0.165 HD
ENDROOT
BRANCH   5   7
HETATM    7  C7  UNL     1      -1.956   0.734   0.313  1.00  0.00     0.035 C 
HETATM    8  C8  UNL     1      -3.047   1.776   0.504  1.00  0.00     0.035 C 
HETATM    9  C9  UNL     1      -4.392   1.181   0.244  1.00  0.00    -0.012 C 
HETATM   10  C10 UNL     1      -4.681  -0.014   1.133  1.00  0.00     0.009 C 
HETATM   11  C14 UNL     1      -4.511   0.715  -1.188  1.00  0.00     0.009 C 
HETATM   12  C11 UNL     1      -3.570  -1.004   0.923  1.00  0.00    -0.012 C 
HETATM   13  C12 UNL     1      -3.642  -1.502  -0.489  1.00  0.00     0.009 C 
HETATM   14  C16 UNL     1      -2.217  -0.413   1.246  1.00  0.00     0.035 C 
HETATM   15  C13 UNL     1      -3.455  -0.316  -1.418  1.00  0.00    -0.012 C 
HETATM   16  C15 UNL     1      -2.090   0.260  -1.119  1.00  0.00     0.035 C 
ENDBRANCH   5   7
BRANCH   3  17
HETATM   17  C2  UNL     1       3.112   0.817   0.424  1.00  0.00     0.124 C 
BRANCH  17  18
HETATM   18  C3  UNL     1       3.405   0.224  -0.905  1.00  0.00     0.020 C 
BRANCH  18  19
HETATM   19  C4  UNL     1       4.803  -0.331  -0.931  1.00  0.00     0.004 C 
BRANCH  19  20
HETATM   20  C5  UNL     1       4.977  -1.413   0.103  1.00  0.00     0.026 C 
BRANCH  20  21
HETATM   21  C6  UNL     1       6.436  -1.888  -0.067  1.00  0.00     0.164 C 
BRANCH  21  22
HETATM   22  O2  UNL     1       7.248  -0.775   0.166  1.00  0.00    -0.401 OA
ATOM     23  H2  UNL     1       8.146  -1.067   0.061  1.00  0.00     0.209 HD
ENDBRANCH  21  22
ENDBRANCH  20  21
ENDBRANCH  19  20
ENDBRANCH  18  19
ENDBRANCH  17  18
ENDBRANCH   3  17
TORSDOF 7
