REMARK  5 active torsions:
REMARK  status: ('A' for Active; 'I' for Inactive)
REMARK    1  A    between atoms: C4_4  and  C5_5 
REMARK    2  A    between atoms: C5_5  and  C6_6 
REMARK    3  A    between atoms: C9_10  and  O2_11 
REMARK    4  A    between atoms: N1_16  and  C13_17 
REMARK    5  A    between atoms: C13_17  and  C14_18 
ROOT
HETATM    1  C6  UNL     1      -0.543  -0.153   0.504  1.00  0.00     0.082 C 
HETATM    2  O1  UNL     1      -1.130  -1.444   0.413  1.00  0.00    -0.364 OA
HETATM    3  C7  UNL     1       0.059  -1.870  -0.165  1.00  0.00     0.096 C 
HETATM    4  C8  UNL     1      -0.069  -2.910  -1.241  1.00  0.00     0.050 C 
HETATM    5  C9  UNL     1       1.042  -2.268   0.875  1.00  0.00     0.153 C 
HETATM    6  C10 UNL     1       0.596  -1.569   2.167  1.00  0.00     0.044 C 
HETATM    7  C11 UNL     1       0.355  -0.145   1.752  1.00  0.00     0.042 C 
HETATM    8  C12 UNL     1       1.661   0.537   1.552  1.00  0.00     0.129 C 
HETATM    9  N1  UNL     1       1.778   1.013   0.228  1.00  0.00    -0.389 N 
HETATM   10  C16 UNL     1       1.601   0.051  -0.789  1.00  0.00     0.137 C 
HETATM   11  C17 UNL     1       0.169  -0.448  -0.719  1.00  0.00     0.037 C 
HETATM   12  C18 UNL     1      -0.549  -0.431  -2.024  1.00  0.00     0.023 C 
ENDROOT
BRANCH   1  13
HETATM   13  C5  UNL     1      -1.524   0.944   0.690  1.00  0.00     0.067 C 
BRANCH  13  14
HETATM   14  C4  UNL     1      -2.513   1.078  -0.372  1.00  0.00    -0.022 C 
HETATM   15  C2  UNL     1      -3.823   0.843  -0.190  1.00  0.00    -0.091 C 
HETATM   16  C1  UNL     1      -4.746   1.008  -1.338  1.00  0.00     0.042 C 
HETATM   17  C3  UNL     1      -4.320   0.428   1.130  1.00  0.00     0.042 C 
ENDBRANCH  13  14
ENDBRANCH   1  13
BRANCH   5  18
HETATM   18  O2  UNL     1       0.862  -3.634   1.117  1.00  0.00    -0.393 OA
ATOM     19  H2  UNL     1       1.491  -3.889   1.782  1.00  0.00     0.210 HD
ENDBRANCH   5  18
BRANCH   9  20
HETATM   20  C13 UNL     1       2.575   2.140  -0.028  1.00  0.00     0.092 C 
BRANCH  20  21
HETATM   21  C14 UNL     1       4.041   1.956   0.172  1.00  0.00     0.183 A 
HETATM   22  C15 UNL     1       4.901   2.022  -1.032  1.00  0.00     0.206 A 
HETATM   23  O3  UNL     1       4.846   3.121  -0.103  1.00  0.00    -0.376 OA
ENDBRANCH  20  21
ENDBRANCH   9  20
TORSDOF 5
