REMARK  5 active torsions:
REMARK  status: ('A' for Active; 'I' for Inactive)
REMARK    1  A    between atoms: C2_2  and  N1_3 
REMARK    2  A    between atoms: N1_3  and  C3_5 
REMARK    3  A    between atoms: C4_6  and  C5_7 
REMARK       I    between atoms: C5_7  and  N2_9 
REMARK    4  A    between atoms: C11_17  and  O2_18 
REMARK    5  A    between atoms: C13_20  and  O3_21 
ROOT
HETATM    1  C3  UNL     1       0.474   0.035   0.482  1.00  0.00     0.058 A 
HETATM    2  C4  UNL     1       1.474   0.972   0.359  1.00  0.00     0.074 A 
HETATM    3  C8  UNL     1       1.137   2.263  -0.049  1.00  0.00     0.107 A 
HETATM    4  N3  UNL     1      -0.139   2.583  -0.316  1.00  0.00    -0.364 N 
ATOM      5  H3  UNL     1      -0.357   3.534  -0.612  1.00  0.00     0.165 HD
HETATM    6  C9  UNL     1      -1.137   1.693  -0.206  1.00  0.00     0.047 A 
HETATM    7  C10 UNL     1      -2.452   2.016  -0.480  1.00  0.00     0.070 A 
HETATM    8  C11 UNL     1      -3.488   1.094  -0.366  1.00  0.00     0.103 A 
HETATM    9  C13 UNL     1      -3.174  -0.180   0.034  1.00  0.00     0.102 A 
HETATM   10  C15 UNL     1      -1.878  -0.522   0.310  1.00  0.00     0.055 A 
HETATM   11  C16 UNL     1      -0.851   0.423   0.189  1.00  0.00     0.021 A 
ENDROOT
BRANCH   2  12
HETATM   12  C5  UNL     1       2.889   0.714   0.640  1.00  0.00     0.256 C 
HETATM   13  O1  UNL     1       3.330   0.932   1.823  1.00  0.00    -0.267 OA
HETATM   14  N2  UNL     1       3.758   0.238  -0.365  1.00  0.00    -0.357 N 
HETATM   15  C6  UNL     1       3.216   0.009  -1.690  1.00  0.00     0.152 C 
HETATM   16  C7  UNL     1       5.152  -0.038  -0.164  1.00  0.00     0.152 C 
ENDBRANCH   2  12
BRANCH   1  17
HETATM   17  N1  UNL     1       0.644  -1.139   0.824  1.00  0.00    -0.389 N 
ATOM     18  H1  UNL     1      -0.269  -1.594   0.826  1.00  0.00     0.159 HD
BRANCH  17  19
HETATM   19  C2  UNL     1       1.574  -2.077   1.203  1.00  0.00     0.115 C 
HETATM   20  C1  UNL     1       1.819  -3.166   0.130  1.00  0.00     0.026 C 
ENDBRANCH  17  19
ENDBRANCH   1  17
BRANCH   9  21
HETATM   21  O3  UNL     1      -4.161  -1.141   0.166  1.00  0.00    -0.353 OA
HETATM   22  C14 UNL     1      -3.895  -2.458   0.571  1.00  0.00     0.210 C 
ENDBRANCH   9  21
BRANCH   8  23
HETATM   23  O2  UNL     1      -4.797   1.407  -0.635  1.00  0.00    -0.353 OA
HETATM   24  C12 UNL     1      -5.114   2.722  -1.047  1.00  0.00     0.210 C 
ENDBRANCH   8  23
TORSDOF 5
