REMARK  11 active torsions:
REMARK  status: ('A' for Active; 'I' for Inactive)
REMARK    1  A    between atoms: N1_1  and  C1_4 
REMARK    2  A    between atoms: C2_7  and  N3_8 
REMARK    3  A    between atoms: N3_8  and  C3_10 
REMARK    4  A    between atoms: C3_10  and  C4_11 
REMARK    5  A    between atoms: C4_11  and  N4_12 
REMARK    6  A    between atoms: N4_12  and  C5_15 
REMARK    7  A    between atoms: C5_15  and  C6_16 
REMARK    8  A    between atoms: C6_16  and  C7_17 
REMARK    9  A    between atoms: C7_17  and  N5_18 
REMARK   10  A    between atoms: C9_25  and  N7_26 
REMARK   11  A    between atoms: N7_26  and  O1_30 
ROOT
HETATM    1  C1  UNL     1      -3.069   0.355  -2.607  1.00  0.00     0.678 A 
HETATM    2  N2  UNL     1      -1.843   0.265  -2.070  1.00  0.00    -0.175 N 
ATOM      3  H2  UNL     1      -1.037   0.482  -2.656  1.00  0.00     0.186 HD
HETATM    4  C2  UNL     1      -1.629  -0.098  -0.796  1.00  0.00     0.146 A 
HETATM    5  C8  UNL     1      -2.748  -0.390  -0.015  1.00  0.00     0.124 A 
HETATM    6  N6  UNL     1      -2.548  -0.754   1.261  1.00  0.00    -0.182 N 
ATOM      7  H6  UNL     1      -1.594  -0.805   1.617  1.00  0.00     0.184 HD
HETATM    8  C9  UNL     1      -3.569  -1.053   2.084  1.00  0.00     0.726 A 
HETATM    9  N9  UNL     1      -4.801  -0.972   1.574  1.00  0.00    -0.171 N 
ATOM     10  H9  UNL     1      -5.586  -1.196   2.186  1.00  0.00     0.186 HD
HETATM   11  C10 UNL     1      -5.079  -0.609   0.286  1.00  0.00     0.144 A 
HETATM   12  N10 UNL     1      -6.264  -0.550  -0.141  1.00  0.00    -0.383 N 
ATOM     13 1H10 UNL     1      -6.471  -0.279  -1.102  1.00  0.00     0.157 HD
ATOM     14 2H10 UNL     1      -7.041  -0.776   0.480  1.00  0.00     0.157 HD
HETATM   15  C11 UNL     1      -4.026  -0.302  -0.556  1.00  0.00     0.124 A 
HETATM   16  N11 UNL     1      -4.159   0.067  -1.836  1.00  0.00    -0.186 N 
ATOM     17  H11 UNL     1      -5.092   0.134  -2.243  1.00  0.00     0.184 HD
ENDROOT
BRANCH   4  18
HETATM   18  N3  UNL     1      -0.495  -0.192  -0.248  1.00  0.00    -0.372 N 
ATOM     19  H3  UNL     1      -0.516  -0.480   0.730  1.00  0.00     0.161 HD
BRANCH  18  20
HETATM   20  C3  UNL     1       0.804   0.038  -0.771  1.00  0.00     0.148 C 
BRANCH  20  21
HETATM   21  C4  UNL     1       1.630   0.750   0.298  1.00  0.00     0.251 C 
BRANCH  21  22
HETATM   22  N4  UNL     1       2.967   1.036  -0.096  1.00  0.00    -0.074 N 
ATOM     23  H42 UNL     1       2.978   1.599  -0.946  1.00  0.00     0.277 HD
ATOM     24  H41 UNL     1       3.399   1.695   0.552  1.00  0.00     0.277 HD
BRANCH  22  25
HETATM   25  C5  UNL     1       3.792  -0.135  -0.253  1.00  0.00     0.234 C 
BRANCH  25  26
HETATM   26  C6  UNL     1       5.184   0.324  -0.642  1.00  0.00     0.055 C 
BRANCH  26  27
HETATM   27  C7  UNL     1       5.779   1.225   0.424  1.00  0.00     0.231 C 
BRANCH  27  28
HETATM   28  N5  UNL     1       5.874   0.530   1.693  1.00  0.00    -0.079 N 
ATOM     29  H53 UNL     1       4.974   0.148   1.982  1.00  0.00     0.274 HD
ATOM     30  H52 UNL     1       6.392  -0.344   1.606  1.00  0.00     0.274 HD
ATOM     31  H51 UNL     1       6.274   1.136   2.410  1.00  0.00     0.274 HD
ENDBRANCH  27  28
ENDBRANCH  26  27
ENDBRANCH  25  26
ENDBRANCH  22  25
ENDBRANCH  21  22
ENDBRANCH  20  21
ENDBRANCH  18  20
ENDBRANCH   4  18
BRANCH   1  32
HETATM   32  N1  UNL     1      -3.264   0.710  -3.848  1.00  0.00    -0.234 N 
ATOM     33  H12 UNL     1      -2.450   0.925  -4.424  1.00  0.00     0.174 HD
ATOM     34  H11 UNL     1      -4.196   0.778  -4.256  1.00  0.00     0.174 HD
ENDBRANCH   1  32
BRANCH   8  35
HETATM   35  N7  UNL     1      -3.340  -1.441   3.447  1.00  0.00     0.009 N 
HETATM   36  N8  UNL     1      -2.185  -1.529   3.946  1.00  0.00    -0.304 N 
ATOM     37  H82 UNL     1      -1.373  -1.318   3.366  1.00  0.00     0.180 HD
ATOM     38  H81 UNL     1      -2.022  -1.805   4.914  1.00  0.00     0.180 HD
BRANCH  35  39
HETATM   39  O1  UNL     1      -4.423  -1.723   4.221  1.00  0.00    -0.255 OA
ATOM     40  H1  UNL     1      -4.271  -1.980   5.123  1.00  0.00     0.247 HD
ENDBRANCH  35  39
ENDBRANCH   8  35
TORSDOF 11
