REMARK  10 active torsions:
REMARK  status: ('A' for Active; 'I' for Inactive)
REMARK    1  A    between atoms: N1_1  and  C1_5 
REMARK    2  A    between atoms: C1_5  and  C2_6 
REMARK    3  A    between atoms: C2_6  and  C3_7 
REMARK    4  A    between atoms: C3_7  and  C4_8 
REMARK    5  A    between atoms: C4_8  and  N2_9 
REMARK    6  A    between atoms: C4_8  and  C6_20 
REMARK       I    between atoms: N2_9  and  C5_11 
REMARK       I    between atoms: C5_11  and  N3_12 
REMARK       I    between atoms: C5_11  and  N4_16 
REMARK    7  A    between atoms: C6_20  and  O1_21 
REMARK    8  A    between atoms: C6_20  and  N5_23 
REMARK    9  A    between atoms: N5_23  and  C7_25 
REMARK   10  A    between atoms: C10_28  and  N6_29 
ROOT
HETATM    1  C4  UNL     1      -1.250  -0.605   0.388  1.00  0.00     0.128 C 
ENDROOT
BRANCH   1   2
HETATM    2  C3  UNL     1      -1.544   0.446  -0.658  1.00  0.00     0.031 C 
BRANCH   2   3
HETATM    3  C2  UNL     1      -1.956   1.728   0.034  1.00  0.00     0.029 C 
BRANCH   3   4
HETATM    4  C1  UNL     1      -2.259   2.818  -0.991  1.00  0.00     0.230 C 
BRANCH   4   5
HETATM    5  N1  UNL     1      -2.654   4.045  -0.326  1.00  0.00    -0.079 N 
ATOM      6  H13 UNL     1      -3.436   3.896   0.312  1.00  0.00     0.274 HD
ATOM      7  H12 UNL     1      -1.958   4.348   0.355  1.00  0.00     0.274 HD
ATOM      8  H11 UNL     1      -2.856   4.773  -1.011  1.00  0.00     0.274 HD
ENDBRANCH   4   5
ENDBRANCH   3   4
ENDBRANCH   2   3
ENDBRANCH   1   2
BRANCH   1   9
HETATM    9  N2  UNL     1      -2.297  -0.937   1.230  1.00  0.00    -0.366 N 
HETATM   10  C5  UNL     1      -3.497  -1.508   0.807  1.00  0.00     0.476 C 
HETATM   11  N3  UNL     1      -4.391  -1.535   1.995  1.00  0.00    -0.033 N 
HETATM   12  N4  UNL     1      -3.468  -2.875   0.358  1.00  0.00    -0.033 N 
ATOM     13  H33 UNL     1      -3.980  -2.008   2.800  1.00  0.00     0.278 HD
ATOM     14  H32 UNL     1      -4.510  -0.621   2.432  1.00  0.00     0.278 HD
ATOM     15  H31 UNL     1      -5.269  -1.953   1.686  1.00  0.00     0.278 HD
ATOM     16  H43 UNL     1      -2.772  -2.971  -0.381  1.00  0.00     0.278 HD
ATOM     17  H42 UNL     1      -3.057  -3.459   1.086  1.00  0.00     0.278 HD
ATOM     18  H41 UNL     1      -4.346  -3.293   0.049  1.00  0.00     0.278 HD
ATOM     19  H2  UNL     1      -2.183  -0.752   2.227  1.00  0.00     0.157 HD
ENDBRANCH   1   9
BRANCH   1  20
HETATM   20  C6  UNL     1      -0.657  -1.791  -0.328  1.00  0.00     0.240 C 
BRANCH  20  21
HETATM   21  O1  UNL     1      -0.192  -2.721   0.575  1.00  0.00    -0.375 OA
ATOM     22  H1  UNL     1       0.182  -3.469   0.124  1.00  0.00     0.212 HD
ENDBRANCH  20  21
BRANCH  20  23
HETATM   23  N5  UNL     1       0.418  -1.408  -1.223  1.00  0.00    -0.362 N 
ATOM     24  H5  UNL     1       0.289  -1.560  -2.223  1.00  0.00     0.162 HD
BRANCH  23  25
HETATM   25  C7  UNL     1       1.632  -0.837  -0.787  1.00  0.00     0.030 A 
HETATM   26  C8  UNL     1       2.103  -0.824   0.490  1.00  0.00     0.031 A 
HETATM   27  C9  UNL     1       3.309  -0.215   0.821  1.00  0.00     0.034 A 
HETATM   28  C10 UNL     1       4.085   0.404  -0.122  1.00  0.00     0.059 A 
HETATM   29  C12 UNL     1       3.617   0.396  -1.416  1.00  0.00     0.034 A 
HETATM   30  C13 UNL     1       2.430  -0.201  -1.755  1.00  0.00     0.031 A 
BRANCH  28  31
HETATM   31  N6  UNL     1       5.334   1.037   0.216  1.00  0.00    -0.235 N 
HETATM   32  C11 UNL     1       6.538   0.474   0.219  1.00  0.00     0.226 A 
HETATM   33  N7  UNL     1       7.407   1.437   0.598  1.00  0.00    -0.279 N 
HETATM   34  N8  UNL     1       6.751   2.551   0.818  1.00  0.00    -0.227 N 
ATOM     35  H7  UNL     1       8.415   1.316   0.697  1.00  0.00     0.189 HD
HETATM   36  N9  UNL     1       5.480   2.302   0.583  1.00  0.00    -0.220 N 
ATOM     37  H8  UNL     1       7.150   3.442   1.115  1.00  0.00     0.210 HD
ATOM     38  H9  UNL     1       4.723   2.980   0.670  1.00  0.00     0.210 HD
ENDBRANCH  28  31
ENDBRANCH  23  25
ENDBRANCH  20  23
ENDBRANCH   1  20
TORSDOF 10
