REMARK  13 active torsions:
REMARK  status: ('A' for Active; 'I' for Inactive)
REMARK    1  A    between atoms: N1_1  and  C1_4 
REMARK    2  A    between atoms: C2_7  and  N3_8 
REMARK    3  A    between atoms: N3_8  and  C3_10 
REMARK    4  A    between atoms: C3_10  and  C4_11 
REMARK    5  A    between atoms: C4_11  and  C5_12 
REMARK    6  A    between atoms: C5_12  and  N4_13 
REMARK    7  A    between atoms: N4_13  and  C6_15 
REMARK    8  A    between atoms: C6_15  and  C7_16 
REMARK    9  A    between atoms: C7_16  and  C8_17 
REMARK   10  A    between atoms: C8_17  and  N5_18 
REMARK   11  A    between atoms: N6_22  and  N7_23 
REMARK   12  A    between atoms: C10_29  and  N9_30 
REMARK   13  A    between atoms: N10_32  and  N11_34 
ROOT
HETATM    1  C1  UNL     1       3.215   0.105   1.651  1.00  0.00     0.146 A 
HETATM    2  N2  UNL     1       1.940   0.167   1.209  1.00  0.00    -0.173 N 
ATOM      3  H2  UNL     1       1.237   0.559   1.835  1.00  0.00     0.186 HD
HETATM    4  C2  UNL     1       1.541  -0.252   0.005  1.00  0.00     0.702 A 
HETATM    5  N6  UNL     1       2.472  -0.781  -0.841  1.00  0.00    -0.073 N 
HETATM    6  C9  UNL     1       3.753  -0.863  -0.444  1.00  0.00     0.191 A 
HETATM    7  N8  UNL     1       4.875  -1.327  -1.040  1.00  0.00    -0.170 N 
ATOM      8  H8  UNL     1       4.913  -1.722  -1.979  1.00  0.00     0.186 HD
HETATM    9  C10 UNL     1       5.944  -1.193  -0.213  1.00  0.00     0.700 A 
HETATM   10  N12 UNL     1       5.488  -0.643   0.902  1.00  0.00    -0.183 N 
ATOM     11  H12 UNL     1       6.058  -0.415   1.717  1.00  0.00     0.184 HD
HETATM   12  C11 UNL     1       4.157  -0.427   0.803  1.00  0.00     0.140 A 
ENDROOT
BRANCH   4  13
HETATM   13  N3  UNL     1       0.313  -0.183  -0.434  1.00  0.00    -0.224 N 
ATOM     14  H3  UNL     1       0.085  -0.525  -1.368  1.00  0.00     0.177 HD
BRANCH  13  15
HETATM   15  C3  UNL     1      -0.717   0.374   0.397  1.00  0.00     0.139 C 
BRANCH  15  16
HETATM   16  C4  UNL     1      -1.770   0.997  -0.539  1.00  0.00     0.039 C 
BRANCH  16  17
HETATM   17  C5  UNL     1      -2.862   1.608   0.349  1.00  0.00     0.115 C 
BRANCH  17  18
HETATM   18  N4  UNL     1      -3.468   0.585   1.102  1.00  0.00    -0.421 N 
ATOM     19  H4  UNL     1      -3.333   0.505   2.110  1.00  0.00     0.153 HD
BRANCH  18  20
HETATM   20  C6  UNL     1      -4.285  -0.337   0.371  1.00  0.00     0.115 C 
BRANCH  20  21
HETATM   21  C7  UNL     1      -5.553   0.320  -0.140  1.00  0.00     0.046 C 
BRANCH  21  22
HETATM   22  C8  UNL     1      -6.439  -0.590  -0.927  1.00  0.00     0.231 C 
BRANCH  22  23
HETATM   23  N5  UNL     1      -7.606   0.214  -1.328  1.00  0.00    -0.079 N 
ATOM     24  H53 UNL     1      -8.079   0.661  -0.543  1.00  0.00     0.274 HD
ATOM     25  H52 UNL     1      -7.357   1.068  -1.827  1.00  0.00     0.274 HD
ATOM     26  H51 UNL     1      -8.211  -0.407  -1.865  1.00  0.00     0.274 HD
ENDBRANCH  22  23
ENDBRANCH  21  22
ENDBRANCH  20  21
ENDBRANCH  18  20
ENDBRANCH  17  18
ENDBRANCH  16  17
ENDBRANCH  15  16
ENDBRANCH  13  15
ENDBRANCH   4  13
BRANCH   5  27
HETATM   27  N7  UNL     1       2.129  -1.250  -2.124  1.00  0.00    -0.322 N 
ATOM     28  H72 UNL     1       1.157  -1.188  -2.425  1.00  0.00     0.178 HD
ATOM     29  H71 UNL     1       2.825  -1.645  -2.756  1.00  0.00     0.178 HD
ENDBRANCH   5  27
BRANCH   1  30
HETATM   30  N1  UNL     1       3.502   0.529   2.812  1.00  0.00    -0.383 N 
ATOM     31  H12 UNL     1       2.803   0.924   3.441  1.00  0.00     0.157 HD
ATOM     32  H11 UNL     1       4.465   0.482   3.146  1.00  0.00     0.157 HD
ENDBRANCH   1  30
BRANCH   9  33
HETATM   33  N9  UNL     1       7.276  -1.596  -0.555  1.00  0.00    -0.118 N 
HETATM   34  N10 UNL     1       8.281  -0.871  -0.536  1.00  0.00    -0.235 N 
ATOM     35  H10 UNL     1       9.165  -1.303  -0.804  1.00  0.00     0.208 HD
ATOM     36  H9  UNL     1       7.409  -2.566  -0.840  1.00  0.00     0.207 HD
BRANCH  34  37
HETATM   37  N11 UNL     1       8.319   0.456  -0.189  1.00  0.00    -0.330 N 
ATOM     38 2H11 UNL     1       7.425   0.870   0.076  1.00  0.00     0.178 HD
ATOM     39 1H11 UNL     1       9.146   1.053  -0.173  1.00  0.00     0.178 HD
ENDBRANCH  34  37
ENDBRANCH   9  33
TORSDOF 13
