REMARK  10 active torsions:
REMARK  status: ('A' for Active; 'I' for Inactive)
REMARK    1  A    between atoms: C2_2  and  C3_3 
REMARK    2  A    between atoms: C3_3  and  N1_4 
REMARK    3  A    between atoms: C4_9  and  C5_10 
REMARK    4  A    between atoms: C5_10  and  N4_11 
REMARK    5  A    between atoms: N4_11  and  C6_13 
REMARK    6  A    between atoms: C6_13  and  C7_14 
REMARK    7  A    between atoms: C7_14  and  C8_15 
REMARK    8  A    between atoms: C8_15  and  N5_16 
REMARK    9  A    between atoms: N5_16  and  C9_18 
REMARK   10  A    between atoms: C10_21  and  N7_22 
ROOT
HETATM    1  C8  UNL     1      -2.509  -1.266  -0.445  1.00  0.00     0.128 C 
ENDROOT
BRANCH   1   2
HETATM    2  C7  UNL     1      -1.718  -2.446  -0.972  1.00  0.00     0.064 C 
BRANCH   2   3
HETATM    3  C6  UNL     1      -0.575  -2.651  -0.048  1.00  0.00     0.057 C 
BRANCH   3   4
HETATM    4  N4  UNL     1       0.448  -1.764   0.143  1.00  0.00    -0.395 N 
ATOM      5  H4  UNL     1       0.465  -1.189   0.985  1.00  0.00     0.159 HD
BRANCH   4   6
HETATM    6  C5  UNL     1       1.484  -1.633  -0.813  1.00  0.00     0.198 C 
BRANCH   6   7
HETATM    7  C4  UNL     1       2.451  -0.627  -0.406  1.00  0.00     0.131 A 
HETATM    8  N3  UNL     1       2.493  -0.239   1.089  1.00  0.00    -0.271 N 
HETATM    9  N2  UNL     1       3.475   0.574   1.129  1.00  0.00    -0.225 N 
ATOM     10  H3  UNL     1       1.890  -0.553   1.849  1.00  0.00     0.190 HD
HETATM   11  N1  UNL     1       4.088   0.800  -0.037  1.00  0.00    -0.218 N 
ATOM     12  H2  UNL     1       3.773   1.023   1.995  1.00  0.00     0.210 HD
HETATM   13  N11 UNL     1       3.408   0.062  -0.784  1.00  0.00    -0.269 N 
ATOM     14  H11 UNL     1       3.659   0.025  -1.772  1.00  0.00     0.190 HD
BRANCH  11  15
HETATM   15  C3  UNL     1       5.266   1.650  -0.217  1.00  0.00     0.171 C 
BRANCH  15  16
HETATM   16  C2  UNL     1       6.420   0.663  -0.163  1.00  0.00     0.019 C 
HETATM   17  C1  UNL     1       7.762   1.276  -0.316  1.00  0.00     0.007 C 
ENDBRANCH  15  16
ENDBRANCH  11  15
ENDBRANCH   6   7
ENDBRANCH   4   6
ENDBRANCH   3   4
ENDBRANCH   2   3
ENDBRANCH   1   2
BRANCH   1  18
HETATM   18  N5  UNL     1      -3.819  -1.125  -0.986  1.00  0.00    -0.361 N 
ATOM     19  H5  UNL     1      -4.217  -1.784  -1.655  1.00  0.00     0.162 HD
BRANCH  18  20
HETATM   20  C9  UNL     1      -4.506  -0.013  -0.524  1.00  0.00     0.208 A 
HETATM   21  N6  UNL     1      -3.765   0.736   0.379  1.00  0.00    -0.160 N 
HETATM   22  C10 UNL     1      -4.599   1.728   1.012  1.00  0.00     0.693 A 
ATOM     23  H6  UNL     1      -2.771   0.604   0.568  1.00  0.00     0.187 HD
HETATM   24  N8  UNL     1      -5.867   1.888   0.743  1.00  0.00    -0.023 N 
HETATM   25  C11 UNL     1      -6.509   1.122  -0.148  1.00  0.00     0.693 A 
ATOM     26  H8  UNL     1      -6.385   2.621   1.228  1.00  0.00     0.203 HD
HETATM   27  N9  UNL     1      -7.722   1.124  -0.435  1.00  0.00    -0.234 N 
HETATM   28  N10 UNL     1      -5.678   0.158  -0.753  1.00  0.00    -0.160 N 
ATOM     29  H92 UNL     1      -8.323   1.822   0.003  1.00  0.00     0.174 HD
ATOM     30  H91 UNL     1      -8.211   0.540  -1.114  1.00  0.00     0.174 HD
ATOM     31  H10 UNL     1      -6.107  -0.452  -1.449  1.00  0.00     0.187 HD
BRANCH  22  32
HETATM   32  N7  UNL     1      -4.031   2.435   1.841  1.00  0.00    -0.234 N 
ATOM     33  H72 UNL     1      -3.041   2.310   2.051  1.00  0.00     0.174 HD
ATOM     34  H71 UNL     1      -4.621   3.137   2.289  1.00  0.00     0.174 HD
ENDBRANCH  22  32
ENDBRANCH  18  20
ENDBRANCH   1  18
TORSDOF 10
