REMARK  10 active torsions:
REMARK  status: ('A' for Active; 'I' for Inactive)
REMARK    1  A    between atoms: C2_2  and  C3_3 
REMARK    2  A    between atoms: C3_3  and  N1_5 
REMARK       I    between atoms: N1_5  and  C5_7 
REMARK    3  A    between atoms: C5_7  and  C6_9 
REMARK    4  A    between atoms: C8_13  and  O2_14 
REMARK    5  A    between atoms: C9_16  and  C10_17 
REMARK    6  A    between atoms: C10_17  and  C11_18 
REMARK    7  A    between atoms: C15_23  and  O3_24 
REMARK    8  A    between atoms: C16_26  and  C17_27 
REMARK    9  A    between atoms: C21_34  and  C22_35 
REMARK   10  A    between atoms: C22_35  and  C23_36 
ROOT
HETATM    1  C6  UNL     1      -0.790   1.046  -0.571  1.00  0.00     0.188 C 
HETATM    2  C7  UNL     1      -0.601   0.812   0.870  1.00  0.00     0.156 C 
HETATM    3  N2  UNL     1       0.701   0.930   1.438  1.00  0.00    -0.367 N 
ATOM      4  H2  UNL     1       0.720   1.633   2.177  1.00  0.00     0.161 HD
HETATM    5  C8  UNL     1       1.958   0.348   1.261  1.00  0.00     0.159 C 
HETATM    6  C9  UNL     1       2.970   0.412   0.218  1.00  0.00     0.064 C 
HETATM    7  N3  UNL     1       3.279  -0.683  -0.652  1.00  0.00    -0.330 N 
HETATM    8  C14 UNL     1       4.743  -0.686  -1.063  1.00  0.00     0.158 C 
HETATM    9  C15 UNL     1       2.582  -1.723  -1.261  1.00  0.00     0.166 C 
HETATM   10  C16 UNL     1       1.932  -3.000  -0.923  1.00  0.00     0.067 C 
HETATM   11  N4  UNL     1       0.720  -3.168  -1.663  1.00  0.00    -0.325 N 
ATOM     12  H4  UNL     1       0.605  -4.103  -2.054  1.00  0.00     0.169 HD
HETATM   13  C20 UNL     1      -0.331  -2.307  -1.953  1.00  0.00     0.244 C 
HETATM   14  O4  UNL     1      -0.778  -2.242  -3.126  1.00  0.00    -0.271 OA
HETATM   15  C21 UNL     1      -1.020  -1.399  -0.965  1.00  0.00     0.171 C 
HETATM   16  N5  UNL     1      -0.966  -0.049  -1.386  1.00  0.00    -0.396 N 
ATOM     17  H5  UNL     1      -1.067   0.129  -2.385  1.00  0.00     0.155 HD
ENDROOT
BRANCH   1  18
HETATM   18  C5  UNL     1      -2.039   1.909  -0.740  1.00  0.00     0.242 C 
HETATM   19  N1  UNL     1      -2.071   3.101   0.011  1.00  0.00    -0.355 N 
ATOM     20  H1  UNL     1      -1.278   3.322   0.614  1.00  0.00     0.162 HD
HETATM   21  O1  UNL     1      -2.978   1.580  -1.498  1.00  0.00    -0.271 OA
BRANCH  19  22
HETATM   22  C3  UNL     1      -3.194   4.031  -0.040  1.00  0.00     0.080 C 
HETATM   23  C4  UNL     1      -2.746   5.400  -0.481  1.00  0.00     0.032 C 
BRANCH  22  24
HETATM   24  C2  UNL     1      -3.815   4.043   1.330  1.00  0.00     0.020 C 
HETATM   25  C1  UNL     1      -5.030   4.932   1.396  1.00  0.00     0.007 C 
ENDBRANCH  22  24
ENDBRANCH  19  22
ENDBRANCH   1  18
BRANCH  15  26
HETATM   26  C22 UNL     1      -2.478  -1.709  -0.805  1.00  0.00     0.043 C 
BRANCH  26  27
HETATM   27  C23 UNL     1      -2.926  -3.009  -0.326  1.00  0.00    -0.049 C 
HETATM   28  C24 UNL     1      -2.430  -3.440   1.012  1.00  0.00     0.014 C 
HETATM   29  C25 UNL     1      -4.491  -2.914  -0.102  1.00  0.00     0.014 C 
HETATM   30  C26 UNL     1      -2.804  -4.115  -1.322  1.00  0.00     0.014 C 
ENDBRANCH  26  27
ENDBRANCH  15  26
BRANCH   5  31
HETATM   31  O2  UNL     1       2.300  -0.429   2.280  1.00  0.00    -0.345 OA
ATOM     32  H2  UNL     1       3.155  -0.825   2.160  1.00  0.00     0.219 HD
ENDBRANCH   5  31
BRANCH   6  33
HETATM   33  C10 UNL     1       3.087   1.774  -0.458  1.00  0.00     0.065 C 
BRANCH  33  34
HETATM   34  C11 UNL     1       3.446   2.859   0.568  1.00  0.00    -0.017 C 
HETATM   35  C12 UNL     1       4.739   2.608   1.261  1.00  0.00     0.010 C 
HETATM   36  C13 UNL     1       3.360   4.224  -0.025  1.00  0.00     0.010 C 
ENDBRANCH  33  34
ENDBRANCH   6  33
BRANCH  10  37
HETATM   37  C17 UNL     1       1.893  -3.452   0.485  1.00  0.00     0.032 C 
HETATM   38  C18 UNL     1       1.167  -4.813   0.482  1.00  0.00     0.016 C 
HETATM   39  C19 UNL     1       3.250  -3.710   1.031  1.00  0.00     0.016 C 
ENDBRANCH  10  37
BRANCH   9  40
HETATM   40  O3  UNL     1       2.433  -1.551  -2.580  1.00  0.00    -0.344 OA
ATOM     41  H3  UNL     1       1.957  -2.261  -2.996  1.00  0.00     0.219 HD
ENDBRANCH   9  40
TORSDOF 10
