REMARK  9 active torsions:
REMARK  status: ('A' for Active; 'I' for Inactive)
REMARK    1  A    between atoms: C2_2  and  C3_3 
REMARK    2  A    between atoms: C3_3  and  C4_4 
REMARK    3  A    between atoms: C4_4  and  C5_5 
REMARK    4  A    between atoms: C10_16  and  C11_17 
REMARK    5  A    between atoms: C11_17  and  C12_18 
REMARK    6  A    between atoms: C15_23  and  O3_24 
REMARK    7  A    between atoms: C16_26  and  C17_27 
REMARK    8  A    between atoms: C21_34  and  C22_35 
REMARK    9  A    between atoms: C25_40  and  O5_41 
ROOT
HETATM    1  C5  UNL     1      -3.430  -1.316  -0.802  1.00  0.00     0.082 C 
HETATM    2  N1  UNL     1      -2.819  -2.595  -0.959  1.00  0.00    -0.322 N 
ATOM      3  H1  UNL     1      -3.385  -3.368  -0.610  1.00  0.00     0.169 HD
HETATM    4  C6  UNL     1      -1.598  -2.989  -1.497  1.00  0.00     0.244 C 
HETATM    5  O1  UNL     1      -1.582  -4.089  -2.165  1.00  0.00    -0.271 OA
HETATM    6  C7  UNL     1      -0.271  -2.333  -1.427  1.00  0.00     0.172 C 
HETATM    7  C8  UNL     1       0.398  -2.550  -2.800  1.00  0.00     0.042 C 
HETATM    8  N2  UNL     1       0.575  -2.992  -0.453  1.00  0.00    -0.346 N 
ATOM      9  H2  UNL     1       0.279  -3.925  -0.167  1.00  0.00     0.163 HD
HETATM   10  C9  UNL     1       1.741  -2.515   0.144  1.00  0.00     0.241 C 
HETATM   11  O2  UNL     1       2.722  -3.301   0.253  1.00  0.00    -0.271 OA
HETATM   12  C10 UNL     1       1.949  -1.119   0.686  1.00  0.00     0.176 C 
HETATM   13  N3  UNL     1       0.745  -0.714   1.352  1.00  0.00    -0.356 N 
ATOM     14  H3  UNL     1      -0.069  -1.283   1.122  1.00  0.00     0.162 HD
HETATM   15  C15 UNL     1       0.480   0.323   2.264  1.00  0.00     0.160 C 
HETATM   16  C16 UNL     1       0.428   1.768   2.068  1.00  0.00     0.066 C 
HETATM   17  N4  UNL     1      -0.350   2.431   1.339  1.00  0.00    -0.325 N 
ATOM     18  H4  UNL     1      -0.094   3.413   1.447  1.00  0.00     0.169 HD
HETATM   19  C20 UNL     1      -1.390   2.386   0.467  1.00  0.00     0.245 C 
HETATM   20  O4  UNL     1      -2.562   2.863   0.574  1.00  0.00    -0.271 OA
HETATM   21  C21 UNL     1      -1.217   1.699  -0.827  1.00  0.00     0.179 C 
HETATM   22  N5  UNL     1      -2.351   1.029  -1.381  1.00  0.00    -0.355 N 
ATOM     23  H5  UNL     1      -3.037   1.713  -1.701  1.00  0.00     0.162 HD
HETATM   24  C25 UNL     1      -2.810  -0.237  -1.619  1.00  0.00     0.163 C 
ENDROOT
BRANCH   1  25
HETATM   25  C4  UNL     1      -4.060  -0.942   0.462  1.00  0.00     0.007 C 
BRANCH  25  26
HETATM   26  C3  UNL     1      -3.357  -0.904   1.744  1.00  0.00     0.029 C 
BRANCH  26  27
HETATM   27  C2  UNL     1      -2.859  -2.235   2.199  1.00  0.00    -0.001 C 
HETATM   28  C1  UNL     1      -3.974  -3.236   2.411  1.00  0.00     0.005 C 
ENDBRANCH  26  27
ENDBRANCH  25  26
ENDBRANCH   1  25
BRANCH  24  29
HETATM   29  O5  UNL     1      -2.715  -0.669  -2.845  1.00  0.00    -0.345 OA
ATOM     30  H5  UNL     1      -2.319   0.020  -3.366  1.00  0.00     0.219 HD
ENDBRANCH  24  29
BRANCH  21  31
HETATM   31  C22 UNL     1      -0.812   2.792  -1.856  1.00  0.00     0.009 C 
HETATM   32  C23 UNL     1       0.452   3.480  -1.489  1.00  0.00     0.012 C 
HETATM   33  C24 UNL     1      -0.661   2.134  -3.205  1.00  0.00     0.012 C 
ENDBRANCH  21  31
BRANCH  12  34
HETATM   34  C11 UNL     1       2.431  -0.241  -0.416  1.00  0.00     0.038 C 
BRANCH  34  35
HETATM   35  C12 UNL     1       3.752  -0.762  -0.973  1.00  0.00    -0.020 C 
HETATM   36  C13 UNL     1       4.130   0.232  -2.088  1.00  0.00     0.009 C 
HETATM   37  C14 UNL     1       4.858  -0.720   0.029  1.00  0.00     0.009 C 
ENDBRANCH  34  35
ENDBRANCH  12  34
BRANCH  16  38
HETATM   38  C17 UNL     1       1.390   2.588   2.889  1.00  0.00     0.032 C 
HETATM   39  C18 UNL     1       2.819   2.355   2.653  1.00  0.00     0.016 C 
HETATM   40  C19 UNL     1       1.140   4.070   2.808  1.00  0.00     0.016 C 
ENDBRANCH  16  38
BRANCH  15  41
HETATM   41  O3  UNL     1       0.226   0.001   3.518  1.00  0.00    -0.345 OA
ATOM     42  H3  UNL     1       0.047   0.702   4.134  1.00  0.00     0.219 HD
ENDBRANCH  15  41
TORSDOF 9
