REMARK  5 active torsions:
REMARK  status: ('A' for Active; 'I' for Inactive)
REMARK    1  A    between atoms: C2_2  and  C3_3 
REMARK    2  A    between atoms: N1_5  and  N2_7 
REMARK    3  A    between atoms: N2_7  and  C5_9 
REMARK    4  A    between atoms: C5_9  and  N3_11 
REMARK    5  A    between atoms: N3_11  and  C6_13 
ROOT
HETATM    1  N3  UNL     1       0.057   0.842   1.090  1.00  0.00    -0.339 N 
ATOM      2  H3  UNL     1       0.198   1.249   2.015  1.00  0.00     0.168 HD
ENDROOT
BRANCH   1   3
HETATM    3  C5  UNL     1       1.249   0.522   0.480  1.00  0.00     0.190 C 
HETATM    4  S1  UNL     1       1.356  -0.159  -0.967  1.00  0.00    -0.039 SA
BRANCH   3   5
HETATM    5  N2  UNL     1       2.493   0.780   1.147  1.00  0.00    -0.276 N 
ATOM      6  H2  UNL     1       2.472   1.202   2.075  1.00  0.00     0.189 HD
BRANCH   5   7
HETATM    7  N1  UNL     1       3.728   0.477   0.578  1.00  0.00    -0.307 N 
HETATM    8  C3  UNL     1       4.147  -0.746   0.559  1.00  0.00    -0.001 C 
HETATM    9  C4  UNL     1       3.377  -1.883   1.121  1.00  0.00     0.065 C 
ATOM     10  H1  UNL     1       4.301   1.219   0.177  1.00  0.00     0.186 HD
BRANCH   8  11
HETATM   11  C2  UNL     1       5.470  -1.067  -0.051  1.00  0.00     0.049 C 
HETATM   12  C1  UNL     1       6.140   0.183  -0.580  1.00  0.00     0.011 C 
ENDBRANCH   8  11
ENDBRANCH   5   7
ENDBRANCH   3   5
ENDBRANCH   1   3
BRANCH   1  13
HETATM   13  C6  UNL     1      -1.307   0.748   0.757  1.00  0.00    -0.003 C 
HETATM   14  C7  UNL     1      -1.838   1.570  -0.372  1.00  0.00     0.032 C 
HETATM   15  C8  UNL     1      -3.311   1.887   0.068  1.00  0.00     0.015 C 
HETATM   16  C12 UNL     1      -1.973   0.918  -1.700  1.00  0.00     0.015 C 
HETATM   17  C9  UNL     1      -4.012   0.580   0.246  1.00  0.00    -0.013 C 
HETATM   18  C10 UNL     1      -4.123  -0.094  -1.108  1.00  0.00     0.009 C 
HETATM   19  C15 UNL     1      -3.403  -0.355   1.240  1.00  0.00     0.015 C 
HETATM   20  C11 UNL     1      -2.707  -0.388  -1.582  1.00  0.00    -0.013 C 
HETATM   21  C13 UNL     1      -2.090  -1.288  -0.546  1.00  0.00     0.015 C 
HETATM   22  C14 UNL     1      -1.942  -0.616   0.784  1.00  0.00     0.032 C 
ENDBRANCH   1  13
TORSDOF 5
