REMARK  5 active torsions:
REMARK  status: ('A' for Active; 'I' for Inactive)
REMARK    1  A    between atoms: C2_2  and  C3_3 
REMARK    2  A    between atoms: C5_5  and  C6_6 
REMARK    3  A    between atoms: C14_14  and  C15_15 
REMARK    4  A    between atoms: C15_15  and  N1_16 
REMARK    5  A    between atoms: C19_23  and  N2_24 
ROOT
HETATM    1  C6  UNL     1       0.152  -0.075   0.695  1.00  0.00    -0.069 C 
HETATM    2  C7  UNL     1       0.689   1.102   1.427  1.00  0.00     0.035 C 
HETATM    3  C8  UNL     1       1.773   0.617   2.365  1.00  0.00     0.009 C 
HETATM    4  C9  UNL     1       2.794  -0.234   1.632  1.00  0.00    -0.013 C 
HETATM    5  C10 UNL     1       2.088  -1.466   1.180  1.00  0.00     0.014 C 
HETATM    6  C11 UNL     1       1.099  -1.024   0.089  1.00  0.00     0.020 C 
HETATM    7  C12 UNL     1       1.864  -0.685  -1.100  1.00  0.00     0.005 A 
HETATM    8  C13 UNL     1       2.107   0.597  -1.722  1.00  0.00     0.017 A 
HETATM    9  C14 UNL     1       3.219  -0.059  -0.859  1.00  0.00    -0.012 A 
HETATM   10  C16 UNL     1       3.407   0.518   0.489  1.00  0.00     0.016 C 
ENDROOT
BRANCH   1  11
HETATM   11  C5  UNL     1      -1.005   0.266  -0.201  1.00  0.00    -0.059 C 
HETATM   12  C4  UNL     1      -1.879  -0.870  -0.634  1.00  0.00     0.045 C 
HETATM   13  C3  UNL     1      -3.169  -0.478  -1.202  1.00  0.00     0.020 C 
HETATM   14  C19 UNL     1      -3.574   0.942  -1.040  1.00  0.00     0.191 C 
HETATM   15  C18 UNL     1      -2.421   1.824  -1.500  1.00  0.00     0.061 C 
HETATM   16  C17 UNL     1      -1.269   1.487  -0.607  1.00  0.00    -0.017 C 
BRANCH  13  17
HETATM   17  C2  UNL     1      -4.276  -1.342  -0.583  1.00  0.00     0.002 C 
HETATM   18  C1  UNL     1      -4.333  -1.169   0.911  1.00  0.00     0.005 C 
ENDBRANCH  13  17
BRANCH  14  19
HETATM   19  N2  UNL     1      -4.710   1.206  -1.901  1.00  0.00    -0.074 N 
ATOM     20  H23 UNL     1      -4.526   0.962  -2.874  1.00  0.00     0.274 HD
ATOM     21  H22 UNL     1      -5.482   0.560  -1.736  1.00  0.00     0.274 HD
ATOM     22  H21 UNL     1      -4.988   2.181  -1.790  1.00  0.00     0.274 HD
ENDBRANCH  14  19
ENDBRANCH   1  11
BRANCH   9  23
HETATM   23  C15 UNL     1       4.410  -0.516  -1.627  1.00  0.00     0.239 C 
BRANCH  23  24
HETATM   24  N1  UNL     1       5.563   0.246  -1.205  1.00  0.00    -0.079 N 
ATOM     25  H13 UNL     1       5.413   1.252  -1.283  1.00  0.00     0.274 HD
ATOM     26  H12 UNL     1       5.710   0.201  -0.197  1.00  0.00     0.274 HD
ATOM     27  H11 UNL     1       6.379  -0.067  -1.731  1.00  0.00     0.274 HD
ENDBRANCH  23  24
ENDBRANCH   9  23
TORSDOF 5
