REMARK  5 active torsions:
REMARK  status: ('A' for Active; 'I' for Inactive)
REMARK    1  A    between atoms: N1_1  and  C1_5 
REMARK    2  A    between atoms: C1_5  and  C2_6 
REMARK    3  A    between atoms: C2_6  and  C3_7 
REMARK    4  A    between atoms: C3_7  and  O1_8 
REMARK    5  A    between atoms: N2_12  and  C6_13 
ROOT
HETATM    1  C2  UNL     1       3.079   0.238   0.056  1.00  0.00     0.007 C 
HETATM    2  C4  UNL     1       2.192   1.417   0.388  1.00  0.00     0.033 C 
HETATM    3  C5  UNL     1       0.802   1.289  -0.155  1.00  0.00     0.118 C 
HETATM    4  N2  UNL     1       0.215   0.026   0.134  1.00  0.00    -0.404 N 
HETATM    5  C16 UNL     1       0.983  -1.117  -0.184  1.00  0.00     0.118 C 
HETATM    6  C17 UNL     1       2.376  -1.040   0.350  1.00  0.00     0.033 C 
ENDROOT
BRANCH   4   7
HETATM    7  C6  UNL     1      -1.186  -0.055  -0.036  1.00  0.00     0.029 C 
HETATM    8  C7  UNL     1      -1.660  -1.495   0.028  1.00  0.00     0.035 C 
HETATM    9  C8  UNL     1      -3.171  -1.581  -0.084  1.00  0.00    -0.012 C 
HETATM   10  C9  UNL     1      -3.802  -0.869   1.097  1.00  0.00     0.009 C 
HETATM   11  C13 UNL     1      -3.704  -0.945  -1.333  1.00  0.00     0.009 C 
HETATM   12  C10 UNL     1      -3.326   0.556   1.077  1.00  0.00    -0.012 C 
HETATM   13  C11 UNL     1      -3.769   1.223  -0.190  1.00  0.00     0.009 C 
HETATM   14  C15 UNL     1      -1.829   0.619   1.185  1.00  0.00     0.035 C 
HETATM   15  C12 UNL     1      -3.191   0.486  -1.366  1.00  0.00    -0.012 C 
HETATM   16  C14 UNL     1      -1.702   0.547  -1.303  1.00  0.00     0.035 C 
ENDBRANCH   4   7
BRANCH   1  17
HETATM   17  C1  UNL     1       4.318   0.379   0.916  1.00  0.00     0.241 C 
BRANCH  17  18
HETATM   18  N1  UNL     1       5.277  -0.661   0.718  1.00  0.00    -0.079 N 
ATOM     19  H13 UNL     1       4.848  -1.576   0.853  1.00  0.00     0.274 HD
ATOM     20  H12 UNL     1       5.530  -0.734  -0.267  1.00  0.00     0.274 HD
ATOM     21  H11 UNL     1       6.111  -0.566   1.297  1.00  0.00     0.274 HD
ENDBRANCH  17  18
ENDBRANCH   1  17
BRANCH   1  22
HETATM   22  C3  UNL     1       3.486   0.266  -1.407  1.00  0.00     0.175 C 
BRANCH  22  23
HETATM   23  O1  UNL     1       4.122   1.436  -1.764  1.00  0.00    -0.400 OA
ATOM     24  H1  UNL     1       4.377   1.454  -2.679  1.00  0.00     0.209 HD
ENDBRANCH  22  23
ENDBRANCH   1  22
TORSDOF 5
