REMARK  5 active torsions:
REMARK  status: ('A' for Active; 'I' for Inactive)
REMARK    1  A    between atoms: C6_7  and  C7_8 
REMARK    2  A    between atoms: C7_8  and  N1_9 
REMARK    3  A    between atoms: N1_9  and  C8_11 
REMARK    4  A    between atoms: C8_11  and  N2_13 
REMARK    5  A    between atoms: N2_13  and  C9_15 
ROOT
HETATM    1  N1  UNL     1       0.184   0.601  -0.541  1.00  0.00    -0.366 N 
ATOM      2  H1  UNL     1      -0.520   0.641   0.196  1.00  0.00     0.161 HD
ENDROOT
BRANCH   1   3
HETATM    3  C7  UNL     1       1.455   1.144  -0.191  1.00  0.00     0.139 C 
BRANCH   3   4
HETATM    4  C6  UNL     1       2.590   0.248   0.046  1.00  0.00     0.037 C 
HETATM    5  C1  UNL     1       2.379  -0.753   1.121  1.00  0.00     0.137 C 
HETATM    6  O1  UNL     1       1.338  -1.130   1.561  1.00  0.00    -0.297 OA
HETATM    7  C2  UNL     1       3.736  -1.175   1.521  1.00  0.00     0.083 C 
HETATM    8  C3  UNL     1       4.661  -0.139   0.909  1.00  0.00    -0.006 C 
HETATM    9  C4  UNL     1       4.841  -0.485  -0.526  1.00  0.00     0.006 C 
HETATM   10  C15 UNL     1       3.719   1.045   0.816  1.00  0.00     0.024 C 
HETATM   11  C5  UNL     1       3.420  -0.228  -1.088  1.00  0.00     0.019 C 
ENDBRANCH   3   4
ENDBRANCH   1   3
BRANCH   1  12
HETATM   12  C8  UNL     1      -0.249   0.020  -1.744  1.00  0.00     0.167 C 
HETATM   13  S1  UNL     1       0.712  -0.074  -3.049  1.00  0.00    -0.041 SA
BRANCH  12  14
HETATM   14  N2  UNL     1      -1.607  -0.467  -1.816  1.00  0.00    -0.363 N 
ATOM     15  H2  UNL     1      -1.940  -0.907  -2.674  1.00  0.00     0.162 HD
BRANCH  14  16
HETATM   16  C9  UNL     1      -2.482  -0.340  -0.707  1.00  0.00     0.083 C 
HETATM   17  C10 UNL     1      -3.759  -1.166  -0.982  1.00  0.00     0.025 C 
HETATM   18  C11 UNL     1      -4.491  -1.203   0.346  1.00  0.00     0.002 C 
HETATM   19  C12 UNL     1      -4.944   0.197   0.678  1.00  0.00     0.000 C 
HETATM   20  C13 UNL     1      -3.794   1.190   0.656  1.00  0.00     0.002 C 
HETATM   21  C14 UNL     1      -3.022   1.099  -0.619  1.00  0.00     0.025 C 
ENDBRANCH  14  16
ENDBRANCH  12  14
ENDBRANCH   1  12
TORSDOF 5
