REMARK  4 active torsions:
REMARK  status: ('A' for Active; 'I' for Inactive)
REMARK       I    between atoms: C1_2  and  N1_3 
REMARK    1  A    between atoms: C1_2  and  C9_12 
REMARK    2  A    between atoms: N1_3  and  C2_5 
REMARK    3  A    between atoms: C2_5  and  C3_6 
REMARK    4  A    between atoms: C15_18  and  O2_19 
ROOT
HETATM    1  C9  UNL     1      -1.737   0.304  -0.027  1.00  0.00     0.044 C 
HETATM    2  C10 UNL     1      -1.663  -1.114   0.460  1.00  0.00     0.024 C 
HETATM    3  C11 UNL     1      -3.005  -1.783   0.411  1.00  0.00    -0.010 C 
HETATM    4  C12 UNL     1      -3.652  -1.648  -0.971  1.00  0.00     0.012 C 
HETATM    5  C13 UNL     1      -3.798  -0.124  -1.036  1.00  0.00     0.022 C 
HETATM    6  C14 UNL     1      -2.401   0.380  -1.410  1.00  0.00     0.027 C 
HETATM    7  C15 UNL     1      -4.020   0.330   0.385  1.00  0.00     0.063 C 
HETATM    8  C16 UNL     1      -3.987  -0.944   1.240  1.00  0.00     0.043 C 
HETATM    9  C17 UNL     1      -2.748   1.096   0.781  1.00  0.00     0.057 C 
ENDROOT
BRANCH   1  10
HETATM   10  C1  UNL     1      -0.437   0.944  -0.135  1.00  0.00     0.226 C 
HETATM   11  O1  UNL     1      -0.177   1.972   0.525  1.00  0.00    -0.273 OA
HETATM   12  N1  UNL     1       0.545   0.406  -0.988  1.00  0.00    -0.360 N 
ATOM     13  H1  UNL     1       0.298  -0.433  -1.513  1.00  0.00     0.162 HD
BRANCH  12  14
HETATM   14  C2  UNL     1       1.868   0.938  -1.182  1.00  0.00     0.127 C 
BRANCH  14  15
HETATM   15  C3  UNL     1       2.595   0.904   0.135  1.00  0.00     0.003 C 
HETATM   16  C4  UNL     1       2.685  -0.524   0.646  1.00  0.00     0.006 C 
HETATM   17  C5  UNL     1       3.615  -0.472   1.866  1.00  0.00     0.000 C 
HETATM   18  C6  UNL     1       5.027  -0.406   1.292  1.00  0.00     0.000 C 
HETATM   19  C7  UNL     1       5.032   0.343  -0.029  1.00  0.00     0.000 C 
HETATM   20  C8  UNL     1       4.001   1.449  -0.041  1.00  0.00     0.006 C 
ENDBRANCH  14  15
ENDBRANCH  12  14
ENDBRANCH   1  10
BRANCH   7  21
HETATM   21  O2  UNL     1      -5.153   1.064   0.572  1.00  0.00    -0.389 OA
ATOM     22  H2  UNL     1      -5.293   1.350   1.467  1.00  0.00     0.210 HD
ENDBRANCH   7  21
TORSDOF 4
