REMARK  8 active torsions:
REMARK  status: ('A' for Active; 'I' for Inactive)
REMARK    1  A    between atoms: C2_2  and  C3_3 
REMARK    2  A    between atoms: C3_3  and  C4_4 
REMARK    3  A    between atoms: C4_4  and  C5_5 
REMARK    4  A    between atoms: C5_5  and  C6_6 
REMARK    5  A    between atoms: C11_12  and  N2_13 
REMARK       I    between atoms: N2_13  and  C12_15 
REMARK       I    between atoms: C12_15  and  N3_17 
REMARK       I    between atoms: C13_19  and  N4_20 
REMARK       I    between atoms: C13_19  and  N5_26 
REMARK    6  A    between atoms: N4_20  and  C14_22 
REMARK    7  A    between atoms: N5_26  and  C18_28 
REMARK    8  A    between atoms: C18_28  and  C20_31 
ROOT
HETATM    1  C6  UNL     1       2.302   2.808  -0.209  1.00  0.00    -0.056 A 
HETATM    2  C7  UNL     1       1.978   3.763  -1.117  1.00  0.00     0.009 A 
HETATM    3  C8  UNL     1       0.905   3.543  -1.928  1.00  0.00     0.025 A 
HETATM    4  C9  UNL     1       0.128   2.416  -1.887  1.00  0.00     0.071 A 
HETATM    5  C10 UNL     1      -0.994   2.260  -2.782  1.00  0.00     0.102 C 
HETATM    6  N1  UNL     1      -1.876   2.118  -3.496  1.00  0.00    -0.191 NA
HETATM    7  C11 UNL     1       0.467   1.425  -0.942  1.00  0.00     0.057 A 
HETATM    8  C21 UNL     1       1.543   1.631  -0.119  1.00  0.00     0.038 A 
ENDROOT
BRANCH   7   9
HETATM    9  N2  UNL     1      -0.359   0.286  -0.938  1.00  0.00    -0.307 N 
HETATM   10  C12 UNL     1      -0.236  -0.799  -0.070  1.00  0.00     0.339 C 
HETATM   11  O1  UNL     1       0.607  -0.919   0.815  1.00  0.00    -0.246 OA
HETATM   12  N3  UNL     1      -1.165  -1.887  -0.200  1.00  0.00    -0.141 N 
HETATM   13  C13 UNL     1      -2.131  -2.118   0.601  1.00  0.00     0.680 C 
ATOM     14  H3  UNL     1      -1.044  -2.521  -0.990  1.00  0.00     0.189 HD
HETATM   15  N4  UNL     1      -2.351  -1.279   1.712  1.00  0.00    -0.218 N 
HETATM   16  N5  UNL     1      -2.972  -3.224   0.362  1.00  0.00    -0.198 N 
ATOM     17  H4  UNL     1      -1.626  -1.217   2.427  1.00  0.00     0.178 HD
ATOM     18  H5  UNL     1      -3.419  -3.676   1.160  1.00  0.00     0.179 HD
ATOM     19  H2  UNL     1      -1.110   0.251  -1.627  1.00  0.00     0.170 HD
BRANCH  15  20
HETATM   20  C14 UNL     1      -3.549  -0.509   1.882  1.00  0.00     0.036 C 
HETATM   21  C15 UNL     1      -3.489   0.269   3.183  1.00  0.00     0.038 C 
HETATM   22  C16 UNL     1      -4.788  -1.381   1.947  1.00  0.00     0.038 C 
HETATM   23  C17 UNL     1      -3.712   0.537   0.786  1.00  0.00     0.038 C 
ENDBRANCH  15  20
BRANCH  16  24
HETATM   24  C18 UNL     1      -3.232  -3.751  -0.966  1.00  0.00     0.199 C 
HETATM   25  C19 UNL     1      -1.961  -4.210  -1.641  1.00  0.00     0.062 C 
HETATM   26  S1  UNL     1      -4.012  -2.521  -2.049  1.00  0.00    -0.053 SA
BRANCH  24  27
HETATM   27  C20 UNL     1      -4.168  -4.937  -0.898  1.00  0.00     0.423 C 
HETATM   28  F1  UNL     1      -5.381  -4.628  -0.347  1.00  0.00    -0.167 F 
HETATM   29  F2  UNL     1      -3.520  -5.930  -0.187  1.00  0.00    -0.167 F 
HETATM   30  F3  UNL     1      -4.313  -5.402  -2.211  1.00  0.00    -0.167 F 
ENDBRANCH  24  27
ENDBRANCH  16  24
ENDBRANCH   7   9
BRANCH   1  31
HETATM   31  C5  UNL     1       3.438   2.925   0.727  1.00  0.00     0.038 C 
BRANCH  31  32
HETATM   32  C4  UNL     1       4.727   2.387   0.177  1.00  0.00     0.005 C 
BRANCH  32  33
HETATM   33  C3  UNL     1       5.787   2.577   1.235  1.00  0.00    -0.000 C 
BRANCH  33  34
HETATM   34  C2  UNL     1       7.134   2.078   0.788  1.00  0.00    -0.005 C 
HETATM   35  C1  UNL     1       7.072   0.613   0.471  1.00  0.00     0.005 C 
ENDBRANCH  33  34
ENDBRANCH  32  33
ENDBRANCH  31  32
ENDBRANCH   1  31
TORSDOF 8
