REMARK  9 active torsions:
REMARK  status: ('A' for Active; 'I' for Inactive)
REMARK    1  A    between atoms: C2_2  and  C3_3 
REMARK    2  A    between atoms: C6_6  and  C7_7 
REMARK    3  A    between atoms: C9_12  and  N1_13 
REMARK       I    between atoms: N1_13  and  C10_15 
REMARK       I    between atoms: C10_15  and  N2_17 
REMARK    4  A    between atoms: N2_17  and  C11_19 
REMARK    5  A    between atoms: C14_22  and  C16_24 
REMARK    6  A    between atoms: C16_24  and  C17_25 
REMARK    7  A    between atoms: C17_25  and  N3_26 
REMARK       I    between atoms: N3_26  and  C18_28 
REMARK    8  A    between atoms: C18_28  and  O3_30 
REMARK    9  A    between atoms: O3_30  and  C19_31 
ROOT
HETATM    1  C11 UNL     1       0.625  -0.028   0.398  1.00  0.00     0.288 C 
HETATM    2  C12 UNL     1       0.351  -1.321  -0.256  1.00  0.00     0.057 C 
HETATM    3  C13 UNL     1      -0.822  -1.144  -1.131  1.00  0.00     0.042 C 
HETATM    4  C14 UNL     1      -1.225   0.295  -0.973  1.00  0.00     0.126 C 
HETATM    5  C15 UNL     1      -1.206   0.924  -2.378  1.00  0.00     0.046 C 
HETATM    6  N4  UNL     1      -0.193   0.948  -0.247  1.00  0.00    -0.046 N 
ATOM      7  H41 UNL     1       0.351   1.580  -0.834  1.00  0.00     0.280 HD
ATOM      8  H42 UNL     1      -0.560   1.638   0.409  1.00  0.00     0.280 HD
ENDROOT
BRANCH   1   9
HETATM    9  N2  UNL     1       1.977   0.323   0.643  1.00  0.00    -0.315 N 
HETATM   10  C10 UNL     1       3.198  -0.115   0.148  1.00  0.00     0.322 C 
HETATM   11  N1  UNL     1       4.438   0.426   0.679  1.00  0.00    -0.308 N 
HETATM   12  O1  UNL     1       3.433  -0.970  -0.752  1.00  0.00    -0.247 OA
ATOM     13  H1  UNL     1       4.334   1.041   1.486  1.00  0.00     0.170 HD
ATOM     14  H2  UNL     1       2.074   1.063   1.338  1.00  0.00     0.166 HD
BRANCH  11  15
HETATM   15  C9  UNL     1       5.746   0.228   0.248  1.00  0.00     0.043 A 
HETATM   16  C3  UNL     1       6.725   0.168   1.245  1.00  0.00    -0.032 A 
HETATM   17  C4  UNL     1       8.055   0.192   0.858  1.00  0.00     0.010 A 
HETATM   18  C5  UNL     1       8.405   0.270  -0.468  1.00  0.00     0.017 A 
HETATM   19  C6  UNL     1       7.458   0.316  -1.472  1.00  0.00     0.050 A 
HETATM   20  C8  UNL     1       6.128   0.288  -1.062  1.00  0.00     0.046 A 
BRANCH  16  21
HETATM   21  C2  UNL     1       6.311  -0.079   2.677  1.00  0.00     0.036 C 
HETATM   22  C1  UNL     1       6.025  -1.606   2.787  1.00  0.00     0.010 C 
ENDBRANCH  16  21
BRANCH  19  23
HETATM   23  C7  UNL     1       7.883   0.430  -2.911  1.00  0.00     0.417 C 
HETATM   24  F1  UNL     1       9.208   0.040  -3.074  1.00  0.00    -0.166 F 
HETATM   25  F2  UNL     1       7.829   1.762  -3.276  1.00  0.00    -0.166 F 
HETATM   26  F3  UNL     1       7.096  -0.398  -3.674  1.00  0.00    -0.166 F 
ENDBRANCH  19  23
ENDBRANCH  11  15
ENDBRANCH   1   9
BRANCH   4  27
HETATM   27  C16 UNL     1      -2.602   0.546  -0.454  1.00  0.00     0.058 C 
BRANCH  27  28
HETATM   28  C17 UNL     1      -2.922  -0.040   0.887  1.00  0.00     0.127 C 
BRANCH  28  29
HETATM   29  N3  UNL     1      -4.290   0.344   1.234  1.00  0.00    -0.337 N 
HETATM   30  C18 UNL     1      -5.425  -0.022   0.497  1.00  0.00     0.361 C 
HETATM   31  O2  UNL     1      -5.398  -0.749  -0.542  1.00  0.00    -0.238 OA
ATOM     32  H3  UNL     1      -4.427   0.916   2.067  1.00  0.00     0.164 HD
BRANCH  30  33
HETATM   33  O3  UNL     1      -6.682   0.419   0.857  1.00  0.00    -0.294 OA
BRANCH  33  34
HETATM   34  C19 UNL     1      -7.868   0.121   0.189  1.00  0.00     0.061 C 
HETATM   35  C20 UNL     1      -7.880   0.543  -1.254  1.00  0.00     0.046 C 
HETATM   36  C21 UNL     1      -8.372  -1.278   0.307  1.00  0.00     0.046 C 
HETATM   37  C22 UNL     1      -8.932   1.032   0.858  1.00  0.00     0.046 C 
ENDBRANCH  33  34
ENDBRANCH  30  33
ENDBRANCH  28  29
ENDBRANCH  27  28
ENDBRANCH   4  27
TORSDOF 9
