REMARK  8 active torsions:
REMARK  status: ('A' for Active; 'I' for Inactive)
REMARK    1  A    between atoms: C2_2  and  C3_3 
REMARK    2  A    between atoms: C3_3  and  C4_4 
REMARK    3  A    between atoms: C7_7  and  C8_8 
REMARK    4  A    between atoms: C11_17  and  C12_18 
REMARK    5  A    between atoms: C13_20  and  N2_21 
REMARK       I    between atoms: N2_21  and  C14_23 
REMARK       I    between atoms: C14_23  and  N3_25 
REMARK    6  A    between atoms: N3_25  and  C15_27 
REMARK    7  A    between atoms: C15_27  and  C16_28 
REMARK    8  A    between atoms: C20_32  and  O2_33 
ROOT
HETATM    1  C3  UNL     1      -1.696  -0.155  -0.110  1.00  0.00     0.138 C 
HETATM    2  N1  UNL     1      -1.108  -1.316   0.609  1.00  0.00    -0.057 N 
ATOM      3  H11 UNL     1      -1.480  -2.209   0.285  1.00  0.00     0.278 HD
ATOM      4  H12 UNL     1      -1.422  -1.379   1.577  1.00  0.00     0.278 HD
HETATM    5  C11 UNL     1       0.292  -1.240   0.497  1.00  0.00     0.238 C 
HETATM    6  C13 UNL     1       0.685   0.179   0.321  1.00  0.00     0.129 C 
HETATM    7  C22 UNL     1      -0.643   0.875   0.083  1.00  0.00     0.009 C 
HETATM    8  C23 UNL     1      -0.863   1.783   1.272  1.00  0.00     0.020 C 
HETATM    9  C24 UNL     1      -0.399   1.800  -1.088  1.00  0.00     0.020 C 
ENDROOT
BRANCH   6  10
HETATM   10  N2  UNL     1       1.649   0.395  -0.686  1.00  0.00    -0.336 N 
HETATM   11  C14 UNL     1       2.900   0.993  -0.401  1.00  0.00     0.316 C 
HETATM   12  O1  UNL     1       3.125   1.326   0.797  1.00  0.00    -0.247 OA
HETATM   13  N3  UNL     1       3.888   1.230  -1.366  1.00  0.00    -0.339 N 
ATOM     14  H3  UNL     1       3.717   0.965  -2.336  1.00  0.00     0.164 HD
ATOM     15  H2  UNL     1       1.439   0.113  -1.644  1.00  0.00     0.164 HD
BRANCH  13  16
HETATM   16  C15 UNL     1       5.140   1.842  -1.007  1.00  0.00     0.163 C 
BRANCH  16  17
HETATM   17  C16 UNL     1       6.068   0.910  -0.324  1.00  0.00    -0.038 A 
HETATM   18  C17 UNL     1       6.330   0.985   1.021  1.00  0.00     0.009 A 
HETATM   19  C18 UNL     1       7.190   0.110   1.632  1.00  0.00     0.003 A 
HETATM   20  C19 UNL     1       7.819  -0.873   0.916  1.00  0.00     0.036 A 
HETATM   21  C20 UNL     1       7.562  -0.956  -0.439  1.00  0.00     0.066 A 
HETATM   22  C21 UNL     1       6.698  -0.080  -1.062  1.00  0.00     0.045 A 
BRANCH  21  23
HETATM   23  O2  UNL     1       8.206  -1.963  -1.173  1.00  0.00    -0.361 OA
ATOM     24  H2  UNL     1       8.029  -2.020  -2.105  1.00  0.00     0.217 HD
ENDBRANCH  21  23
ENDBRANCH  16  17
ENDBRANCH  13  16
ENDBRANCH   6  10
BRANCH   5  25
HETATM   25  C12 UNL     1       1.015  -1.864   1.699  1.00  0.00     0.257 C 
HETATM   26  F4  UNL     1       0.698  -3.188   1.834  1.00  0.00    -0.253 F 
ENDBRANCH   5  25
BRANCH   1  27
HETATM   27  C2  UNL     1      -1.797  -0.730  -1.494  1.00  0.00     0.035 C 
HETATM   28  C1  UNL     1      -2.508  -0.052  -2.560  1.00  0.00     0.007 C 
ENDBRANCH   1  27
BRANCH   1  29
HETATM   29  C4  UNL     1      -2.985   0.076   0.588  1.00  0.00     0.022 C 
HETATM   30  C5  UNL     1      -3.973   1.010   0.065  1.00  0.00     0.008 C 
HETATM   31  C6  UNL     1      -5.377   0.399  -0.131  1.00  0.00     0.014 C 
HETATM   32  C7  UNL     1      -5.850  -0.265   1.123  1.00  0.00     0.093 C 
HETATM   33  C9  UNL     1      -4.755  -1.115   1.753  1.00  0.00     0.014 C 
HETATM   34  C10 UNL     1      -3.692  -1.289   0.686  1.00  0.00     0.008 C 
BRANCH  32  35
HETATM   35  C8  UNL     1      -7.003  -1.178   0.832  1.00  0.00     0.391 C 
HETATM   36  F1  UNL     1      -6.664  -2.169  -0.063  1.00  0.00    -0.171 F 
HETATM   37  F2  UNL     1      -8.141  -0.489   0.456  1.00  0.00    -0.171 F 
HETATM   38  F3  UNL     1      -7.329  -1.821   2.033  1.00  0.00    -0.171 F 
ENDBRANCH  32  35
ENDBRANCH   1  29
TORSDOF 8
