REMARK  10 active torsions:
REMARK  status: ('A' for Active; 'I' for Inactive)
REMARK    1  A    between atoms: N1_5  and  C5_6 
REMARK    2  A    between atoms: C5_6  and  C6_7 
REMARK    3  A    between atoms: C6_7  and  N2_8 
REMARK       I    between atoms: N2_8  and  C7_9 
REMARK       I    between atoms: C7_9  and  N3_11 
REMARK    4  A    between atoms: N3_11  and  C8_13 
REMARK    5  A    between atoms: C11_16  and  N4_17 
REMARK    6  A    between atoms: N4_17  and  C12_18 
REMARK    7  A    between atoms: C12_18  and  O2_19 
REMARK    8  A    between atoms: C12_18  and  N5_21 
REMARK    9  A    between atoms: N5_21  and  C13_23 
REMARK   10  A    between atoms: C16_26  and  C17_27 
ROOT
HETATM    1  C8  UNL     1       0.601  -0.918   0.537  1.00  0.00     0.037 A 
HETATM    2  C9  UNL     1       1.718  -0.403   1.209  1.00  0.00     0.033 A 
HETATM    3  C10 UNL     1       2.948  -0.781   0.875  1.00  0.00     0.047 A 
HETATM    4  C11 UNL     1       3.232  -1.743  -0.194  1.00  0.00     0.111 A 
HETATM    5  C20 UNL     1       2.160  -2.212  -0.804  1.00  0.00     0.047 A 
HETATM    6  C21 UNL     1       0.850  -1.806  -0.446  1.00  0.00     0.033 A 
ENDROOT
BRANCH   4   7
HETATM    7  N4  UNL     1       4.574  -1.871  -0.255  1.00  0.00    -0.365 NA
BRANCH   7   8
HETATM    8  C12 UNL     1       5.869  -1.737  -0.255  1.00  0.00     0.299 C 
BRANCH   8   9
HETATM    9  O2  UNL     1       6.235  -0.446   0.112  1.00  0.00    -0.321 OA
ATOM     10  H2  UNL     1       7.180  -0.348   0.112  1.00  0.00     0.222 HD
ENDBRANCH   8   9
BRANCH   8  11
HETATM   11  N5  UNL     1       7.006  -2.476  -0.499  1.00  0.00    -0.310 N 
ATOM     12  H5  UNL     1       7.011  -3.454  -0.788  1.00  0.00     0.170 HD
BRANCH  11  13
HETATM   13  C13 UNL     1       8.205  -1.666  -0.287  1.00  0.00     0.036 A 
HETATM   14  C14 UNL     1       9.041  -1.859   0.745  1.00  0.00     0.030 A 
HETATM   15  C15 UNL     1      10.027  -0.882   1.085  1.00  0.00     0.018 A 
HETATM   16  C16 UNL     1      10.101   0.251   0.349  1.00  0.00     0.048 A 
HETATM   17  C18 UNL     1       9.228   0.434  -0.731  1.00  0.00     0.018 A 
HETATM   18  C19 UNL     1       8.292  -0.497  -1.060  1.00  0.00     0.030 A 
BRANCH  16  19
HETATM   19  C17 UNL     1      11.068   1.345   0.695  1.00  0.00     0.417 C 
HETATM   20  F1  UNL     1      10.489   2.610   0.492  1.00  0.00    -0.166 F 
HETATM   21  F2  UNL     1      12.131   1.270  -0.108  1.00  0.00    -0.166 F 
HETATM   22  F3  UNL     1      11.365   1.258   2.018  1.00  0.00    -0.166 F 
ENDBRANCH  16  19
ENDBRANCH  11  13
ENDBRANCH   8  11
ENDBRANCH   7   8
ENDBRANCH   4   7
BRANCH   1  23
HETATM   23  N3  UNL     1      -0.644  -0.386   0.913  1.00  0.00    -0.297 N 
HETATM   24  C7  UNL     1      -1.954  -0.859   0.532  1.00  0.00     0.397 C 
HETATM   25  N2  UNL     1      -3.015  -0.120   0.939  1.00  0.00    -0.367 NA
HETATM   26  O1  UNL     1      -1.986  -1.907  -0.159  1.00  0.00    -0.230 OA
ATOM     27  H3  UNL     1      -0.620   0.429   1.526  1.00  0.00     0.172 HD
BRANCH  25  28
HETATM   28  C6  UNL     1      -4.113   0.638   1.356  1.00  0.00     0.191 C 
BRANCH  28  29
HETATM   29  C5  UNL     1      -4.991   1.169   0.268  1.00  0.00     0.331 C 
BRANCH  29  30
HETATM   30  N1  UNL     1      -6.128   1.943   0.746  1.00  0.00     0.094 N 
HETATM   31  C4  UNL     1      -7.035   1.227   1.539  1.00  0.00     0.273 C 
HETATM   32  C3  UNL     1      -8.429   1.066   0.974  1.00  0.00     0.034 C 
HETATM   33  C2  UNL     1      -8.281   0.470  -0.426  1.00  0.00    -0.015 C 
HETATM   34  C1  UNL     1      -9.665   0.138  -0.933  1.00  0.00     0.010 C 
HETATM   35  C23 UNL     1      -7.530   1.480  -1.253  1.00  0.00     0.034 C 
HETATM   36  C22 UNL     1      -6.787   2.535  -0.406  1.00  0.00     0.273 C 
ENDBRANCH  29  30
ENDBRANCH  28  29
ENDBRANCH  25  28
ENDBRANCH   1  23
TORSDOF 10
