REMARK  8 active torsions:
REMARK  status: ('A' for Active; 'I' for Inactive)
REMARK    1  A    between atoms: C6_6  and  N1_7 
REMARK       I    between atoms: N1_7  and  C7_9 
REMARK       I    between atoms: C7_9  and  N2_11 
REMARK    2  A    between atoms: C10_14  and  C11_15 
REMARK    3  A    between atoms: C11_15  and  C12_16 
REMARK    4  A    between atoms: C12_16  and  C13_17 
REMARK    5  A    between atoms: C13_17  and  C14_19 
REMARK    6  A    between atoms: C18_24  and  C19_25 
REMARK    7  A    between atoms: C19_25  and  N3_26 
REMARK    8  A    between atoms: C21_31  and  N4_32 
ROOT
HETATM    1  N1  UNL     1      -4.126   0.487   0.429  1.00  0.00    -0.308 N 
ATOM      2  H1  UNL     1      -3.636   1.159   1.020  1.00  0.00     0.170 HD
HETATM    3  C7  UNL     1      -3.363  -0.349  -0.384  1.00  0.00     0.323 C 
HETATM    4  O1  UNL     1      -3.933  -1.185  -1.125  1.00  0.00    -0.247 OA
HETATM    5  N2  UNL     1      -1.951  -0.286  -0.402  1.00  0.00    -0.332 N 
HETATM    6  C8  UNL     1      -1.234   0.638   0.439  1.00  0.00     0.128 C 
HETATM    7  C9  UNL     1       0.110   0.091   0.779  1.00  0.00     0.027 C 
HETATM    8  C10 UNL     1       0.968  -0.276  -0.402  1.00  0.00     0.019 C 
HETATM    9  C21 UNL     1       0.164  -0.511  -1.639  1.00  0.00     0.205 C 
HETATM   10  C22 UNL     1      -1.174  -1.152  -1.286  1.00  0.00     0.160 C 
ENDROOT
BRANCH   8  11
HETATM   11  C11 UNL     1       2.045   0.744  -0.566  1.00  0.00     0.009 C 
BRANCH  11  12
HETATM   12  C12 UNL     1       2.981   0.494  -1.716  1.00  0.00     0.038 C 
BRANCH  12  13
HETATM   13  C13 UNL     1       3.695  -0.828  -1.596  1.00  0.00     0.174 C 
HETATM   14  F1  UNL     1       4.539  -0.982  -2.690  1.00  0.00    -0.249 F 
BRANCH  13  15
HETATM   15  C14 UNL     1       4.528  -0.878  -0.362  1.00  0.00     0.022 C 
HETATM   16  C15 UNL     1       5.211  -2.233  -0.313  1.00  0.00     0.044 C 
HETATM   17  C16 UNL     1       6.053  -2.437   0.897  1.00  0.00     0.171 C 
HETATM   18  F2  UNL     1       6.891  -3.531   0.635  1.00  0.00    -0.249 F 
HETATM   19  C17 UNL     1       6.960  -1.280   1.214  1.00  0.00     0.043 C 
HETATM   20  C18 UNL     1       6.348   0.053   0.950  1.00  0.00     0.014 C 
HETATM   21  C20 UNL     1       5.637   0.150  -0.384  1.00  0.00     0.013 C 
BRANCH  20  22
HETATM   22  C19 UNL     1       7.415   1.122   0.975  1.00  0.00     0.234 C 
BRANCH  22  23
HETATM   23  N3  UNL     1       6.831   2.439   0.717  1.00  0.00    -0.079 N 
ATOM     24  H33 UNL     1       6.301   2.454  -0.154  1.00  0.00     0.274 HD
ATOM     25  H32 UNL     1       6.070   2.649   1.363  1.00  0.00     0.274 HD
ATOM     26  H31 UNL     1       7.551   3.161   0.734  1.00  0.00     0.274 HD
ENDBRANCH  22  23
ENDBRANCH  20  22
ENDBRANCH  13  15
ENDBRANCH  12  13
ENDBRANCH  11  12
ENDBRANCH   8  11
BRANCH   9  27
HETATM   27  N4  UNL     1      -0.123   0.637  -2.432  1.00  0.00    -0.073 N 
ATOM     28  H43 UNL     1      -0.575   1.348  -1.857  1.00  0.00     0.274 HD
ATOM     29  H42 UNL     1       0.745   1.116  -2.671  1.00  0.00     0.274 HD
ATOM     30  H41 UNL     1      -0.672   0.477  -3.277  1.00  0.00     0.274 HD
ENDBRANCH   9  27
BRANCH   1  31
HETATM   31  C6  UNL     1      -5.550   0.460   0.485  1.00  0.00     0.048 A 
HETATM   32  C4  UNL     1      -6.218  -0.345   1.378  1.00  0.00    -0.034 A 
HETATM   33  C3  UNL     1      -7.616  -0.349   1.408  1.00  0.00     0.015 A 
HETATM   34  C5  UNL     1      -5.425  -1.200   2.301  1.00  0.00     0.050 C 
HETATM   35  C2  UNL     1      -8.334   0.437   0.561  1.00  0.00    -0.061 A 
HETATM   36  C1  UNL     1      -9.839   0.453   0.569  1.00  0.00     0.048 C 
HETATM   37  C25 UNL     1      -7.665   1.240  -0.332  1.00  0.00     0.015 A 
HETATM   38  C23 UNL     1      -6.265   1.256  -0.374  1.00  0.00    -0.034 A 
HETATM   39  C24 UNL     1      -5.517   2.114  -1.328  1.00  0.00     0.050 C 
ENDBRANCH   1  31
TORSDOF 8
