REMARK  4 active torsions:
REMARK  status: ('A' for Active; 'I' for Inactive)
REMARK    1  A    between atoms: N1_2  and  C2_3 
REMARK    2  A    between atoms: N1_2  and  N2_6 
REMARK    3  A    between atoms: C2_3  and  C3_4 
REMARK       I    between atoms: N2_6  and  C5_8 
REMARK    4  A    between atoms: C5_8  and  C6_10 
ROOT
HETATM    1  N2  UNL     1       0.286  -0.537  -0.109  1.00  0.00    -0.263 N 
HETATM    2  C4  UNL     1      -0.102  -1.829  -0.599  1.00  0.00     0.181 C 
HETATM    3  C5  UNL     1      -0.579   0.516   0.091  1.00  0.00     0.288 C 
HETATM    4  O1  UNL     1      -0.030   1.609   0.526  1.00  0.00    -0.264 OA
ENDROOT
BRANCH   3   5
HETATM    5  C6  UNL     1      -1.995   0.563  -0.115  1.00  0.00     0.104 A 
HETATM    6  C7  UNL     1      -2.853  -0.400  -0.518  1.00  0.00     0.057 A 
HETATM    7  C8  UNL     1      -4.168   0.098  -0.560  1.00  0.00     0.047 A 
HETATM    8 BR2  UNL     1      -5.744  -0.841  -1.055  1.00  0.00    -0.048 Br
HETATM    9  C9  UNL     1      -4.070   1.394  -0.169  1.00  0.00     0.098 A 
HETATM   10 BR3  UNL     1      -5.527   2.655  -0.014  1.00  0.00    -0.030 Br
HETATM   11  N3  UNL     1      -2.798   1.663   0.092  1.00  0.00    -0.345 N 
ATOM     12  H3  UNL     1      -2.457   2.571   0.407  1.00  0.00     0.167 HD
ENDBRANCH   3   5
BRANCH   1  13
HETATM   13  N1  UNL     1       1.648  -0.319   0.182  1.00  0.00    -0.327 N 
HETATM   14  C1  UNL     1       2.270  -1.296   0.978  1.00  0.00     0.171 C 
BRANCH  13  15
HETATM   15  C2  UNL     1       2.399   0.327  -0.821  1.00  0.00     0.153 C 
BRANCH  15  16
HETATM   16  C3  UNL     1       3.436   1.195  -0.085  1.00  0.00     0.106 C 
HETATM   17 BR1  UNL     1       4.516   2.117  -1.364  1.00  0.00    -0.095 Br
ENDBRANCH  15  16
ENDBRANCH  13  15
ENDBRANCH   1  13
TORSDOF 4
