REMARK  7 active torsions:
REMARK  status: ('A' for Active; 'I' for Inactive)
REMARK    1  A    between atoms: N1_2  and  C2_3 
REMARK    2  A    between atoms: C2_3  and  C3_4 
REMARK    3  A    between atoms: C4_6  and  C5_7 
REMARK    4  A    between atoms: C6_8  and  C7_9 
REMARK       I    between atoms: C7_9  and  N2_11 
REMARK    5  A    between atoms: N2_11  and  C8_13 
REMARK    6  A    between atoms: C14_20  and  C15_22 
REMARK    7  A    between atoms: C16_23  and  C17_24 
ROOT
HETATM    1  C2  UNL     1      -1.377  -0.648   0.161  1.00  0.00     0.288 C 
ENDROOT
BRANCH   1   2
HETATM    2  N1  UNL     1      -2.326  -0.072  -0.788  1.00  0.00    -0.014 N 
HETATM    3  C1  UNL     1      -1.649   0.253  -2.026  1.00  0.00     0.278 C 
HETATM    4  C11 UNL     1      -3.437  -0.970  -1.022  1.00  0.00     0.268 C 
HETATM    5  C12 UNL     1      -4.662  -0.236  -1.441  1.00  0.00     0.196 C 
HETATM    6  O2  UNL     1      -4.422   1.021  -1.984  1.00  0.00    -0.383 OA
HETATM    7  C13 UNL     1      -3.793   1.866  -1.091  1.00  0.00     0.256 C 
HETATM    8  C14 UNL     1      -2.847   1.130  -0.177  1.00  0.00     0.352 C 
HETATM    9  F1  UNL     1      -1.752   1.933   0.149  1.00  0.00    -0.194 F 
BRANCH   8  10
HETATM   10  C15 UNL     1      -3.500   0.737   1.088  1.00  0.00    -0.030 C 
HETATM   11  C16 UNL     1      -4.020   0.427   2.138  1.00  0.00    -0.086 C 
BRANCH  11  12
HETATM   12  C17 UNL     1      -4.669   0.038   3.398  1.00  0.00     0.208 C 
HETATM   13 CL1  UNL     1      -5.565  -1.492   3.107  1.00  0.00    -0.117 Cl
ENDBRANCH  11  12
ENDBRANCH   8  10
ENDBRANCH   1   2
BRANCH   1  14
HETATM   14  C3  UNL     1      -0.286  -1.374  -0.461  1.00  0.00     0.015 C 
HETATM   15 BR1  UNL     1      -0.692  -2.876  -1.565  1.00  0.00    -0.054 Br
HETATM   16  C4  UNL     1       0.981  -1.089  -0.327  1.00  0.00     0.017 C 
BRANCH  16  17
HETATM   17  C5  UNL     1       1.437  -0.002   0.472  1.00  0.00     0.007 C 
HETATM   18  C6  UNL     1       2.664   0.366   0.671  1.00  0.00     0.074 C 
BRANCH  18  19
HETATM   19  C7  UNL     1       3.838  -0.245   0.128  1.00  0.00     0.241 C 
HETATM   20  O1  UNL     1       3.829  -1.220  -0.614  1.00  0.00    -0.269 OA
HETATM   21  N2  UNL     1       5.112   0.351   0.499  1.00  0.00    -0.353 N 
ATOM     22  H2  UNL     1       5.139   1.162   1.117  1.00  0.00     0.163 HD
BRANCH  21  23
HETATM   23  C8  UNL     1       6.336  -0.214  -0.013  1.00  0.00     0.084 A 
HETATM   24  C9  UNL     1       7.533  -0.171   0.908  1.00  0.00     0.027 A 
HETATM   25  C10 UNL     1       7.498   0.716  -0.276  1.00  0.00     0.027 A 
ENDBRANCH  21  23
ENDBRANCH  18  19
ENDBRANCH  16  17
ENDBRANCH   1  14
TORSDOF 7
