REMARK  5 active torsions:
REMARK  status: ('A' for Active; 'I' for Inactive)
REMARK    1  A    between atoms: C2_2  and  C3_3 
REMARK    2  A    between atoms: C3_3  and  O1_4 
REMARK    3  A    between atoms: O1_4  and  C4_5 
REMARK    4  A    between atoms: C7_9  and  C8_10 
REMARK    5  A    between atoms: N1_12  and  C9_13 
ROOT
HETATM    1  C4  UNL     1       0.620   0.229  -0.160  1.00  0.00     0.157 A 
HETATM    2  C5  UNL     1      -0.146   1.280   0.058  1.00  0.00     0.077 A 
HETATM    3 BR1  UNL     1       0.503   3.067   0.085  1.00  0.00    -0.045 Br
HETATM    4  C6  UNL     1      -1.543   0.818   0.269  1.00  0.00     0.062 A 
HETATM    5  C7  UNL     1      -2.496   1.663   0.511  1.00  0.00     0.016 C 
HETATM    6  N1  UNL     1      -1.575  -0.596   0.158  1.00  0.00    -0.255 N 
HETATM    7  C10 UNL     1      -0.194  -0.967  -0.112  1.00  0.00     0.289 A 
HETATM    8  O2  UNL     1       0.149  -2.166  -0.267  1.00  0.00    -0.264 OA
ENDROOT
BRANCH   6   9
HETATM    9  C9  UNL     1      -2.630  -1.534   0.265  1.00  0.00     0.157 C 
HETATM   10  N2  UNL     1      -2.721  -2.367   1.243  1.00  0.00    -0.379 N 
ATOM     11  H22 UNL     1      -2.020  -2.260   1.976  1.00  0.00     0.158 HD
ATOM     12  H21 UNL     1      -3.481  -3.043   1.320  1.00  0.00     0.158 HD
HETATM   13 BR3  UNL     1      -3.957  -1.736  -1.122  1.00  0.00    -0.010 Br
ENDBRANCH   6   9
BRANCH   5  14
HETATM   14  C8  UNL     1      -3.924   1.467   0.760  1.00  0.00     0.114 C 
HETATM   15 BR2  UNL     1      -5.065   2.271  -0.577  1.00  0.00    -0.092 Br
ENDBRANCH   5  14
BRANCH   1  16
HETATM   16  O1  UNL     1       1.989   0.231  -0.401  1.00  0.00    -0.341 OA
BRANCH  16  17
HETATM   17  C3  UNL     1       2.952  -0.270   0.476  1.00  0.00     0.202 C 
BRANCH  17  18
HETATM   18  C2  UNL     1       4.293  -0.065  -0.183  1.00  0.00    -0.011 C 
HETATM   19  C1  UNL     1       5.084  -1.084  -0.459  1.00  0.00     0.009 C 
ENDBRANCH  17  18
ENDBRANCH  16  17
ENDBRANCH   1  16
TORSDOF 5
