REMARK  6 active torsions:
REMARK  status: ('A' for Active; 'I' for Inactive)
REMARK       I    between atoms: C1_4  and  N3_6 
REMARK    1  A    between atoms: N3_6  and  N4_8 
REMARK    2  A    between atoms: N4_8  and  C2_10 
REMARK    3  A    between atoms: C2_10  and  O1_11 
REMARK       I    between atoms: N5_13  and  C3_15 
REMARK    4  A    between atoms: C3_15  and  C4_17 
REMARK    5  A    between atoms: N6_21  and  S1_22 
REMARK    6  A    between atoms: S1_22  and  N7_23 
ROOT
HETATM    1  C2  UNL     1       1.972   0.177   0.855  1.00  0.00     0.238 C 
HETATM    2  N5  UNL     1       0.965   0.416   0.094  1.00  0.00    -0.290 N 
ATOM      3  H5  UNL     1       1.143   0.841  -0.816  1.00  0.00     0.172 HD
HETATM    4  C3  UNL     1      -0.374   0.126   0.441  1.00  0.00     0.243 C 
HETATM    5  O2  UNL     1      -0.614  -0.623   1.409  1.00  0.00    -0.271 OA
ENDROOT
BRANCH   1   6
HETATM    6  N4  UNL     1       3.284   0.500   0.429  1.00  0.00    -0.263 N 
ATOM      7  H4  UNL     1       3.453   1.305  -0.174  1.00  0.00     0.190 HD
BRANCH   6   8
HETATM    8  N3  UNL     1       4.334  -0.305   0.851  1.00  0.00    -0.271 N 
HETATM    9  C1  UNL     1       4.858  -1.362   0.060  1.00  0.00     0.200 C 
HETATM   10  N1  UNL     1       5.761  -1.086  -0.819  1.00  0.00    -0.372 N 
HETATM   11  N2  UNL     1       4.400  -2.704   0.230  1.00  0.00    -0.062 NA
ATOM     12  H12 UNL     1       6.137  -1.845  -1.387  1.00  0.00     0.158 HD
ATOM     13  H11 UNL     1       6.088  -0.128  -0.940  1.00  0.00     0.158 HD
ATOM     14  H3  UNL     1       4.746  -0.130   1.767  1.00  0.00     0.189 HD
ENDBRANCH   6   8
ENDBRANCH   1   6
BRANCH   1  15
HETATM   15  O1  UNL     1       1.813  -0.397   2.101  1.00  0.00    -0.331 OA
ATOM     16  H1  UNL     1       0.933  -0.614   2.387  1.00  0.00     0.221 HD
ENDBRANCH   1  15
BRANCH   4  17
HETATM   17  C4  UNL     1      -1.494   0.694  -0.323  1.00  0.00     0.168 C 
HETATM   18  C5  UNL     1      -1.474   2.228  -0.298  1.00  0.00     0.032 C 
HETATM   19  C6  UNL     1      -2.959   2.491  -0.591  1.00  0.00     0.018 C 
HETATM   20  C7  UNL     1      -3.580   1.480   0.351  1.00  0.00     0.110 C 
HETATM   21  N6  UNL     1      -2.780   0.302   0.156  1.00  0.00    -0.180 NA
BRANCH  21  22
HETATM   22  S1  UNL     1      -3.585  -0.728  -0.982  1.00  0.00     0.297 S 
HETATM   23  O3  UNL     1      -3.779  -0.041  -2.307  1.00  0.00    -0.189 OA
HETATM   24  O4  UNL     1      -4.938  -1.128  -0.469  1.00  0.00    -0.189 OA
BRANCH  22  25
HETATM   25  N7  UNL     1      -2.688  -2.185  -1.238  1.00  0.00    -0.316 N 
ATOM     26  H72 UNL     1      -1.805  -2.395  -0.773  1.00  0.00     0.170 HD
ATOM     27  H71 UNL     1      -3.162  -2.791  -1.908  1.00  0.00     0.170 HD
ENDBRANCH  22  25
ENDBRANCH  21  22
ENDBRANCH   4  17
TORSDOF 6
