REMARK  4 active torsions:
REMARK  status: ('A' for Active; 'I' for Inactive)
REMARK    1  A    between atoms: N1_6  and  N2_8 
REMARK    2  A    between atoms: C6_13  and  C7_14 
REMARK       I    between atoms: C7_14  and  N5_16 
REMARK    3  A    between atoms: N5_16  and  N6_18 
REMARK    4  A    between atoms: N6_18  and  C8_20 
ROOT
HETATM    1  C1  UNL     1       1.112   3.286  -1.011  1.00  0.00     0.047 C 
HETATM    2  C2  UNL     1      -0.052   2.440  -0.657  1.00  0.00     0.081 C 
HETATM    3  C3  UNL     1      -1.337   2.984  -1.236  1.00  0.00     0.047 C 
HETATM    4  O1  UNL     1      -0.242   2.087   0.696  1.00  0.00    -0.325 OA
HETATM    5  C4  UNL     1      -0.983   0.991   0.179  1.00  0.00     0.149 C 
HETATM    6  N1  UNL     1      -2.008   0.406   0.530  1.00  0.00    -0.281 N 
ATOM      7  H1  UNL     1      -2.422   0.788   1.380  1.00  0.00     0.189 HD
HETATM    8  C6  UNL     1       0.045   0.950  -0.887  1.00  0.00     0.190 C 
ENDROOT
BRANCH   8   9
HETATM    9  C7  UNL     1       1.274   0.326  -0.307  1.00  0.00     0.251 C 
HETATM   10  O2  UNL     1       2.041   0.927   0.487  1.00  0.00    -0.271 OA
HETATM   11  N5  UNL     1       1.608  -1.008  -0.655  1.00  0.00    -0.267 N 
ATOM     12  H5  UNL     1       1.020  -1.542  -1.295  1.00  0.00     0.190 HD
BRANCH  11  13
HETATM   13  N6  UNL     1       2.758  -1.574  -0.103  1.00  0.00    -0.276 N 
ATOM     14  H6  UNL     1       3.559  -1.730  -0.715  1.00  0.00     0.189 HD
BRANCH  13  15
HETATM   15  C8  UNL     1       2.876  -1.942   1.251  1.00  0.00     0.199 C 
HETATM   16  N7  UNL     1       4.062  -2.511   1.733  1.00  0.00    -0.068 NA
HETATM   17  S1  UNL     1       1.627  -1.700   2.253  1.00  0.00    -0.043 SA
ENDBRANCH  13  15
ENDBRANCH  11  13
ENDBRANCH   8   9
BRANCH   6  18
HETATM   18  N2  UNL     1      -2.692  -0.632   0.022  1.00  0.00    -0.274 N 
HETATM   19  C5  UNL     1      -3.014  -1.767   0.507  1.00  0.00     0.215 C 
HETATM   20  N3  UNL     1      -3.760  -2.636  -0.354  1.00  0.00    -0.065 NA
HETATM   21  N4  UNL     1      -2.673  -2.178   1.835  1.00  0.00    -0.065 NA
ATOM     22  H2  UNL     1      -3.016  -0.485  -0.934  1.00  0.00     0.189 HD
ENDBRANCH   6  18
TORSDOF 4
