REMARK  5 active torsions:
REMARK  status: ('A' for Active; 'I' for Inactive)
REMARK    1  A    between atoms: C2_3  and  C3_4 
REMARK    2  A    between atoms: C2_3  and  N6_17 
REMARK    3  A    between atoms: C3_4  and  S1_5 
REMARK    4  A    between atoms: S1_5  and  C4_6 
REMARK    5  A    between atoms: C5_9  and  N3_10 
ROOT
HETATM    1  N1  UNL     1       1.084   2.294  -2.667  1.00  0.00    -0.195 NA
HETATM    2  C1  UNL     1       0.577   1.510  -1.973  1.00  0.00     0.085 C 
HETATM    3  C2  UNL     1      -0.043   0.528  -1.084  1.00  0.00     0.204 C 
ENDROOT
BRANCH   3   4
HETATM    4  C3  UNL     1      -0.677  -0.522  -1.952  1.00  0.00     0.123 C 
BRANCH   4   5
HETATM    5  S1  UNL     1      -1.458  -1.767  -0.886  1.00  0.00    -0.089 SA
BRANCH   5   6
HETATM    6  C4  UNL     1      -2.827  -1.049   0.017  1.00  0.00     0.174 A 
HETATM    7  N2  UNL     1      -3.278   0.227  -0.017  1.00  0.00    -0.168 N 
HETATM    8  C5  UNL     1      -4.321   0.374   0.802  1.00  0.00     0.692 A 
ATOM      9  H2  UNL     1      -2.877   0.971  -0.588  1.00  0.00     0.186 HD
HETATM   10  N4  UNL     1      -4.537  -0.842   1.368  1.00  0.00    -0.130 N 
HETATM   11  N5  UNL     1      -3.635  -1.671   0.885  1.00  0.00    -0.265 N 
ATOM     12  H4  UNL     1      -5.265  -1.071   2.044  1.00  0.00     0.205 HD
ATOM     13  H5  UNL     1      -3.562  -2.656   1.138  1.00  0.00     0.189 HD
BRANCH   8  14
HETATM   14  N3  UNL     1      -5.036   1.417   1.061  1.00  0.00    -0.233 N 
ATOM     15  H32 UNL     1      -4.874   2.330   0.636  1.00  0.00     0.174 HD
ATOM     16  H31 UNL     1      -5.833   1.529   1.687  1.00  0.00     0.174 HD
ENDBRANCH   8  14
ENDBRANCH   5   6
ENDBRANCH   4   5
ENDBRANCH   3   4
BRANCH   3  17
HETATM   17  N6  UNL     1       0.967   0.005  -0.215  1.00  0.00    -0.356 N 
HETATM   18  C6  UNL     1       2.013  -0.700  -0.838  1.00  0.00     0.064 C 
HETATM   19  C7  UNL     1       3.205  -1.021   0.022  1.00  0.00     0.045 C 
HETATM   20  C8  UNL     1       3.708   0.299   0.568  1.00  0.00     0.010 C 
HETATM   21  C9  UNL     1       2.611   0.799   1.475  1.00  0.00     0.045 C 
HETATM   22  C10 UNL     1       1.261   0.832   0.886  1.00  0.00     0.064 C 
ENDBRANCH   3  17
TORSDOF 5
