REMARK  5 active torsions:
REMARK  status: ('A' for Active; 'I' for Inactive)
REMARK    1  A    between atoms: C1_2  and  C2_3 
REMARK    2  A    between atoms: C2_3  and  C3_4 
REMARK    3  A    between atoms: C3_4  and  N2_5 
REMARK    4  A    between atoms: N3_11  and  N4_13 
REMARK    5  A    between atoms: N4_13  and  C9_15 
ROOT
HETATM    1  N1  UNL     1      -0.186  -0.135   1.726  1.00  0.00    -0.086 NA
HETATM    2  C1  UNL     1       0.628   0.118   0.590  1.00  0.00     0.109 C 
HETATM    3  N3  UNL     1       1.743   0.722   0.792  1.00  0.00    -0.288 N 
ATOM      4  H3  UNL     1       1.964   0.977   1.755  1.00  0.00     0.188 HD
ENDROOT
BRANCH   3   5
HETATM    5  N4  UNL     1       2.668   1.057  -0.171  1.00  0.00    -0.270 N 
ATOM      6  H4  UNL     1       2.331   1.459  -1.046  1.00  0.00     0.190 HD
BRANCH   5   7
HETATM    7  C9  UNL     1       4.078   0.871  -0.009  1.00  0.00     0.190 C 
HETATM    8  N5  UNL     1       4.972   1.776  -0.268  1.00  0.00    -0.360 N 
HETATM    9  C10 UNL     1       6.298   1.277  -0.001  1.00  0.00     0.142 C 
ATOM     10  H5  UNL     1       4.764   2.713  -0.614  1.00  0.00     0.162 HD
HETATM   11  C11 UNL     1       6.081  -0.221   0.021  1.00  0.00     0.142 C 
HETATM   12  N6  UNL     1       4.706  -0.314   0.450  1.00  0.00    -0.360 N 
ATOM     13  H6  UNL     1       4.275  -1.075   0.975  1.00  0.00     0.162 HD
ENDBRANCH   5   7
ENDBRANCH   3   5
BRANCH   2  14
HETATM   14  C2  UNL     1       0.159  -0.319  -0.738  1.00  0.00     0.104 C 
BRANCH  14  15
HETATM   15  C3  UNL     1      -1.140   0.302  -1.135  1.00  0.00     0.279 C 
BRANCH  15  16
HETATM   16  N2  UNL     1      -2.231   0.015  -0.249  1.00  0.00     0.088 N 
HETATM   17  C4  UNL     1      -2.640  -1.372  -0.273  1.00  0.00     0.272 C 
HETATM   18  C5  UNL     1      -3.710  -1.517   0.814  1.00  0.00     0.030 C 
HETATM   19  C6  UNL     1      -4.934  -0.769   0.351  1.00  0.00     0.003 C 
HETATM   20  C7  UNL     1      -4.538   0.691   0.200  1.00  0.00     0.030 C 
HETATM   21  C8  UNL     1      -3.381   0.783  -0.753  1.00  0.00     0.272 C 
ENDBRANCH  15  16
ENDBRANCH  14  15
ENDBRANCH   2  14
TORSDOF 5
