REMARK  6 active torsions:
REMARK  status: ('A' for Active; 'I' for Inactive)
REMARK    1  A    between atoms: C2_2  and  C3_3 
REMARK    2  A    between atoms: C3_3  and  C4_4 
REMARK    3  A    between atoms: C4_4  and  O1_5 
REMARK    4  A    between atoms: C4_4  and  C5_7 
REMARK    5  A    between atoms: C7_12  and  C8_13 
REMARK    6  A    between atoms: C11_17  and  O2_18 
ROOT
HETATM    1  C5  UNL     1      -0.582  -0.191  -0.922  1.00  0.00     0.179 C 
HETATM    2  C6  UNL     1       0.632   0.116  -1.797  1.00  0.00     0.267 C 
HETATM    3  N1  UNL     1       1.753   0.586  -1.055  1.00  0.00    -0.067 N 
ATOM      4  H11 UNL     1       1.484   1.373  -0.465  1.00  0.00     0.277 HD
ATOM      5  H12 UNL     1       2.419   1.050  -1.672  1.00  0.00     0.277 HD
HETATM    6  C7  UNL     1       2.410  -0.420  -0.277  1.00  0.00     0.205 C 
HETATM    7  C10 UNL     1       1.914  -0.307   1.141  1.00  0.00     0.094 C 
HETATM    8  C11 UNL     1       0.428  -0.075   1.201  1.00  0.00     0.259 C 
HETATM    9  O3  UNL     1      -0.309  -0.693   0.277  1.00  0.00    -0.352 OA
ENDROOT
BRANCH   1  10
HETATM   10  C4  UNL     1      -1.598   0.921  -1.016  1.00  0.00     0.148 C 
BRANCH  10  11
HETATM   11  C3  UNL     1      -2.999   0.509  -0.627  1.00  0.00     0.034 C 
BRANCH  11  12
HETATM   12  C2  UNL     1      -3.155   0.038   0.772  1.00  0.00    -0.002 C 
HETATM   13  C1  UNL     1      -4.643  -0.310   0.944  1.00  0.00     0.005 C 
ENDBRANCH  11  12
ENDBRANCH  10  11
BRANCH  10  14
HETATM   14  O1  UNL     1      -1.729   1.322  -2.374  1.00  0.00    -0.393 OA
ATOM     15  H1  UNL     1      -0.848   1.581  -2.619  1.00  0.00     0.210 HD
ENDBRANCH  10  14
ENDBRANCH   1  10
BRANCH   8  16
HETATM   16  O2  UNL     1       0.223   1.287   1.365  1.00  0.00    -0.371 OA
ATOM     17  H2  UNL     1      -0.715   1.433   1.403  1.00  0.00     0.212 HD
ENDBRANCH   8  16
BRANCH   6  18
HETATM   18  C8  UNL     1       3.880  -0.219  -0.354  1.00  0.00     0.087 A 
HETATM   19  C9  UNL     1       4.839  -1.124   0.363  1.00  0.00     0.091 A 
HETATM   20  S1  UNL     1       4.761  -1.393  -1.422  1.00  0.00    -0.160 SA
ENDBRANCH   6  18
TORSDOF 6
