REMARK  6 active torsions:
REMARK  status: ('A' for Active; 'I' for Inactive)
REMARK    1  A    between atoms: C2_2  and  N2_6 
REMARK    2  A    between atoms: C5_9  and  N3_10 
REMARK    3  A    between atoms: C5_9  and  C6_14 
REMARK    4  A    between atoms: C6_14  and  N4_15 
REMARK    5  A    between atoms: N4_15  and  C7_17 
REMARK    6  A    between atoms: C7_17  and  C8_18 
ROOT
HETATM    1  N2  UNL     1       2.861  -0.217   0.150  1.00  0.00    -0.369 N 
HETATM    2  C3  UNL     1       2.128  -0.642   1.329  1.00  0.00     0.127 C 
HETATM    3  C4  UNL     1       0.753  -0.055   1.162  1.00  0.00     0.066 C 
HETATM    4  C5  UNL     1       0.562   0.027  -0.306  1.00  0.00     0.172 C 
HETATM    5  C12 UNL     1       1.970   0.446  -0.774  1.00  0.00     0.168 C 
ENDROOT
BRANCH   4   6
HETATM    6  N3  UNL     1       0.330  -1.269  -0.917  1.00  0.00    -0.064 N 
ATOM      7  H33 UNL     1       1.077  -1.922  -0.682  1.00  0.00     0.275 HD
ATOM      8  H32 UNL     1      -0.454  -1.747  -0.473  1.00  0.00     0.275 HD
ATOM      9  H31 UNL     1       0.199  -1.213  -1.927  1.00  0.00     0.275 HD
ENDBRANCH   4   6
BRANCH   4  10
HETATM   10  C6  UNL     1      -0.362   1.075  -0.793  1.00  0.00     0.096 C 
BRANCH  10  11
HETATM   11  N4  UNL     1      -1.700   1.054  -0.369  1.00  0.00    -0.394 N 
ATOM     12  H4  UNL     1      -2.059   1.779   0.253  1.00  0.00     0.159 HD
BRANCH  11  13
HETATM   13  C7  UNL     1      -2.544   0.009  -0.820  1.00  0.00     0.183 C 
BRANCH  13  14
HETATM   14  C8  UNL     1      -3.934   0.110  -0.329  1.00  0.00     0.070 A 
HETATM   15  C9  UNL     1      -4.509  -0.436   0.794  1.00  0.00     0.036 A 
HETATM   16  C10 UNL     1      -5.826  -0.066   0.829  1.00  0.00     0.027 A 
HETATM   17  C11 UNL     1      -6.015   0.718  -0.311  1.00  0.00     0.142 A 
HETATM   18  O1  UNL     1      -4.873   0.795  -0.962  1.00  0.00    -0.325 OA
ENDBRANCH  13  14
ENDBRANCH  11  13
ENDBRANCH  10  11
ENDBRANCH   4  10
BRANCH   1  19
HETATM   19  C2  UNL     1       4.242  -0.455   0.007  1.00  0.00     0.068 C 
HETATM   20  C1  UNL     1       5.248   0.401   0.679  1.00  0.00     0.088 C 
HETATM   21  N1  UNL     1       4.668  -1.426  -0.712  1.00  0.00    -0.389 N 
ATOM     22  H12 UNL     1       5.668  -1.598  -0.816  1.00  0.00     0.157 HD
ATOM     23  H11 UNL     1       3.976  -2.015  -1.175  1.00  0.00     0.157 HD
ENDBRANCH   1  19
TORSDOF 6
