REMARK  10 active torsions:
REMARK  status: ('A' for Active; 'I' for Inactive)
REMARK    1  A    between atoms: C2_2  and  C4_4 
REMARK    2  A    between atoms: C4_4  and  C5_5 
REMARK    3  A    between atoms: C5_5  and  N1_6 
REMARK    4  A    between atoms: C5_5  and  C14_16 
REMARK    5  A    between atoms: C15_21  and  C16_22 
REMARK    6  A    between atoms: C16_22  and  N4_23 
REMARK    7  A    between atoms: C19_26  and  O1_27 
REMARK    8  A    between atoms: C19_26  and  C20_29 
REMARK    9  A    between atoms: C20_29  and  C21_30 
REMARK   10  A    between atoms: C26_35  and  C27_36 
ROOT
HETATM    1  C14 UNL     1      -1.429   0.193   0.293  1.00  0.00     0.163 A 
HETATM    2  N2  UNL     1      -0.945   0.995  -0.677  1.00  0.00    -0.280 N 
ATOM      3  H2  UNL     1      -1.436   1.261  -1.531  1.00  0.00     0.189 HD
HETATM    4  N3  UNL     1       0.275   1.379  -0.334  1.00  0.00    -0.280 N 
ATOM      5  H3  UNL     1       0.888   1.990  -0.873  1.00  0.00     0.189 HD
HETATM    6  C15 UNL     1       0.559   0.817   0.854  1.00  0.00     0.168 A 
HETATM    7  O2  UNL     1      -0.499   0.111   1.191  1.00  0.00    -0.278 OA
ENDROOT
BRANCH   6   8
HETATM    8  C16 UNL     1       1.767   0.909   1.685  1.00  0.00     0.358 C 
BRANCH   8   9
HETATM    9  N4  UNL     1       2.785  -0.058   1.393  1.00  0.00     0.096 N 
HETATM   10  C17 UNL     1       3.315   0.031   0.046  1.00  0.00     0.276 C 
HETATM   11  C18 UNL     1       4.774   0.502   0.088  1.00  0.00     0.068 C 
HETATM   12  C19 UNL     1       5.645  -0.507   0.733  1.00  0.00     0.065 C 
HETATM   13  C28 UNL     1       5.007  -0.919   2.056  1.00  0.00     0.068 C 
HETATM   14  C29 UNL     1       3.800  -0.102   2.400  1.00  0.00     0.276 C 
BRANCH  12  15
HETATM   15  O1  UNL     1       5.557  -1.670  -0.075  1.00  0.00    -0.389 OA
ATOM     16  H1  UNL     1       6.116  -2.317   0.339  1.00  0.00     0.210 HD
ENDBRANCH  12  15
BRANCH  12  17
HETATM   17  C20 UNL     1       7.092  -0.194   0.943  1.00  0.00     0.077 C 
BRANCH  17  18
HETATM   18  C21 UNL     1       7.900   0.095  -0.241  1.00  0.00    -0.040 A 
HETATM   19  C22 UNL     1       8.230  -1.031  -1.018  1.00  0.00     0.008 A 
HETATM   20  C23 UNL     1       8.906  -0.880  -2.192  1.00  0.00     0.001 A 
HETATM   21  C24 UNL     1       9.295   0.350  -2.675  1.00  0.00     0.001 A 
HETATM   22  C25 UNL     1       8.963   1.431  -1.900  1.00  0.00     0.017 A 
HETATM   23  C26 UNL     1       8.266   1.326  -0.676  1.00  0.00     0.054 A 
BRANCH  23  24
HETATM   24  C27 UNL     1       8.035   2.546   0.115  1.00  0.00     0.418 C 
HETATM   25  F1  UNL     1       8.561   2.486   1.401  1.00  0.00    -0.166 F 
HETATM   26  F2  UNL     1       8.950   3.516  -0.470  1.00  0.00    -0.166 F 
HETATM   27  F3  UNL     1       6.852   3.182  -0.005  1.00  0.00    -0.166 F 
ENDBRANCH  23  24
ENDBRANCH  17  18
ENDBRANCH  12  17
ENDBRANCH   8   9
ENDBRANCH   6   8
BRANCH   1  28
HETATM   28  C5  UNL     1      -2.819  -0.473   0.293  1.00  0.00     0.158 C 
BRANCH  28  29
HETATM   29  C4  UNL     1      -2.636  -1.760  -0.393  1.00  0.00     0.037 C 
BRANCH  29  30
HETATM   30  C2  UNL     1      -3.719  -2.749  -0.473  1.00  0.00    -0.020 C 
HETATM   31  C1  UNL     1      -4.229  -3.210   0.877  1.00  0.00     0.009 C 
HETATM   32  C3  UNL     1      -3.071  -4.002  -1.158  1.00  0.00     0.009 C 
ENDBRANCH  29  30
ENDBRANCH  28  29
BRANCH  28  33
HETATM   33  N1  UNL     1      -3.720   0.448  -0.096  1.00  0.00    -0.384 N 
HETATM   34  C6  UNL     1      -5.062   0.607  -0.177  1.00  0.00    -0.014 C 
HETATM   35  C7  UNL     1      -5.935   0.471   1.061  1.00  0.00     0.053 C 
HETATM   36  C12 UNL     1      -5.830   0.426  -1.437  1.00  0.00     0.027 C 
HETATM   37  C8  UNL     1      -7.060   1.454   0.933  1.00  0.00     0.010 C 
HETATM   38  C9  UNL     1      -7.689   1.582  -0.404  1.00  0.00    -0.018 C 
HETATM   39  C10 UNL     1      -8.470   2.914  -0.385  1.00  0.00     0.010 C 
HETATM   40  C11 UNL     1      -6.752   1.678  -1.567  1.00  0.00     0.014 C 
HETATM   41  C13 UNL     1      -6.820  -0.714  -1.471  1.00  0.00     0.016 C 
ATOM     42  H1  UNL     1      -3.245   1.285  -0.434  1.00  0.00     0.160 HD
ENDBRANCH  28  33
ENDBRANCH   1  28
TORSDOF 10
