REMARK  11 active torsions:
REMARK  status: ('A' for Active; 'I' for Inactive)
REMARK    1  A    between atoms: C2_2  and  C3_3 
REMARK    2  A    between atoms: C3_3  and  O1_4 
REMARK    3  A    between atoms: O1_4  and  C4_5 
REMARK    4  A    between atoms: C9_12  and  C10_13 
REMARK    5  A    between atoms: C10_13  and  O2_14 
REMARK    6  A    between atoms: O2_14  and  C11_15 
REMARK    7  A    between atoms: C12_16  and  O3_17 
REMARK    8  A    between atoms: O3_17  and  C13_18 
REMARK    9  A    between atoms: C20_26  and  N1_27 
REMARK   10  A    between atoms: C22_31  and  O4_32 
REMARK   11  A    between atoms: C22_31  and  O5_34 
ROOT
HETATM    1  C11 UNL     1      -0.615  -0.527   0.116  1.00  0.00     0.137 A 
HETATM    2  C12 UNL     1      -1.198  -1.626  -0.378  1.00  0.00     0.127 A 
HETATM    3  C17 UNL     1      -2.445  -1.511  -0.945  1.00  0.00     0.071 A 
HETATM    4 CL3  UNL     1      -3.114  -2.949  -1.773  1.00  0.00    -0.081 Cl
HETATM    5  C18 UNL     1      -3.094  -0.344  -1.014  1.00  0.00     0.043 A 
HETATM    6  C19 UNL     1      -2.440   0.784  -0.467  1.00  0.00     0.022 A 
HETATM    7  C20 UNL     1      -3.223   1.935  -0.371  1.00  0.00     0.055 A 
HETATM    8  C21 UNL     1      -2.741   3.055   0.316  1.00  0.00     0.064 A 
HETATM    9  C22 UNL     1      -3.807   3.990   0.558  1.00  0.00     0.192 C 
HETATM   10  C24 UNL     1      -1.495   3.019   0.853  1.00  0.00     0.107 A 
HETATM   11  N2  UNL     1      -0.747   1.814   0.736  1.00  0.00    -0.362 N 
ATOM     12  H2  UNL     1       0.180   1.771   1.160  1.00  0.00     0.165 HD
HETATM   13  C25 UNL     1      -1.203   0.750   0.102  1.00  0.00     0.082 A 
ENDROOT
BRANCH   1  14
HETATM   14  O2  UNL     1       0.727  -0.731   0.724  1.00  0.00    -0.317 OA
BRANCH  14  15
HETATM   15  C10 UNL     1       1.688  -0.896  -0.147  1.00  0.00     0.157 C 
BRANCH  15  16
HETATM   16  C9  UNL     1       2.999  -1.080  -0.632  1.00  0.00     0.023 A 
HETATM   17  C4  UNL     1       3.283   0.253  -1.250  1.00  0.00     0.102 A 
HETATM   18  C5  UNL     1       4.216   0.432  -2.209  1.00  0.00     0.070 A 
HETATM   19 CL1  UNL     1       4.297   1.989  -3.049  1.00  0.00    -0.081 Cl
HETATM   20  C6  UNL     1       4.916  -0.690  -2.613  1.00  0.00     0.050 A 
HETATM   21  C7  UNL     1       4.717  -1.908  -2.044  1.00  0.00     0.036 A 
HETATM   22 CL2  UNL     1       5.774  -3.230  -2.498  1.00  0.00    -0.084 Cl
HETATM   23  C8  UNL     1       3.757  -2.101  -1.043  1.00  0.00     0.040 A 
BRANCH  17  24
HETATM   24  O1  UNL     1       2.483   1.188  -0.653  1.00  0.00    -0.348 OA
BRANCH  24  25
HETATM   25  C3  UNL     1       3.024   1.764   0.550  1.00  0.00     0.175 C 
BRANCH  25  26
HETATM   26  C2  UNL     1       4.220   2.622   0.555  1.00  0.00     0.022 C 
HETATM   27  C1  UNL     1       5.546   2.024   0.418  1.00  0.00     0.007 C 
ENDBRANCH  25  26
ENDBRANCH  24  25
ENDBRANCH  17  24
ENDBRANCH  15  16
ENDBRANCH  14  15
ENDBRANCH   1  14
BRANCH   2  28
HETATM   28  O3  UNL     1      -0.661  -2.896  -0.326  1.00  0.00    -0.341 OA
BRANCH  28  29
HETATM   29  C13 UNL     1      -1.110  -4.027   0.238  1.00  0.00     0.133 A 
HETATM   30  C14 UNL     1      -1.035  -4.448   1.666  1.00  0.00     0.039 A 
HETATM   31  C15 UNL     1      -2.382  -4.342   0.948  1.00  0.00     0.013 A 
HETATM   32  C16 UNL     1      -2.994  -5.722   0.656  1.00  0.00     0.012 C 
ENDBRANCH  28  29
ENDBRANCH   2  28
BRANCH   7  33
HETATM   33  N1  UNL     1      -4.393   1.809  -0.845  1.00  0.00    -0.398 N 
ATOM     34  H12 UNL     1      -4.744   0.993  -1.346  1.00  0.00     0.156 HD
ATOM     35  H11 UNL     1      -4.965   2.650  -0.775  1.00  0.00     0.156 HD
ENDBRANCH   7  33
BRANCH   9  36
HETATM   36  O4  UNL     1      -4.539   3.656   1.615  1.00  0.00    -0.340 OA
ATOM     37  H4  UNL     1      -5.243   4.274   1.775  1.00  0.00     0.220 HD
ENDBRANCH   9  36
BRANCH   9  38
HETATM   38  O5  UNL     1      -4.215   5.092  -0.094  1.00  0.00    -0.335 OA
HETATM   39  C23 UNL     1      -5.473   5.709   0.380  1.00  0.00     0.212 C 
ENDBRANCH   9  38
TORSDOF 11
