REMARK  12 active torsions:
REMARK  status: ('A' for Active; 'I' for Inactive)
REMARK    1  A    between atoms: C3_3  and  C4_4 
REMARK    2  A    between atoms: C4_4  and  C5_5 
REMARK    3  A    between atoms: C7_7  and  O1_8 
REMARK    4  A    between atoms: C7_7  and  C8_10 
REMARK    5  A    between atoms: C8_10  and  O2_11 
REMARK    6  A    between atoms: O2_11  and  C9_12 
REMARK    7  A    between atoms: C11_14  and  O3_15 
REMARK    8  A    between atoms: O3_15  and  C12_16 
REMARK    9  A    between atoms: C12_16  and  C13_17 
REMARK   10  A    between atoms: C13_17  and  C14_18 
REMARK   11  A    between atoms: C14_18  and  O4_19 
REMARK   12  A    between atoms: O4_19  and  C15_20 
ROOT
HETATM    1  C1  UNL     1      -5.250  -5.240   0.668  1.00  0.00     0.112 C 
HETATM    2  C2  UNL     1      -4.827  -3.840   0.897  1.00  0.00    -0.111 C 
HETATM    3  C3  UNL     1      -4.498  -2.691   1.072  1.00  0.00    -0.103 C 
ENDROOT
BRANCH   3   4
HETATM    4  C4  UNL     1      -4.117  -1.282   1.273  1.00  0.00     0.130 C 
BRANCH   4   5
HETATM    5  C5  UNL     1      -4.904  -0.396   0.392  1.00  0.00    -0.042 C 
HETATM    6  C6  UNL     1      -6.397  -0.453   0.608  1.00  0.00     0.047 C 
HETATM    7  C7  UNL     1      -4.436   0.404  -0.527  1.00  0.00     0.070 C 
BRANCH   7   8
HETATM    8  O1  UNL     1      -5.373   1.166  -1.258  1.00  0.00    -0.362 OA
ATOM      9  H1  UNL     1      -5.032   1.748  -1.927  1.00  0.00     0.217 HD
ENDBRANCH   7   8
BRANCH   7  10
HETATM   10  C8  UNL     1      -2.983   0.568  -0.856  1.00  0.00     0.240 C 
BRANCH  10  11
HETATM   11  O2  UNL     1      -2.580   1.920  -0.652  1.00  0.00    -0.342 OA
BRANCH  11  12
HETATM   12  C9  UNL     1      -1.266   2.289  -0.900  1.00  0.00     0.101 A 
HETATM   13  C10 UNL     1      -0.299   1.403  -1.345  1.00  0.00     0.076 A 
HETATM   14  C11 UNL     1       1.002   1.772  -1.589  1.00  0.00     0.074 A 
HETATM   15  C22 UNL     1       1.341   3.114  -1.371  1.00  0.00     0.076 A 
HETATM   16  C23 UNL     1       0.416   4.027  -0.932  1.00  0.00     0.101 A 
HETATM   17  C24 UNL     1      -0.878   3.597  -0.703  1.00  0.00     0.102 A 
HETATM   18  O6  UNL     1       0.786   5.373  -0.720  1.00  0.00    -0.340 OA
HETATM   19  N1  UNL     1      -1.846   4.551  -0.252  1.00  0.00    -0.321 N 
HETATM   20  C25 UNL     1      -1.429   5.892  -0.064  1.00  0.00     0.246 C 
ATOM     21  H1  UNL     1      -2.810   4.272  -0.071  1.00  0.00     0.169 HD
HETATM   22  O5  UNL     1      -2.029   6.672   0.703  1.00  0.00    -0.271 OA
HETATM   23  C26 UNL     1      -0.241   6.335  -0.823  1.00  0.00     0.278 C 
BRANCH  14  24
HETATM   24  O3  UNL     1       1.918   0.877  -2.019  1.00  0.00    -0.351 OA
BRANCH  24  25
HETATM   25  C12 UNL     1       1.923  -0.453  -2.298  1.00  0.00     0.178 C 
BRANCH  25  26
HETATM   26  C13 UNL     1       1.639  -1.402  -1.160  1.00  0.00     0.053 C 
BRANCH  26  27
HETATM   27  C14 UNL     1       2.676  -1.235  -0.047  1.00  0.00     0.178 C 
BRANCH  27  28
HETATM   28  O4  UNL     1       3.960  -1.503  -0.544  1.00  0.00    -0.349 OA
BRANCH  28  29
HETATM   29  C15 UNL     1       5.031  -1.398   0.339  1.00  0.00     0.096 A 
HETATM   30  C16 UNL     1       5.440  -2.494   1.071  1.00  0.00    -0.025 A 
HETATM   31  C17 UNL     1       4.730  -3.790   0.914  1.00  0.00     0.051 C 
HETATM   32  C18 UNL     1       6.509  -2.431   1.965  1.00  0.00     0.033 A 
HETATM   33  C19 UNL     1       7.192  -1.245   2.138  1.00  0.00     0.036 A 
HETATM   34 CL1  UNL     1       8.548  -1.116   3.256  1.00  0.00    -0.084 Cl
HETATM   35  C20 UNL     1       6.786  -0.151   1.409  1.00  0.00     0.050 A 
HETATM   36  C21 UNL     1       5.715  -0.219   0.514  1.00  0.00     0.069 A 
HETATM   37 CL2  UNL     1       5.213   1.186  -0.406  1.00  0.00    -0.081 Cl
ENDBRANCH  28  29
ENDBRANCH  27  28
ENDBRANCH  26  27
ENDBRANCH  25  26
ENDBRANCH  24  25
ENDBRANCH  14  24
ENDBRANCH  11  12
ENDBRANCH  10  11
ENDBRANCH   7  10
ENDBRANCH   4   5
ENDBRANCH   3   4
TORSDOF 12
