REMARK  9 active torsions:
REMARK  status: ('A' for Active; 'I' for Inactive)
REMARK    1  A    between atoms: O1_2  and  C2_3 
REMARK    2  A    between atoms: C3_4  and  C4_5 
REMARK    3  A    between atoms: C5_8  and  C6_9 
REMARK    4  A    between atoms: C6_9  and  C8_11 
REMARK    5  A    between atoms: C11_20  and  C12_21 
REMARK    6  A    between atoms: C14_25  and  O4_26 
REMARK    7  A    between atoms: O4_26  and  C15_27 
REMARK    8  A    between atoms: C15_27  and  C17_29 
REMARK    9  A    between atoms: C25_37  and  C26_38 
ROOT
HETATM    1  C4  UNL     1      -2.144   0.530   0.154  1.00  0.00     0.074 A 
HETATM    2  N1  UNL     1      -3.376  -0.008  -0.057  1.00  0.00    -0.343 N 
ATOM      3  H1  UNL     1      -4.254   0.509  -0.011  1.00  0.00     0.167 HD
HETATM    4  C5  UNL     1      -3.270  -1.323  -0.335  1.00  0.00     0.088 A 
HETATM    5  N3  UNL     1      -1.959  -1.609  -0.296  1.00  0.00    -0.343 N 
ATOM      6  H3  UNL     1      -1.560  -2.532  -0.466  1.00  0.00     0.167 HD
HETATM    7  C11 UNL     1      -1.233  -0.490   0.003  1.00  0.00     0.073 A 
ENDROOT
BRANCH   7   8
HETATM    8  C12 UNL     1       0.200  -0.392   0.148  1.00  0.00     0.014 A 
HETATM    9  C13 UNL     1       1.001  -0.233  -0.955  1.00  0.00     0.104 A 
HETATM   10  N4  UNL     1       2.347  -0.151  -0.812  1.00  0.00    -0.346 N 
HETATM   11  C14 UNL     1       2.957  -0.219   0.383  1.00  0.00     0.142 A 
ATOM     12  H4  UNL     1       2.921  -0.033  -1.647  1.00  0.00     0.167 HD
HETATM   13  C20 UNL     1       2.186  -0.377   1.508  1.00  0.00     0.063 A 
HETATM   14  C21 UNL     1       0.789  -0.464   1.387  1.00  0.00    -0.044 A 
HETATM   15  C22 UNL     1       0.010  -0.641   2.640  1.00  0.00     0.049 C 
BRANCH  11  16
HETATM   16  O4  UNL     1       4.352  -0.131   0.502  1.00  0.00    -0.330 OA
BRANCH  16  17
HETATM   17  C15 UNL     1       5.170   0.049  -0.641  1.00  0.00     0.129 C 
HETATM   18  C16 UNL     1       5.928  -1.285  -0.788  1.00  0.00     0.040 C 
BRANCH  17  19
HETATM   19  C17 UNL     1       6.217   1.094  -0.345  1.00  0.00     0.006 C 
HETATM   20  C18 UNL     1       7.048   0.607   0.817  1.00  0.00     0.012 C 
HETATM   21  C19 UNL     1       7.035   1.438  -1.546  1.00  0.00     0.012 C 
ENDBRANCH  17  19
ENDBRANCH  16  17
ENDBRANCH  11  16
ENDBRANCH   7   8
BRANCH   1  22
HETATM   22  C3  UNL     1      -1.945   1.941   0.464  1.00  0.00     0.029 A 
HETATM   23  C2  UNL     1      -1.492   2.865  -0.454  1.00  0.00     0.120 A 
HETATM   24  C27 UNL     1      -1.333   4.188  -0.050  1.00  0.00     0.162 A 
HETATM   25  C25 UNL     1      -1.614   4.599   1.234  1.00  0.00     0.047 A 
HETATM   26  F3  UNL     1      -0.880   5.103  -0.972  1.00  0.00    -0.202 F 
HETATM   27  C24 UNL     1      -2.066   3.683   2.153  1.00  0.00     0.017 A 
HETATM   28  C23 UNL     1      -2.217   2.388   1.741  1.00  0.00     0.017 A 
BRANCH  23  29
HETATM   29  O1  UNL     1      -1.199   2.479  -1.764  1.00  0.00    -0.352 OA
HETATM   30  C1  UNL     1      -2.104   2.472  -2.827  1.00  0.00     0.210 C 
ENDBRANCH  23  29
BRANCH  25  31
HETATM   31  C26 UNL     1      -1.449   6.010   1.678  1.00  0.00     0.389 C 
HETATM   32  F1  UNL     1      -0.584   6.130   2.728  1.00  0.00    -0.209 F 
HETATM   33  F2  UNL     1      -2.690   6.498   2.071  1.00  0.00    -0.209 F 
ENDBRANCH  25  31
ENDBRANCH   1  22
BRANCH   4  34
HETATM   34  C6  UNL     1      -4.394  -2.255  -0.620  1.00  0.00     0.080 C 
HETATM   35  C7  UNL     1      -4.317  -2.787  -2.034  1.00  0.00     0.020 C 
BRANCH  34  36
HETATM   36  C8  UNL     1      -4.448  -3.379   0.395  1.00  0.00     0.162 C 
HETATM   37  C9  UNL     1      -5.586  -4.293   0.068  1.00  0.00     0.158 C 
HETATM   38  N2  UNL     1      -5.002  -5.625   0.020  1.00  0.00    -0.334 N 
HETATM   39  C10 UNL     1      -3.608  -5.530   0.218  1.00  0.00     0.361 C 
ATOM     40  H2  UNL     1      -5.519  -6.491  -0.133  1.00  0.00     0.164 HD
HETATM   41  O2  UNL     1      -2.735  -6.434   0.293  1.00  0.00    -0.239 OA
HETATM   42  O3  UNL     1      -3.297  -4.196   0.331  1.00  0.00    -0.296 OA
ENDBRANCH  34  36
ENDBRANCH   4  34
TORSDOF 9
