REMARK  11 active torsions:
REMARK  status: ('A' for Active; 'I' for Inactive)
REMARK    1  A    between atoms: O1_2  and  C2_3 
REMARK    2  A    between atoms: C4_7  and  C5_8 
REMARK    3  A    between atoms: C11_14  and  C12_15 
REMARK    4  A    between atoms: C12_15  and  O2_16 
REMARK    5  A    between atoms: C12_15  and  C13_18 
REMARK    6  A    between atoms: C13_18  and  C14_19 
REMARK    7  A    between atoms: C22_28  and  N3_29 
REMARK    8  A    between atoms: N3_29  and  C23_31 
REMARK    9  A    between atoms: C23_31  and  C24_32 
REMARK   10  A    between atoms: C24_32  and  N4_33 
REMARK   11  A    between atoms: C29_38  and  C30_39 
ROOT
HETATM    1  C2  UNL     1      -2.167  -2.202   0.745  1.00  0.00     0.169 A 
HETATM    2  N1  UNL     1      -0.887  -2.447   1.073  1.00  0.00    -0.344 N 
ATOM      3  H1  UNL     1      -0.664  -3.289   1.604  1.00  0.00     0.167 HD
HETATM    4  C3  UNL     1       0.100  -1.621   0.724  1.00  0.00     0.102 A 
HETATM    5  C4  UNL     1      -0.169  -0.478   0.005  1.00  0.00    -0.008 A 
HETATM    6  C21 UNL     1      -1.495  -0.234  -0.330  1.00  0.00     0.047 A 
HETATM    7  C22 UNL     1      -2.524  -1.082   0.027  1.00  0.00     0.080 A 
ENDROOT
BRANCH   5   8
HETATM    8  C5  UNL     1       0.893   0.454  -0.404  1.00  0.00    -0.024 A 
HETATM    9  C6  UNL     1       0.721   1.796  -0.547  1.00  0.00     0.014 A 
HETATM   10  C7  UNL     1       1.761   2.638  -0.943  1.00  0.00     0.031 A 
HETATM   11  C8  UNL     1       2.982   2.053  -1.186  1.00  0.00     0.044 A 
HETATM   12  C9  UNL     1       3.218   0.706  -1.059  1.00  0.00     0.002 A 
HETATM   13  N2  UNL     1       4.141   2.608  -1.577  1.00  0.00    -0.360 N 
HETATM   14  C10 UNL     1       2.149  -0.077  -0.664  1.00  0.00     0.026 A 
HETATM   15  C11 UNL     1       4.552   0.439  -1.379  1.00  0.00    -0.002 A 
HETATM   16  C19 UNL     1       5.088   1.651  -1.696  1.00  0.00     0.101 A 
HETATM   17  C20 UNL     1       4.356   4.009  -1.833  1.00  0.00     0.155 C 
BRANCH  15  18
HETATM   18  C12 UNL     1       5.139  -0.908  -1.374  1.00  0.00     0.154 C 
BRANCH  18  19
HETATM   19  O2  UNL     1       4.567  -1.693  -2.410  1.00  0.00    -0.391 OA
ATOM     20  H2  UNL     1       4.947  -2.564  -2.407  1.00  0.00     0.210 HD
ENDBRANCH  18  19
BRANCH  18  21
HETATM   21  C13 UNL     1       6.624  -0.913  -1.465  1.00  0.00     0.041 C 
BRANCH  21  22
HETATM   22  C14 UNL     1       7.277  -0.229  -0.312  1.00  0.00    -0.012 C 
HETATM   23  C15 UNL     1       8.801  -0.259  -0.461  1.00  0.00     0.005 C 
HETATM   24  C16 UNL     1       9.361  -0.113   0.921  1.00  0.00     0.000 C 
HETATM   25  C17 UNL     1       8.221  -0.516   1.832  1.00  0.00     0.000 C 
HETATM   26  C18 UNL     1       7.133  -1.079   0.950  1.00  0.00     0.005 C 
ENDBRANCH  21  22
ENDBRANCH  18  21
ENDBRANCH  15  18
ENDBRANCH   5   8
BRANCH   7  27
HETATM   27  N3  UNL     1      -3.874  -0.852  -0.311  1.00  0.00    -0.382 N 
ATOM     28  H3  UNL     1      -4.586  -1.527  -0.031  1.00  0.00     0.160 HD
BRANCH  27  29
HETATM   29  C23 UNL     1      -4.259   0.323  -1.046  1.00  0.00     0.164 C 
BRANCH  29  30
HETATM   30  C24 UNL     1      -5.751   0.371  -1.345  1.00  0.00     0.078 C 
BRANCH  30  31
HETATM   31  N4  UNL     1      -6.477   0.366  -0.152  1.00  0.00    -0.382 N 
HETATM   32  C25 UNL     1      -6.369   1.506   0.677  1.00  0.00     0.122 C 
HETATM   33  C26 UNL     1      -7.665   2.097   1.118  1.00  0.00     0.020 C 
HETATM   34  C27 UNL     1      -8.504   1.032   1.760  1.00  0.00     0.004 C 
HETATM   35  C28 UNL     1      -8.025  -0.360   1.523  1.00  0.00     0.031 C 
HETATM   36  C29 UNL     1      -7.462  -0.574   0.113  1.00  0.00     0.148 C 
BRANCH  36  37
HETATM   37  C30 UNL     1      -8.613  -0.735  -0.805  1.00  0.00     0.375 C 
HETATM   38  F1  UNL     1      -8.283  -1.090  -2.097  1.00  0.00    -0.212 F 
HETATM   39  F2  UNL     1      -9.540   0.289  -0.777  1.00  0.00    -0.212 F 
ENDBRANCH  36  37
ENDBRANCH  30  31
ENDBRANCH  29  30
ENDBRANCH  27  29
ENDBRANCH   7  27
BRANCH   1  40
HETATM   40  O1  UNL     1      -3.173  -3.080   1.123  1.00  0.00    -0.339 OA
HETATM   41  C1  UNL     1      -2.872  -4.257   1.867  1.00  0.00     0.211 C 
ENDBRANCH   1  40
TORSDOF 11
