REMARK  12 active torsions:
REMARK  status: ('A' for Active; 'I' for Inactive)
REMARK    1  A    between atoms: O1_2  and  C2_3 
REMARK    2  A    between atoms: C4_5  and  O2_6 
REMARK    3  A    between atoms: C8_12  and  O4_13 
REMARK    4  A    between atoms: O4_13  and  C9_14 
REMARK    5  A    between atoms: C9_14  and  C10_15 
REMARK    6  A    between atoms: N3_20  and  C11_21 
REMARK    7  A    between atoms: C20_36  and  C21_37 
REMARK    8  A    between atoms: C20_36  and  C24_43 
REMARK    9  A    between atoms: C21_37  and  O7_38 
REMARK   10  A    between atoms: O7_38  and  C22_39 
REMARK   11  A    between atoms: C22_39  and  C23_40 
REMARK   12  A    between atoms: C26_49  and  O14_50 
ROOT
HETATM    1  C11 UNL     1      -0.190   0.960  -0.237  1.00  0.00     0.148 C 
HETATM    2  C12 UNL     1      -1.512   0.473  -0.189  1.00  0.00     0.059 C 
HETATM    3  N4  UNL     1      -1.965  -0.164  -1.454  1.00  0.00    -0.324 N 
ATOM      4  H4  UNL     1      -1.734   0.199  -2.379  1.00  0.00     0.169 HD
HETATM    5  C13 UNL     1      -2.738  -1.309  -1.250  1.00  0.00     0.261 C 
HETATM    6  O5  UNL     1      -2.689  -2.240  -2.085  1.00  0.00    -0.270 OA
HETATM    7  C14 UNL     1      -3.572  -1.372  -0.057  1.00  0.00     0.194 C 
HETATM    8  O6  UNL     1      -3.584  -0.143   0.591  1.00  0.00    -0.354 OA
HETATM    9  C15 UNL     1      -2.199  -0.016   0.979  1.00  0.00     0.176 C 
HETATM   10  C16 UNL     1      -1.980  -1.281   1.654  1.00  0.00     0.065 C 
HETATM   11  C17 UNL     1      -2.800  -2.299   0.898  1.00  0.00     0.145 C 
HETATM   12  N5  UNL     1      -3.882  -2.873   1.641  1.00  0.00    -0.138 NA
HETATM   13  N6  UNL     1      -4.786  -3.214   0.652  1.00  0.00    -0.123 NA
HETATM   14  C18 UNL     1      -4.878  -2.026  -0.160  1.00  0.00     0.179 C 
HETATM   15  C19 UNL     1      -5.972  -1.115   0.440  1.00  0.00     0.095 C 
HETATM   16  C20 UNL     1      -6.931  -0.822  -0.671  1.00  0.00     0.182 C 
HETATM   17  O12 UNL     1      -6.204  -1.230  -1.852  1.00  0.00    -0.295 OA
HETATM   18  C25 UNL     1      -5.423  -2.334  -1.502  1.00  0.00     0.290 C 
HETATM   19  O13 UNL     1      -5.219  -3.363  -2.159  1.00  0.00    -0.263 OA
ENDROOT
BRANCH   1  20
HETATM   20  N3  UNL     1       1.027   0.297  -0.511  1.00  0.00    -0.227 N 
HETATM   21  N2  UNL     1       1.469  -0.130  -1.723  1.00  0.00    -0.234 N 
HETATM   22  N1  UNL     1       2.680  -0.633  -1.623  1.00  0.00    -0.283 N 
ATOM     23  H2  UNL     1       0.935  -0.069  -2.590  1.00  0.00     0.209 HD
HETATM   24  C10 UNL     1       3.076  -0.553  -0.350  1.00  0.00     0.103 A 
ATOM     25  H1  UNL     1       3.227  -1.021  -2.392  1.00  0.00     0.188 HD
HETATM   26  C26 UNL     1       2.016   0.032   0.360  1.00  0.00     0.189 A 
BRANCH  24  27
HETATM   27  C9  UNL     1       4.333  -1.069   0.253  1.00  0.00     0.234 C 
BRANCH  27  28
HETATM   28  O4  UNL     1       5.449  -0.317  -0.164  1.00  0.00    -0.347 OA
BRANCH  28  29
HETATM   29  C8  UNL     1       6.641  -0.748   0.331  1.00  0.00     0.342 A 
HETATM   30  O3  UNL     1       7.213   0.211   1.181  1.00  0.00    -0.312 OA
HETATM   31  C6  UNL     1       8.449   0.672   0.688  1.00  0.00     0.092 A 
HETATM   32  C5  UNL     1       8.723   0.022  -0.520  1.00  0.00     0.082 A 
HETATM   33  C7  UNL     1       9.367   1.587   1.146  1.00  0.00     0.074 A 
HETATM   34  C4  UNL     1       9.911   0.363  -1.172  1.00  0.00     0.085 A 
HETATM   35  C27 UNL     1       7.646  -0.921  -0.741  1.00  0.00     0.220 A 
HETATM   36  C3  UNL     1      10.822   1.280  -0.717  1.00  0.00     0.074 A 
HETATM   37  C2  UNL     1      10.533   1.899   0.476  1.00  0.00     0.073 A 
HETATM   38  O15 UNL     1       7.605  -1.753  -1.704  1.00  0.00    -0.287 OA
BRANCH  34  39
HETATM   39  O2  UNL     1      10.204  -0.273  -2.406  1.00  0.00    -0.360 OA
ATOM     40  H2  UNL     1       9.572  -0.909  -2.721  1.00  0.00     0.217 HD
ENDBRANCH  34  39
BRANCH  37  41
HETATM   41  O1  UNL     1      11.390   2.847   1.049  1.00  0.00    -0.356 OA
HETATM   42  C1  UNL     1      12.576   3.170   0.383  1.00  0.00     0.210 C 
ENDBRANCH  37  41
ENDBRANCH  28  29
ENDBRANCH  27  28
ENDBRANCH  24  27
BRANCH  26  43
HETATM   43  O14 UNL     1       2.144   0.239   1.711  1.00  0.00    -0.343 OA
ATOM     44  H14 UNL     1       1.427   0.635   2.192  1.00  0.00     0.219 HD
ENDBRANCH  26  43
ENDBRANCH   1  20
BRANCH  16  45
HETATM   45  C21 UNL     1      -7.353   0.584  -0.784  1.00  0.00     0.218 C 
BRANCH  45  46
HETATM   46  O7  UNL     1      -8.119   1.085   0.284  1.00  0.00    -0.377 OA
BRANCH  46  47
HETATM   47  C22 UNL     1      -8.503   2.381  -0.087  1.00  0.00     0.280 C 
BRANCH  47  48
HETATM   48  C23 UNL     1      -9.291   3.127   0.881  1.00  0.00     0.197 C 
HETATM   49  O8  UNL     1      -9.629   2.743   1.997  1.00  0.00    -0.646 OA
HETATM   50  O9  UNL     1      -9.702   4.431   0.481  1.00  0.00    -0.646 OA
ENDBRANCH  47  48
ENDBRANCH  46  47
ENDBRANCH  45  46
ENDBRANCH  16  45
BRANCH  16  51
HETATM   51  C24 UNL     1      -8.153  -1.639  -0.471  1.00  0.00     0.212 C 
HETATM   52  O10 UNL     1      -8.882  -1.290   0.486  1.00  0.00    -0.646 OA
HETATM   53  O11 UNL     1      -8.515  -2.707  -1.235  1.00  0.00    -0.646 OA
ENDBRANCH  16  51
TORSDOF 12
