REMARK  15 active torsions:
REMARK  status: ('A' for Active; 'I' for Inactive)
REMARK    1  A    between atoms: C2_3  and  C3_4 
REMARK       I    between atoms: C3_4  and  N2_6 
REMARK    2  A    between atoms: N2_6  and  C4_8 
REMARK    3  A    between atoms: C4_8  and  C5_9 
REMARK    4  A    between atoms: C5_9  and  S1_10 
REMARK    5  A    between atoms: C6_17  and  O6_18 
REMARK    6  A    between atoms: C6_17  and  C7_20 
REMARK    7  A    between atoms: C7_20  and  N6_27 
REMARK    8  A    between atoms: N4_21  and  O7_23 
REMARK    9  A    between atoms: O7_23  and  C8_24 
REMARK   10  A    between atoms: N6_27  and  C9_29 
REMARK   11  A    between atoms: C11_33  and  C12_34 
REMARK   12  A    between atoms: C13_37  and  S2_38 
REMARK   13  A    between atoms: S2_38  and  C14_39 
REMARK   14  A    between atoms: C14_39  and  C15_40 
REMARK   15  A    between atoms: C17_45  and  O15_46 
ROOT
HETATM    1  C7  UNL     1      -1.074  -1.599  -1.637  1.00  0.00     0.187 C 
HETATM    2  N4  UNL     1      -0.715  -2.811  -1.438  1.00  0.00    -0.237 N 
ATOM      3  H4  UNL     1       0.255  -2.975  -1.169  1.00  0.00     0.196 HD
ENDROOT
BRANCH   1   4
HETATM    4  C6  UNL     1      -2.509  -1.368  -2.033  1.00  0.00     0.335 C 
HETATM    5  N1  UNL     1      -3.140  -0.667  -0.914  1.00  0.00    -0.302 N 
HETATM    6  C1  UNL     1      -2.898  -0.955   0.472  1.00  0.00     0.157 C 
HETATM    7  C2  UNL     1      -3.974   0.295  -1.499  1.00  0.00     0.197 C 
HETATM    8  N3  UNL     1      -3.604   0.459  -2.767  1.00  0.00    -0.240 N 
HETATM    9  O5  UNL     1      -2.565  -0.353  -3.037  1.00  0.00    -0.209 OA
ATOM     10  H3  UNL     1      -4.040   1.100  -3.430  1.00  0.00     0.196 HD
BRANCH   7  11
HETATM   11  C3  UNL     1      -5.073   1.029  -0.889  1.00  0.00     0.287 C 
HETATM   12  O1  UNL     1      -5.673   1.878  -1.659  1.00  0.00    -0.264 OA
HETATM   13  N2  UNL     1      -5.539   0.911   0.427  1.00  0.00    -0.353 N 
ATOM     14  H2  UNL     1      -5.101   0.244   1.062  1.00  0.00     0.162 HD
BRANCH  13  15
HETATM   15  C4  UNL     1      -6.640   1.731   0.893  1.00  0.00     0.140 C 
BRANCH  15  16
HETATM   16  C5  UNL     1      -6.295   3.183   0.874  1.00  0.00     0.184 C 
BRANCH  16  17
HETATM   17  S1  UNL     1      -7.721   4.080   1.474  1.00  0.00     0.103 S 
HETATM   18  O2  UNL     1      -8.143   3.596   2.813  1.00  0.00    -0.595 OA
HETATM   19  O3  UNL     1      -8.834   3.844   0.491  1.00  0.00    -0.595 OA
HETATM   20  O4  UNL     1      -7.368   5.708   1.466  1.00  0.00    -0.595 OA
ENDBRANCH  16  17
ENDBRANCH  15  16
ENDBRANCH  13  15
ENDBRANCH   7  11
BRANCH   4  21
HETATM   21  O6  UNL     1      -3.164  -2.506  -2.410  1.00  0.00    -0.341 OA
ATOM     22  H6  UNL     1      -2.754  -2.961  -3.136  1.00  0.00     0.215 HD
ENDBRANCH   4  21
ENDBRANCH   1   4
BRANCH   1  23
HETATM   23  N6  UNL     1      -0.239  -0.484  -1.515  1.00  0.00    -0.356 N 
ATOM     24  H6  UNL     1      -0.622   0.379  -1.902  1.00  0.00     0.162 HD
BRANCH  23  25
HETATM   25  C9  UNL     1       1.044  -0.356  -0.946  1.00  0.00     0.209 C 
HETATM   26  C10 UNL     1       1.201  -0.648   0.517  1.00  0.00     0.251 C 
HETATM   27  O9  UNL     1       0.583  -0.718   1.579  1.00  0.00    -0.271 OA
HETATM   28  N7  UNL     1       2.584  -0.855   0.183  1.00  0.00    -0.292 N 
HETATM   29  C11 UNL     1       3.968  -0.741   0.464  1.00  0.00     0.129 C 
HETATM   30  C19 UNL     1       2.037  -1.465  -1.024  1.00  0.00     0.187 C 
HETATM   31  C13 UNL     1       4.893  -0.365  -0.425  1.00  0.00     0.022 C 
HETATM   32  C18 UNL     1       4.370  -0.120  -1.878  1.00  0.00     0.124 C 
HETATM   33  S3  UNL     1       3.233  -1.434  -2.361  1.00  0.00    -0.135 SA
BRANCH  29  34
HETATM   34  C12 UNL     1       4.379  -1.131   1.794  1.00  0.00     0.228 C 
HETATM   35  O10 UNL     1       5.508  -1.216   2.272  1.00  0.00    -0.643 OA
HETATM   36  O11 UNL     1       3.368  -1.473   2.729  1.00  0.00    -0.643 OA
ENDBRANCH  29  34
BRANCH  31  37
HETATM   37  S2  UNL     1       6.552  -0.157  -0.314  1.00  0.00    -0.124 SA
BRANCH  37  38
HETATM   38  C14 UNL     1       7.700   0.159   0.868  1.00  0.00     0.149 C 
BRANCH  38  39
HETATM   39  C15 UNL     1       7.528   1.550   1.480  1.00  0.00     0.127 A 
HETATM   40  O12 UNL     1       6.596   2.370   1.116  1.00  0.00    -0.254 OA
HETATM   41  C16 UNL     1       6.742   3.472   1.848  1.00  0.00     0.418 A 
HETATM   42  O13 UNL     1       6.043   4.524   1.814  1.00  0.00    -0.229 OA
HETATM   43  O14 UNL     1       7.765   3.318   2.657  1.00  0.00    -0.229 OA
HETATM   44  C17 UNL     1       8.284   2.128   2.457  1.00  0.00     0.219 A 
BRANCH  44  45
HETATM   45  O15 UNL     1       9.377   1.566   3.103  1.00  0.00    -0.339 OA
ATOM     46  H15 UNL     1       9.904   1.969   3.784  1.00  0.00     0.220 HD
ENDBRANCH  44  45
ENDBRANCH  38  39
ENDBRANCH  37  38
ENDBRANCH  31  37
ENDBRANCH  23  25
ENDBRANCH   1  23
BRANCH   2  47
HETATM   47  O7  UNL     1      -1.526  -3.900  -1.557  1.00  0.00    -0.182 OA
BRANCH  47  48
HETATM   48  C8  UNL     1      -1.103  -4.886  -2.465  1.00  0.00     0.394 C 
HETATM   49  N5  UNL     1      -1.836  -6.072  -2.701  1.00  0.00    -0.031 NA
HETATM   50  O8  UNL     1      -0.022  -4.739  -3.118  1.00  0.00    -0.240 OA
ENDBRANCH  47  48
ENDBRANCH   2  47
TORSDOF 15
