REMARK  7 active torsions:
REMARK  status: ('A' for Active; 'I' for Inactive)
REMARK    1  A    between atoms: C2_2  and  C10_15 
REMARK    2  A    between atoms: N1_3  and  S1_5 
REMARK    3  A    between atoms: S1_5  and  C3_8 
REMARK    4  A    between atoms: C11_16  and  O3_17 
REMARK    5  A    between atoms: O3_17  and  S2_18 
REMARK    6  A    between atoms: S2_18  and  C12_21 
REMARK    7  A    between atoms: C16_28  and  O7_29 
ROOT
HETATM    1  C12 UNL     1       5.802   2.068   0.838  1.00  0.00     0.348 C 
HETATM    2  C13 UNL     1       6.670   1.426   1.811  1.00  0.00     0.097 C 
HETATM    3  N2  UNL     1       7.361   0.939   2.583  1.00  0.00    -0.195 NA
HETATM    4  C14 UNL     1       6.170   1.773  -0.530  1.00  0.00     0.097 C 
HETATM    5  N3  UNL     1       6.481   1.553  -1.623  1.00  0.00    -0.195 NA
ENDROOT
BRANCH   1   6
HETATM    6  S2  UNL     1       4.125   1.641   1.216  1.00  0.00     0.300 S 
HETATM    7  O4  UNL     1       3.853   2.204   2.608  1.00  0.00    -0.196 OA
HETATM    8  O5  UNL     1       3.225   2.427   0.286  1.00  0.00    -0.196 OA
BRANCH   6   9
HETATM    9  O3  UNL     1       3.810  -0.003   1.200  1.00  0.00    -0.228 OA
BRANCH   9  10
HETATM   10  C11 UNL     1       3.219  -0.595   0.098  1.00  0.00     0.128 A 
HETATM   11  C10 UNL     1       1.879  -0.773  -0.132  1.00  0.00     0.082 A 
HETATM   12  C16 UNL     1       1.804  -1.412  -1.370  1.00  0.00     0.198 A 
HETATM   13  O6  UNL     1       3.020  -1.596  -1.833  1.00  0.00    -0.297 OA
HETATM   14  C15 UNL     1       3.906  -1.130  -1.001  1.00  0.00     0.184 A 
BRANCH  11  15
HETATM   15  C2  UNL     1       0.742  -0.409   0.699  1.00  0.00     0.034 C 
HETATM   16  C1  UNL     1       0.868   0.249   2.020  1.00  0.00     0.070 C 
HETATM   17  N1  UNL     1      -0.474  -0.656   0.310  1.00  0.00    -0.283 N 
ATOM     18  H1  UNL     1      -0.588  -1.109  -0.597  1.00  0.00     0.178 HD
BRANCH  17  19
HETATM   19  S1  UNL     1      -1.889  -0.292   1.175  1.00  0.00     0.263 S 
HETATM   20  O1  UNL     1      -2.070  -1.254   2.309  1.00  0.00    -0.200 OA
HETATM   21  O2  UNL     1      -1.894   1.103   1.765  1.00  0.00    -0.200 OA
BRANCH  19  22
HETATM   22  C3  UNL     1      -3.285  -0.361   0.088  1.00  0.00     0.079 A 
HETATM   23  C4  UNL     1      -3.693   0.765  -0.593  1.00  0.00     0.026 A 
HETATM   24  C5  UNL     1      -4.793   0.733  -1.457  1.00  0.00     0.008 A 
HETATM   25  C6  UNL     1      -5.483  -0.446  -1.632  1.00  0.00    -0.062 A 
HETATM   26  C7  UNL     1      -6.657  -0.458  -2.560  1.00  0.00     0.048 C 
HETATM   27  C8  UNL     1      -5.082  -1.569  -0.956  1.00  0.00     0.008 A 
HETATM   28  C9  UNL     1      -3.984  -1.536  -0.095  1.00  0.00     0.026 A 
ENDBRANCH  19  22
ENDBRANCH  17  19
ENDBRANCH  11  15
BRANCH  12  29
HETATM   29  O7  UNL     1       0.599  -1.769  -1.962  1.00  0.00    -0.340 OA
ATOM     30  H7  UNL     1       0.548  -2.204  -2.805  1.00  0.00     0.220 HD
ENDBRANCH  12  29
ENDBRANCH   9  10
ENDBRANCH   6   9
ENDBRANCH   1   6
TORSDOF 7
