REMARK  6 active torsions:
REMARK  status: ('A' for Active; 'I' for Inactive)
REMARK    1  A    between atoms: O1_2  and  C2_3 
REMARK    2  A    between atoms: C2_3  and  O2_4 
REMARK    3  A    between atoms: O2_4  and  N1_5 
REMARK    4  A    between atoms: N2_11  and  N3_12 
REMARK    5  A    between atoms: N3_12  and  S3_14 
REMARK    6  A    between atoms: S3_14  and  C4_17 
ROOT
HETATM    1  N3  UNL     1       0.866   1.008   0.138  1.00  0.00    -0.212 N 
ATOM      2  H3  UNL     1       0.751   1.887   0.643  1.00  0.00     0.201 HD
ENDROOT
BRANCH   1   3
HETATM    3  N2  UNL     1       1.839   0.069   0.516  1.00  0.00    -0.191 N 
HETATM    4  C3  UNL     1       1.784  -0.698   1.705  1.00  0.00     0.169 C 
HETATM    5  S1  UNL     1       3.397  -1.447   1.881  1.00  0.00    -0.018 SA
HETATM    6  S2  UNL     1       0.557  -0.890   2.739  1.00  0.00    -0.050 SA
HETATM    7  C2  UNL     1       4.210  -0.429   0.574  1.00  0.00     0.337 C 
HETATM    8  C13 UNL     1       2.999  -0.183  -0.265  1.00  0.00     0.322 C 
HETATM    9  O7  UNL     1       3.097  -0.214  -1.517  1.00  0.00    -0.264 OA
BRANCH   7  10
HETATM   10  O1  UNL     1       4.678   0.694   1.188  1.00  0.00    -0.342 OA
HETATM   11  C1  UNL     1       5.303   1.586   0.321  1.00  0.00     0.207 C 
ENDBRANCH   7  10
BRANCH   7  12
HETATM   12  O2  UNL     1       5.136  -1.233  -0.073  1.00  0.00    -0.158 OA
BRANCH  12  13
HETATM   13  N1  UNL     1       4.699  -2.367  -0.710  1.00  0.00     0.009 N 
HETATM   14  O3  UNL     1       3.837  -3.133  -0.248  1.00  0.00    -0.511 OA
HETATM   15  O4  UNL     1       5.241  -2.683  -1.935  1.00  0.00    -0.511 OA
ENDBRANCH  12  13
ENDBRANCH   7  12
ENDBRANCH   1   3
BRANCH   1  16
HETATM   16  S3  UNL     1      -0.101   0.622  -1.182  1.00  0.00     0.277 S 
HETATM   17  O5  UNL     1      -0.234   1.748  -2.201  1.00  0.00    -0.199 OA
HETATM   18  O6  UNL     1       0.353  -0.626  -1.943  1.00  0.00    -0.199 OA
BRANCH  16  19
HETATM   19  C4  UNL     1      -1.750   0.274  -0.644  1.00  0.00     0.092 A 
HETATM   20  C5  UNL     1      -2.211  -0.999  -0.412  1.00  0.00    -0.038 A 
HETATM   21  C6  UNL     1      -1.330  -2.181  -0.599  1.00  0.00     0.050 C 
HETATM   22  C7  UNL     1      -3.535  -1.163   0.004  1.00  0.00     0.015 A 
HETATM   23  C8  UNL     1      -4.383  -0.111   0.188  1.00  0.00    -0.061 A 
HETATM   24  C9  UNL     1      -5.801  -0.339   0.633  1.00  0.00     0.048 C 
HETATM   25  C10 UNL     1      -3.903   1.157  -0.049  1.00  0.00     0.015 A 
HETATM   26  C11 UNL     1      -2.600   1.361  -0.461  1.00  0.00    -0.038 A 
HETATM   27  C12 UNL     1      -2.160   2.758  -0.674  1.00  0.00     0.050 C 
ENDBRANCH  16  19
ENDBRANCH   1  16
TORSDOF 6
