REMARK  4 active torsions:
REMARK  status: ('A' for Active; 'I' for Inactive)
REMARK    1  A    between atoms: C2_2  and  S1_4 
REMARK    2  A    between atoms: S1_4  and  C4_5 
REMARK    3  A    between atoms: C6_7  and  C7_8 
REMARK    4  A    between atoms: N4_24  and  C15_25 
ROOT
HETATM    1  C4  UNL     1      -1.260  -1.007  -0.263  1.00  0.00     0.073 A 
HETATM    2  C5  UNL     1       0.099  -1.075  -0.486  1.00  0.00     0.051 A 
HETATM    3  C6  UNL     1       0.619   0.184  -0.387  1.00  0.00    -0.005 A 
HETATM    4  C14 UNL     1      -0.421   1.030  -0.103  1.00  0.00     0.104 A 
HETATM    5  N4  UNL     1      -1.534   0.290  -0.035  1.00  0.00    -0.344 N 
ENDROOT
BRANCH   3   6
HETATM    6  C7  UNL     1       2.019   0.594  -0.545  1.00  0.00     0.015 A 
HETATM    7  C8  UNL     1       2.293   1.710  -1.299  1.00  0.00     0.018 A 
HETATM    8  C9  UNL     1       3.568   2.184  -1.509  1.00  0.00     0.033 A 
HETATM    9  C10 UNL     1       4.599   1.463  -0.907  1.00  0.00     0.065 A 
HETATM   10  N1  UNL     1       5.928   1.649  -0.909  1.00  0.00    -0.298 N 
HETATM   11  C12 UNL     1       4.352   0.350  -0.153  1.00  0.00     0.076 A 
HETATM   12  N2  UNL     1       6.494   0.703  -0.195  1.00  0.00    -0.285 N 
ATOM     13  H1  UNL     1       6.420   2.404  -1.388  1.00  0.00     0.187 HD
HETATM   14  C11 UNL     1       5.557  -0.143   0.307  1.00  0.00     0.129 A 
ATOM     15  H2  UNL     1       7.498   0.616  -0.039  1.00  0.00     0.188 HD
HETATM   16  N3  UNL     1       5.818  -1.162   1.044  1.00  0.00    -0.384 N 
ATOM     17  H32 UNL     1       6.708  -1.526   1.384  1.00  0.00     0.157 HD
ATOM     18  H31 UNL     1       5.115  -1.797   1.421  1.00  0.00     0.157 HD
HETATM   19  C13 UNL     1       3.060  -0.096   0.036  1.00  0.00     0.143 A 
HETATM   20  F1  UNL     1       2.807  -1.199   0.781  1.00  0.00    -0.204 F 
ENDBRANCH   3   6
BRANCH   1  21
HETATM   21  S1  UNL     1      -2.489  -2.283  -0.248  1.00  0.00    -0.108 SA
BRANCH  21  22
HETATM   22  C2  UNL     1      -1.823  -3.910  -0.550  1.00  0.00     0.045 C 
HETATM   23  C1  UNL     1      -0.925  -4.359   0.582  1.00  0.00     0.021 C 
HETATM   24  C3  UNL     1      -1.182  -4.036  -1.899  1.00  0.00     0.021 C 
ENDBRANCH  21  22
ENDBRANCH   1  21
BRANCH   5  25
HETATM   25  C15 UNL     1      -2.873   0.836   0.255  1.00  0.00     0.107 C 
HETATM   26  C16 UNL     1      -3.004   2.193  -0.315  1.00  0.00     0.029 C 
HETATM   27  C17 UNL     1      -3.173   3.304   0.660  1.00  0.00     0.021 C 
HETATM   28  C18 UNL     1      -4.238   2.836   1.663  1.00  0.00     0.114 C 
HETATM   29  N5  UNL     1      -3.613   1.798   2.416  1.00  0.00    -0.419 N 
HETATM   30  C19 UNL     1      -3.178   0.663   1.687  1.00  0.00     0.139 C 
ATOM     31  H5  UNL     1      -3.486   1.869   3.426  1.00  0.00     0.153 HD
ENDBRANCH   5  25
TORSDOF 4
