REMARK  7 active torsions:
REMARK  status: ('A' for Active; 'I' for Inactive)
REMARK    1  A    between atoms: C2_2  and  O1_3 
REMARK    2  A    between atoms: O1_3  and  C3_4 
REMARK    3  A    between atoms: C3_4  and  C4_5 
REMARK    4  A    between atoms: C8_12  and  N3_13 
REMARK    5  A    between atoms: C9_16  and  C10_17 
REMARK    6  A    between atoms: C12_21  and  N5_22 
REMARK    7  A    between atoms: C13_27  and  C14_28 
ROOT
HETATM    1  C4  UNL     1       1.364  -0.461  -1.688  1.00  0.00    -0.030 A 
HETATM    2  C5  UNL     1       0.655  -0.636  -2.853  1.00  0.00     0.036 A 
HETATM    3  C6  UNL     1      -0.693  -0.275  -2.921  1.00  0.00     0.031 A 
HETATM    4  C7  UNL     1      -1.420  -0.485  -4.204  1.00  0.00     0.070 C 
HETATM    5  N1  UNL     1      -1.300   0.248  -1.836  1.00  0.00    -0.259 N 
HETATM    6  N2  UNL     1      -2.527   0.673  -1.668  1.00  0.00    -0.278 N 
ATOM      7  H2  UNL     1      -3.255   0.655  -2.382  1.00  0.00     0.189 HD
HETATM    8  C8  UNL     1      -2.689   1.143  -0.398  1.00  0.00     0.127 A 
HETATM    9  C9  UNL     1      -1.497   1.004   0.272  1.00  0.00     0.051 A 
HETATM   10  C17 UNL     1      -0.643   0.442  -0.654  1.00  0.00     0.072 A 
HETATM   11  C18 UNL     1       0.680   0.075  -0.627  1.00  0.00     0.042 A 
ENDROOT
BRANCH   9  12
HETATM   12  C10 UNL     1      -1.254   1.407   1.634  1.00  0.00     0.021 A 
HETATM   13  C11 UNL     1      -0.863   2.763   1.834  1.00  0.00     0.120 A 
HETATM   14  N4  UNL     1      -0.647   3.278   3.038  1.00  0.00    -0.201 N 
HETATM   15  C12 UNL     1      -0.809   2.470   4.096  1.00  0.00     0.675 A 
ATOM     16  H4  UNL     1      -0.368   4.252   3.154  1.00  0.00     0.183 HD
HETATM   17  N6  UNL     1      -1.168   1.219   3.926  1.00  0.00    -0.193 N 
HETATM   18  C13 UNL     1      -1.412   0.603   2.712  1.00  0.00     0.062 A 
ATOM     19  H6  UNL     1      -1.277   0.650   4.765  1.00  0.00     0.184 HD
BRANCH  15  20
HETATM   20  N5  UNL     1      -0.597   2.975   5.281  1.00  0.00    -0.234 N 
ATOM     21  H52 UNL     1      -0.318   3.947   5.413  1.00  0.00     0.174 HD
ATOM     22  H51 UNL     1      -0.720   2.360   6.086  1.00  0.00     0.174 HD
ENDBRANCH  15  20
BRANCH  18  23
HETATM   23  C14 UNL     1      -1.757  -0.807   2.682  1.00  0.00     0.073 C 
HETATM   24  C15 UNL     1      -3.037  -1.217   2.036  1.00  0.00     0.039 C 
HETATM   25  C16 UNL     1      -0.614  -1.746   2.315  1.00  0.00     0.039 C 
HETATM   26 CL1  UNL     1      -2.050  -1.260   4.445  1.00  0.00    -0.113 Cl
ENDBRANCH  18  23
ENDBRANCH   9  12
BRANCH   8  27
HETATM   27  N3  UNL     1      -3.820   1.666   0.003  1.00  0.00    -0.384 N 
ATOM     28  H32 UNL     1      -4.705   1.769  -0.494  1.00  0.00     0.157 HD
ATOM     29  H31 UNL     1      -3.941   2.018   0.953  1.00  0.00     0.157 HD
ENDBRANCH   8  27
BRANCH   1  30
HETATM   30  C3  UNL     1       2.788  -0.854  -1.639  1.00  0.00     0.206 C 
BRANCH  30  31
HETATM   31  O1  UNL     1       3.139  -1.514  -2.790  1.00  0.00    -0.387 OA
BRANCH  31  32
HETATM   32  C2  UNL     1       4.472  -1.914  -2.800  1.00  0.00     0.163 C 
HETATM   33  C1  UNL     1       5.437  -0.782  -2.688  1.00  0.00     0.033 C 
ENDBRANCH  31  32
ENDBRANCH  30  31
ENDBRANCH   1  30
TORSDOF 7
