REMARK  5 active torsions:
REMARK  status: ('A' for Active; 'I' for Inactive)
REMARK    1  A    between atoms: S1_2  and  C2_3 
REMARK    2  A    between atoms: C2_3  and  C3_4 
REMARK    3  A    between atoms: C3_4  and  S2_5 
REMARK    4  A    between atoms: S2_5  and  C4_6 
REMARK    5  A    between atoms: C8_14  and  N3_15 
REMARK       I    between atoms: N3_15  and  C9_17 
ROOT
HETATM    1  C4  UNL     1       2.105  -1.809   0.531  1.00  0.00     0.145 A 
HETATM    2  N1  UNL     1       1.062  -1.725  -0.314  1.00  0.00    -0.335 N 
ATOM      3  H1  UNL     1       1.057  -2.059  -1.278  1.00  0.00     0.168 HD
HETATM    4  C5  UNL     1       0.010  -1.124   0.317  1.00  0.00     0.065 A 
HETATM    5  C6  UNL     1      -1.246  -0.831  -0.154  1.00  0.00     0.063 A 
HETATM    6  C7  UNL     1      -2.181  -0.196   0.696  1.00  0.00     0.055 A 
HETATM    7  N2  UNL     1      -3.413   0.142   0.380  1.00  0.00    -0.335 N 
ATOM      8  H2  UNL     1      -3.784  -0.048  -0.551  1.00  0.00     0.168 HD
HETATM    9  C8  UNL     1      -4.163   0.737   1.302  1.00  0.00     0.152 A 
HETATM   10  S3  UNL     1      -3.131   0.831   2.649  1.00  0.00    -0.050 SA
HETATM   11  C10 UNL     1      -1.750   0.089   1.964  1.00  0.00     0.059 A 
HETATM   12  C11 UNL     1      -0.458  -0.221   2.420  1.00  0.00     0.082 A 
HETATM   13 CL1  UNL     1      -0.061   0.206   4.063  1.00  0.00    -0.080 Cl
HETATM   14  C12 UNL     1       0.452  -0.840   1.592  1.00  0.00     0.084 A 
HETATM   15  N6  UNL     1       1.713  -1.257   1.710  1.00  0.00    -0.334 N 
ATOM     16  H6  UNL     1       2.289  -1.175   2.548  1.00  0.00     0.168 HD
ENDROOT
BRANCH   9  17
HETATM   17  N3  UNL     1      -5.388   1.151   1.213  1.00  0.00    -0.311 N 
HETATM   18  C9  UNL     1      -6.100   0.988   0.002  1.00  0.00     0.187 C 
HETATM   19  N4  UNL     1      -7.084   0.142  -0.033  1.00  0.00    -0.373 N 
HETATM   20  N5  UNL     1      -5.705   1.760  -1.122  1.00  0.00    -0.064 NA
ATOM     21  H42 UNL     1      -7.368  -0.413   0.775  1.00  0.00     0.158 HD
ATOM     22  H41 UNL     1      -7.598   0.024  -0.906  1.00  0.00     0.158 HD
ATOM     23  H3  UNL     1      -5.838   1.593   2.015  1.00  0.00     0.170 HD
ENDBRANCH   9  17
BRANCH   1  24
HETATM   24  S2  UNL     1       3.720  -2.502   0.224  1.00  0.00    -0.093 SA
BRANCH  24  25
HETATM   25  C3  UNL     1       4.840  -1.228  -0.412  1.00  0.00     0.092 C 
BRANCH  25  26
HETATM   26  C2  UNL     1       4.313  -0.822  -1.782  1.00  0.00     0.084 C 
BRANCH  26  27
HETATM   27  S1  UNL     1       5.387   0.459  -2.490  1.00  0.00    -0.173 SA
HETATM   28  C1  UNL     1       5.204   1.936  -1.438  1.00  0.00     0.089 C 
ENDBRANCH  26  27
ENDBRANCH  25  26
ENDBRANCH  24  25
ENDBRANCH   1  24
TORSDOF 5
