REMARK  4 active torsions:
REMARK  status: ('A' for Active; 'I' for Inactive)
REMARK    1  A    between atoms: C7_7  and  C8_8 
REMARK    2  A    between atoms: C8_8  and  N1_9 
REMARK    3  A    between atoms: N1_9  and  C9_11 
REMARK    4  A    between atoms: C12_18  and  C13_19 
ROOT
HETATM    1  C9  UNL     1       0.297   0.555   0.934  1.00  0.00     0.129 A 
HETATM    2  N2  UNL     1       0.364   1.108   2.151  1.00  0.00    -0.284 N 
ATOM      3  H2  UNL     1      -0.440   1.427   2.692  1.00  0.00     0.188 HD
HETATM    4  N3  UNL     1       1.628   1.182   2.554  1.00  0.00    -0.298 N 
ATOM      5  H3  UNL     1       1.945   1.563   3.445  1.00  0.00     0.187 HD
HETATM    6  C10 UNL     1       2.423   0.671   1.593  1.00  0.00     0.065 A 
HETATM    7  C11 UNL     1       3.782   0.495   1.469  1.00  0.00     0.062 A 
HETATM    8  C12 UNL     1       4.324  -0.062   0.358  1.00  0.00     0.047 A 
HETATM    9  N7  UNL     1       3.464  -0.437  -0.625  1.00  0.00    -0.364 N 
ATOM     10  H7  UNL     1       3.852  -0.857  -1.469  1.00  0.00     0.165 HD
HETATM   11  C17 UNL     1       2.148  -0.287  -0.548  1.00  0.00     0.106 A 
HETATM   12  C18 UNL     1       1.598   0.277   0.576  1.00  0.00     0.052 A 
ENDROOT
BRANCH   1  13
HETATM   13  N1  UNL     1      -0.832   0.281   0.121  1.00  0.00    -0.374 N 
ATOM     14  H1  UNL     1      -0.742  -0.149  -0.800  1.00  0.00     0.161 HD
BRANCH  13  15
HETATM   15  C8  UNL     1      -2.140   0.653   0.682  1.00  0.00     0.126 C 
BRANCH  15  16
HETATM   16  C7  UNL     1      -3.253   0.327  -0.243  1.00  0.00     0.013 C 
HETATM   17  C2  UNL     1      -4.619   0.643   0.182  1.00  0.00    -0.022 C 
HETATM   18  C1  UNL     1      -4.842   1.790   1.053  1.00  0.00     0.017 C 
HETATM   19  C3  UNL     1      -5.447   0.729  -1.121  1.00  0.00     0.011 C 
HETATM   20  C19 UNL     1      -5.180  -0.676   0.683  1.00  0.00     0.095 C 
HETATM   21  C4  UNL     1      -5.504  -0.709  -1.621  1.00  0.00     0.007 C 
HETATM   22  C5  UNL     1      -4.795  -1.486  -0.569  1.00  0.00     0.005 C 
HETATM   23  C6  UNL     1      -3.314  -1.150  -0.600  1.00  0.00     0.013 C 
HETATM   24 CL1  UNL     1      -4.476  -1.283   2.149  1.00  0.00    -0.124 Cl
ENDBRANCH  15  16
ENDBRANCH  13  15
ENDBRANCH   1  13
BRANCH   8  25
HETATM   25  C13 UNL     1       5.748  -0.285   0.144  1.00  0.00     0.022 A 
HETATM   26  C14 UNL     1       6.660   0.070   1.092  1.00  0.00     0.121 A 
HETATM   27  N4  UNL     1       7.974  -0.164   0.833  1.00  0.00    -0.201 N 
HETATM   28  C15 UNL     1       8.415  -0.724  -0.303  1.00  0.00     0.675 A 
ATOM     29  H4  UNL     1       8.660   0.100   1.540  1.00  0.00     0.183 HD
HETATM   30  N5  UNL     1       9.675  -0.925  -0.501  1.00  0.00    -0.234 N 
HETATM   31  N6  UNL     1       7.480  -1.060  -1.216  1.00  0.00    -0.201 N 
ATOM     32  H52 UNL     1      10.382  -0.671   0.189  1.00  0.00     0.174 HD
ATOM     33  H51 UNL     1      10.010  -1.351  -1.365  1.00  0.00     0.174 HD
HETATM   34  C16 UNL     1       6.179  -0.862  -1.033  1.00  0.00     0.121 A 
ATOM     35  H6  UNL     1       7.787  -1.487  -2.090  1.00  0.00     0.183 HD
ENDBRANCH   8  25
TORSDOF 4
