REMARK  6 active torsions:
REMARK  status: ('A' for Active; 'I' for Inactive)
REMARK    1  A    between atoms: C3_3  and  O1_4 
REMARK    2  A    between atoms: O1_4  and  C4_5 
REMARK    3  A    between atoms: C8_12  and  C9_13 
REMARK    4  A    between atoms: C9_13  and  C10_14 
REMARK    5  A    between atoms: C18_23  and  O3_24 
REMARK    6  A    between atoms: O3_24  and  C19_25 
ROOT
HETATM    1  C1  UNL     1      -2.704   1.987  -1.283  1.00  0.00     0.022 C 
HETATM    2  C2  UNL     1      -2.206   1.087  -0.472  1.00  0.00    -0.027 C 
HETATM    3  C3  UNL     1      -0.997   1.317   0.356  1.00  0.00     0.081 C 
HETATM    4  C7  UNL     1      -0.083   0.332   0.402  1.00  0.00    -0.027 C 
HETATM    5  C8  UNL     1       1.226   0.080   1.047  1.00  0.00     0.032 C 
HETATM    6  C14 UNL     1       1.171  -1.383   1.252  1.00  0.00     0.060 C 
HETATM    7  C15 UNL     1       2.363  -2.078   1.753  1.00  0.00     0.018 C 
HETATM    8  C16 UNL     1       0.602  -1.873  -0.023  1.00  0.00     0.142 C 
HETATM    9  O2  UNL     1       0.901  -2.864  -0.656  1.00  0.00    -0.297 OA
HETATM   10  C17 UNL     1      -0.449  -0.889  -0.406  1.00  0.00     0.118 C 
HETATM   11  C18 UNL     1      -1.823  -1.297   0.070  1.00  0.00     0.155 C 
HETATM   12  C21 UNL     1      -2.836  -0.277  -0.353  1.00  0.00     0.047 C 
HETATM   13  C22 UNL     1      -3.956  -0.228   0.663  1.00  0.00     0.018 C 
ENDROOT
BRANCH   3  14
HETATM   14  O1  UNL     1      -0.795   2.415   1.027  1.00  0.00    -0.324 OA
BRANCH  14  15
HETATM   15  C4  UNL     1      -0.849   3.744   1.133  1.00  0.00     0.237 C 
HETATM   16  C5  UNL     1      -0.054   4.521   0.085  1.00  0.00     0.134 C 
HETATM   17  S1  UNL     1      -0.824   6.161   0.452  1.00  0.00    -0.120 SA
HETATM   18  C6  UNL     1      -2.400   5.427   0.977  1.00  0.00     0.131 C 
HETATM   19  N1  UNL     1      -2.139   4.249   1.253  1.00  0.00    -0.367 N 
ATOM     20  H1  UNL     1      -2.887   3.635   1.576  1.00  0.00     0.162 HD
ENDBRANCH  14  15
ENDBRANCH   3  14
BRANCH   5  21
HETATM   21  C9  UNL     1       2.366   0.647   0.278  1.00  0.00     0.037 C 
BRANCH  21  22
HETATM   22  C10 UNL     1       2.560   0.166  -1.084  1.00  0.00    -0.024 C 
HETATM   23  C11 UNL     1       3.703  -0.359  -1.496  1.00  0.00    -0.091 C 
HETATM   24  C12 UNL     1       4.915  -0.530  -0.670  1.00  0.00     0.042 C 
HETATM   25  C13 UNL     1       3.822  -0.840  -2.927  1.00  0.00     0.042 C 
ENDBRANCH  21  22
ENDBRANCH   5  21
BRANCH  11  26
HETATM   26  O3  UNL     1      -2.213  -2.566  -0.430  1.00  0.00    -0.315 OA
BRANCH  26  27
HETATM   27  C19 UNL     1      -2.495  -3.565   0.489  1.00  0.00     0.255 C 
HETATM   28  C20 UNL     1      -2.909  -4.924   0.078  1.00  0.00     0.126 C 
HETATM   29  O4  UNL     1      -2.402  -3.332   1.727  1.00  0.00    -0.266 OA
ENDBRANCH  26  27
ENDBRANCH  11  26
TORSDOF 6
