REMARK  5 active torsions:
REMARK  status: ('A' for Active; 'I' for Inactive)
REMARK    1  A    between atoms: C2_2  and  O2_4 
REMARK    2  A    between atoms: O2_4  and  C3_5 
REMARK    3  A    between atoms: C4_6  and  C5_7 
REMARK    4  A    between atoms: C5_7  and  C6_8 
REMARK    5  A    between atoms: C10_14  and  C11_15 
ROOT
HETATM    1  C3  UNL     1       0.007  -0.893   0.530  1.00  0.00     0.196 C 
HETATM    2  C4  UNL     1       1.196   0.070   0.565  1.00  0.00     0.166 C 
HETATM    3  O3  UNL     1       1.226   0.991  -0.469  1.00  0.00    -0.339 OA
HETATM    4  C10 UNL     1       1.168   2.394  -0.425  1.00  0.00     0.114 C 
HETATM    5  C13 UNL     1       0.298   3.052   0.319  1.00  0.00     0.040 C 
HETATM    6  C14 UNL     1      -0.731   2.574   1.204  1.00  0.00     0.002 C 
HETATM    7  C15 UNL     1      -1.736   1.768   1.012  1.00  0.00     0.010 C 
HETATM    8  C16 UNL     1      -2.128   1.074  -0.239  1.00  0.00     0.077 C 
HETATM    9  C17 UNL     1      -2.961   2.020  -1.098  1.00  0.00     0.050 C 
HETATM   10  C18 UNL     1      -3.002  -0.128   0.064  1.00  0.00     0.049 C 
HETATM   11  C19 UNL     1      -2.253  -1.237  -0.624  1.00  0.00     0.022 C 
HETATM   12  C20 UNL     1      -2.521  -2.595  -0.154  1.00  0.00     0.013 C 
HETATM   13  C21 UNL     1      -0.855  -0.725  -0.665  1.00  0.00     0.091 C 
HETATM   14  C22 UNL     1      -0.245  -1.276  -1.946  1.00  0.00     0.049 C 
HETATM   15  O5  UNL     1      -1.101   0.614  -1.007  1.00  0.00    -0.363 OA
ENDROOT
BRANCH   2  16
HETATM   16  C5  UNL     1       2.521  -0.604   0.752  1.00  0.00     0.074 C 
BRANCH  16  17
HETATM   17  C6  UNL     1       2.944  -1.592  -0.307  1.00  0.00    -0.049 A 
HETATM   18  C7  UNL     1       3.584  -1.187  -1.434  1.00  0.00     0.015 A 
HETATM   19  C8  UNL     1       3.974  -2.133  -2.332  1.00  0.00     0.050 A 
HETATM   20  S1  UNL     1       3.452  -3.579  -1.612  1.00  0.00    -0.113 SA
HETATM   21  C9  UNL     1       2.758  -2.943  -0.198  1.00  0.00     0.056 A 
ENDBRANCH  16  17
ENDBRANCH   2  16
BRANCH   1  22
HETATM   22  O2  UNL     1      -0.634  -0.979   1.748  1.00  0.00    -0.311 OA
BRANCH  22  23
HETATM   23  C2  UNL     1      -0.622  -1.991   2.639  1.00  0.00     0.255 C 
HETATM   24  C1  UNL     1      -1.343  -2.018   3.937  1.00  0.00     0.126 C 
HETATM   25  O1  UNL     1       0.061  -2.954   2.300  1.00  0.00    -0.266 OA
ENDBRANCH  22  23
ENDBRANCH   1  22
BRANCH   4  26
HETATM   26  C11 UNL     1       2.148   3.115  -1.278  1.00  0.00     0.178 C 
HETATM   27  C12 UNL     1       2.081   4.620  -1.209  1.00  0.00     0.099 C 
HETATM   28  O4  UNL     1       2.966   2.542  -1.998  1.00  0.00    -0.291 OA
ENDBRANCH   4  26
TORSDOF 5
