REMARK  5 active torsions:
REMARK  status: ('A' for Active; 'I' for Inactive)
REMARK    1  A    between atoms: C2_2  and  C3_3 
REMARK    2  A    between atoms: C5_6  and  C6_7 
REMARK       I    between atoms: C6_7  and  N1_9 
REMARK    3  A    between atoms: C13_17  and  S2_18 
REMARK    4  A    between atoms: S2_18  and  C14_19 
REMARK    5  A    between atoms: C17_25  and  N4_26 
ROOT
HETATM    1  C3  UNL     1      -3.502   2.136  -0.950  1.00  0.00     0.036 A 
HETATM    2  S1  UNL     1      -2.059   2.525  -0.126  1.00  0.00    -0.070 SA
HETATM    3  C4  UNL     1      -1.580   0.951   0.305  1.00  0.00     0.118 A 
HETATM    4  C5  UNL     1      -0.606   0.173   0.957  1.00  0.00     0.102 A 
HETATM    5  C13 UNL     1      -1.043  -1.098   0.813  1.00  0.00     0.104 A 
HETATM    6  N2  UNL     1      -2.171  -1.068   0.138  1.00  0.00    -0.284 N 
ATOM      7  H2  UNL     1      -2.709  -1.899  -0.106  1.00  0.00     0.188 HD
HETATM    8  N3  UNL     1      -2.537   0.192  -0.196  1.00  0.00    -0.225 N 
HETATM    9  C17 UNL     1      -3.540   0.762  -0.846  1.00  0.00     0.209 A 
ENDROOT
BRANCH   4  10
HETATM   10  C6  UNL     1       0.560   0.750   1.597  1.00  0.00     0.259 C 
HETATM   11  O1  UNL     1       0.485   1.083   2.820  1.00  0.00    -0.267 OA
HETATM   12  N1  UNL     1       1.787   0.964   0.927  1.00  0.00    -0.343 N 
HETATM   13  C7  UNL     1       2.911   1.541   1.614  1.00  0.00     0.157 C 
HETATM   14  C12 UNL     1       1.906   0.601  -0.447  1.00  0.00     0.157 C 
HETATM   15  C8  UNL     1       4.161   0.903   1.022  1.00  0.00     0.136 C 
HETATM   16  C9  UNL     1       5.414   1.418   1.722  1.00  0.00     0.041 C 
HETATM   17  O2  UNL     1       4.227   1.305  -0.285  1.00  0.00    -0.378 OA
HETATM   18  C10 UNL     1       3.216   0.859  -1.093  1.00  0.00     0.136 C 
HETATM   19  C11 UNL     1       3.707  -0.463  -1.703  1.00  0.00     0.041 C 
ENDBRANCH   4  10
BRANCH   5  20
HETATM   20  S2  UNL     1      -0.195  -2.527   1.448  1.00  0.00    -0.106 SA
BRANCH  20  21
HETATM   21  C14 UNL     1      -1.122  -4.030   1.034  1.00  0.00     0.045 C 
HETATM   22  C15 UNL     1      -0.416  -5.238   1.562  1.00  0.00     0.021 C 
HETATM   23  C16 UNL     1      -1.466  -4.116  -0.417  1.00  0.00     0.021 C 
ENDBRANCH  20  21
ENDBRANCH   5  20
BRANCH   1  24
HETATM   24  C2  UNL     1      -4.491   3.053  -1.622  1.00  0.00     0.046 C 
HETATM   25  C1  UNL     1      -3.931   4.455  -1.438  1.00  0.00     0.010 C 
ENDBRANCH   1  24
BRANCH   9  26
HETATM   26  N4  UNL     1      -4.656   0.057  -1.449  1.00  0.00    -0.095 N 
HETATM   27  O3  UNL     1      -5.550   0.650  -2.040  1.00  0.00    -0.530 OA
HETATM   28  O4  UNL     1      -4.707  -1.293  -1.354  1.00  0.00    -0.530 OA
ENDBRANCH   9  26
TORSDOF 5
