REMARK  9 active torsions:
REMARK  status: ('A' for Active; 'I' for Inactive)
REMARK    1  A    between atoms: C2_2  and  C4_5 
REMARK    2  A    between atoms: C4_5  and  O1_6 
REMARK    3  A    between atoms: O1_6  and  C5_7 
REMARK    4  A    between atoms: C5_7  and  C6_9 
REMARK    5  A    between atoms: C6_9  and  C7_10 
REMARK    6  A    between atoms: C10_14  and  S1_15 
REMARK    7  A    between atoms: S1_15  and  S2_16 
REMARK    8  A    between atoms: S2_16  and  C11_17 
REMARK    9  A    between atoms: C11_17  and  N2_19 
ROOT
HETATM    1  C1  UNL     1       8.263   1.601  -1.009  1.00  0.00     0.033 C 
HETATM    2  C2  UNL     1       7.877   0.558  -0.302  1.00  0.00     0.037 C 
HETATM    3  C3  UNL     1       8.594   0.160   0.869  1.00  0.00     0.096 C 
HETATM    4  N1  UNL     1       9.186  -0.169   1.809  1.00  0.00    -0.192 NA
ENDROOT
BRANCH   2   5
HETATM    5  C4  UNL     1       6.692  -0.220  -0.712  1.00  0.00     0.228 C 
BRANCH   5   6
HETATM    6  O1  UNL     1       5.703  -0.205   0.316  1.00  0.00    -0.316 OA
BRANCH   6   7
HETATM    7  C5  UNL     1       4.514  -0.893   0.096  1.00  0.00     0.260 C 
HETATM    8  O2  UNL     1       4.308  -1.514  -0.979  1.00  0.00    -0.265 OA
BRANCH   7   9
HETATM    9  C6  UNL     1       3.431  -0.929   1.113  1.00  0.00     0.126 C 
BRANCH   9  10
HETATM   10  C7  UNL     1       2.359   0.013   0.673  1.00  0.00     0.065 C 
HETATM   11  C8  UNL     1       1.191   0.054   1.653  1.00  0.00     0.096 C 
HETATM   12  C9  UNL     1       0.105   0.738   0.889  1.00  0.00     0.152 C 
HETATM   13  O3  UNL     1      -0.494   1.767   1.154  1.00  0.00    -0.296 OA
HETATM   14  C10 UNL     1      -0.203  -0.050  -0.362  1.00  0.00     0.190 C 
HETATM   15  S4  UNL     1       1.466  -0.625  -0.799  1.00  0.00    -0.139 SA
BRANCH  14  16
HETATM   16  S1  UNL     1      -1.292  -1.441   0.033  1.00  0.00    -0.067 SA
BRANCH  16  17
HETATM   17  S2  UNL     1      -3.190  -0.724   0.665  1.00  0.00    -0.026 SA
BRANCH  17  18
HETATM   18  C11 UNL     1      -4.302  -0.535  -0.723  1.00  0.00     0.147 C 
HETATM   19  S3  UNL     1      -3.740  -0.920  -2.210  1.00  0.00    -0.052 SA
BRANCH  18  20
HETATM   20  N2  UNL     1      -5.625  -0.065  -0.520  1.00  0.00    -0.366 N 
HETATM   21  C12 UNL     1      -6.199   0.297   0.761  1.00  0.00     0.124 C 
HETATM   22  C13 UNL     1      -7.680   0.033   0.518  1.00  0.00     0.021 C 
HETATM   23  C14 UNL     1      -7.862   0.566  -0.888  1.00  0.00     0.021 C 
HETATM   24  C15 UNL     1      -6.603   0.121  -1.572  1.00  0.00     0.124 C 
ENDBRANCH  18  20
ENDBRANCH  17  18
ENDBRANCH  16  17
ENDBRANCH  14  16
ENDBRANCH   9  10
ENDBRANCH   7   9
ENDBRANCH   6   7
ENDBRANCH   5   6
ENDBRANCH   2   5
TORSDOF 9
