REMARK  5 active torsions:
REMARK  status: ('A' for Active; 'I' for Inactive)
REMARK    1  A    between atoms: C2_2  and  C3_3 
REMARK    2  A    between atoms: C3_3  and  C4_4 
REMARK    3  A    between atoms: N1_10  and  C8_11 
REMARK    4  A    between atoms: C15_20  and  C16_21 
REMARK    5  A    between atoms: N2_24  and  C18_25 
ROOT
HETATM    1  C8  UNL     1       0.189  -0.080   1.304  1.00  0.00     0.160 A 
HETATM    2  C9  UNL     1       0.453   0.092   2.680  1.00  0.00     0.319 A 
HETATM    3  O3  UNL     1       1.661  -0.021   3.051  1.00  0.00    -0.257 OA
HETATM    4  O4  UNL     1      -0.475   0.349   3.522  1.00  0.00    -0.278 OA
HETATM    5  C10 UNL     1      -1.753   0.473   3.164  1.00  0.00     0.066 A 
HETATM    6  C11 UNL     1      -2.760   0.777   4.194  1.00  0.00     0.078 C 
HETATM    7  C12 UNL     1      -2.068   0.313   1.830  1.00  0.00     0.031 A 
HETATM    8  C13 UNL     1      -3.271   0.374   1.131  1.00  0.00    -0.016 A 
HETATM    9  C14 UNL     1      -4.566   0.542   1.840  1.00  0.00     0.052 C 
HETATM   10  C15 UNL     1      -3.004   0.147  -0.222  1.00  0.00     0.088 A 
HETATM   11  N2  UNL     1      -1.674  -0.060  -0.377  1.00  0.00    -0.337 N 
HETATM   12  C21 UNL     1      -1.098   0.032   0.855  1.00  0.00     0.084 A 
ENDROOT
BRANCH   1  13
HETATM   13  N1  UNL     1       1.308  -0.394   0.516  1.00  0.00    -0.244 N 
HETATM   14  C7  UNL     1       1.672  -1.771   0.331  1.00  0.00     0.183 C 
HETATM   15  C6  UNL     1       2.559  -1.952  -0.835  1.00  0.00     0.194 C 
HETATM   16  O2  UNL     1       3.204  -0.865  -1.337  1.00  0.00    -0.346 OA
HETATM   17  C3  UNL     1       3.244   0.255  -0.549  1.00  0.00     0.250 C 
HETATM   18  O6  UNL     1       2.050   0.594   0.020  1.00  0.00    -0.229 OA
BRANCH  17  19
HETATM   19  C2  UNL     1       3.697   1.447  -1.374  1.00  0.00     0.075 C 
HETATM   20  C1  UNL     1       5.046   1.237  -1.995  1.00  0.00     0.011 C 
ENDBRANCH  17  19
BRANCH  17  21
HETATM   21  C4  UNL     1       4.270   0.077   0.523  1.00  0.00     0.186 C 
HETATM   22  C5  UNL     1       5.100  -1.146   0.665  1.00  0.00     0.097 C 
HETATM   23  O1  UNL     1       4.474   0.965   1.357  1.00  0.00    -0.292 OA
ENDBRANCH  17  21
ENDBRANCH   1  13
BRANCH  11  24
HETATM   24  C18 UNL     1      -1.006  -0.274  -1.606  1.00  0.00     0.082 C 
HETATM   25  C19 UNL     1      -1.325  -1.572  -2.311  1.00  0.00     0.032 C 
HETATM   26  C20 UNL     1      -1.224   0.872  -2.618  1.00  0.00     0.032 C 
ENDBRANCH  11  24
BRANCH  10  27
HETATM   27  C16 UNL     1      -4.061   0.275  -1.209  1.00  0.00     0.172 C 
HETATM   28  C17 UNL     1      -5.390   0.908  -1.017  1.00  0.00     0.098 C 
HETATM   29  O5  UNL     1      -3.909  -0.161  -2.378  1.00  0.00    -0.291 OA
ENDBRANCH  10  27
TORSDOF 5
