REMARK  8 active torsions:
REMARK  status: ('A' for Active; 'I' for Inactive)
REMARK    1  A    between atoms: C2_2  and  O2_4 
REMARK    2  A    between atoms: O2_4  and  C3_5 
REMARK    3  A    between atoms: C5_8  and  S1_9 
REMARK    4  A    between atoms: S1_9  and  C6_10 
REMARK    5  A    between atoms: C15_19  and  O4_20 
REMARK    6  A    between atoms: O4_20  and  C16_21 
REMARK    7  A    between atoms: C18_24  and  O6_25 
REMARK    8  A    between atoms: O6_25  and  C19_26 
ROOT
HETATM    1  C3  UNL     1      -2.739   1.424  -0.338  1.00  0.00     0.188 C 
HETATM    2  C4  UNL     1      -1.400   2.008  -0.132  1.00  0.00     0.204 C 
HETATM    3  O3  UNL     1      -0.329   1.192  -0.084  1.00  0.00    -0.370 OA
HETATM    4  C5  UNL     1      -0.287   0.063  -0.815  1.00  0.00     0.220 C 
HETATM    5  C15 UNL     1      -1.602  -0.587  -1.139  1.00  0.00     0.203 C 
HETATM    6  C18 UNL     1      -2.739  -0.111  -0.296  1.00  0.00     0.196 C 
ENDROOT
BRANCH   4   7
HETATM    7  S1  UNL     1       0.725  -1.158   0.117  1.00  0.00    -0.095 SA
BRANCH   7   8
HETATM    8  C6  UNL     1       2.398  -0.533   0.157  1.00  0.00     0.004 A 
HETATM    9  C7  UNL     1       3.392  -1.247   0.806  1.00  0.00     0.026 A 
HETATM   10  C8  UNL     1       4.693  -0.810   0.863  1.00  0.00    -0.054 A 
HETATM   11  C9  UNL     1       5.726  -1.613   1.573  1.00  0.00     0.049 C 
HETATM   12  C10 UNL     1       5.062   0.380   0.262  1.00  0.00    -0.050 A 
HETATM   13  C11 UNL     1       6.474   0.835   0.334  1.00  0.00     0.049 C 
HETATM   14  C12 UNL     1       4.088   1.102  -0.387  1.00  0.00    -0.054 A 
HETATM   15  C13 UNL     1       4.412   2.384  -1.053  1.00  0.00     0.049 C 
HETATM   16  C14 UNL     1       2.792   0.647  -0.432  1.00  0.00     0.026 A 
ENDBRANCH   7   8
ENDBRANCH   4   7
BRANCH   5  17
HETATM   17  O4  UNL     1      -1.526  -1.999  -1.211  1.00  0.00    -0.310 OA
BRANCH  17  18
HETATM   18  C16 UNL     1      -1.692  -2.736  -2.359  1.00  0.00     0.255 C 
HETATM   19  C17 UNL     1      -1.608  -4.220  -2.419  1.00  0.00     0.126 C 
HETATM   20  O5  UNL     1      -1.931  -2.065  -3.421  1.00  0.00    -0.266 OA
ENDBRANCH  17  18
ENDBRANCH   5  17
BRANCH   6  21
HETATM   21  O6  UNL     1      -2.906  -0.638   0.948  1.00  0.00    -0.311 OA
BRANCH  21  22
HETATM   22  C19 UNL     1      -3.976  -1.325   1.447  1.00  0.00     0.255 C 
HETATM   23  C20 UNL     1      -4.094  -1.868   2.804  1.00  0.00     0.126 C 
HETATM   24  O7  UNL     1      -4.875  -1.444   0.592  1.00  0.00    -0.266 OA
ENDBRANCH  21  22
ENDBRANCH   6  21
BRANCH   1  25
HETATM   25  O2  UNL     1      -3.670   1.932   0.600  1.00  0.00    -0.311 OA
BRANCH  25  26
HETATM   26  C2  UNL     1      -4.792   2.667   0.222  1.00  0.00     0.255 C 
HETATM   27  C1  UNL     1      -5.755   3.188   1.230  1.00  0.00     0.126 C 
HETATM   28  O1  UNL     1      -4.934   2.859  -1.024  1.00  0.00    -0.266 OA
ENDBRANCH  25  26
ENDBRANCH   1  25
TORSDOF 8
