REMARK  7 active torsions:
REMARK  status: ('A' for Active; 'I' for Inactive)
REMARK    1  A    between atoms: C2_2  and  O1_3 
REMARK    2  A    between atoms: O1_3  and  C3_4 
REMARK    3  A    between atoms: C3_4  and  C4_6 
REMARK    4  A    between atoms: C4_6  and  C5_7 
REMARK    5  A    between atoms: C5_7  and  C6_8 
REMARK    6  A    between atoms: C6_8  and  O4_10 
REMARK    7  A    between atoms: O4_10  and  C7_11 
ROOT
HETATM    1  C7  UNL     1      -0.010  -1.130   0.288  1.00  0.00     0.060 C 
HETATM    2  C8  UNL     1      -0.007  -2.221  -0.438  1.00  0.00     0.006 C 
HETATM    3  C9  UNL     1      -1.291  -2.771  -0.916  1.00  0.00     0.030 C 
HETATM    4  C10 UNL     1      -2.267  -2.539   0.236  1.00  0.00     0.012 C 
HETATM    5  C11 UNL     1      -2.519  -1.056   0.382  1.00  0.00     0.032 C 
HETATM    6  C12 UNL     1      -1.221  -0.383   0.680  1.00  0.00     0.081 C 
HETATM    7  C13 UNL     1      -1.143   0.997   0.149  1.00  0.00     0.167 A 
HETATM    8  O5  UNL     1      -0.670   2.104   0.764  1.00  0.00    -0.369 OA
HETATM    9  C14 UNL     1      -2.008   1.866   1.015  1.00  0.00     0.085 A 
HETATM   10  C15 UNL     1      -2.286   1.622   2.437  1.00  0.00     0.049 C 
HETATM   11  C16 UNL     1      -3.090   2.393   0.136  1.00  0.00     0.043 C 
HETATM   12  C17 UNL     1      -4.287   1.522   0.251  1.00  0.00     0.044 C 
HETATM   13  C18 UNL     1      -4.388   0.340  -0.578  1.00  0.00     0.096 C 
HETATM   14  C19 UNL     1      -4.983   0.717  -1.941  1.00  0.00     0.049 C 
HETATM   15  O6  UNL     1      -5.358  -0.565  -0.017  1.00  0.00    -0.284 OA
HETATM   16  C20 UNL     1      -5.197  -1.707  -0.792  1.00  0.00     0.407 C 
HETATM   17  O7  UNL     1      -6.104  -2.594  -0.911  1.00  0.00    -0.229 OA
HETATM   18  O8  UNL     1      -3.936  -1.691  -1.373  1.00  0.00    -0.289 OA
HETATM   19  C21 UNL     1      -3.248  -0.553  -0.810  1.00  0.00     0.174 C 
ENDROOT
BRANCH   1  20
HETATM   20  O4  UNL     1       1.220  -0.657   0.711  1.00  0.00    -0.283 OA
BRANCH  20  21
HETATM   21  C6  UNL     1       2.035   0.192  -0.001  1.00  0.00     0.264 C 
HETATM   22  O3  UNL     1       1.656   0.580  -1.135  1.00  0.00    -0.265 OA
BRANCH  21  23
HETATM   23  C5  UNL     1       3.357   0.667   0.526  1.00  0.00     0.121 C 
BRANCH  23  24
HETATM   24  C4  UNL     1       4.401  -0.226  -0.097  1.00  0.00     0.121 C 
BRANCH  24  25
HETATM   25  C3  UNL     1       5.784   0.123   0.343  1.00  0.00     0.259 C 
HETATM   26  O2  UNL     1       6.048   1.054   1.121  1.00  0.00    -0.265 OA
BRANCH  25  27
HETATM   27  O1  UNL     1       6.804  -0.649  -0.160  1.00  0.00    -0.322 OA
BRANCH  27  28
HETATM   28  C2  UNL     1       8.159  -0.480   0.134  1.00  0.00     0.174 C 
HETATM   29  C1  UNL     1       8.655   0.891  -0.276  1.00  0.00     0.034 C 
ENDBRANCH  27  28
ENDBRANCH  25  27
ENDBRANCH  24  25
ENDBRANCH  23  24
ENDBRANCH  21  23
ENDBRANCH  20  21
ENDBRANCH   1  20
TORSDOF 7
