REMARK  6 active torsions:
REMARK  status: ('A' for Active; 'I' for Inactive)
REMARK    1  A    between atoms: C2_2  and  C3_3 
REMARK    2  A    between atoms: C3_3  and  C4_4 
REMARK    3  A    between atoms: C4_4  and  C5_5 
REMARK    4  A    between atoms: C5_5  and  C6_6 
REMARK    5  A    between atoms: C6_6  and  O2_8 
REMARK    6  A    between atoms: O2_8  and  C7_9 
ROOT
HETATM    1  C7  UNL     1      -0.734   0.093   0.147  1.00  0.00     0.233 C 
HETATM    2  O3  UNL     1      -1.128  -0.543  -1.069  1.00  0.00    -0.339 OA
HETATM    3  C8  UNL     1      -0.591  -1.790  -0.925  1.00  0.00     0.189 C 
HETATM    4  C9  UNL     1      -0.488  -2.663  -2.095  1.00  0.00     0.064 C 
HETATM    5  C10 UNL     1      -0.740  -4.046  -1.477  1.00  0.00     0.174 C 
HETATM    6  O4  UNL     1      -1.010  -3.820  -0.115  1.00  0.00    -0.353 OA
HETATM    7  C11 UNL     1      -1.607  -2.561  -0.065  1.00  0.00     0.187 C 
HETATM    8  C12 UNL     1      -2.928  -2.690  -0.795  1.00  0.00     0.082 C 
HETATM    9  O5  UNL     1      -1.672  -1.956   1.121  1.00  0.00    -0.340 OA
HETATM   10  C13 UNL     1      -1.164  -0.724   1.332  1.00  0.00     0.219 C 
HETATM   11  C14 UNL     1      -2.193   0.042   2.177  1.00  0.00     0.155 C 
HETATM   12  C15 UNL     1      -2.778  -1.009   3.133  1.00  0.00     0.042 C 
HETATM   13  O6  UNL     1      -3.241   0.521   1.436  1.00  0.00    -0.351 OA
HETATM   14  C16 UNL     1      -2.942   1.082   0.239  1.00  0.00     0.298 C 
HETATM   15  O7  UNL     1      -3.441   2.331  -0.010  1.00  0.00    -0.323 OA
HETATM   16  C17 UNL     1      -2.455   3.069  -0.664  1.00  0.00     0.161 C 
HETATM   17  C18 UNL     1      -2.006   4.150   0.314  1.00  0.00     0.078 C 
HETATM   18  C19 UNL     1      -2.935   3.734  -1.911  1.00  0.00     0.078 C 
HETATM   19  O8  UNL     1      -1.388   2.173  -0.912  1.00  0.00    -0.340 OA
HETATM   20  C20 UNL     1      -1.437   1.394   0.212  1.00  0.00     0.245 C 
ENDROOT
BRANCH   1  21
HETATM   21  O2  UNL     1       0.665   0.187  -0.005  1.00  0.00    -0.277 OA
BRANCH  21  22
HETATM   22  C6  UNL     1       1.498   0.759   0.920  1.00  0.00     0.261 C 
HETATM   23  O1  UNL     1       0.987   1.230   1.960  1.00  0.00    -0.265 OA
BRANCH  22  24
HETATM   24  C5  UNL     1       2.980   0.798   0.653  1.00  0.00     0.111 C 
BRANCH  24  25
HETATM   25  C4  UNL     1       3.260   0.155  -0.667  1.00  0.00     0.010 C 
BRANCH  25  26
HETATM   26  C3  UNL     1       4.646   0.146  -1.146  1.00  0.00     0.000 C 
BRANCH  26  27
HETATM   27  C2  UNL     1       5.712  -0.518  -0.366  1.00  0.00    -0.005 C 
HETATM   28  C1  UNL     1       6.010   0.038   0.975  1.00  0.00     0.005 C 
ENDBRANCH  26  27
ENDBRANCH  25  26
ENDBRANCH  24  25
ENDBRANCH  22  24
ENDBRANCH  21  22
ENDBRANCH   1  21
TORSDOF 6
