REMARK  2 active torsions:
REMARK  status: ('A' for Active; 'I' for Inactive)
REMARK       I    between atoms: C2_4  and  N3_6 
REMARK    1  A    between atoms: C21_25  and  N4_26 
REMARK       I    between atoms: N4_26  and  C22_28 
REMARK    2  A    between atoms: C22_28  and  C23_30 
ROOT
HETATM    1  C1  UNL     1      -2.030   0.158  -3.595  1.00  0.00     0.148 C 
HETATM    2  N1  UNL     1      -2.045   0.270  -2.153  1.00  0.00    -0.362 N 
ATOM      3  H1  UNL     1      -2.174   1.186  -1.724  1.00  0.00     0.161 HD
HETATM    4  C2  UNL     1      -1.900  -0.759  -1.404  1.00  0.00     0.290 C 
HETATM    5  N2  UNL     1      -1.725  -1.995  -2.024  1.00  0.00    -0.057 NA
HETATM    6  N3  UNL     1      -1.948  -0.536   0.046  1.00  0.00     0.008 N 
HETATM    7  C3  UNL     1      -3.403   0.004   0.065  1.00  0.00     0.285 C 
HETATM    8  C4  UNL     1      -2.112  -1.753   0.665  1.00  0.00     0.253 C 
HETATM    9  C5  UNL     1      -1.462  -2.312   1.904  1.00  0.00     0.067 C 
HETATM   10  C6  UNL     1       0.079  -2.415   1.690  1.00  0.00    -0.057 A 
HETATM   11  C7  UNL     1       0.898  -1.483   2.271  1.00  0.00     0.007 A 
HETATM   12  C8  UNL     1       2.233  -1.181   1.828  1.00  0.00     0.008 A 
HETATM   13  C9  UNL     1       2.697  -1.881   0.757  1.00  0.00    -0.054 A 
HETATM   14  C10 UNL     1       1.902  -2.837   0.195  1.00  0.00     0.008 A 
HETATM   15  C11 UNL     1       0.569  -3.142   0.636  1.00  0.00     0.007 A 
HETATM   16  C12 UNL     1       3.872  -1.268   0.012  1.00  0.00     0.077 C 
HETATM   17  C13 UNL     1       3.612   0.156  -0.398  1.00  0.00    -0.048 A 
HETATM   18  C14 UNL     1       4.797   0.920  -0.295  1.00  0.00     0.008 A 
HETATM   19  C15 UNL     1       4.875   2.262  -0.566  1.00  0.00     0.001 A 
HETATM   20  C16 UNL     1       3.734   2.900  -0.961  1.00  0.00     0.001 A 
HETATM   21  C17 UNL     1       2.582   2.172  -1.066  1.00  0.00     0.007 A 
HETATM   22  C18 UNL     1       2.486   0.775  -0.788  1.00  0.00    -0.051 A 
HETATM   23  C19 UNL     1       1.068   0.313  -1.051  1.00  0.00     0.043 C 
HETATM   24  C20 UNL     1      -0.001   1.078  -0.405  1.00  0.00     0.060 C 
HETATM   25  C21 UNL     1      -1.123   0.543   0.400  1.00  0.00     0.300 C 
ENDROOT
BRANCH  25  26
HETATM   26  N4  UNL     1      -1.988   1.744   0.754  1.00  0.00    -0.325 N 
HETATM   27  C22 UNL     1      -2.173   2.203   2.062  1.00  0.00     0.327 C 
HETATM   28  O1  UNL     1      -1.591   1.585   2.987  1.00  0.00    -0.263 OA
ATOM     29  H4  UNL     1      -2.458   2.241  -0.003  1.00  0.00     0.164 HD
BRANCH  27  30
HETATM   30  C23 UNL     1      -3.000   3.360   2.453  1.00  0.00     0.472 C 
HETATM   31  F1  UNL     1      -2.572   4.537   1.871  1.00  0.00    -0.162 F 
HETATM   32  F2  UNL     1      -2.980   3.593   3.818  1.00  0.00    -0.162 F 
HETATM   33  F3  UNL     1      -4.357   3.137   2.174  1.00  0.00    -0.162 F 
ENDBRANCH  27  30
ENDBRANCH  25  26
TORSDOF 2
