REMARK  1 active torsions:
REMARK  status: ('A' for Active; 'I' for Inactive)
REMARK    1  A    between atoms: C12_14  and  N1_15 
ROOT
HETATM    1  C1  UNL     1      -2.172   2.336   1.103  1.00  0.00     0.034 C 
HETATM    2  C2  UNL     1      -1.519   1.543  -0.055  1.00  0.00     0.063 C 
HETATM    3 CL1  UNL     1      -0.916   2.837  -1.160  1.00  0.00    -0.117 Cl
HETATM    4  C3  UNL     1      -2.673   0.900  -0.758  1.00  0.00     0.033 C 
HETATM    5  C4  UNL     1      -3.001  -0.365  -0.134  1.00  0.00     0.008 A 
HETATM    6  C5  UNL     1      -3.523  -1.609  -0.597  1.00  0.00     0.027 A 
HETATM    7  C6  UNL     1      -2.105  -1.357  -0.950  1.00  0.00     0.023 A 
HETATM    8 BR1  UNL     1      -1.957  -1.087  -2.849  1.00  0.00    -0.085 Br
HETATM    9  C7  UNL     1      -0.950  -1.590  -0.104  1.00  0.00     0.035 C 
HETATM   10  C8  UNL     1       0.109  -0.478  -0.039  1.00  0.00     0.011 C 
HETATM   11  C9  UNL     1       0.739  -0.295  -1.361  1.00  0.00     0.020 C 
HETATM   12  C10 UNL     1       2.149   0.101  -1.494  1.00  0.00     0.024 A 
HETATM   13  C11 UNL     1       2.943   1.024  -0.750  1.00  0.00     0.046 A 
HETATM   14  C12 UNL     1       3.025  -0.503  -0.526  1.00  0.00     0.129 A 
HETATM   15  C13 UNL     1       2.477  -1.077   0.710  1.00  0.00     0.062 C 
HETATM   16  C14 UNL     1       1.065  -0.925   1.042  1.00  0.00     0.054 C 
HETATM   17 BR2  UNL     1       0.526  -2.628   1.866  1.00  0.00    -0.083 Br
HETATM   18  C15 UNL     1       0.834   0.081   2.183  1.00  0.00     0.254 C 
HETATM   19  N2  UNL     1      -0.572   0.449   1.940  1.00  0.00    -0.067 N 
ATOM     20  H21 UNL     1      -0.971   1.165   2.547  1.00  0.00     0.277 HD
ATOM     21  H22 UNL     1      -1.278  -0.245   2.187  1.00  0.00     0.277 HD
HETATM   22  C16 UNL     1      -0.442   0.787   0.506  1.00  0.00     0.219 C 
ENDROOT
BRANCH  14  23
HETATM   23  N1  UNL     1       4.307  -1.073  -0.973  1.00  0.00    -0.070 N 
ATOM     24  H13 UNL     1       4.124  -1.749  -1.715  1.00  0.00     0.275 HD
ATOM     25  H12 UNL     1       4.825  -0.355  -1.480  1.00  0.00     0.275 HD
ATOM     26  H11 UNL     1       4.928  -1.501  -0.287  1.00  0.00     0.275 HD
ENDBRANCH  14  23
TORSDOF 1
