REMARK  2 active torsions:
REMARK  status: ('A' for Active; 'I' for Inactive)
REMARK    1  A    between atoms: C10_12  and  O1_13 
REMARK    2  A    between atoms: C12_17  and  N1_18 
ROOT
HETATM    1  C1  UNL     1      -3.123   0.037  -0.211  1.00  0.00     0.030 C 
HETATM    2  C2  UNL     1      -1.911  -0.342   0.658  1.00  0.00     0.047 C 
HETATM    3 BR1  UNL     1      -2.539  -0.518   2.440  1.00  0.00    -0.083 Br
HETATM    4  C3  UNL     1      -0.873   0.664   0.415  1.00  0.00     0.023 C 
HETATM    5  C4  UNL     1      -1.138   2.119   0.554  1.00  0.00     0.002 C 
HETATM    6  C5  UNL     1       0.266   2.756   0.633  1.00  0.00     0.000 C 
HETATM    7  C6  UNL     1       1.238   2.240  -0.361  1.00  0.00     0.000 C 
HETATM    8  C7  UNL     1       2.300   1.294   0.178  1.00  0.00     0.005 C 
HETATM    9  C8  UNL     1       2.449   0.043  -0.649  1.00  0.00     0.045 C 
HETATM   10  C9  UNL     1       2.304  -1.259   0.135  1.00  0.00    -0.000 C 
HETATM   11 BR2  UNL     1       2.703  -1.013   2.011  1.00  0.00    -0.057 Br
HETATM   12  C10 UNL     1       1.124  -2.084  -0.203  1.00  0.00     0.192 C 
HETATM   13  C11 UNL     1      -0.114  -2.194   0.535  1.00  0.00     0.032 C 
HETATM   14 BR3  UNL     1       0.000  -1.970   2.459  1.00  0.00    -0.055 Br
HETATM   15  C12 UNL     1      -1.415  -1.661   0.041  1.00  0.00     0.241 C 
ENDROOT
BRANCH  15  16
HETATM   16  N1  UNL     1      -1.585  -1.668  -1.381  1.00  0.00    -0.069 N 
ATOM     17  H13 UNL     1      -2.551  -1.472  -1.643  1.00  0.00     0.275 HD
ATOM     18  H12 UNL     1      -1.138  -0.861  -1.815  1.00  0.00     0.275 HD
ATOM     19  H11 UNL     1      -1.256  -2.543  -1.790  1.00  0.00     0.275 HD
ENDBRANCH  15  16
BRANCH  12  20
HETATM   20  O1  UNL     1       0.859  -1.768  -1.568  1.00  0.00    -0.386 OA
ATOM     21  H1  UNL     1       0.101  -2.298  -1.785  1.00  0.00     0.210 HD
ENDBRANCH  12  20
TORSDOF 2
