REMARK  5 active torsions:
REMARK  status: ('A' for Active; 'I' for Inactive)
REMARK    1  A    between atoms: N1_1  and  C1_4 
REMARK    2  A    between atoms: C2_7  and  N3_8 
REMARK    3  A    between atoms: N3_8  and  C3_10 
REMARK    4  A    between atoms: C3_10  and  C4_11 
REMARK    5  A    between atoms: C6_13  and  N4_14 
ROOT
HETATM    1  N3  UNL     1       2.197   0.312   1.579  1.00  0.00    -0.368 N 
ATOM      2  H3  UNL     1       2.486   0.987   2.287  1.00  0.00     0.161 HD
ENDROOT
BRANCH   1   3
HETATM    3  C2  UNL     1       3.007   0.006   0.642  1.00  0.00     0.148 A 
HETATM    4  N2  UNL     1       2.669  -0.877  -0.311  1.00  0.00    -0.175 N 
HETATM    5  C1  UNL     1       3.574  -1.154  -1.272  1.00  0.00     0.679 A 
ATOM      6  H2  UNL     1       1.753  -1.326  -0.308  1.00  0.00     0.186 HD
HETATM    7  N10 UNL     1       4.800  -0.560  -1.285  1.00  0.00    -0.174 N 
HETATM    8  C15 UNL     1       5.143   0.325  -0.333  1.00  0.00     0.154 A 
ATOM      9  H10 UNL     1       5.464  -0.789  -2.024  1.00  0.00     0.186 HD
HETATM   10  C12 UNL     1       4.255   0.640   0.669  1.00  0.00     0.122 A 
HETATM   11  N9  UNL     1       6.345   0.937  -0.306  1.00  0.00    -0.306 N 
HETATM   12  N8  UNL     1       4.557   1.530   1.653  1.00  0.00    -0.355 N 
HETATM   13  C13 UNL     1       5.766   2.123   1.650  1.00  0.00     0.163 A 
ATOM     14  H8  UNL     1       3.877   1.745   2.383  1.00  0.00     0.165 HD
HETATM   15  C14 UNL     1       6.676   1.824   0.657  1.00  0.00     0.262 A 
HETATM   16  O1  UNL     1       7.824   2.364   0.624  1.00  0.00    -0.267 OA
ATOM     17  H9  UNL     1       7.025   0.723  -1.036  1.00  0.00     0.170 HD
BRANCH   5  18
HETATM   18  N1  UNL     1       3.243  -2.002  -2.183  1.00  0.00    -0.234 N 
ATOM     19  H12 UNL     1       2.325  -2.447  -2.173  1.00  0.00     0.174 HD
ATOM     20  H11 UNL     1       3.927  -2.211  -2.910  1.00  0.00     0.174 HD
ENDBRANCH   5  18
ENDBRANCH   1   3
BRANCH   1  21
HETATM   21  C3  UNL     1       0.890  -0.271   1.660  1.00  0.00     0.178 C 
BRANCH  21  22
HETATM   22  C4  UNL     1      -0.077   0.329   0.692  1.00  0.00     0.031 A 
HETATM   23  C5  UNL     1      -1.360  -0.177   0.706  1.00  0.00     0.075 A 
HETATM   24  C6  UNL     1      -2.332   0.316  -0.157  1.00  0.00     0.105 A 
HETATM   25  N6  UNL     1      -1.968   1.302  -1.000  1.00  0.00    -0.339 N 
HETATM   26  C11 UNL     1      -0.712   1.783  -0.998  1.00  0.00     0.182 A 
ATOM     27  H6  UNL     1      -2.654   1.689  -1.648  1.00  0.00     0.168 HD
HETATM   28  N7  UNL     1       0.238   1.303  -0.158  1.00  0.00    -0.354 N 
ATOM     29  H7  UNL     1       1.184   1.684  -0.177  1.00  0.00     0.166 HD
BRANCH  24  30
HETATM   30  N4  UNL     1      -3.655  -0.211  -0.138  1.00  0.00    -0.364 N 
HETATM   31  C7  UNL     1      -4.616   0.331  -1.045  1.00  0.00     0.152 C 
HETATM   32  C8  UNL     1      -6.024   0.304  -0.513  1.00  0.00     0.252 C 
HETATM   33  N5  UNL     1      -6.289  -0.784   0.370  1.00  0.00    -0.072 N 
HETATM   34  C9  UNL     1      -5.329  -1.843   0.310  1.00  0.00     0.252 C 
ATOM     35  H52 UNL     1      -6.388  -0.448   1.328  1.00  0.00     0.277 HD
ATOM     36  H51 UNL     1      -7.229  -1.147   0.214  1.00  0.00     0.277 HD
HETATM   37  C10 UNL     1      -3.989  -1.261   0.779  1.00  0.00     0.152 C 
ENDBRANCH  24  30
ENDBRANCH  21  22
ENDBRANCH   1  21
TORSDOF 5
