REMARK  8 active torsions:
REMARK  status: ('A' for Active; 'I' for Inactive)
REMARK    1  A    between atoms: C2_2  and  C3_3 
REMARK    2  A    between atoms: C2_2  and  C4_6 
REMARK    3  A    between atoms: C2_2  and  N1_9 
REMARK    4  A    between atoms: C3_3  and  O1_4 
REMARK    5  A    between atoms: C4_6  and  O2_7 
REMARK    6  A    between atoms: C5_10  and  C6_11 
REMARK    7  A    between atoms: C6_11  and  N2_12 
REMARK    8  A    between atoms: C12_23  and  N5_24 
ROOT
HETATM    1  N1  UNL     1       1.068  -0.177   0.063  1.00  0.00    -0.315 N 
HETATM    2  C5  UNL     1      -0.195   0.193  -0.262  1.00  0.00     0.115 A 
HETATM    3  N3  UNL     1      -0.270   1.534  -0.533  1.00  0.00    -0.328 N 
ATOM      4  H3  UNL     1      -1.104   2.057  -0.801  1.00  0.00     0.168 HD
HETATM    5  C11 UNL     1       0.937   2.010  -0.381  1.00  0.00     0.152 A 
HETATM    6  N4  UNL     1       1.384   3.274  -0.533  1.00  0.00    -0.174 N 
ATOM      7  H4  UNL     1       0.732   4.010  -0.804  1.00  0.00     0.186 HD
HETATM    8  C12 UNL     1       2.678   3.574  -0.332  1.00  0.00     0.678 A 
HETATM    9  N6  UNL     1       3.552   2.643   0.021  1.00  0.00    -0.179 N 
ATOM     10  H6  UNL     1       4.532   2.883   0.171  1.00  0.00     0.185 HD
HETATM   11  C13 UNL     1       3.120   1.354   0.182  1.00  0.00     0.147 A 
HETATM   12  S1  UNL     1       4.257   0.272   0.609  1.00  0.00    -0.057 SA
HETATM   13  C14 UNL     1       1.826   0.991  -0.008  1.00  0.00     0.121 A 
ENDROOT
BRANCH   1  14
HETATM   14  C2  UNL     1       1.623  -1.428   0.417  1.00  0.00     0.077 C 
HETATM   15  C1  UNL     1       0.459  -2.492   0.435  1.00  0.00     0.043 C 
BRANCH  14  16
HETATM   16  C3  UNL     1       2.035  -1.632   1.861  1.00  0.00     0.197 C 
BRANCH  16  17
HETATM   17  O1  UNL     1       2.475  -2.934   2.094  1.00  0.00    -0.398 OA
ATOM     18  H1  UNL     1       2.733  -3.062   2.999  1.00  0.00     0.209 HD
ENDBRANCH  16  17
ENDBRANCH  14  16
BRANCH  14  19
HETATM   19  C4  UNL     1       2.449  -2.144  -0.629  1.00  0.00     0.197 C 
BRANCH  19  20
HETATM   20  O2  UNL     1       2.850  -3.427  -0.229  1.00  0.00    -0.398 OA
ATOM     21  H2  UNL     1       3.369  -3.877  -0.886  1.00  0.00     0.209 HD
ENDBRANCH  19  20
ENDBRANCH  14  19
ENDBRANCH   1  14
BRANCH   2  22
HETATM   22  C6  UNL     1      -1.394  -0.653  -0.354  1.00  0.00     0.349 C 
BRANCH  22  23
HETATM   23  N2  UNL     1      -2.539   0.229  -0.809  1.00  0.00     0.099 N 
HETATM   24  C7  UNL     1      -2.813   1.256   0.137  1.00  0.00     0.299 C 
HETATM   25  C8  UNL     1      -4.313   1.159   0.466  1.00  0.00     0.198 C 
HETATM   26  O3  UNL     1      -5.077   1.172  -0.680  1.00  0.00    -0.388 OA
HETATM   27  C9  UNL     1      -4.832   0.122  -1.537  1.00  0.00     0.198 C 
HETATM   28  C10 UNL     1      -3.687  -0.668  -1.032  1.00  0.00     0.299 C 
ENDBRANCH  22  23
ENDBRANCH   2  22
BRANCH   8  29
HETATM   29  N5  UNL     1       3.098   4.784  -0.479  1.00  0.00    -0.234 N 
ATOM     30  H52 UNL     1       2.425   5.501  -0.751  1.00  0.00     0.174 HD
ATOM     31  H51 UNL     1       4.080   5.012  -0.326  1.00  0.00     0.174 HD
ENDBRANCH   8  29
TORSDOF 8
