REMARK  6 active torsions:
REMARK  status: ('A' for Active; 'I' for Inactive)
REMARK    1  A    between atoms: C10_14  and  N3_15 
REMARK    2  A    between atoms: N3_15  and  C11_16 
REMARK    3  A    between atoms: N3_15  and  C13_22 
REMARK    4  A    between atoms: C11_16  and  C12_17 
REMARK    5  A    between atoms: C12_17  and  N4_18 
REMARK    6  A    between atoms: C15_27  and  N7_28 
ROOT
HETATM    1  N3  UNL     1      -0.795  -0.336   0.379  1.00  0.00    -0.338 N 
ENDROOT
BRANCH   1   2
HETATM    2  C10 UNL     1       0.384   0.083  -0.277  1.00  0.00     0.043 A 
HETATM    3  C2  UNL     1       0.434   0.696  -1.480  1.00  0.00    -0.033 A 
HETATM    4  C1  UNL     1      -0.761   0.959  -2.310  1.00  0.00     0.050 C 
HETATM    5  C3  UNL     1       1.652   1.132  -2.040  1.00  0.00     0.040 A 
HETATM    6  C4  UNL     1       2.816   0.923  -1.340  1.00  0.00     0.060 A 
HETATM    7  N1  UNL     1       4.023   1.322  -1.831  1.00  0.00    -0.359 N 
HETATM    8  C8  UNL     1       2.783   0.301  -0.114  1.00  0.00     0.066 A 
HETATM    9  C5  UNL     1       5.138   1.099  -1.113  1.00  0.00     0.163 A 
ATOM     10  H1  UNL     1       4.080   1.787  -2.737  1.00  0.00     0.165 HD
HETATM   11  C6  UNL     1       5.076   0.469   0.119  1.00  0.00     0.263 A 
HETATM   12  O1  UNL     1       6.148   0.284   0.751  1.00  0.00    -0.267 OA
HETATM   13  N2  UNL     1       3.903   0.064   0.632  1.00  0.00    -0.316 N 
HETATM   14  C7  UNL     1       3.804  -0.600   1.922  1.00  0.00     0.160 C 
HETATM   15  C9  UNL     1       1.609  -0.117   0.423  1.00  0.00     0.062 A 
ENDBRANCH   1   2
BRANCH   1  16
HETATM   16  C11 UNL     1      -0.744  -1.480   1.308  1.00  0.00     0.157 C 
BRANCH  16  17
HETATM   17  C12 UNL     1      -0.128  -2.713   0.800  1.00  0.00     0.249 C 
BRANCH  17  18
HETATM   18  N4  UNL     1      -0.744  -3.294  -0.351  1.00  0.00    -0.078 N 
ATOM     19  H43 UNL     1      -1.735  -3.452  -0.170  1.00  0.00     0.274 HD
ATOM     20  H42 UNL     1      -0.801  -2.603  -1.099  1.00  0.00     0.274 HD
ATOM     21  H41 UNL     1      -0.316  -4.150  -0.704  1.00  0.00     0.274 HD
ENDBRANCH  17  18
ENDBRANCH  16  17
ENDBRANCH   1  16
BRANCH   1  22
HETATM   22  C13 UNL     1      -1.996   0.387   0.411  1.00  0.00     0.146 A 
HETATM   23  C14 UNL     1      -3.199   0.100  -0.177  1.00  0.00     0.164 A 
HETATM   24  N5  UNL     1      -3.437  -1.098  -0.872  1.00  0.00    -0.080 NA
HETATM   25  N6  UNL     1      -4.279   0.930  -0.093  1.00  0.00    -0.177 N 
HETATM   26  C15 UNL     1      -4.194   2.078   0.585  1.00  0.00     0.680 A 
ATOM     27  H6  UNL     1      -5.154   0.673  -0.549  1.00  0.00     0.185 HD
HETATM   28  N8  UNL     1      -3.020   2.381   1.173  1.00  0.00    -0.154 N 
HETATM   29  C16 UNL     1      -1.943   1.613   1.123  1.00  0.00     0.290 A 
ATOM     30  H8  UNL     1      -2.957   3.258   1.690  1.00  0.00     0.187 HD
HETATM   31  O2  UNL     1      -0.868   1.966   1.704  1.00  0.00    -0.265 OA
BRANCH  26  32
HETATM   32  N7  UNL     1      -5.194   2.889   0.686  1.00  0.00    -0.234 N 
ATOM     33  H72 UNL     1      -6.083   2.660   0.241  1.00  0.00     0.174 HD
ATOM     34  H71 UNL     1      -5.129   3.765   1.204  1.00  0.00     0.174 HD
ENDBRANCH  26  32
ENDBRANCH   1  22
TORSDOF 6
