REMARK  7 active torsions:
REMARK  status: ('A' for Active; 'I' for Inactive)
REMARK    1  A    between atoms: C2_2  and  C3_3 
REMARK    2  A    between atoms: C3_3  and  C4_4 
REMARK    3  A    between atoms: C5_7  and  N2_8 
REMARK    4  A    between atoms: N2_8  and  C6_10 
REMARK    5  A    between atoms: C10_21  and  C11_22 
REMARK    6  A    between atoms: C11_22  and  C12_23 
REMARK    7  A    between atoms: C14_30  and  O2_31 
ROOT
HETATM    1  C4  UNL     1      -1.036   1.065  -1.005  1.00  0.00     0.099 A 
HETATM    2  N1  UNL     1      -1.893   0.159  -0.511  1.00  0.00    -0.178 N 
ATOM      3  H1  UNL     1      -2.898   0.290  -0.621  1.00  0.00     0.185 HD
HETATM    4  C5  UNL     1      -1.419  -0.923   0.130  1.00  0.00     0.709 A 
HETATM    5  N5  UNL     1      -0.104  -1.151   0.306  1.00  0.00    -0.069 N 
HETATM    6  N6  UNL     1       0.610  -2.081   0.867  1.00  0.00    -0.288 N 
ATOM      7  H6  UNL     1       0.219  -2.902   1.328  1.00  0.00     0.187 HD
HETATM    8  C9  UNL     1       1.936  -1.827   0.765  1.00  0.00     0.123 A 
HETATM    9  C10 UNL     1       2.052  -0.635   0.080  1.00  0.00     0.030 A 
HETATM   10  C15 UNL     1       0.762  -0.234  -0.195  1.00  0.00     0.158 A 
HETATM   11  N9  UNL     1       0.278   0.843  -0.832  1.00  0.00    -0.329 N 
ATOM     12  H9  UNL     1       0.939   1.526  -1.203  1.00  0.00     0.168 HD
ENDROOT
BRANCH   9  13
HETATM   13  C11 UNL     1       3.184  -0.001  -0.247  1.00  0.00     0.051 C 
BRANCH  13  14
HETATM   14  C12 UNL     1       4.481  -0.534   0.104  1.00  0.00     0.088 A 
HETATM   15  N7  UNL     1       5.113  -1.525  -0.551  1.00  0.00    -0.305 N 
HETATM   16  C13 UNL     1       6.302  -1.772   0.044  1.00  0.00     0.326 A 
ATOM     17  H7  UNL     1       4.751  -2.014  -1.370  1.00  0.00     0.171 HD
HETATM   18  O1  UNL     1       7.156  -2.648  -0.318  1.00  0.00    -0.247 OA
HETATM   19  N8  UNL     1       6.452  -0.945   1.088  1.00  0.00    -0.287 N 
HETATM   20  C14 UNL     1       5.332  -0.179   1.130  1.00  0.00     0.171 A 
ATOM     21  H8  UNL     1       7.248  -0.900   1.724  1.00  0.00     0.172 HD
BRANCH  20  22
HETATM   22  O2  UNL     1       5.109   0.795   2.066  1.00  0.00    -0.344 OA
ATOM     23  H2  UNL     1       5.695   1.039   2.773  1.00  0.00     0.219 HD
ENDBRANCH  20  22
ENDBRANCH  13  14
ENDBRANCH   9  13
BRANCH   4  24
HETATM   24  N2  UNL     1      -2.270  -1.771   0.591  1.00  0.00    -0.159 N 
ATOM     25  H2  UNL     1      -1.928  -2.598   1.080  1.00  0.00     0.187 HD
BRANCH  24  26
HETATM   26  C6  UNL     1      -3.663  -1.591   0.440  1.00  0.00     0.190 C 
HETATM   27  N3  UNL     1      -4.425  -1.202   1.420  1.00  0.00    -0.360 N 
HETATM   28  C7  UNL     1      -5.796  -1.102   0.987  1.00  0.00     0.142 C 
ATOM     29  H3  UNL     1      -4.098  -0.996   2.364  1.00  0.00     0.162 HD
HETATM   30  C8  UNL     1      -5.797  -1.937  -0.275  1.00  0.00     0.142 C 
HETATM   31  N4  UNL     1      -4.432  -1.790  -0.729  1.00  0.00    -0.360 N 
ATOM     32  H4  UNL     1      -4.095  -1.823  -1.691  1.00  0.00     0.162 HD
ENDBRANCH  24  26
ENDBRANCH   4  24
BRANCH   1  33
HETATM   33  C3  UNL     1      -1.499   2.295  -1.730  1.00  0.00     0.077 C 
BRANCH  33  34
HETATM   34  C2  UNL     1      -1.677   3.383  -0.686  1.00  0.00     0.003 C 
HETATM   35  C1  UNL     1      -0.321   3.583  -0.033  1.00  0.00     0.005 C 
ENDBRANCH  33  34
ENDBRANCH   1  33
TORSDOF 7
