REMARK  5 active torsions:
REMARK  status: ('A' for Active; 'I' for Inactive)
REMARK    1  A    between atoms: O1_1  and  C1_3 
REMARK    2  A    between atoms: C2_4  and  O2_5 
REMARK    3  A    between atoms: C2_4  and  C3_7 
REMARK    4  A    between atoms: C4_8  and  C5_9 
REMARK    5  A    between atoms: C9_13  and  C10_14 
ROOT
HETATM    1  C1  UNL     1      -0.287   1.945  -1.117  1.00  0.00     0.183 A 
HETATM    2  C2  UNL     1       0.701   0.922  -1.502  1.00  0.00     0.162 A 
HETATM    3  C12 UNL     1      -0.476   0.507  -0.771  1.00  0.00     0.066 A 
HETATM    4  C13 UNL     1      -0.325   0.302   0.747  1.00  0.00     0.061 C 
HETATM    5  C14 UNL     1      -1.603   0.877   1.306  1.00  0.00    -0.043 A 
HETATM    6  C15 UNL     1      -1.606   1.840   2.246  1.00  0.00     0.050 A 
HETATM    7  C16 UNL     1      -2.820   2.247   2.793  1.00  0.00     0.117 A 
HETATM    8  F4  UNL     1      -2.821   3.213   3.740  1.00  0.00    -0.206 F 
HETATM    9  C17 UNL     1      -3.975   1.656   2.354  1.00  0.00     0.043 A 
HETATM   10  C18 UNL     1      -3.971   0.667   1.380  1.00  0.00     0.016 A 
HETATM   11  C19 UNL     1      -2.755   0.266   0.846  1.00  0.00    -0.018 A 
HETATM   12  C20 UNL     1      -2.756  -0.388  -0.442  1.00  0.00    -0.007 A 
HETATM   13  C21 UNL     1      -1.584  -0.314  -1.251  1.00  0.00    -0.030 A 
HETATM   14  C22 UNL     1      -1.525  -0.952  -2.454  1.00  0.00     0.010 A 
HETATM   15  C23 UNL     1      -2.594  -1.673  -2.898  1.00  0.00     0.013 A 
HETATM   16  C24 UNL     1      -3.735  -1.762  -2.114  1.00  0.00    -0.025 A 
HETATM   17  C25 UNL     1      -4.744  -2.619  -2.506  1.00  0.00     0.012 A 
HETATM   18  C26 UNL     1      -5.815  -2.871  -1.708  1.00  0.00     0.001 A 
HETATM   19  C27 UNL     1      -5.898  -2.265  -0.475  1.00  0.00     0.001 A 
HETATM   20  C28 UNL     1      -4.891  -1.387  -0.055  1.00  0.00     0.013 A 
HETATM   21  C29 UNL     1      -3.831  -1.124  -0.865  1.00  0.00    -0.014 A 
ENDROOT
BRANCH   1  22
HETATM   22  O1  UNL     1       0.112   2.883  -0.167  1.00  0.00    -0.390 OA
ATOM     23  H1  UNL     1      -0.525   3.543   0.081  1.00  0.00     0.210 HD
ENDBRANCH   1  22
BRANCH   2  24
HETATM   24  O2  UNL     1       0.919   0.853  -2.865  1.00  0.00    -0.373 OA
ATOM     25  H2  UNL     1       1.556   0.193  -3.113  1.00  0.00     0.212 HD
ENDBRANCH   2  24
BRANCH   2  26
HETATM   26  C3  UNL     1       1.966   0.843  -0.723  1.00  0.00    -0.059 C 
HETATM   27  C4  UNL     1       3.017   0.748  -0.105  1.00  0.00    -0.064 C 
BRANCH  27  28
HETATM   28  C5  UNL     1       4.253   0.598   0.595  1.00  0.00     0.018 A 
HETATM   29  C6  UNL     1       4.401   1.047   1.888  1.00  0.00     0.020 A 
HETATM   30  C7  UNL     1       5.605   0.883   2.562  1.00  0.00     0.002 A 
HETATM   31  C8  UNL     1       6.694   0.281   1.995  1.00  0.00     0.016 A 
HETATM   32  C9  UNL     1       6.554  -0.179   0.676  1.00  0.00     0.049 A 
HETATM   33  C11 UNL     1       5.350  -0.011   0.016  1.00  0.00     0.036 A 
BRANCH  32  34
HETATM   34  C10 UNL     1       7.668  -0.858  -0.037  1.00  0.00     0.417 C 
HETATM   35  F1  UNL     1       8.067  -0.145  -1.156  1.00  0.00    -0.166 F 
HETATM   36  F2  UNL     1       8.709  -1.028   0.852  1.00  0.00    -0.166 F 
HETATM   37  F3  UNL     1       7.285  -2.111  -0.486  1.00  0.00    -0.166 F 
ENDBRANCH  32  34
ENDBRANCH  27  28
ENDBRANCH   2  26
TORSDOF 5
