REMARK  1 active torsions:
REMARK  status: ('A' for Active; 'I' for Inactive)
REMARK    1  A    between atoms: C20_26  and  C21_27 
ROOT
HETATM    1  C1  UNL     1      -1.965   0.153   1.829  1.00  0.00     0.021 C 
HETATM    2  C2  UNL     1      -2.185   0.078   0.310  1.00  0.00     0.007 C 
HETATM    3  C3  UNL     1      -3.451  -0.715   0.213  1.00  0.00     0.044 A 
HETATM    4  C4  UNL     1      -3.141  -2.026  -0.112  1.00  0.00     0.039 A 
HETATM    5  N1  UNL     1      -4.319  -2.702  -0.185  1.00  0.00    -0.301 N 
ATOM      6  H1  UNL     1      -4.399  -3.694  -0.409  1.00  0.00     0.186 HD
HETATM    7  N2  UNL     1      -5.327  -1.928   0.066  1.00  0.00    -0.266 N 
ATOM      8  H2  UNL     1      -6.311  -2.197   0.073  1.00  0.00     0.190 HD
HETATM    9  C5  UNL     1      -4.824  -0.687   0.319  1.00  0.00     0.268 A 
HETATM   10  O1  UNL     1      -5.527   0.309   0.605  1.00  0.00    -0.266 OA
HETATM   11  C6  UNL     1      -1.669  -2.186  -0.227  1.00  0.00     0.065 C 
HETATM   12  C7  UNL     1      -1.197  -0.762  -0.374  1.00  0.00     0.009 C 
HETATM   13  C8  UNL     1       0.227  -0.592   0.071  1.00  0.00    -0.005 C 
HETATM   14  C9  UNL     1       1.049  -1.450  -0.917  1.00  0.00     0.006 C 
HETATM   15  C10 UNL     1       2.392  -1.653  -0.263  1.00  0.00     0.005 C 
HETATM   16  C11 UNL     1       2.743  -0.521   0.626  1.00  0.00    -0.009 C 
HETATM   17  C12 UNL     1       4.249  -0.419   0.730  1.00  0.00     0.020 C 
HETATM   18  C13 UNL     1       4.868  -0.216  -0.618  1.00  0.00     0.058 C 
HETATM   19 BR1  UNL     1       6.601   0.632  -0.331  1.00  0.00    -0.091 Br
HETATM   20  C14 UNL     1       4.014   0.616  -1.538  1.00  0.00     0.016 C 
HETATM   21  C15 UNL     1       3.054   1.503  -0.826  1.00  0.00     0.006 C 
HETATM   22  C16 UNL     1       2.232   0.818   0.228  1.00  0.00    -0.006 C 
HETATM   23  C17 UNL     1       0.729   0.803  -0.143  1.00  0.00    -0.006 C 
HETATM   24  C18 UNL     1       0.059   1.855   0.643  1.00  0.00     0.006 C 
HETATM   25  C19 UNL     1      -1.247   2.388   0.291  1.00  0.00     0.015 C 
HETATM   26  C20 UNL     1      -2.359   1.473  -0.151  1.00  0.00     0.107 C 
ENDROOT
BRANCH  26  27
HETATM   27  C21 UNL     1      -2.675   1.788  -1.555  1.00  0.00     0.392 C 
HETATM   28  F1  UNL     1      -1.767   1.417  -2.518  1.00  0.00    -0.171 F 
HETATM   29  F2  UNL     1      -3.898   1.393  -2.045  1.00  0.00    -0.171 F 
HETATM   30  F3  UNL     1      -2.705   3.199  -1.686  1.00  0.00    -0.171 F 
ENDBRANCH  26  27
TORSDOF 1
