REMARK  2 active torsions:
REMARK  status: ('A' for Active; 'I' for Inactive)
REMARK    1  A    between atoms: C5_6  and  O1_8 
REMARK    2  A    between atoms: O1_8  and  C7_9 
ROOT
HETATM    1  C1  UNL     1      -3.311   0.934  -1.191  1.00  0.00     0.020 C 
HETATM    2  C2  UNL     1      -2.463   0.249  -0.449  1.00  0.00    -0.052 C 
HETATM    3  C3  UNL     1      -1.627  -0.596  -1.293  1.00  0.00     0.030 C 
HETATM    4  C4  UNL     1      -0.388  -0.979  -1.217  1.00  0.00     0.048 C 
HETATM    5 CL1  UNL     1       0.019  -2.014  -2.575  1.00  0.00    -0.086 Cl
HETATM    6  C5  UNL     1       0.817  -0.831  -0.363  1.00  0.00     0.118 C 
HETATM    7  C6  UNL     1       1.145  -2.274  -0.002  1.00  0.00     0.054 C 
HETATM    8  C8  UNL     1       0.632  -0.158   0.951  1.00  0.00     0.112 C 
HETATM    9 BR1  UNL     1       0.113  -1.369   2.372  1.00  0.00    -0.086 Br
HETATM   10  C9  UNL     1      -0.139   1.111   0.947  1.00  0.00     0.077 C 
HETATM   11 BR2  UNL     1       0.914   2.585   1.700  1.00  0.00    -0.090 Br
HETATM   12  C10 UNL     1      -1.421   1.054   1.702  1.00  0.00     0.037 C 
HETATM   13  C11 UNL     1      -2.576   0.495   0.974  1.00  0.00     0.091 C 
HETATM   14 BR3  UNL     1      -3.386  -1.031   1.909  1.00  0.00    -0.086 Br
ENDROOT
BRANCH   6  15
HETATM   15  O1  UNL     1       1.724  -0.141  -1.112  1.00  0.00    -0.307 OA
BRANCH  15  16
HETATM   16  C7  UNL     1       2.958   0.267  -0.803  1.00  0.00     0.226 C 
HETATM   17  N1  UNL     1       3.738  -0.505  -0.216  1.00  0.00    -0.368 N 
ATOM     18  H12 UNL     1       3.389  -1.436   0.010  1.00  0.00     0.159 HD
ATOM     19  H11 UNL     1       4.680  -0.193   0.020  1.00  0.00     0.159 HD
HETATM   20  N2  UNL     1       3.456   1.596  -1.125  1.00  0.00    -0.057 NA
ENDBRANCH  15  16
ENDBRANCH   6  15
TORSDOF 2
