REMARK  0 active torsions:
REMARK  status: ('A' for Active; 'I' for Inactive)
REMARK       I    between atoms: N1_2  and  C2_4 
REMARK       I    between atoms: C2_4  and  N2_5 
ROOT
HETATM    1  C1  UNL     1       4.190   2.382   1.987  1.00  0.00     0.165 C 
HETATM    2  N1  UNL     1       4.064   2.032   0.591  1.00  0.00    -0.230 N 
ATOM      3  H1  UNL     1       4.004   2.752  -0.129  1.00  0.00     0.177 HD
HETATM    4  C2  UNL     1       4.027   0.653   0.255  1.00  0.00     0.688 C 
HETATM    5  N2  UNL     1       3.520   0.221  -0.984  1.00  0.00    -0.180 N 
ATOM      6  H2  UNL     1       4.168  -0.152  -1.678  1.00  0.00     0.185 HD
HETATM    7  C3  UNL     1       2.219   0.282  -1.284  1.00  0.00     0.093 C 
HETATM    8  C4  UNL     1       1.946  -0.229  -2.637  1.00  0.00     0.081 C 
HETATM    9  C5  UNL     1       1.992  -1.753  -2.677  1.00  0.00     0.046 C 
HETATM   10  C6  UNL     1       0.809  -2.348  -1.981  1.00  0.00    -0.057 A 
HETATM   11  C7  UNL     1      -0.137  -2.767  -2.941  1.00  0.00     0.007 A 
HETATM   12  C8  UNL     1      -1.416  -3.148  -2.629  1.00  0.00     0.001 A 
HETATM   13  C9  UNL     1      -1.728  -3.087  -1.292  1.00  0.00     0.010 A 
HETATM   14  C10 UNL     1      -0.806  -2.672  -0.323  1.00  0.00    -0.024 A 
HETATM   15  C11 UNL     1       0.481  -2.308  -0.637  1.00  0.00     0.017 A 
HETATM   16  C12 UNL     1      -1.557  -2.373   0.976  1.00  0.00     0.207 C 
HETATM   17  F1  UNL     1      -1.077  -2.947   2.084  1.00  0.00    -0.244 F 
HETATM   18  C13 UNL     1      -1.711  -0.897   1.095  1.00  0.00     0.029 C 
HETATM   19  C14 UNL     1      -2.943  -0.446   1.802  1.00  0.00     0.048 C 
HETATM   20  C15 UNL     1      -3.134   0.983   1.310  1.00  0.00    -0.029 A 
HETATM   21  C16 UNL     1      -4.436   1.441   1.258  1.00  0.00     0.043 A 
HETATM   22 CL1  UNL     1      -5.761   0.431   1.755  1.00  0.00    -0.084 Cl
HETATM   23  C17 UNL     1      -4.681   2.708   0.809  1.00  0.00     0.066 A 
HETATM   24  C18 UNL     1      -3.596   3.487   0.420  1.00  0.00     0.118 A 
HETATM   25  F2  UNL     1      -3.863   4.750  -0.026  1.00  0.00    -0.206 F 
HETATM   26  C19 UNL     1      -2.305   3.010   0.480  1.00  0.00     0.050 A 
HETATM   27  C20 UNL     1      -2.050   1.717   0.939  1.00  0.00    -0.042 A 
HETATM   28  C21 UNL     1      -0.651   1.277   0.995  1.00  0.00     0.037 C 
HETATM   29  C22 UNL     1       0.056   1.349  -0.347  1.00  0.00     0.130 C 
HETATM   30  N3  UNL     1       1.372   0.802  -0.303  1.00  0.00    -0.379 N 
ATOM     31  H3  UNL     1       1.776   0.788   0.633  1.00  0.00     0.160 HD
HETATM   32  C23 UNL     1      -0.564  -0.112   1.626  1.00  0.00     0.019 C 
HETATM   33  N4  UNL     1       4.460  -0.259   1.079  1.00  0.00    -0.126 N 
ATOM     34  H4  UNL     1       4.833   0.027   1.984  1.00  0.00     0.197 HD
HETATM   35  C24 UNL     1       4.428  -1.599   0.761  1.00  0.00     0.196 C 
HETATM   36  N5  UNL     1       4.387  -2.727   0.487  1.00  0.00    -0.171 NA
ENDROOT
TORSDOF 0
