REMARK  2 active torsions:
REMARK  status: ('A' for Active; 'I' for Inactive)
REMARK    1  A    between atoms: C7_7  and  O1_8 
REMARK    2  A    between atoms: C22_26  and  C23_27 
ROOT
HETATM    1  C1  UNL     1      -0.936  -3.720  -0.204  1.00  0.00     0.044 C 
HETATM    2  C2  UNL     1      -1.086  -2.229  -0.312  1.00  0.00    -0.070 C 
HETATM    3  C3  UNL     1       0.035  -1.615  -0.594  1.00  0.00    -0.018 C 
HETATM    4  C4  UNL     1       0.391  -0.220  -0.796  1.00  0.00     0.022 C 
HETATM    5  C5  UNL     1      -0.366   0.722   0.106  1.00  0.00     0.031 C 
HETATM    6  C6  UNL     1       0.104   0.521   1.500  1.00  0.00     0.042 C 
HETATM    7  C7  UNL     1       1.551   1.050   1.548  1.00  0.00     0.127 C 
HETATM    8  C8  UNL     1       2.407   0.148   0.694  1.00  0.00    -0.014 C 
HETATM    9  C9  UNL     1       2.628  -1.165   1.358  1.00  0.00     0.018 C 
HETATM   10  C10 UNL     1       3.787   0.813   0.562  1.00  0.00     0.013 C 
HETATM   11  C11 UNL     1       4.653   0.078  -0.426  1.00  0.00     0.016 C 
HETATM   12  C12 UNL     1       4.012  -0.126  -1.766  1.00  0.00     0.058 C 
HETATM   13 BR1  UNL     1       5.157  -1.287  -2.803  1.00  0.00    -0.091 Br
HETATM   14  C13 UNL     1       2.677  -0.819  -1.588  1.00  0.00     0.022 C 
HETATM   15  C14 UNL     1       1.854   0.079  -0.685  1.00  0.00     0.006 C 
HETATM   16  C15 UNL     1      -1.799   0.730  -0.136  1.00  0.00    -0.021 A 
HETATM   17  C16 UNL     1      -2.680  -0.321  -0.239  1.00  0.00    -0.033 A 
HETATM   18  C17 UNL     1      -4.033  -0.077  -0.532  1.00  0.00     0.009 A 
HETATM   19  C18 UNL     1      -4.495   1.208  -0.715  1.00  0.00     0.009 A 
HETATM   20  C19 UNL     1      -3.615   2.257  -0.609  1.00  0.00    -0.037 A 
HETATM   21  C20 UNL     1      -4.111   3.640  -0.805  1.00  0.00     0.050 C 
HETATM   22  C21 UNL     1      -2.287   2.018  -0.324  1.00  0.00     0.059 A 
HETATM   23  N1  UNL     1      -1.353   3.071  -0.208  1.00  0.00    -0.101 NA
HETATM   24  C22 UNL     1      -2.453  -1.755  -0.080  1.00  0.00     0.155 C 
ENDROOT
BRANCH  24  25
HETATM   25  C23 UNL     1      -3.025  -2.326   1.185  1.00  0.00     0.399 C 
HETATM   26  F1  UNL     1      -4.321  -1.874   1.451  1.00  0.00    -0.170 F 
HETATM   27  F2  UNL     1      -2.277  -2.074   2.305  1.00  0.00    -0.170 F 
HETATM   28  F3  UNL     1      -3.190  -3.709   1.094  1.00  0.00    -0.170 F 
ENDBRANCH  24  25
BRANCH   7  29
HETATM   29  O1  UNL     1       2.009   1.176   2.833  1.00  0.00    -0.395 OA
ATOM     30  H1  UNL     1       2.901   1.502   2.863  1.00  0.00     0.210 HD
ENDBRANCH   7  29
TORSDOF 2
