REMARK  1 active torsions:
REMARK  status: ('A' for Active; 'I' for Inactive)
REMARK       I    between atoms: N1_2  and  C2_4 
REMARK       I    between atoms: C2_4  and  N2_6 
REMARK    1  A    between atoms: C13_18  and  C15_20 
ROOT
HETATM    1  C1  UNL     1       5.704   1.740  -1.781  1.00  0.00     0.151 C 
HETATM    2  N1  UNL     1       4.699   0.838  -1.292  1.00  0.00    -0.347 N 
ATOM      3  H1  UNL     1       4.824  -0.166  -1.424  1.00  0.00     0.163 HD
HETATM    4  C2  UNL     1       3.540   1.310  -0.632  1.00  0.00     0.317 C 
HETATM    5  O1  UNL     1       3.414   2.568  -0.483  1.00  0.00    -0.247 OA
HETATM    6  N2  UNL     1       2.528   0.454  -0.138  1.00  0.00    -0.333 N 
HETATM    7  C3  UNL     1       1.369   1.009   0.527  1.00  0.00     0.133 C 
HETATM    8  C4  UNL     1       0.187   0.235   0.055  1.00  0.00     0.017 C 
HETATM    9  C5  UNL     1       0.366  -1.125   0.705  1.00  0.00     0.002 C 
HETATM   10  C6  UNL     1      -0.725  -2.083   0.349  1.00  0.00     0.006 C 
HETATM   11  C7  UNL     1      -1.892  -1.362  -0.283  1.00  0.00     0.007 C 
HETATM   12  C8  UNL     1      -2.252  -0.098   0.497  1.00  0.00     0.012 C 
HETATM   13  C9  UNL     1      -1.138   0.859   0.371  1.00  0.00    -0.033 C 
HETATM   14  C10 UNL     1      -0.910   1.744   1.577  1.00  0.00     0.016 C 
HETATM   15  C11 UNL     1      -1.611   1.808  -0.707  1.00  0.00     0.027 C 
HETATM   16  C12 UNL     1      -3.139   1.770  -0.602  1.00  0.00     0.076 C 
HETATM   17 BR1  UNL     1      -3.735   3.269   0.396  1.00  0.00    -0.090 Br
HETATM   18  C13 UNL     1      -3.509   0.433  -0.141  1.00  0.00     0.071 C 
HETATM   19  C14 UNL     1      -3.936  -0.368  -1.372  1.00  0.00     0.026 C 
HETATM   20  C16 UNL     1       1.670  -1.769   0.446  1.00  0.00    -0.020 A 
HETATM   21  C17 UNL     1       1.857  -3.235   0.418  1.00  0.00     0.012 A 
HETATM   22  C18 UNL     1       2.294  -2.508   1.669  1.00  0.00     0.012 A 
HETATM   23  C19 UNL     1       2.678  -0.953  -0.309  1.00  0.00     0.137 C 
ENDROOT
BRANCH  18  24
HETATM   24  C15 UNL     1      -4.653   0.271   0.804  1.00  0.00     0.396 C 
HETATM   25  F1  UNL     1      -4.871  -1.061   1.144  1.00  0.00    -0.170 F 
HETATM   26  F2  UNL     1      -5.866   0.680   0.336  1.00  0.00    -0.170 F 
HETATM   27  F3  UNL     1      -4.458   0.863   2.043  1.00  0.00    -0.170 F 
ENDBRANCH  18  24
TORSDOF 1
