REMARK  3 active torsions:
REMARK  status: ('A' for Active; 'I' for Inactive)
REMARK    1  A    between atoms: C12_14  and  O1_15 
REMARK    2  A    between atoms: C12_14  and  C13_17 
REMARK    3  A    between atoms: C17_24  and  C19_26 
ROOT
HETATM    1  C1  UNL     1       3.204   3.337  -0.582  1.00  0.00     0.221 C 
HETATM    2  N1  UNL     1       2.582   2.335  -0.687  1.00  0.00    -0.465 NA
HETATM    3  C2  UNL     1       1.808   1.129  -0.833  1.00  0.00     0.181 C 
HETATM    4  C3  UNL     1       2.835   0.066  -0.789  1.00  0.00     0.099 C 
HETATM    5 BR1  UNL     1       4.585   0.716  -1.367  1.00  0.00    -0.087 Br
HETATM    6  C4  UNL     1       3.033  -0.664   0.449  1.00  0.00     0.011 C 
HETATM    7  C5  UNL     1       2.685   0.083   1.727  1.00  0.00     0.012 C 
HETATM    8  C6  UNL     1       1.378  -0.678   1.670  1.00  0.00    -0.000 C 
HETATM    9  C7  UNL     1       2.087  -1.687   0.782  1.00  0.00     0.018 C 
HETATM   10  C8  UNL     1       1.025  -2.237  -0.041  1.00  0.00    -0.018 C 
HETATM   11  C9  UNL     1      -0.157  -1.766  -0.294  1.00  0.00    -0.070 C 
HETATM   12  C10 UNL     1      -1.289  -2.266  -1.103  1.00  0.00     0.038 C 
HETATM   13  C11 UNL     1      -2.453  -1.958  -0.221  1.00  0.00     0.052 C 
HETATM   14  C12 UNL     1      -1.946  -1.048   0.873  1.00  0.00     0.168 C 
HETATM   15  C14 UNL     1      -0.746  -0.466   0.256  1.00  0.00     0.035 C 
HETATM   16  C15 UNL     1       0.350   0.141   1.073  1.00  0.00     0.015 C 
HETATM   17  C16 UNL     1       0.675   1.139   0.062  1.00  0.00     0.037 C 
HETATM   18  C17 UNL     1      -0.674   0.729  -0.567  1.00  0.00    -0.022 C 
HETATM   19  C18 UNL     1      -0.591   0.584  -2.080  1.00  0.00     0.017 C 
ENDROOT
BRANCH  18  20
HETATM   20  C19 UNL     1      -1.627   1.882  -0.328  1.00  0.00     0.006 C 
HETATM   21  C20 UNL     1      -1.323   3.038  -1.317  1.00  0.00     0.006 C 
ENDBRANCH  18  20
BRANCH  14  22
HETATM   22  O1  UNL     1      -1.393  -1.985   1.842  1.00  0.00    -0.380 OA
ATOM     23  H1  UNL     1      -1.074  -1.413   2.530  1.00  0.00     0.211 HD
ENDBRANCH  14  22
BRANCH  14  24
HETATM   24  C13 UNL     1      -3.048  -0.415   1.526  1.00  0.00     0.419 C 
HETATM   25  F1  UNL     1      -2.718   0.489   2.555  1.00  0.00    -0.168 F 
HETATM   26  F2  UNL     1      -3.631  -1.402   2.423  1.00  0.00    -0.168 F 
HETATM   27  F3  UNL     1      -4.184  -0.078   0.857  1.00  0.00    -0.168 F 
ENDBRANCH  14  24
TORSDOF 3
