REMARK  1 active torsions:
REMARK  status: ('A' for Active; 'I' for Inactive)
REMARK    1  A    between atoms: C13_18  and  O1_19 
ROOT
HETATM    1  C1  UNL     1      -0.947  -0.987   1.287  1.00  0.00     0.020 C 
HETATM    2  C2  UNL     1      -0.720  -0.243   0.004  1.00  0.00     0.009 C 
HETATM    3  C3  UNL     1      -0.925   1.271   0.183  1.00  0.00    -0.001 C 
HETATM    4  C4  UNL     1      -0.050   1.836   1.225  1.00  0.00     0.006 C 
HETATM    5  C5  UNL     1       1.401   1.607   0.812  1.00  0.00     0.008 C 
HETATM    6  C6  UNL     1       1.602   0.147   0.587  1.00  0.00     0.027 C 
HETATM    7  C7  UNL     1       2.926  -0.230   0.023  1.00  0.00     0.102 C 
HETATM    8 BR1  UNL     1       3.659   1.190  -1.056  1.00  0.00    -0.087 Br
HETATM    9  C8  UNL     1       2.685  -1.487  -0.810  1.00  0.00     0.128 C 
HETATM   10 CL1  UNL     1       3.134  -1.105  -2.492  1.00  0.00    -0.100 Cl
HETATM   11 CL2  UNL     1       3.607  -2.862  -0.236  1.00  0.00    -0.100 Cl
HETATM   12  C9  UNL     1       1.173  -1.738  -0.731  1.00  0.00     0.070 C 
HETATM   13  C10 UNL     1       0.659  -0.381  -0.503  1.00  0.00     0.055 C 
HETATM   14 CL3  UNL     1       0.927   0.611  -1.938  1.00  0.00    -0.118 Cl
HETATM   15  C11 UNL     1      -2.378   1.426   0.354  1.00  0.00     0.024 C 
HETATM   16  C12 UNL     1      -2.953   0.373  -0.582  1.00  0.00     0.087 C 
HETATM   17 BR2  UNL     1      -4.315  -0.606   0.347  1.00  0.00    -0.088 Br
HETATM   18  C13 UNL     1      -1.799  -0.498  -1.016  1.00  0.00     0.143 C 
ENDROOT
BRANCH  18  19
HETATM   19  O1  UNL     1      -2.128  -1.823  -1.151  1.00  0.00    -0.394 OA
ATOM     20  H1  UNL     1      -2.808  -1.984  -1.794  1.00  0.00     0.210 HD
ENDBRANCH  18  19
TORSDOF 1
