REMARK  9 active torsions:
REMARK  status: ('A' for Active; 'I' for Inactive)
REMARK    1  A    between atoms: C4_11  and  C5_12 
REMARK    2  A    between atoms: C5_12  and  N4_13 
REMARK    3  A    between atoms: N4_13  and  N5_14 
REMARK    4  A    between atoms: N5_14  and  C6_16 
REMARK    5  A    between atoms: N9_27  and  C10_28 
REMARK    6  A    between atoms: C10_28  and  O4_29 
REMARK    7  A    between atoms: O4_29  and  C11_30 
REMARK    8  A    between atoms: C11_30  and  O5_31 
REMARK    9  A    between atoms: C11_30  and  O6_33 
ROOT
HETATM    1  C6  UNL     1      -1.037  -1.107   0.580  1.00  0.00     0.163 A 
HETATM    2  N6  UNL     1      -0.700  -2.396   0.504  1.00  0.00    -0.335 N 
ATOM      3  H6  UNL     1       0.219  -2.672   0.158  1.00  0.00     0.168 HD
HETATM    4  C7  UNL     1      -1.611  -3.345   0.900  1.00  0.00     0.183 A 
HETATM    5  N7  UNL     1      -2.825  -3.003   1.363  1.00  0.00    -0.336 N 
ATOM      6  H7  UNL     1      -3.476  -3.734   1.650  1.00  0.00     0.168 HD
HETATM    7  C8  UNL     1      -3.200  -1.707   1.456  1.00  0.00     0.141 A 
HETATM    8  N8  UNL     1      -4.297  -1.065   1.896  1.00  0.00    -0.292 N 
ATOM      9  H8  UNL     1      -5.146  -1.494   2.264  1.00  0.00     0.172 HD
HETATM   10  C9  UNL     1      -4.054   0.281   1.755  1.00  0.00     0.330 A 
HETATM   11  O3  UNL     1      -4.900   1.130   2.090  1.00  0.00    -0.246 OA
HETATM   12  N9  UNL     1      -2.829   0.468   1.236  1.00  0.00    -0.270 N 
HETATM   13  C12 UNL     1      -2.307  -0.734   1.061  1.00  0.00     0.131 A 
ENDROOT
BRANCH   1  14
HETATM   14  N5  UNL     1      -0.242  -0.144   0.366  1.00  0.00    -0.217 N 
ATOM     15  H5  UNL     1      -0.743   0.737   0.480  1.00  0.00     0.203 HD
BRANCH  14  16
HETATM   16  N4  UNL     1       0.943   0.093   0.064  1.00  0.00    -0.336 NA
BRANCH  16  17
HETATM   17  C5  UNL     1       1.993   0.479  -0.358  1.00  0.00     0.229 C 
BRANCH  17  18
HETATM   18  C4  UNL     1       3.397   0.414  -0.402  1.00  0.00     0.104 A 
HETATM   19  C1  UNL     1       4.033  -0.520   0.436  1.00  0.00     0.138 A 
HETATM   20  N1  UNL     1       3.274  -1.312   1.355  1.00  0.00    -0.081 NA
HETATM   21  N2  UNL     1       5.364  -0.639   0.371  1.00  0.00    -0.296 N 
HETATM   22  C2  UNL     1       6.102   0.110  -0.470  1.00  0.00     0.328 A 
ATOM     23  H2  UNL     1       5.832  -1.315   0.975  1.00  0.00     0.171 HD
HETATM   24  O1  UNL     1       7.355  -0.052  -0.475  1.00  0.00    -0.247 OA
HETATM   25  N3  UNL     1       5.530   1.011  -1.283  1.00  0.00    -0.275 N 
HETATM   26  C3  UNL     1       4.196   1.173  -1.263  1.00  0.00     0.265 A 
ATOM     27  H3  UNL     1       6.105   1.570  -1.913  1.00  0.00     0.173 HD
HETATM   28  O2  UNL     1       3.668   2.030  -2.040  1.00  0.00    -0.267 OA
ENDBRANCH  17  18
ENDBRANCH  16  17
ENDBRANCH  14  16
ENDBRANCH   1  14
BRANCH  12  29
HETATM   29  C10 UNL     1      -2.306   1.752   0.852  1.00  0.00     0.309 C 
BRANCH  29  30
HETATM   30  O4  UNL     1      -2.432   1.895  -0.528  1.00  0.00    -0.319 OA
BRANCH  30  31
HETATM   31  C11 UNL     1      -3.579   1.744  -1.157  1.00  0.00     0.409 C 
BRANCH  31  32
HETATM   32  O5  UNL     1      -3.987   2.842  -1.952  1.00  0.00    -0.350 OA
ATOM     33  H5  UNL     1      -4.814   2.733  -2.406  1.00  0.00     0.215 HD
ENDBRANCH  31  32
BRANCH  31  34
HETATM   34  O6  UNL     1      -3.414   0.662  -2.082  1.00  0.00    -0.350 OA
ATOM     35  H6  UNL     1      -4.241   0.553  -2.536  1.00  0.00     0.215 HD
ENDBRANCH  31  34
ENDBRANCH  30  31
ENDBRANCH  29  30
ENDBRANCH  12  29
TORSDOF 9
