REMARK  8 active torsions:
REMARK  status: ('A' for Active; 'I' for Inactive)
REMARK    1  A    between atoms: C1_4  and  C2_6 
REMARK    2  A    between atoms: C2_6  and  O1_7 
REMARK    3  A    between atoms: C3_9  and  S1_10 
REMARK    4  A    between atoms: C4_16  and  C5_17 
REMARK    5  A    between atoms: N4_18  and  N5_20 
REMARK    6  A    between atoms: C6_23  and  N6_24 
REMARK    7  A    between atoms: C7_28  and  O7_29 
REMARK    8  A    between atoms: C7_28  and  C8_31 
ROOT
HETATM    1  C2  UNL     1      -1.487  -0.240   0.071  1.00  0.00     0.212 C 
HETATM    2  C3  UNL     1      -0.456  -1.062   0.786  1.00  0.00     0.169 C 
HETATM    3  N3  UNL     1       0.781  -0.918   0.601  1.00  0.00    -0.367 N 
ATOM      4  H3  UNL     1       1.418  -1.518   1.126  1.00  0.00     0.161 HD
HETATM    5  C4  UNL     1       1.348   0.040  -0.304  1.00  0.00     0.156 C 
HETATM    6  C6  UNL     1       0.516   1.289  -0.189  1.00  0.00     0.260 C 
HETATM    7  C7  UNL     1      -0.948   1.054  -0.466  1.00  0.00     0.221 C 
ENDROOT
BRANCH   1   8
HETATM    8  C1  UNL     1      -2.022  -1.096  -1.011  1.00  0.00     0.132 C 
HETATM    9  N1  UNL     1      -3.239  -1.488  -0.954  1.00  0.00    -0.388 N 
ATOM     10  H12 UNL     1      -3.608  -2.078  -1.700  1.00  0.00     0.157 HD
ATOM     11  H11 UNL     1      -3.787  -1.184  -0.149  1.00  0.00     0.157 HD
HETATM   12  N2  UNL     1      -1.257  -1.520  -2.135  1.00  0.00    -0.084 NA
ENDBRANCH   1   8
BRANCH   1  13
HETATM   13  O1  UNL     1      -2.507  -0.048   1.003  1.00  0.00    -0.372 OA
ATOM     14  H1  UNL     1      -2.164   0.502   1.698  1.00  0.00     0.211 HD
ENDBRANCH   1  13
BRANCH   2  15
HETATM   15  S1  UNL     1      -0.969  -2.288   1.942  1.00  0.00     0.153 S 
HETATM   16  O2  UNL     1      -2.267  -2.914   1.513  1.00  0.00    -0.590 OA
HETATM   17  O3  UNL     1       0.059  -3.384   1.937  1.00  0.00    -0.590 OA
HETATM   18  O4  UNL     1      -1.088  -1.637   3.488  1.00  0.00    -0.590 OA
ENDBRANCH   2  15
BRANCH   7  19
HETATM   19  O7  UNL     1      -1.077   1.017  -1.852  1.00  0.00    -0.374 OA
ATOM     20  H7  UNL     1      -0.736   1.836  -2.192  1.00  0.00     0.211 HD
ENDBRANCH   7  19
BRANCH   7  21
HETATM   21  C8  UNL     1      -1.663   2.239   0.030  1.00  0.00     0.215 C 
HETATM   22  O8  UNL     1      -1.744   2.570   1.238  1.00  0.00    -0.646 OA
HETATM   23  O9  UNL     1      -2.296   3.062  -0.884  1.00  0.00    -0.646 OA
ENDBRANCH   7  21
BRANCH   6  24
HETATM   24  N6  UNL     1       1.012   2.245  -1.166  1.00  0.00    -0.069 N 
ATOM     25  H63 UNL     1       2.012   2.425  -1.071  1.00  0.00     0.275 HD
ATOM     26  H62 UNL     1       1.032   1.868  -2.114  1.00  0.00     0.275 HD
ATOM     27  H61 UNL     1       0.448   3.091  -1.088  1.00  0.00     0.275 HD
ENDBRANCH   6  24
BRANCH   5  28
HETATM   28  C5  UNL     1       2.710   0.372   0.226  1.00  0.00     0.113 C 
HETATM   29  N4  UNL     1       3.566  -0.579   0.283  1.00  0.00    -0.254 N 
ATOM     30  H4  UNL     1       3.262  -1.498  -0.037  1.00  0.00     0.192 HD
BRANCH  29  31
HETATM   31  N5  UNL     1       4.858  -0.470   0.737  1.00  0.00    -0.040 N 
HETATM   32  O5  UNL     1       5.723   0.089   0.041  1.00  0.00    -0.516 OA
HETATM   33  O6  UNL     1       5.244  -0.964   1.955  1.00  0.00    -0.516 OA
ENDBRANCH  29  31
ENDBRANCH   5  28
TORSDOF 8
