REMARK  10 active torsions:
REMARK  status: ('A' for Active; 'I' for Inactive)
REMARK    1  A    between atoms: C2_3  and  C3_4 
REMARK    2  A    between atoms: C3_4  and  O2_6 
REMARK    3  A    between atoms: O2_6  and  C4_7 
REMARK    4  A    between atoms: C4_7  and  C5_8 
REMARK    5  A    between atoms: C5_8  and  N2_9 
REMARK    6  A    between atoms: C5_8  and  C6_13 
REMARK    7  A    between atoms: C7_17  and  C8_18 
REMARK    8  A    between atoms: C8_18  and  O4_19 
REMARK    9  A    between atoms: C8_18  and  N5_21 
REMARK   10  A    between atoms: N5_21  and  N6_23 
ROOT
HETATM    1  C1  UNL     1       0.668   2.292   1.707  1.00  0.00     0.182 C 
HETATM    2  N1  UNL     1      -0.111   1.571   0.727  1.00  0.00    -0.251 N 
HETATM    3  C2  UNL     1       0.123   0.453  -0.055  1.00  0.00     0.224 A 
HETATM    4  N4  UNL     1      -1.104   0.576  -0.574  1.00  0.00    -0.204 N 
HETATM    5  C7  UNL     1      -2.084   0.192  -1.434  1.00  0.00     0.138 A 
HETATM    6  C9  UNL     1      -3.268   0.953  -1.497  1.00  0.00     0.095 A 
HETATM    7  N7  UNL     1      -4.308   0.557  -2.396  1.00  0.00    -0.099 NA
HETATM    8  C10 UNL     1      -3.425   2.049  -0.702  1.00  0.00     0.056 A 
HETATM    9  C11 UNL     1      -4.441   2.970  -0.537  1.00  0.00     0.124 A 
HETATM   10  N8  UNL     1      -4.038   3.845   0.401  1.00  0.00    -0.309 N 
ATOM     11  H8  UNL     1      -4.570   4.645   0.745  1.00  0.00     0.186 HD
HETATM   12  N9  UNL     1      -2.833   3.485   0.797  1.00  0.00    -0.282 N 
ATOM     13  H9  UNL     1      -2.291   3.979   1.506  1.00  0.00     0.188 HD
HETATM   14  C12 UNL     1      -2.409   2.390   0.152  1.00  0.00     0.174 A 
HETATM   15  N10 UNL     1      -1.283   1.632   0.179  1.00  0.00    -0.165 N 
ENDROOT
BRANCH   3  16
HETATM   16  C3  UNL     1       1.310  -0.360  -0.217  1.00  0.00     0.331 C 
HETATM   17  O1  UNL     1       1.517  -1.353  -0.908  1.00  0.00    -0.256 OA
BRANCH  16  18
HETATM   18  O2  UNL     1       2.469  -0.000   0.516  1.00  0.00    -0.313 OA
BRANCH  18  19
HETATM   19  C4  UNL     1       3.682  -0.662   0.499  1.00  0.00     0.221 C 
BRANCH  19  20
HETATM   20  C5  UNL     1       3.804  -1.996   1.120  1.00  0.00     0.295 C 
BRANCH  20  21
HETATM   21  N2  UNL     1       3.028  -3.073   0.648  1.00  0.00    -0.065 N 
ATOM     22  H23 UNL     1       2.047  -2.796   0.672  1.00  0.00     0.275 HD
ATOM     23  H22 UNL     1       3.189  -3.170  -0.354  1.00  0.00     0.275 HD
ATOM     24  H21 UNL     1       3.112  -3.995   1.077  1.00  0.00     0.275 HD
ENDBRANCH  20  21
BRANCH  20  25
HETATM   25  C6  UNL     1       3.629  -1.921   2.624  1.00  0.00     0.263 C 
HETATM   26  N3  UNL     1       4.338  -0.889   3.293  1.00  0.00    -0.060 NA
HETATM   27  O3  UNL     1       2.886  -2.746   3.207  1.00  0.00    -0.274 OA
ENDBRANCH  20  25
ENDBRANCH  19  20
ENDBRANCH  18  19
ENDBRANCH  16  18
ENDBRANCH   3  16
BRANCH   5  28
HETATM   28  C8  UNL     1      -1.982  -0.892  -2.336  1.00  0.00     0.186 C 
BRANCH  28  29
HETATM   29  O4  UNL     1      -2.844  -0.838  -3.331  1.00  0.00    -0.343 OA
ATOM     30  H4  UNL     1      -2.775  -1.566  -3.937  1.00  0.00     0.219 HD
ENDBRANCH  28  29
BRANCH  28  31
HETATM   31  N5  UNL     1      -1.202  -2.013  -2.417  1.00  0.00    -0.285 N 
ATOM     32  H5  UNL     1      -0.502  -2.207  -1.701  1.00  0.00     0.188 HD
BRANCH  31  33
HETATM   33  N6  UNL     1      -1.382  -2.916  -3.526  1.00  0.00    -0.343 N 
ATOM     34  H62 UNL     1      -2.087  -2.707  -4.233  1.00  0.00     0.176 HD
ATOM     35  H61 UNL     1      -0.800  -3.752  -3.586  1.00  0.00     0.176 HD
ENDBRANCH  31  33
ENDBRANCH  28  31
ENDBRANCH   5  28
TORSDOF 10
