REMARK  9 active torsions:
REMARK  status: ('A' for Active; 'I' for Inactive)
REMARK    1  A    between atoms: N1_2  and  C2_3 
REMARK    2  A    between atoms: N1_2  and  C7_21 
REMARK    3  A    between atoms: C4_9  and  N4_10 
REMARK    4  A    between atoms: C5_13  and  C6_14 
REMARK       I    between atoms: C6_14  and  N5_16 
REMARK    5  A    between atoms: N5_16  and  N6_18 
REMARK    6  A    between atoms: C8_22  and  N7_23 
REMARK    7  A    between atoms: N7_23  and  O2_24 
REMARK    8  A    between atoms: N7_23  and  C9_26 
REMARK    9  A    between atoms: C11_31  and  O3_32 
ROOT
HETATM    1  C1  UNL     1       0.288   0.761   1.529  1.00  0.00     0.158 C 
HETATM    2  N1  UNL     1       0.673   0.983   0.152  1.00  0.00    -0.331 N 
ENDROOT
BRANCH   2   3
HETATM    3  C2  UNL     1       2.018   1.325  -0.139  1.00  0.00     0.128 A 
HETATM    4  N2  UNL     1       2.351   2.621  -0.372  1.00  0.00    -0.337 N 
HETATM    5  C3  UNL     1       3.587   3.051  -0.622  1.00  0.00     0.183 A 
ATOM      6  H2  UNL     1       1.602   3.314  -0.354  1.00  0.00     0.168 HD
HETATM    7  N3  UNL     1       4.567   2.138  -0.644  1.00  0.00    -0.338 N 
HETATM    8  C4  UNL     1       4.354   0.823  -0.428  1.00  0.00     0.119 A 
ATOM      9  H3  UNL     1       5.519   2.451  -0.833  1.00  0.00     0.168 HD
HETATM   10  C5  UNL     1       3.072   0.397  -0.171  1.00  0.00     0.121 A 
BRANCH   8  11
HETATM   11  N4  UNL     1       5.338  -0.012  -0.492  1.00  0.00    -0.385 N 
ATOM     12  H42 UNL     1       6.289   0.304  -0.683  1.00  0.00     0.157 HD
ATOM     13  H41 UNL     1       5.177  -1.006  -0.329  1.00  0.00     0.157 HD
ENDBRANCH   8  11
BRANCH  10  14
HETATM   14  C6  UNL     1       2.715  -0.985   0.034  1.00  0.00     0.277 C 
HETATM   15  O1  UNL     1       1.545  -1.402  -0.273  1.00  0.00    -0.266 OA
HETATM   16  N5  UNL     1       3.612  -1.924   0.576  1.00  0.00    -0.272 N 
ATOM     17  H5  UNL     1       4.548  -1.622   0.847  1.00  0.00     0.189 HD
BRANCH  16  18
HETATM   18  N6  UNL     1       3.242  -3.286   0.754  1.00  0.00    -0.342 N 
ATOM     19  H62 UNL     1       2.303  -3.572   0.478  1.00  0.00     0.176 HD
ATOM     20  H61 UNL     1       3.892  -3.967   1.147  1.00  0.00     0.176 HD
ENDBRANCH  16  18
ENDBRANCH  10  14
ENDBRANCH   2   3
BRANCH   2  21
HETATM   21  C7  UNL     1      -0.287   0.903  -0.892  1.00  0.00     0.124 A 
HETATM   22  C8  UNL     1      -1.667   0.643  -0.926  1.00  0.00     0.144 A 
HETATM   23  C12 UNL     1      -1.701   0.770  -2.287  1.00  0.00     0.255 A 
HETATM   24  O4  UNL     1      -2.591   0.690  -3.200  1.00  0.00    -0.281 OA
HETATM   25  C13 UNL     1      -0.347   1.026  -2.261  1.00  0.00     0.253 A 
HETATM   26  O5  UNL     1       0.518   1.277  -3.145  1.00  0.00    -0.281 OA
BRANCH  22  27
HETATM   27  N7  UNL     1      -2.613   0.359   0.096  1.00  0.00    -0.220 N 
BRANCH  27  28
HETATM   28  O2  UNL     1      -3.253   1.384   0.697  1.00  0.00    -0.285 OA
ATOM     29  H2  UNL     1      -3.885   1.194   1.380  1.00  0.00     0.245 HD
ENDBRANCH  27  28
BRANCH  27  30
HETATM   30  C9  UNL     1      -2.905  -0.989   0.513  1.00  0.00     0.343 C 
HETATM   31  N8  UNL     1      -3.468  -1.767  -0.595  1.00  0.00    -0.047 N 
HETATM   32  C10 UNL     1      -4.844  -1.441  -0.180  1.00  0.00     0.270 C 
ATOM     33  H82 UNL     1      -3.173  -1.562  -1.550  1.00  0.00     0.279 HD
ATOM     34  H81 UNL     1      -3.198  -2.744  -0.706  1.00  0.00     0.279 HD
HETATM   35  C11 UNL     1      -4.230  -1.118   1.190  1.00  0.00     0.196 C 
BRANCH  35  36
HETATM   36  O3  UNL     1      -4.782   0.020   1.763  1.00  0.00    -0.390 OA
ATOM     37  H3  UNL     1      -5.625  -0.062   2.194  1.00  0.00     0.210 HD
ENDBRANCH  35  36
ENDBRANCH  27  30
ENDBRANCH  22  27
ENDBRANCH   2  21
TORSDOF 9
