REMARK  4 active torsions:
REMARK  status: ('A' for Active; 'I' for Inactive)
REMARK    1  A    between atoms: C2_7  and  C3_8 
REMARK    2  A    between atoms: C5_15  and  C6_16 
REMARK       I    between atoms: C6_16  and  N7_18 
REMARK    3  A    between atoms: N7_18  and  C7_20 
REMARK    4  A    between atoms: C10_26  and  O2_27 
ROOT
HETATM    1  C3  UNL     1       2.740   0.556   0.226  1.00  0.00     0.126 A 
HETATM    2  N4  UNL     1       2.135   0.413   1.421  1.00  0.00    -0.265 N 
ATOM      3  H4  UNL     1       2.712   0.253   2.247  1.00  0.00     0.190 HD
HETATM    4  N5  UNL     1       0.828   0.472   1.565  1.00  0.00    -0.189 N 
HETATM    5  N6  UNL     1       0.017   0.365   2.622  1.00  0.00    -0.289 N 
ATOM      6  H6  UNL     1       0.324   0.202   3.581  1.00  0.00     0.188 HD
HETATM    7  C4  UNL     1      -1.250   0.502   2.239  1.00  0.00     0.129 A 
HETATM    8  C5  UNL     1      -1.247   0.710   0.848  1.00  0.00     0.084 A 
HETATM    9  C11 UNL     1       0.081   0.683   0.467  1.00  0.00     0.159 A 
HETATM   10  C12 UNL     1       0.688   0.833  -0.782  1.00  0.00     0.278 A 
HETATM   11  O3  UNL     1      -0.003   1.027  -1.801  1.00  0.00    -0.265 OA
HETATM   12  N9  UNL     1       2.027   0.768  -0.899  1.00  0.00    -0.308 N 
ATOM     13  H9  UNL     1       2.485   0.875  -1.804  1.00  0.00     0.170 HD
ENDROOT
BRANCH   8  14
HETATM   14  C6  UNL     1      -2.414   0.911   0.007  1.00  0.00     0.256 C 
HETATM   15  O1  UNL     1      -2.528   1.844  -0.808  1.00  0.00    -0.268 OA
HETATM   16  N7  UNL     1      -3.494  -0.005   0.114  1.00  0.00    -0.348 N 
ATOM     17  H7  UNL     1      -3.416  -0.775   0.779  1.00  0.00     0.163 HD
BRANCH  16  18
HETATM   18  C7  UNL     1      -4.702   0.106  -0.680  1.00  0.00     0.140 C 
HETATM   19  C8  UNL     1      -4.998  -1.243  -1.278  1.00  0.00     0.260 C 
HETATM   20  N8  UNL     1      -5.538  -2.033  -0.212  1.00  0.00    -0.071 N 
HETATM   21  C9  UNL     1      -5.941  -1.160   0.859  1.00  0.00     0.266 C 
ATOM     22  H82 UNL     1      -6.295  -2.641  -0.524  1.00  0.00     0.277 HD
ATOM     23  H81 UNL     1      -4.892  -2.758   0.100  1.00  0.00     0.277 HD
HETATM   24  C10 UNL     1      -5.858   0.253   0.315  1.00  0.00     0.168 C 
BRANCH  24  25
HETATM   25  O2  UNL     1      -5.471   1.175   1.266  1.00  0.00    -0.392 OA
ATOM     26  H2  UNL     1      -6.188   1.266   1.883  1.00  0.00     0.210 HD
ENDBRANCH  24  25
ENDBRANCH  16  18
ENDBRANCH   8  14
BRANCH   1  27
HETATM   27  C2  UNL     1       4.200   0.468   0.205  1.00  0.00     0.186 C 
HETATM   28  N3  UNL     1       4.695  -0.677   0.951  1.00  0.00    -0.320 N 
HETATM   29  N2  UNL     1       6.029  -1.072   0.903  1.00  0.00    -0.277 N 
ATOM     30  H3  UNL     1       4.044  -1.208   1.529  1.00  0.00     0.181 HD
HETATM   31  C1  UNL     1       6.780  -0.549  -0.031  1.00  0.00     0.202 C 
ATOM     32  H2  UNL     1       6.406  -1.744   1.571  1.00  0.00     0.189 HD
HETATM   33  N1  UNL     1       8.145  -0.884  -0.163  1.00  0.00    -0.062 NA
HETATM   34  N10 UNL     1       6.264   0.390  -0.980  1.00  0.00    -0.361 N 
HETATM   35  C13 UNL     1       4.825   0.432  -1.155  1.00  0.00     0.157 C 
ATOM     36  H10 UNL     1       6.882   1.004  -1.511  1.00  0.00     0.162 HD
ENDBRANCH   1  27
TORSDOF 4
