REMARK  7 active torsions:
REMARK  status: ('A' for Active; 'I' for Inactive)
REMARK    1  A    between atoms: N4_10  and  C5_12 
REMARK    2  A    between atoms: C5_12  and  C6_13 
REMARK    3  A    between atoms: C6_13  and  C7_14 
REMARK    4  A    between atoms: C7_14  and  C8_15 
REMARK    5  A    between atoms: C8_15  and  N5_16 
REMARK    6  A    between atoms: N8_21  and  C10_23 
REMARK    7  A    between atoms: C10_23  and  C11_27 
ROOT
HETATM    1  C11 UNL     1      -1.408   1.677  -3.216  1.00  0.00     0.199 C 
HETATM    2  C12 UNL     1      -0.281   2.269  -3.971  1.00  0.00     0.066 C 
HETATM    3  N10 UNL     1       0.591   2.747  -4.550  1.00  0.00    -0.197 NA
ENDROOT
BRANCH   1   4
HETATM    4  C10 UNL     1      -0.951   0.412  -2.559  1.00  0.00     0.089 C 
HETATM    5  N9  UNL     1      -1.537  -0.703  -2.840  1.00  0.00    -0.388 N 
ATOM      6  H92 UNL     1      -1.226  -1.565  -2.392  1.00  0.00     0.157 HD
ATOM      7  H91 UNL     1      -2.310  -0.735  -3.505  1.00  0.00     0.157 HD
BRANCH   4   8
HETATM    8  N8  UNL     1       0.126   0.457  -1.632  1.00  0.00    -0.335 N 
HETATM    9  C5  UNL     1       0.134  -0.133  -0.488  1.00  0.00     0.098 C 
ATOM     10  H8  UNL     1       0.952   0.996  -1.892  1.00  0.00     0.168 HD
BRANCH   9  11
HETATM   11  N4  UNL     1      -0.977  -0.882  -0.091  1.00  0.00    -0.179 N 
HETATM   12  C4  UNL     1      -2.090  -0.462   0.349  1.00  0.00     0.695 C 
HETATM   13  N1  UNL     1      -3.100  -1.398   0.700  1.00  0.00    -0.219 N 
HETATM   14  N3  UNL     1      -2.435   0.917   0.534  1.00  0.00    -0.136 N 
HETATM   15  C1  UNL     1      -2.688  -2.699   1.204  1.00  0.00     0.168 C 
HETATM   16  C2  UNL     1      -4.515  -1.035   0.547  1.00  0.00     0.161 C 
HETATM   17  C3  UNL     1      -4.755   0.413   0.758  1.00  0.00     0.160 C 
HETATM   18  N2  UNL     1      -3.636   1.189   1.145  1.00  0.00    -0.321 N 
ATOM     19  H2  UNL     1      -3.718   1.922   1.850  1.00  0.00     0.180 HD
ATOM     20  H3  UNL     1      -1.815   1.666   0.225  1.00  0.00     0.205 HD
ATOM     21  H4  UNL     1      -0.881  -1.895  -0.164  1.00  0.00     0.185 HD
ENDBRANCH   9  11
BRANCH   9  22
HETATM   22  C6  UNL     1       1.311  -0.010   0.372  1.00  0.00     0.079 C 
BRANCH  22  23
HETATM   23  C7  UNL     1       2.388   0.868  -0.218  1.00  0.00     0.027 C 
BRANCH  23  24
HETATM   24  C8  UNL     1       3.543   0.903   0.771  1.00  0.00     0.122 C 
BRANCH  24  25
HETATM   25  N5  UNL     1       4.051  -0.435   0.983  1.00  0.00    -0.367 N 
HETATM   26  C9  UNL     1       5.218  -0.598   1.456  1.00  0.00     0.196 C 
HETATM   27  N6  UNL     1       5.758  -1.910   1.681  1.00  0.00    -0.067 NA
HETATM   28  N7  UNL     1       6.043   0.513   1.785  1.00  0.00    -0.067 NA
ATOM     29  H5  UNL     1       3.474  -1.244   0.753  1.00  0.00     0.161 HD
ENDBRANCH  24  25
ENDBRANCH  23  24
ENDBRANCH  22  23
ENDBRANCH   9  22
ENDBRANCH   4   8
ENDBRANCH   1   4
TORSDOF 7
