REMARK  6 active torsions:
REMARK  status: ('A' for Active; 'I' for Inactive)
REMARK    1  A    between atoms: C3_5  and  N2_6 
REMARK    2  A    between atoms: N5_17  and  C9_19 
REMARK    3  A    between atoms: C9_19  and  C10_23 
REMARK    4  A    between atoms: C10_23  and  C11_24 
REMARK    5  A    between atoms: C11_24  and  C12_25 
REMARK    6  A    between atoms: C12_25  and  N7_26 
ROOT
HETATM    1  C1  UNL     1      -0.032  -1.989  -2.067  1.00  0.00     0.064 C 
HETATM    2  C2  UNL     1      -0.596  -1.083  -1.293  1.00  0.00     0.127 A 
HETATM    3  N1  UNL     1      -1.930  -1.172  -0.831  1.00  0.00    -0.176 N 
ATOM      4  H1  UNL     1      -2.471  -1.987  -1.120  1.00  0.00     0.185 HD
HETATM    5  C3  UNL     1      -2.519  -0.310  -0.075  1.00  0.00     0.696 A 
HETATM    6  N4  UNL     1      -1.794   0.837   0.347  1.00  0.00    -0.022 N 
ATOM      7  H4  UNL     1      -2.241   1.532   0.945  1.00  0.00     0.203 HD
HETATM    8  C8  UNL     1      -0.446   1.015  -0.065  1.00  0.00     0.699 A 
HETATM    9  N5  UNL     1       0.214   2.058   0.319  1.00  0.00    -0.180 N 
ATOM     10  H5  UNL     1      -0.249   2.742   0.918  1.00  0.00     0.185 HD
HETATM   11  N10 UNL     1       0.174   0.054  -0.894  1.00  0.00    -0.176 N 
ATOM     12  H10 UNL     1       1.141   0.168  -1.199  1.00  0.00     0.185 HD
ENDROOT
BRANCH   9  13
HETATM   13  C9  UNL     1       1.546   2.279  -0.061  1.00  0.00     0.091 C 
HETATM   14  N6  UNL     1       1.787   3.052  -1.077  1.00  0.00    -0.388 N 
ATOM     15  H62 UNL     1       1.004   3.478  -1.572  1.00  0.00     0.157 HD
ATOM     16  H61 UNL     1       2.756   3.213  -1.353  1.00  0.00     0.157 HD
BRANCH  13  17
HETATM   17  C10 UNL     1       2.683   1.661   0.658  1.00  0.00     0.078 C 
BRANCH  17  18
HETATM   18  C11 UNL     1       3.995   2.078   0.027  1.00  0.00     0.027 C 
BRANCH  18  19
HETATM   19  C12 UNL     1       5.093   1.387   0.845  1.00  0.00     0.122 C 
BRANCH  19  20
HETATM   20  N7  UNL     1       4.883  -0.044   0.758  1.00  0.00    -0.367 N 
HETATM   21  C13 UNL     1       5.691  -0.832   0.139  1.00  0.00     0.196 C 
HETATM   22  N8  UNL     1       5.433  -2.211   0.090  1.00  0.00    -0.067 NA
HETATM   23  N9  UNL     1       6.848  -0.311  -0.498  1.00  0.00    -0.067 NA
ATOM     24  H7  UNL     1       4.059  -0.444   1.207  1.00  0.00     0.161 HD
ENDBRANCH  19  20
ENDBRANCH  18  19
ENDBRANCH  17  18
ENDBRANCH  13  17
ENDBRANCH   9  13
BRANCH   5  25
HETATM   25  N2  UNL     1      -3.890  -0.516   0.329  1.00  0.00    -0.214 N 
HETATM   26  C4  UNL     1      -4.770   0.606   0.264  1.00  0.00     0.168 C 
HETATM   27  C5  UNL     1      -6.228   0.229   0.302  1.00  0.00     0.252 C 
HETATM   28  N3  UNL     1      -6.461  -1.000   1.031  1.00  0.00    -0.072 N 
HETATM   29  C6  UNL     1      -5.712  -2.048   0.374  1.00  0.00     0.252 C 
ATOM     30  H32 UNL     1      -6.243  -0.920   2.024  1.00  0.00     0.277 HD
ATOM     31  H31 UNL     1      -7.452  -1.222   1.128  1.00  0.00     0.277 HD
HETATM   32  C7  UNL     1      -4.246  -1.842   0.763  1.00  0.00     0.168 C 
ENDBRANCH   5  25
TORSDOF 6
