REMARK  6 active torsions:
REMARK  status: ('A' for Active; 'I' for Inactive)
REMARK    1  A    between atoms: C2_2  and  C3_3 
REMARK    2  A    between atoms: C3_3  and  S1_4 
REMARK    3  A    between atoms: S1_4  and  C4_6 
REMARK    4  A    between atoms: S1_4  and  N4_19 
REMARK    5  A    between atoms: C4_6  and  C5_7 
REMARK    6  A    between atoms: C8_13  and  N2_14 
ROOT
HETATM    1  S1  UNL     1      -0.219   1.008  -0.343  1.00  0.00     0.035 S 
HETATM    2  O1  UNL     1       0.576   1.318  -2.203  1.00  0.00    -0.249 OA
ENDROOT
BRANCH   1   3
HETATM    3  C3  UNL     1      -0.569   2.987  -0.453  1.00  0.00     0.144 C 
BRANCH   3   4
HETATM    4  C2  UNL     1      -1.226   3.526   0.772  1.00  0.00    -0.024 C 
HETATM    5  C1  UNL     1      -0.698   4.463   1.533  1.00  0.00     0.008 C 
ENDBRANCH   3   4
ENDBRANCH   1   3
BRANCH   1   6
HETATM    6  C4  UNL     1      -1.576  -0.011  -1.376  1.00  0.00     0.175 C 
BRANCH   6   7
HETATM    7  C5  UNL     1      -2.663  -0.612  -0.510  1.00  0.00     0.044 A 
HETATM    8  C6  UNL     1      -3.812   0.079  -0.223  1.00  0.00     0.101 A 
HETATM    9  C7  UNL     1      -4.770  -0.523   0.575  1.00  0.00     0.261 A 
HETATM   10  O2  UNL     1      -5.846   0.050   0.879  1.00  0.00    -0.268 OA
HETATM   11  N1  UNL     1      -4.540  -1.778   1.048  1.00  0.00    -0.156 N 
HETATM   12  C8  UNL     1      -3.423  -2.450   0.770  1.00  0.00     0.678 A 
ATOM     13  H1  UNL     1      -5.247  -2.220   1.636  1.00  0.00     0.187 HD
HETATM   14  N3  UNL     1      -2.505  -1.842  -0.010  1.00  0.00    -0.195 N 
ATOM     15  H3  UNL     1      -1.646  -2.347  -0.230  1.00  0.00     0.184 HD
BRANCH  12  16
HETATM   16  N2  UNL     1      -3.207  -3.643   1.221  1.00  0.00    -0.234 N 
ATOM     17  H22 UNL     1      -3.901  -4.103   1.811  1.00  0.00     0.174 HD
ATOM     18  H21 UNL     1      -2.352  -4.157   1.008  1.00  0.00     0.174 HD
ENDBRANCH  12  16
ENDBRANCH   6   7
ENDBRANCH   1   6
BRANCH   1  19
HETATM   19  N4  UNL     1       1.420   0.423  -0.053  1.00  0.00    -0.304 N 
HETATM   20  C9  UNL     1       2.427  -0.214  -0.265  1.00  0.00     0.110 C 
HETATM   21  C10 UNL     1       2.605  -1.129  -1.424  1.00  0.00     0.308 C 
HETATM   22  N6  UNL     1       3.557  -0.124   0.626  1.00  0.00    -0.376 N 
HETATM   23  N5  UNL     1       3.438  -2.224  -0.992  1.00  0.00    -0.067 N 
HETATM   24  C11 UNL     1       4.786  -1.811  -0.680  1.00  0.00     0.252 C 
ATOM     25  H52 UNL     1       3.015  -2.717  -0.205  1.00  0.00     0.277 HD
ATOM     26  H51 UNL     1       3.436  -2.978  -1.679  1.00  0.00     0.277 HD
HETATM   27  C12 UNL     1       4.857  -0.628   0.230  1.00  0.00     0.148 C 
ATOM     28  H6  UNL     1       3.440   0.300   1.546  1.00  0.00     0.160 HD
ATOM     29  H4  UNL     1       1.665   0.916   0.806  1.00  0.00     0.176 HD
ENDBRANCH   1  19
TORSDOF 6
