REMARK  12 active torsions:
REMARK  status: ('A' for Active; 'I' for Inactive)
REMARK    1  A    between atoms: C3_3  and  C5_5 
REMARK    2  A    between atoms: C5_5  and  O2_7 
REMARK    3  A    between atoms: O2_7  and  C6_8 
REMARK    4  A    between atoms: C6_8  and  O3_10 
REMARK    5  A    between atoms: C6_8  and  C8_12 
REMARK    6  A    between atoms: C11_15  and  C12_16 
REMARK    7  A    between atoms: C12_16  and  C14_18 
REMARK    8  A    between atoms: C14_18  and  O4_19 
REMARK    9  A    between atoms: C14_18  and  C15_21 
REMARK   10  A    between atoms: C15_21  and  C16_22 
REMARK   11  A    between atoms: C15_21  and  C17_24 
REMARK   12  A    between atoms: C19_26  and  O6_27 
ROOT
HETATM    1  C8  UNL     1       1.834   0.047  -0.245  1.00  0.00     0.248 C 
HETATM    2  C9  UNL     1       1.720  -1.370   0.169  1.00  0.00     0.041 C 
HETATM    3  C10 UNL     1       0.226  -1.640   0.129  1.00  0.00     0.036 C 
HETATM    4  C11 UNL     1      -0.259  -0.697  -0.909  1.00  0.00     0.196 C 
HETATM    5  N1  UNL     1       0.745   0.281  -1.128  1.00  0.00    -0.061 N 
ATOM      6  H11 UNL     1       1.041   0.319  -2.104  1.00  0.00     0.278 HD
ATOM      7  H12 UNL     1       0.382   1.231  -1.049  1.00  0.00     0.278 HD
ENDROOT
BRANCH   4   8
HETATM    8  C12 UNL     1      -1.614  -0.075  -0.485  1.00  0.00     0.069 C 
HETATM    9  C13 UNL     1      -1.971   0.875  -1.625  1.00  0.00     0.019 C 
BRANCH   8  10
HETATM   10  C14 UNL     1      -2.538  -1.215  -0.301  1.00  0.00     0.061 C 
BRANCH  10  11
HETATM   11  O4  UNL     1      -2.675  -1.868  -1.555  1.00  0.00    -0.364 OA
ATOM     12  H4  UNL     1      -3.269  -2.600  -1.437  1.00  0.00     0.217 HD
ENDBRANCH  10  11
BRANCH  10  13
HETATM   13  C15 UNL     1      -3.776  -1.098   0.465  1.00  0.00     0.038 C 
BRANCH  13  14
HETATM   14  C16 UNL     1      -3.562  -0.656   1.880  1.00  0.00     0.270 C 
HETATM   15  O5  UNL     1      -3.197  -1.416   2.759  1.00  0.00    -0.302 OA
ENDBRANCH  13  14
BRANCH  13  16
HETATM   16  C17 UNL     1      -4.995  -0.549  -0.182  1.00  0.00     0.172 C 
HETATM   17  C18 UNL     1      -6.155  -0.558   0.794  1.00  0.00     0.070 C 
HETATM   18  C19 UNL     1      -6.633   0.727   1.304  1.00  0.00     0.130 C 
HETATM   19  C20 UNL     1      -6.034   1.983   0.794  1.00  0.00     0.142 C 
HETATM   20  C21 UNL     1      -5.635   1.770  -0.641  1.00  0.00     0.261 C 
HETATM   21  O7  UNL     1      -5.975   2.562  -1.552  1.00  0.00    -0.265 OA
HETATM   22  O8  UNL     1      -4.879   0.652  -0.858  1.00  0.00    -0.311 OA
BRANCH  18  23
HETATM   23  O6  UNL     1      -6.543   0.777   2.720  1.00  0.00    -0.395 OA
ATOM     24  H6  UNL     1      -6.853   1.612   3.051  1.00  0.00     0.210 HD
ENDBRANCH  18  23
ENDBRANCH  13  16
ENDBRANCH  10  13
ENDBRANCH   8  10
ENDBRANCH   4   8
BRANCH   1  25
HETATM   25  C6  UNL     1       3.173   0.432  -0.803  1.00  0.00     0.196 C 
HETATM   26  C7  UNL     1       3.530  -0.256  -2.073  1.00  0.00     0.081 C 
BRANCH  25  27
HETATM   27  O2  UNL     1       4.153   0.146   0.172  1.00  0.00    -0.278 OA
BRANCH  27  28
HETATM   28  C5  UNL     1       5.514   0.499  -0.020  1.00  0.00     0.291 C 
HETATM   29  O1  UNL     1       5.727   1.072  -1.114  1.00  0.00    -0.260 OA
BRANCH  28  30
HETATM   30  C3  UNL     1       6.497   0.196   0.992  1.00  0.00     0.009 C 
HETATM   31  C2  UNL     1       7.746   0.495   0.864  1.00  0.00    -0.018 C 
HETATM   32  C1  UNL     1       8.286   1.173  -0.322  1.00  0.00     0.036 C 
HETATM   33  C4  UNL     1       6.032  -0.495   2.234  1.00  0.00     0.054 C 
ENDBRANCH  28  30
ENDBRANCH  27  28
ENDBRANCH  25  27
BRANCH  25  34
HETATM   34  O3  UNL     1       3.123   1.817  -1.071  1.00  0.00    -0.363 OA
ATOM     35  H3  UNL     1       2.463   2.009  -1.727  1.00  0.00     0.213 HD
ENDBRANCH  25  34
ENDBRANCH   1  25
TORSDOF 12
