REMARK  10 active torsions:
REMARK  status: ('A' for Active; 'I' for Inactive)
REMARK    1  A    between atoms: S1_2  and  C2_3 
REMARK    2  A    between atoms: C2_3  and  N1_4 
REMARK    3  A    between atoms: C2_3  and  C10_14 
REMARK       I    between atoms: N1_4  and  C3_6 
REMARK    4  A    between atoms: C3_6  and  C4_8 
REMARK    5  A    between atoms: C10_14  and  S2_16 
REMARK    6  A    between atoms: S2_16  and  C11_17 
REMARK    7  A    between atoms: C12_18  and  C13_19 
REMARK    8  A    between atoms: C13_19  and  C14_20 
REMARK    9  A    between atoms: C14_20  and  C15_21 
REMARK   10  A    between atoms: C17_26  and  C18_27 
ROOT
HETATM    1  C10 UNL     1       0.731   0.986  -1.919  1.00  0.00     0.219 C 
HETATM    2  O2  UNL     1       1.486   1.599  -2.689  1.00  0.00    -0.282 OA
ENDROOT
BRANCH   1   3
HETATM    3  C2  UNL     1       1.287  -0.224  -1.310  1.00  0.00     0.228 C 
BRANCH   3   4
HETATM    4  S1  UNL     1       1.144  -1.610  -2.533  1.00  0.00    -0.140 SA
HETATM    5  C1  UNL     1       1.746  -3.091  -1.678  1.00  0.00     0.092 C 
ENDBRANCH   3   4
BRANCH   3   6
HETATM    6  N1  UNL     1       2.739  -0.100  -1.122  1.00  0.00    -0.336 N 
HETATM    7  C3  UNL     1       3.237  -0.104   0.184  1.00  0.00     0.252 C 
HETATM    8  O1  UNL     1       2.475  -0.210   1.207  1.00  0.00    -0.268 OA
ATOM      9  H1  UNL     1       3.366  -0.013  -1.922  1.00  0.00     0.164 HD
BRANCH   7  10
HETATM   10  C4  UNL     1       4.663   0.015   0.483  1.00  0.00     0.032 A 
HETATM   11  C5  UNL     1       5.626  -0.156  -0.493  1.00  0.00     0.017 A 
HETATM   12  C6  UNL     1       6.972  -0.042  -0.252  1.00  0.00     0.001 A 
HETATM   13  C7  UNL     1       7.427   0.256   1.007  1.00  0.00     0.000 A 
HETATM   14  C8  UNL     1       6.477   0.432   2.001  1.00  0.00     0.001 A 
HETATM   15  C9  UNL     1       5.125   0.317   1.760  1.00  0.00     0.017 A 
ENDBRANCH   7  10
ENDBRANCH   3   6
ENDBRANCH   1   3
BRANCH   1  16
HETATM   16  S2  UNL     1      -0.854   1.616  -1.651  1.00  0.00    -0.081 SA
BRANCH  16  17
HETATM   17  C11 UNL     1      -1.873   0.943  -0.368  1.00  0.00     0.107 C 
HETATM   18  C12 UNL     1      -2.273  -0.497  -0.545  1.00  0.00     0.111 C 
HETATM   19  N2  UNL     1      -1.959  -1.171   0.686  1.00  0.00    -0.141 NA
HETATM   20  N3  UNL     1      -1.793  -0.194   1.653  1.00  0.00    -0.131 NA
HETATM   21  C17 UNL     1      -1.303   0.993   1.021  1.00  0.00     0.211 C 
BRANCH  18  22
HETATM   22  C13 UNL     1      -3.730  -0.674  -0.916  1.00  0.00     0.026 C 
BRANCH  22  23
HETATM   23  C14 UNL     1      -4.690  -0.136   0.105  1.00  0.00     0.036 C 
BRANCH  23  24
HETATM   24  C15 UNL     1      -6.112  -0.365  -0.388  1.00  0.00     0.145 A 
HETATM   25  C16 UNL     1      -7.170   0.141   0.568  1.00  0.00     0.200 A 
HETATM   26  O3  UNL     1      -6.853   0.755  -0.766  1.00  0.00    -0.381 OA
ENDBRANCH  23  24
ENDBRANCH  22  23
ENDBRANCH  18  22
BRANCH  21  27
HETATM   27  C18 UNL     1      -1.852   2.178   1.774  1.00  0.00     0.195 C 
HETATM   28  O4  UNL     1      -2.601   2.054   2.763  1.00  0.00    -0.647 OA
HETATM   29  O5  UNL     1      -1.485   3.419   1.319  1.00  0.00    -0.647 OA
ENDBRANCH  21  27
ENDBRANCH  16  17
ENDBRANCH   1  16
TORSDOF 10
