REMARK  4 active torsions:
REMARK  status: ('A' for Active; 'I' for Inactive)
REMARK    1  A    between atoms: C5_7  and  N2_8 
REMARK       I    between atoms: N2_8  and  C6_10 
REMARK       I    between atoms: C6_10  and  N3_12 
REMARK    2  A    between atoms: N3_12  and  C7_14 
REMARK    3  A    between atoms: C11_19  and  C12_20 
REMARK    4  A    between atoms: C13_21  and  C14_22 
ROOT
HETATM    1  C7  UNL     1      -0.776   0.740  -0.469  1.00  0.00     0.037 A 
HETATM    2  C8  UNL     1      -1.018   1.889  -1.159  1.00  0.00     0.031 A 
HETATM    3  C9  UNL     1       0.017   2.697  -1.659  1.00  0.00     0.027 A 
HETATM    4  C10 UNL     1       1.330   2.355  -1.468  1.00  0.00     0.052 A 
HETATM    5 CL1  UNL     1       2.610   3.379  -2.100  1.00  0.00    -0.083 Cl
HETATM    6  C11 UNL     1       1.596   1.198  -0.773  1.00  0.00     0.042 A 
HETATM    7  C21 UNL     1       0.580   0.413  -0.287  1.00  0.00     0.052 A 
ENDROOT
BRANCH   1   8
HETATM    8  N3  UNL     1      -1.760  -0.116   0.059  1.00  0.00    -0.309 N 
HETATM    9  C6  UNL     1      -3.164   0.018  -0.004  1.00  0.00     0.325 C 
HETATM   10  N2  UNL     1      -3.957  -0.986   0.611  1.00  0.00    -0.307 N 
HETATM   11  O1  UNL     1      -3.745   0.967  -0.568  1.00  0.00    -0.247 OA
ATOM     12  H2  UNL     1      -3.437  -1.744   1.053  1.00  0.00     0.170 HD
ATOM     13  H3  UNL     1      -1.414  -0.940   0.551  1.00  0.00     0.170 HD
BRANCH  10  14
HETATM   14  C5  UNL     1      -5.350  -1.083   0.697  1.00  0.00     0.052 A 
HETATM   15  C4  UNL     1      -5.947  -2.335   0.972  1.00  0.00     0.117 A 
HETATM   16  N1  UNL     1      -7.272  -2.436   1.077  1.00  0.00    -0.373 N 
HETATM   17  C3  UNL     1      -8.095  -1.398   0.934  1.00  0.00     0.094 A 
ATOM     18  H1  UNL     1      -7.675  -3.352   1.276  1.00  0.00     0.164 HD
HETATM   19  C2  UNL     1      -7.595  -0.155   0.667  1.00  0.00    -0.044 A 
HETATM   20  C1  UNL     1      -8.420   1.053   0.492  1.00  0.00     0.049 C 
HETATM   21  C22 UNL     1      -6.194  -0.022   0.552  1.00  0.00     0.039 A 
ENDBRANCH  10  14
ENDBRANCH   1   8
BRANCH   6  22
HETATM   22  C12 UNL     1       2.961   0.806  -0.552  1.00  0.00    -0.060 C 
HETATM   23  C13 UNL     1       4.108   0.493  -0.353  1.00  0.00    -0.060 C 
BRANCH  23  24
HETATM   24  C14 UNL     1       5.488   0.121  -0.089  1.00  0.00     0.040 A 
HETATM   25  C15 UNL     1       6.137  -0.844  -0.838  1.00  0.00     0.030 A 
HETATM   26  C16 UNL     1       7.447  -1.201  -0.591  1.00  0.00    -0.039 A 
HETATM   27  C17 UNL     1       8.159  -2.237  -1.389  1.00  0.00     0.050 C 
HETATM   28  C18 UNL     1       8.082  -0.539   0.452  1.00  0.00     0.041 A 
HETATM   29 CL2  UNL     1       9.754  -0.986   0.777  1.00  0.00    -0.084 Cl
HETATM   30  C19 UNL     1       7.456   0.426   1.212  1.00  0.00     0.049 A 
HETATM   31  C20 UNL     1       6.140   0.764   0.941  1.00  0.00     0.054 A 
HETATM   32 CL3  UNL     1       5.305   1.982   1.880  1.00  0.00    -0.083 Cl
ENDBRANCH  23  24
ENDBRANCH   6  22
TORSDOF 4
