REMARK  3 active torsions:
REMARK  status: ('A' for Active; 'I' for Inactive)
REMARK    1  A    between atoms: C6_6  and  C7_7 
REMARK    2  A    between atoms: C9_10  and  N1_11 
REMARK       I    between atoms: N1_11  and  C10_13 
REMARK       I    between atoms: C10_13  and  N2_15 
REMARK    3  A    between atoms: N2_15  and  C11_17 
ROOT
HETATM    1  C7  UNL     1      -1.200  -0.369   0.220  1.00  0.00     0.052 A 
HETATM    2  C8  UNL     1      -0.478   0.181   1.259  1.00  0.00     0.083 A 
HETATM    3  S1  UNL     1       1.133  -0.191   0.819  1.00  0.00    -0.063 SA
HETATM    4  C9  UNL     1       0.805  -1.007  -0.633  1.00  0.00     0.152 A 
HETATM    5  N3  UNL     1      -0.516  -0.962  -0.718  1.00  0.00    -0.335 N 
ATOM      6  H3  UNL     1      -0.995  -1.388  -1.512  1.00  0.00     0.168 HD
ENDROOT
BRANCH   4   7
HETATM    7  N1  UNL     1       1.636  -1.564  -1.490  1.00  0.00    -0.288 N 
HETATM    8  C10 UNL     1       3.046  -1.477  -1.162  1.00  0.00     0.326 C 
HETATM    9  O1  UNL     1       3.634  -2.564  -1.132  1.00  0.00    -0.247 OA
HETATM   10  N2  UNL     1       3.664  -0.261  -0.905  1.00  0.00    -0.307 N 
ATOM     11  H2  UNL     1       3.068   0.565  -0.960  1.00  0.00     0.170 HD
ATOM     12  H1  UNL     1       1.307  -2.030  -2.336  1.00  0.00     0.172 HD
BRANCH  10  13
HETATM   13  C11 UNL     1       4.997  -0.033  -0.581  1.00  0.00     0.059 A 
HETATM   14  C12 UNL     1       5.974  -0.995  -0.451  1.00  0.00     0.055 A 
HETATM   15  C13 UNL     1       7.289  -0.683  -0.122  1.00  0.00     0.036 A 
HETATM   16 CL1  UNL     1       8.469  -1.967   0.023  1.00  0.00    -0.084 Cl
HETATM   17  C14 UNL     1       7.667   0.627   0.088  1.00  0.00     0.026 A 
HETATM   18  C15 UNL     1       6.718   1.612  -0.033  1.00  0.00     0.028 A 
HETATM   19  C16 UNL     1       5.421   1.287  -0.358  1.00  0.00     0.060 A 
HETATM   20 CL2  UNL     1       4.240   2.568  -0.504  1.00  0.00    -0.082 Cl
ENDBRANCH  10  13
ENDBRANCH   4   7
BRANCH   1  21
HETATM   21  C6  UNL     1      -2.679  -0.149   0.183  1.00  0.00     0.005 A 
HETATM   22  C4  UNL     1      -3.468  -0.253   1.297  1.00  0.00    -0.048 A 
HETATM   23  C3  UNL     1      -4.837   0.065   1.278  1.00  0.00     0.016 A 
HETATM   24  C5  UNL     1      -2.905  -0.795   2.569  1.00  0.00     0.049 C 
HETATM   25  C2  UNL     1      -5.447   0.495   0.134  1.00  0.00    -0.039 A 
HETATM   26  C1  UNL     1      -6.890   0.844   0.062  1.00  0.00     0.050 C 
HETATM   27  C19 UNL     1      -4.672   0.602  -0.989  1.00  0.00     0.046 A 
HETATM   28  C17 UNL     1      -3.299   0.285  -0.970  1.00  0.00    -0.027 A 
HETATM   29 CL3  UNL     1      -5.436   1.152  -2.477  1.00  0.00    -0.083 Cl
HETATM   30  C18 UNL     1      -2.580   0.489  -2.230  1.00  0.00     0.051 C 
ENDBRANCH   1  21
TORSDOF 3
