REMARK  5 active torsions:
REMARK  status: ('A' for Active; 'I' for Inactive)
REMARK    1  A    between atoms: C2_2  and  C3_3 
REMARK    2  A    between atoms: C2_2  and  C19_27 
REMARK    3  A    between atoms: C4_4  and  C5_5 
REMARK    4  A    between atoms: C5_5  and  C6_6 
REMARK    5  A    between atoms: C16_19  and  O1_20 
ROOT
HETATM    1  C3  UNL     1       0.576  -0.752   0.374  1.00  0.00     0.022 A 
HETATM    2  C4  UNL     1      -0.465  -0.469  -0.491  1.00  0.00    -0.029 A 
HETATM    3  C12 UNL     1      -1.492  -1.390  -0.775  1.00  0.00     0.002 A 
HETATM    4  C13 UNL     1      -2.593  -1.081  -1.529  1.00  0.00     0.038 A 
HETATM    5  C14 UNL     1      -3.664  -1.929  -1.731  1.00  0.00     0.037 A 
HETATM    6 CL3  UNL     1      -5.055  -1.408  -2.690  1.00  0.00    -0.084 Cl
HETATM    7  C15 UNL     1      -3.617  -3.163  -1.136  1.00  0.00     0.062 A 
HETATM    8  C16 UNL     1      -2.540  -3.538  -0.363  1.00  0.00     0.095 A 
HETATM    9  C17 UNL     1      -1.479  -2.643  -0.181  1.00  0.00     0.079 A 
HETATM   10  N1  UNL     1      -0.467  -2.909   0.647  1.00  0.00    -0.320 N 
ATOM     11  H1  UNL     1      -0.437  -3.826   1.092  1.00  0.00     0.169 HD
HETATM   12  C18 UNL     1       0.522  -2.028   0.929  1.00  0.00     0.253 A 
HETATM   13  O2  UNL     1       1.385  -2.465   1.727  1.00  0.00    -0.268 OA
ENDROOT
BRANCH   2  14
HETATM   14  C5  UNL     1      -0.615   0.830  -1.128  1.00  0.00     0.078 C 
BRANCH  14  15
HETATM   15  C6  UNL     1      -1.424   1.802  -0.358  1.00  0.00    -0.051 A 
HETATM   16  C7  UNL     1      -1.626   3.023  -0.968  1.00  0.00     0.031 A 
HETATM   17  C8  UNL     1      -2.375   4.014  -0.376  1.00  0.00     0.036 A 
HETATM   18 CL1  UNL     1      -2.610   5.548  -1.179  1.00  0.00    -0.084 Cl
HETATM   19  C9  UNL     1      -2.939   3.776   0.862  1.00  0.00     0.047 A 
HETATM   20  C10 UNL     1      -2.725   2.550   1.454  1.00  0.00     0.036 A 
HETATM   21 CL2  UNL     1      -3.434   2.241   3.007  1.00  0.00    -0.084 Cl
HETATM   22  C11 UNL     1      -1.970   1.555   0.857  1.00  0.00     0.031 A 
ENDBRANCH  14  15
ENDBRANCH   2  14
BRANCH   1  23
HETATM   23  C2  UNL     1       1.662   0.190   0.675  1.00  0.00     0.028 C 
HETATM   24  C1  UNL     1       1.992   0.128   2.195  1.00  0.00     0.016 C 
BRANCH  23  25
HETATM   25  C19 UNL     1       2.947   0.137  -0.050  1.00  0.00    -0.044 C 
HETATM   26  C20 UNL     1       2.973   0.123  -1.528  1.00  0.00     0.015 C 
HETATM   27  C21 UNL     1       3.608   1.552   0.283  1.00  0.00     0.015 C 
HETATM   28  C22 UNL     1       4.003  -0.823   0.409  1.00  0.00     0.015 C 
ENDBRANCH  23  25
ENDBRANCH   1  23
BRANCH   8  29
HETATM   29  O1  UNL     1      -2.528  -4.764   0.206  1.00  0.00    -0.358 OA
ATOM     30  H1  UNL     1      -1.785  -5.023   0.739  1.00  0.00     0.217 HD
ENDBRANCH   8  29
TORSDOF 5
