REMARK  7 active torsions:
REMARK  status: ('A' for Active; 'I' for Inactive)
REMARK    1  A    between atoms: C4_4  and  O1_5 
REMARK    2  A    between atoms: C5_7  and  O2_8 
REMARK    3  A    between atoms: C6_10  and  O3_11 
REMARK    4  A    between atoms: O3_11  and  S1_12 
REMARK    5  A    between atoms: S1_12  and  N1_15 
REMARK    6  A    between atoms: N1_15  and  C8_17 
REMARK    7  A    between atoms: C9_19  and  S2_20 
ROOT
HETATM    1  C1  UNL     1      -1.792   0.038   2.063  1.00  0.00     0.011 C 
HETATM    2  C2  UNL     1      -2.119   0.081   0.562  1.00  0.00     0.001 C 
HETATM    3  C3  UNL     1      -2.641  -1.207   0.079  1.00  0.00     0.039 C 
HETATM    4  C4  UNL     1      -1.773  -1.989  -0.847  1.00  0.00     0.149 C 
HETATM    5  C5  UNL     1      -0.936  -1.074  -1.759  1.00  0.00     0.178 C 
HETATM    6  C6  UNL     1      -0.054  -0.283  -0.824  1.00  0.00     0.190 C 
HETATM    7  C9  UNL     1      -0.990   0.708  -0.175  1.00  0.00     0.096 C 
ENDROOT
BRANCH   6   8
HETATM    8  O3  UNL     1       1.060   0.244  -1.344  1.00  0.00    -0.250 OA
BRANCH   8   9
HETATM    9  S1  UNL     1       2.535  -0.275  -1.045  1.00  0.00     0.366 S 
HETATM   10  O4  UNL     1       3.501   0.070  -2.181  1.00  0.00    -0.175 OA
HETATM   11  O5  UNL     1       2.713  -1.736  -0.766  1.00  0.00    -0.175 OA
BRANCH   9  12
HETATM   12  N1  UNL     1       3.161   0.537   0.340  1.00  0.00    -0.234 N 
HETATM   13  C7  UNL     1       3.718   1.871   0.263  1.00  0.00     0.174 C 
BRANCH  12  14
HETATM   14  C8  UNL     1       3.122  -0.139   1.585  1.00  0.00     0.366 C 
HETATM   15  O6  UNL     1       2.665  -1.289   1.759  1.00  0.00    -0.283 OA
ENDBRANCH  12  14
ENDBRANCH   9  12
ENDBRANCH   8   9
ENDBRANCH   6   8
BRANCH   5  16
HETATM   16  O2  UNL     1      -1.872  -0.230  -2.354  1.00  0.00    -0.390 OA
ATOM     17  H2  UNL     1      -1.355   0.335  -2.917  1.00  0.00     0.210 HD
ENDBRANCH   5  16
BRANCH   7  18
HETATM   18  S2  UNL     1      -0.150   1.921   0.866  1.00  0.00    -0.077 SA
HETATM   19  S3  UNL     1      -1.509   3.519   1.224  1.00  0.00    -0.013 SA
ENDBRANCH   7  18
BRANCH   4  20
HETATM   20  O1  UNL     1      -0.874  -2.773  -0.116  1.00  0.00    -0.393 OA
ATOM     21  H1  UNL     1      -0.321  -3.271  -0.706  1.00  0.00     0.210 HD
ENDBRANCH   4  20
TORSDOF 7
