REMARK  8 active torsions:
REMARK  status: ('A' for Active; 'I' for Inactive)
REMARK    1  A    between atoms: O1_2  and  C2_3 
REMARK    2  A    between atoms: C3_5  and  C4_6 
REMARK    3  A    between atoms: C5_8  and  C6_9 
REMARK    4  A    between atoms: C6_9  and  O4_10 
REMARK    5  A    between atoms: C7_12  and  O5_13 
REMARK    6  A    between atoms: C9_15  and  O6_16 
REMARK    7  A    between atoms: C10_18  and  N1_19 
REMARK       I    between atoms: N1_19  and  C11_21 
REMARK    8  A    between atoms: C13_24  and  O8_25 
ROOT
HETATM    1  C2  UNL     1      -0.670   0.466   1.151  1.00  0.00     0.290 C 
HETATM    2  O2  UNL     1       0.104  -0.657   1.189  1.00  0.00    -0.348 OA
HETATM    3  C3  UNL     1       0.462  -1.218   0.014  1.00  0.00     0.187 C 
HETATM    4  C9  UNL     1      -0.413  -0.961  -1.157  1.00  0.00     0.175 C 
HETATM    5  C10 UNL     1      -1.820  -0.773  -0.700  1.00  0.00     0.149 C 
HETATM    6  C13 UNL     1      -1.856   0.406   0.240  1.00  0.00     0.201 C 
ENDROOT
BRANCH   3   7
HETATM    7  C4  UNL     1       1.895  -0.861  -0.406  1.00  0.00     0.185 C 
HETATM    8  O3  UNL     1       2.030   0.525  -0.551  1.00  0.00    -0.370 OA
HETATM    9  C5  UNL     1       3.322   0.413  -0.101  1.00  0.00     0.177 C 
HETATM   10  C7  UNL     1       2.877  -0.812   0.704  1.00  0.00     0.183 C 
BRANCH   9  11
HETATM   11  C6  UNL     1       3.814   1.539   0.778  1.00  0.00     0.198 C 
BRANCH  11  12
HETATM   12  O4  UNL     1       3.764   2.756   0.098  1.00  0.00    -0.398 OA
ATOM     13  H4  UNL     1       4.073   3.464   0.651  1.00  0.00     0.209 HD
ENDBRANCH  11  12
ENDBRANCH   9  11
BRANCH  10  14
HETATM   14  O5  UNL     1       3.866  -1.771   0.729  1.00  0.00    -0.385 OA
HETATM   15  C8  UNL     1       4.167  -2.235   1.987  1.00  0.00     0.202 C 
ENDBRANCH  10  14
ENDBRANCH   3   7
BRANCH   4  16
HETATM   16  O6  UNL     1      -0.405  -2.089  -2.011  1.00  0.00    -0.391 OA
ATOM     17  H6  UNL     1      -0.965  -1.925  -2.761  1.00  0.00     0.210 HD
ENDBRANCH   4  16
BRANCH   1  18
HETATM   18  O1  UNL     1      -1.148   0.681   2.445  1.00  0.00    -0.363 OA
HETATM   19  C1  UNL     1      -0.656   1.868   2.987  1.00  0.00     0.204 C 
ENDBRANCH   1  18
BRANCH   5  20
HETATM   20  N1  UNL     1      -2.629  -0.500  -1.869  1.00  0.00    -0.352 N 
HETATM   21  C11 UNL     1      -3.748  -1.274  -2.226  1.00  0.00     0.214 C 
HETATM   22  C12 UNL     1      -4.571  -0.999  -3.412  1.00  0.00     0.117 C 
HETATM   23  O7  UNL     1      -4.097  -2.274  -1.512  1.00  0.00    -0.274 OA
ATOM     24  H1  UNL     1      -2.376   0.291  -2.462  1.00  0.00     0.163 HD
ENDBRANCH   5  20
BRANCH   6  25
HETATM   25  O8  UNL     1      -1.873   1.555  -0.533  1.00  0.00    -0.384 OA
HETATM   26  C14 UNL     1      -3.035   2.287  -0.402  1.00  0.00     0.202 C 
ENDBRANCH   6  25
TORSDOF 8
