REMARK  8 active torsions:
REMARK  status: ('A' for Active; 'I' for Inactive)
REMARK    1  A    between atoms: N1_1  and  C1_4 
REMARK    2  A    between atoms: C2_7  and  C3_8 
REMARK    3  A    between atoms: C3_8  and  C4_9 
REMARK    4  A    between atoms: C6_13  and  N4_14 
REMARK    5  A    between atoms: N6_21  and  C8_22 
REMARK    6  A    between atoms: C8_22  and  O2_23 
REMARK    7  A    between atoms: O2_23  and  C9_24 
REMARK    8  A    between atoms: C9_24  and  C10_25 
ROOT
HETATM    1  C1  UNL     1      -0.384   3.756  -0.030  1.00  0.00     0.681 A 
HETATM    2  N2  UNL     1      -0.745   2.677   0.689  1.00  0.00    -0.180 N 
ATOM      3  H2  UNL     1      -1.463   2.787   1.405  1.00  0.00     0.185 HD
HETATM    4  C2  UNL     1      -0.207   1.472   0.508  1.00  0.00     0.110 A 
HETATM    5  N6  UNL     1       0.734   1.310  -0.425  1.00  0.00    -0.265 N 
HETATM    6  C11 UNL     1       1.098   2.386  -1.146  1.00  0.00     0.344 A 
HETATM    7  O4  UNL     1       1.990   2.202  -2.020  1.00  0.00    -0.246 OA
HETATM    8  N8  UNL     1       0.568   3.602  -0.977  1.00  0.00    -0.141 N 
ATOM      9  H8  UNL     1       0.874   4.391  -1.547  1.00  0.00     0.189 HD
ENDROOT
BRANCH   4  10
HETATM   10  C3  UNL     1      -0.661   0.356   1.337  1.00  0.00     0.123 C 
BRANCH  10  11
HETATM   11  C4  UNL     1      -1.812  -0.383   0.769  1.00  0.00     0.033 A 
HETATM   12  C5  UNL     1      -2.431  -0.092  -0.407  1.00  0.00     0.119 A 
HETATM   13  N3  UNL     1      -3.469  -0.842  -0.815  1.00  0.00    -0.201 N 
HETATM   14  C6  UNL     1      -3.946  -1.890  -0.113  1.00  0.00     0.678 A 
ATOM     15  H3  UNL     1      -3.918  -0.607  -1.700  1.00  0.00     0.183 HD
HETATM   16  N5  UNL     1      -3.329  -2.175   1.053  1.00  0.00    -0.156 N 
HETATM   17  C7  UNL     1      -2.285  -1.457   1.508  1.00  0.00     0.267 A 
ATOM     18  H5  UNL     1      -3.665  -2.961   1.609  1.00  0.00     0.187 HD
HETATM   19  O1  UNL     1      -1.757  -1.789   2.617  1.00  0.00    -0.267 OA
BRANCH  14  20
HETATM   20  N4  UNL     1      -4.948  -2.608  -0.514  1.00  0.00    -0.234 N 
ATOM     21  H42 UNL     1      -5.414  -2.393  -1.395  1.00  0.00     0.174 HD
ATOM     22  H41 UNL     1      -5.309  -3.401   0.017  1.00  0.00     0.174 HD
ENDBRANCH  14  20
ENDBRANCH  10  11
ENDBRANCH   4  10
BRANCH   5  23
HETATM   23  C8  UNL     1       1.363  -0.001  -0.666  1.00  0.00     0.305 C 
BRANCH  23  24
HETATM   24  O2  UNL     1       2.449  -0.061   0.153  1.00  0.00    -0.363 OA
BRANCH  24  25
HETATM   25  C9  UNL     1       3.216  -1.178   0.144  1.00  0.00     0.269 C 
BRANCH  25  26
HETATM   26  C10 UNL     1       3.892  -1.543  -1.096  1.00  0.00     0.254 C 
HETATM   27  N7  UNL     1       4.664  -2.761  -1.067  1.00  0.00    -0.060 NA
HETATM   28  O3  UNL     1       3.821  -0.860  -2.127  1.00  0.00    -0.275 OA
ENDBRANCH  25  26
ENDBRANCH  24  25
ENDBRANCH  23  24
ENDBRANCH   5  23
BRANCH   1  29
HETATM   29  N1  UNL     1      -0.939   4.903   0.187  1.00  0.00    -0.234 N 
ATOM     30  H12 UNL     1      -1.657   5.019   0.902  1.00  0.00     0.174 HD
ATOM     31  H11 UNL     1      -0.665   5.721  -0.358  1.00  0.00     0.174 HD
ENDBRANCH   1  29
TORSDOF 8
