REMARK  5 active torsions:
REMARK  status: ('A' for Active; 'I' for Inactive)
REMARK    1  A    between atoms: C2_4  and  N2_5 
REMARK    2  A    between atoms: C2_4  and  C4_12 
REMARK    3  A    between atoms: N2_5  and  N3_7 
REMARK    4  A    between atoms: C9_17  and  C10_18 
REMARK    5  A    between atoms: N6_19  and  N7_21 
ROOT
HETATM    1  C4  UNL     1      -0.317   0.480   0.481  1.00  0.00     0.021 A 
HETATM    2  C5  UNL     1      -0.899   1.747   0.658  1.00  0.00     0.016 A 
HETATM    3  C6  UNL     1      -0.177   2.886   0.859  1.00  0.00     0.001 A 
HETATM    4  C7  UNL     1       1.183   2.769   0.886  1.00  0.00     0.001 A 
HETATM    5  C8  UNL     1       1.829   1.566   0.721  1.00  0.00     0.014 A 
HETATM    6  C9  UNL     1       1.068   0.418   0.517  1.00  0.00    -0.005 A 
ENDROOT
BRANCH   1   7
HETATM    7  C2  UNL     1      -1.189  -0.634   0.278  1.00  0.00     0.126 C 
HETATM    8  N1  UNL     1      -0.913  -1.854   0.097  1.00  0.00    -0.379 N 
HETATM    9  C1  UNL     1      -1.827  -2.935  -0.102  1.00  0.00     0.147 C 
ATOM     10  H1  UNL     1       0.078  -2.096   0.092  1.00  0.00     0.160 HD
BRANCH   7  11
HETATM   11  N2  UNL     1      -2.609  -0.371   0.271  1.00  0.00    -0.283 N 
ATOM     12  H2  UNL     1      -3.157  -0.455   1.127  1.00  0.00     0.188 HD
BRANCH  11  13
HETATM   13  N3  UNL     1      -3.206  -0.006  -0.908  1.00  0.00    -0.274 N 
HETATM   14  C3  UNL     1      -4.469   0.147  -1.041  1.00  0.00     0.215 C 
HETATM   15  N4  UNL     1      -5.318  -0.064   0.066  1.00  0.00    -0.065 NA
HETATM   16  N5  UNL     1      -4.993   0.524  -2.294  1.00  0.00    -0.065 NA
ATOM     17  H3  UNL     1      -2.612   0.152  -1.722  1.00  0.00     0.189 HD
ENDBRANCH  11  13
ENDBRANCH   7  11
ENDBRANCH   1   7
BRANCH   6  18
HETATM   18  C10 UNL     1       1.788  -0.825   0.349  1.00  0.00     0.119 C 
HETATM   19  N6  UNL     1       3.015  -1.051   0.353  1.00  0.00    -0.309 N 
ATOM     20  H6  UNL     1       3.173  -2.048   0.204  1.00  0.00     0.186 HD
BRANCH  19  21
HETATM   21  N7  UNL     1       4.176  -0.444   0.484  1.00  0.00    -0.276 N 
HETATM   22  C11 UNL     1       5.174  -0.380  -0.329  1.00  0.00     0.215 C 
HETATM   23  N8  UNL     1       6.316   0.356   0.080  1.00  0.00    -0.065 NA
HETATM   24  N9  UNL     1       5.184  -1.005  -1.603  1.00  0.00    -0.065 NA
ATOM     25  H7  UNL     1       4.306   0.053   1.365  1.00  0.00     0.189 HD
ENDBRANCH  19  21
ENDBRANCH   6  18
TORSDOF 5
