REMARK  6 active torsions:
REMARK  status: ('A' for Active; 'I' for Inactive)
REMARK       I    between atoms: N1_2  and  C2_4 
REMARK    1  A    between atoms: C2_4  and  C3_6 
REMARK    2  A    between atoms: C3_6  and  N4_12 
REMARK       I    between atoms: N2_7  and  C4_9 
REMARK    3  A    between atoms: N4_12  and  C5_14 
REMARK    4  A    between atoms: C5_14  and  N5_16 
REMARK    5  A    between atoms: N5_16  and  C6_18 
REMARK    6  A    between atoms: C6_18  and  C7_19 
ROOT
HETATM    1  C3  UNL     1       1.414   0.104  -0.009  1.00  0.00     0.180 C 
HETATM    2  N2  UNL     1       1.886   1.304  -0.025  1.00  0.00    -0.292 N 
ATOM      3  H2  UNL     1       2.750   1.457  -0.545  1.00  0.00     0.172 HD
HETATM    4  C4  UNL     1       1.313   2.421   0.613  1.00  0.00     0.334 C 
HETATM    5  N3  UNL     1       0.864   2.320   1.941  1.00  0.00    -0.040 NA
HETATM    6  O2  UNL     1       1.211   3.494  -0.012  1.00  0.00    -0.251 OA
ENDROOT
BRANCH   1   7
HETATM    7  C2  UNL     1       2.150  -0.922  -0.733  1.00  0.00     0.285 C 
HETATM    8  N1  UNL     1       3.353  -0.644  -1.444  1.00  0.00    -0.359 N 
HETATM    9  C1  UNL     1       4.090  -1.644  -2.163  1.00  0.00     0.149 C 
ATOM     10  H1  UNL     1       3.708   0.312  -1.442  1.00  0.00     0.162 HD
HETATM   11  O1  UNL     1       1.737  -2.127  -0.758  1.00  0.00    -0.264 OA
ENDBRANCH   1   7
BRANCH   1  12
HETATM   12  N4  UNL     1       0.242  -0.254   0.681  1.00  0.00    -0.315 N 
ATOM     13  H4  UNL     1       0.360  -0.846   1.503  1.00  0.00     0.170 HD
BRANCH  12  14
HETATM   14  C5  UNL     1      -1.079   0.118   0.358  1.00  0.00     0.173 C 
HETATM   15  S1  UNL     1      -1.419   1.071  -0.918  1.00  0.00    -0.041 SA
BRANCH  14  16
HETATM   16  N5  UNL     1      -2.154  -0.332   1.164  1.00  0.00    -0.357 N 
ATOM     17  H5  UNL     1      -1.949  -0.919   1.973  1.00  0.00     0.162 HD
BRANCH  16  18
HETATM   18  C6  UNL     1      -3.529   0.009   0.883  1.00  0.00     0.235 C 
BRANCH  18  19
HETATM   19  C7  UNL     1      -4.069  -0.619  -0.331  1.00  0.00     0.191 C 
HETATM   20  O3  UNL     1      -3.331  -1.375  -1.027  1.00  0.00    -0.647 OA
HETATM   21  O4  UNL     1      -5.358  -0.412  -0.742  1.00  0.00    -0.647 OA
ENDBRANCH  18  19
ENDBRANCH  16  18
ENDBRANCH  14  16
ENDBRANCH  12  14
ENDBRANCH   1  12
TORSDOF 6
