REMARK  2 active torsions:
REMARK  status: ('A' for Active; 'I' for Inactive)
REMARK       I    between atoms: N1_2  and  C2_4 
REMARK       I    between atoms: C2_4  and  N3_8 
REMARK    1  A    between atoms: C4_11  and  N4_12 
REMARK       I    between atoms: N4_12  and  C5_14 
REMARK    2  A    between atoms: C7_17  and  N5_18 
ROOT
HETATM    1  C1  UNL     1      -3.533   1.887   1.214  1.00  0.00     0.165 C 
HETATM    2  N1  UNL     1      -3.065   0.564   0.860  1.00  0.00    -0.230 N 
ATOM      3  H1  UNL     1      -3.013  -0.158   1.579  1.00  0.00     0.177 HD
HETATM    4  C2  UNL     1      -2.679   0.254  -0.464  1.00  0.00     0.681 C 
HETATM    5  N2  UNL     1      -3.492  -0.316  -1.274  1.00  0.00    -0.234 N 
ATOM      6  H21 UNL     1      -3.213  -0.540  -2.229  1.00  0.00     0.174 HD
ATOM      7  H22 UNL     1      -4.434  -0.553  -0.963  1.00  0.00     0.174 HD
HETATM    8  N3  UNL     1      -1.387   0.579  -0.891  1.00  0.00    -0.132 N 
HETATM    9  S1  UNL     1      -0.949   2.057  -1.802  1.00  0.00    -0.032 SA
HETATM   10  C3  UNL     1       0.871   1.918  -1.544  1.00  0.00     0.127 C 
HETATM   11  C4  UNL     1       0.842   0.983  -0.326  1.00  0.00     0.139 C 
HETATM   12  C7  UNL     1      -0.111  -0.105  -0.748  1.00  0.00     0.239 C 
ENDROOT
BRANCH  12  13
HETATM   13  N5  UNL     1      -0.168  -1.198   0.156  1.00  0.00    -0.342 N 
HETATM   14  C8  UNL     1       0.056  -2.391  -0.258  1.00  0.00     0.198 C 
HETATM   15  N6  UNL     1       0.359  -2.595  -1.618  1.00  0.00    -0.067 NA
HETATM   16  N7  UNL     1       0.016  -3.529   0.590  1.00  0.00    -0.067 NA
ATOM     17  H5  UNL     1      -0.388  -1.034   1.138  1.00  0.00     0.164 HD
ENDBRANCH  12  13
BRANCH  11  18
HETATM   18  N4  UNL     1       2.132   0.522   0.031  1.00  0.00    -0.352 N 
HETATM   19  C5  UNL     1       2.655   0.810   1.320  1.00  0.00     0.214 C 
HETATM   20  C6  UNL     1       3.991   0.351   1.735  1.00  0.00     0.117 C 
HETATM   21  O1  UNL     1       1.979   1.480   2.166  1.00  0.00    -0.274 OA
ATOM     22  H4  UNL     1       2.685  -0.016  -0.636  1.00  0.00     0.163 HD
ENDBRANCH  11  18
TORSDOF 2
