REMARK  9 active torsions:
REMARK  status: ('A' for Active; 'I' for Inactive)
REMARK       I    between atoms: C2_4  and  N2_5 
REMARK       I    between atoms: C2_4  and  N3_18 
REMARK    1  A    between atoms: N2_5  and  C3_7 
REMARK    2  A    between atoms: C8_14  and  C9_15 
REMARK    3  A    between atoms: C10_21  and  C11_22 
REMARK    4  A    between atoms: C15_26  and  C16_27 
REMARK    5  A    between atoms: C16_27  and  C17_28 
REMARK    6  A    between atoms: C16_27  and  S1_37 
REMARK    7  A    between atoms: C17_28  and  C18_29 
REMARK    8  A    between atoms: C18_29  and  C19_30 
REMARK    9  A    between atoms: C19_30  and  N5_31 
ROOT
HETATM    1  C1  UNL     1      -3.952  -0.800  -2.361  1.00  0.00     0.165 C 
HETATM    2  N1  UNL     1      -3.694   0.051  -1.272  1.00  0.00    -0.229 N 
ATOM      3  H1  UNL     1      -4.296   0.874  -1.240  1.00  0.00     0.177 HD
HETATM    4  C2  UNL     1      -2.861  -0.008  -0.328  1.00  0.00     0.699 C 
HETATM    5  N2  UNL     1      -2.849   1.015   0.627  1.00  0.00    -0.189 N 
ATOM      6  H2  UNL     1      -2.773   0.705   1.596  1.00  0.00     0.184 HD
HETATM    7  N3  UNL     1      -2.018  -1.137  -0.206  1.00  0.00    -0.089 N 
HETATM    8  N4  UNL     1      -2.544  -2.290   0.337  1.00  0.00    -0.283 N 
ATOM      9  H4  UNL     1      -3.504  -2.395   0.665  1.00  0.00     0.188 HD
HETATM   10  C10 UNL     1      -1.621  -3.244   0.371  1.00  0.00     0.032 A 
HETATM   11  C14 UNL     1      -0.512  -2.680  -0.155  1.00  0.00     0.056 A 
HETATM   12  C15 UNL     1      -0.747  -1.328  -0.531  1.00  0.00     0.072 A 
ENDROOT
BRANCH  12  13
HETATM   13  C16 UNL     1       0.323  -0.500  -1.129  1.00  0.00     0.160 C 
BRANCH  13  14
HETATM   14  C17 UNL     1       0.749   0.655  -0.314  1.00  0.00     0.028 C 
BRANCH  14  15
HETATM   15  C18 UNL     1       1.891   1.476  -0.841  1.00  0.00     0.032 C 
BRANCH  15  16
HETATM   16  C19 UNL     1       3.204   0.690  -0.881  1.00  0.00     0.272 C 
BRANCH  16  17
HETATM   17  N5  UNL     1       3.553   0.277   0.502  1.00  0.00     0.088 N 
HETATM   18  C20 UNL     1       3.881   1.485   1.228  1.00  0.00     0.272 C 
HETATM   19  C21 UNL     1       5.129   1.316   2.075  1.00  0.00     0.030 C 
HETATM   20  C22 UNL     1       6.316   1.160   1.151  1.00  0.00     0.003 C 
HETATM   21  C23 UNL     1       5.954   0.164   0.090  1.00  0.00     0.030 C 
HETATM   22  C24 UNL     1       4.700  -0.593   0.402  1.00  0.00     0.272 C 
ENDBRANCH  16  17
ENDBRANCH  15  16
ENDBRANCH  14  15
ENDBRANCH  13  14
BRANCH  13  23
HETATM   23  S1  UNL     1       0.027  -0.144  -2.840  1.00  0.00     0.150 S 
HETATM   24  C25 UNL     1      -0.379  -1.705  -3.628  1.00  0.00     0.162 C 
HETATM   25  O1  UNL     1       1.348   0.223  -3.521  1.00  0.00    -0.228 OA
HETATM   26  O2  UNL     1      -0.900   0.936  -3.139  1.00  0.00    -0.228 OA
ENDBRANCH  13  23
ENDBRANCH  12  13
BRANCH   5  27
HETATM   27  C3  UNL     1      -2.926   2.411   0.447  1.00  0.00     0.064 A 
HETATM   28  C4  UNL     1      -2.956   2.961  -0.829  1.00  0.00     0.054 A 
HETATM   29  C5  UNL     1      -3.017   4.332  -1.072  1.00  0.00     0.037 A 
HETATM   30 CL1  UNL     1      -3.051   4.940  -2.709  1.00  0.00    -0.084 Cl
HETATM   31  C6  UNL     1      -3.051   5.198  -0.010  1.00  0.00     0.048 A 
HETATM   32  C7  UNL     1      -3.023   4.694   1.259  1.00  0.00     0.049 A 
HETATM   33 CL2  UNL     1      -3.064   5.761   2.656  1.00  0.00    -0.083 Cl
HETATM   34  C8  UNL     1      -2.961   3.297   1.490  1.00  0.00     0.055 A 
BRANCH  34  35
HETATM   35  C9  UNL     1      -2.944   2.842   2.894  1.00  0.00     0.390 C 
HETATM   36  F1  UNL     1      -4.074   3.400   3.488  1.00  0.00    -0.209 F 
HETATM   37  F2  UNL     1      -1.859   3.472   3.540  1.00  0.00    -0.209 F 
ENDBRANCH  34  35
ENDBRANCH   5  27
BRANCH  10  38
HETATM   38  C11 UNL     1      -1.787  -4.630   0.881  1.00  0.00     0.029 C 
HETATM   39  C12 UNL     1      -2.879  -5.368   0.145  1.00  0.00     0.016 C 
HETATM   40  C13 UNL     1      -2.119  -4.573   2.359  1.00  0.00     0.016 C 
ENDBRANCH  10  38
TORSDOF 9
