REMARK  8 active torsions:
REMARK  status: ('A' for Active; 'I' for Inactive)
REMARK    1  A    between atoms: C2_2  and  C3_3 
REMARK    2  A    between atoms: C3_3  and  C4_4 
REMARK    3  A    between atoms: C4_4  and  C5_5 
REMARK    4  A    between atoms: C5_5  and  N1_6 
REMARK    5  A    between atoms: N1_6  and  C6_8 
REMARK    6  A    between atoms: C9_11  and  C10_12 
REMARK    7  A    between atoms: C10_12  and  N2_13 
REMARK       I    between atoms: N4_21  and  C16_22 
REMARK    8  A    between atoms: C16_22  and  C17_24 
ROOT
HETATM    1  N2  UNL     1      -1.720  -0.833  -0.336  1.00  0.00    -0.388 N 
HETATM    2  C11 UNL     1      -1.598  -1.751  -1.413  1.00  0.00     0.127 C 
HETATM    3  C12 UNL     1      -2.852  -2.572  -1.532  1.00  0.00     0.062 C 
HETATM    4  C13 UNL     1      -3.956  -2.055  -0.681  1.00  0.00    -0.008 A 
HETATM    5  C14 UNL     1      -4.792  -2.826   0.070  1.00  0.00     0.031 A 
HETATM    6  C15 UNL     1      -4.741  -4.336   0.160  1.00  0.00     0.070 C 
HETATM    7  N3  UNL     1      -5.627  -2.007   0.681  1.00  0.00    -0.295 N 
ATOM      8  H3  UNL     1      -6.371  -2.299   1.314  1.00  0.00     0.187 HD
HETATM    9  N4  UNL     1      -5.354  -0.718   0.346  1.00  0.00    -0.223 N 
HETATM   10  C16 UNL     1      -6.140   0.317   0.890  1.00  0.00     0.280 C 
HETATM   11  O1  UNL     1      -7.126  -0.024   1.643  1.00  0.00    -0.265 OA
HETATM   12  C22 UNL     1      -4.334  -0.728  -0.489  1.00  0.00     0.047 A 
HETATM   13  C23 UNL     1      -3.672   0.400  -1.154  1.00  0.00     0.080 C 
HETATM   14  C24 UNL     1      -2.213   0.455  -0.690  1.00  0.00     0.128 C 
ENDROOT
BRANCH   1  15
HETATM   15  C10 UNL     1      -0.845  -0.935   0.750  1.00  0.00     0.100 C 
BRANCH  15  16
HETATM   16  C9  UNL     1       0.591  -0.706   0.518  1.00  0.00     0.018 A 
HETATM   17  C8  UNL     1       1.164  -0.366  -0.684  1.00  0.00     0.020 A 
HETATM   18  C7  UNL     1       2.547  -0.158  -0.782  1.00  0.00     0.049 A 
HETATM   19  C6  UNL     1       3.387  -0.282   0.305  1.00  0.00     0.102 A 
HETATM   20  N6  UNL     1       2.794  -0.616   1.464  1.00  0.00    -0.333 N 
HETATM   21  C25 UNL     1       1.473  -0.823   1.593  1.00  0.00     0.116 A 
ATOM     22  H6  UNL     1       3.380  -0.718   2.292  1.00  0.00     0.168 HD
HETATM   23 CL4  UNL     1       0.760  -1.259   3.148  1.00  0.00    -0.064 Cl
BRANCH  19  24
HETATM   24  N1  UNL     1       4.791  -0.068   0.205  1.00  0.00    -0.376 N 
ATOM     25  H1  UNL     1       5.186   0.182  -0.702  1.00  0.00     0.161 HD
BRANCH  24  26
HETATM   26  C5  UNL     1       5.678  -0.192   1.340  1.00  0.00     0.121 C 
BRANCH  26  27
HETATM   27  C4  UNL     1       7.107   0.102   0.971  1.00  0.00     0.020 C 
BRANCH  27  28
HETATM   28  C3  UNL     1       7.268   1.511   0.434  1.00  0.00     0.001 C 
BRANCH  28  29
HETATM   29  C2  UNL     1       8.682   1.821   0.062  1.00  0.00    -0.004 C 
HETATM   30  C1  UNL     1       9.192   0.880  -1.013  1.00  0.00     0.005 C 
ENDBRANCH  28  29
ENDBRANCH  27  28
ENDBRANCH  26  27
ENDBRANCH  24  26
ENDBRANCH  19  24
ENDBRANCH  15  16
ENDBRANCH   1  15
BRANCH  10  31
HETATM   31  C17 UNL     1      -6.004   1.734   0.731  1.00  0.00     0.082 A 
HETATM   32  C18 UNL     1      -6.834   2.403  -0.171  1.00  0.00     0.067 A 
HETATM   33 CL1  UNL     1      -7.973   1.484  -1.117  1.00  0.00    -0.082 Cl
HETATM   34  C19 UNL     1      -6.718   3.767  -0.275  1.00  0.00     0.114 A 
HETATM   35  N5  UNL     1      -5.841   4.472   0.454  1.00  0.00    -0.354 N 
HETATM   36  C20 UNL     1      -5.028   3.847   1.334  1.00  0.00     0.126 A 
ATOM     37  H5  UNL     1      -5.787   5.485   0.344  1.00  0.00     0.166 HD
HETATM   38 CL2  UNL     1      -3.900   4.831   2.260  1.00  0.00    -0.063 Cl
HETATM   39  C21 UNL     1      -5.105   2.491   1.475  1.00  0.00     0.090 A 
HETATM   40 CL3  UNL     1      -4.066   1.691   2.625  1.00  0.00    -0.080 Cl
ENDBRANCH  10  31
TORSDOF 8
