REMARK  12 active torsions:
REMARK  status: ('A' for Active; 'I' for Inactive)
REMARK    1  A    between atoms: C6_8  and  C7_9 
REMARK    2  A    between atoms: N3_12  and  C8_13 
REMARK    3  A    between atoms: C12_19  and  C13_20 
REMARK    4  A    between atoms: C13_20  and  C14_21 
REMARK    5  A    between atoms: C14_21  and  C15_22 
REMARK    6  A    between atoms: C15_22  and  O1_23 
REMARK    7  A    between atoms: N5_30  and  C21_31 
REMARK    8  A    between atoms: C21_31  and  C22_32 
REMARK    9  A    between atoms: C22_32  and  C23_33 
REMARK   10  A    between atoms: C23_33  and  C24_34 
REMARK   11  A    between atoms: C24_34  and  C25_35 
REMARK   12  A    between atoms: C26_37  and  C27_38 
ROOT
HETATM    1  C1  UNL     1      -2.077   0.806   2.625  1.00  0.00     0.069 C 
HETATM    2  C2  UNL     1      -1.464   0.195   1.374  1.00  0.00     0.019 A 
HETATM    3  N1  UNL     1      -0.150  -0.204   1.421  1.00  0.00    -0.345 N 
ATOM      4  H1  UNL     1       0.406  -0.071   2.265  1.00  0.00     0.167 HD
HETATM    5  C3  UNL     1       0.394  -0.784   0.308  1.00  0.00     0.110 A 
HETATM    6  C4  UNL     1      -0.331  -0.973  -0.829  1.00  0.00    -0.013 A 
HETATM    7  C5  UNL     1      -1.619  -0.580  -0.900  1.00  0.00     0.026 A 
HETATM    8  C6  UNL     1      -2.196   0.028   0.268  1.00  0.00     0.017 A 
HETATM    9  C16 UNL     1       0.113  -1.867  -1.989  1.00  0.00     0.042 C 
HETATM   10  C17 UNL     1       0.313  -3.255  -1.381  1.00  0.00     0.007 C 
HETATM   11  C18 UNL     1       1.264  -3.436  -0.317  1.00  0.00     0.025 C 
HETATM   12  C19 UNL     1       2.328  -2.394  -0.057  1.00  0.00     0.081 C 
HETATM   13  C20 UNL     1       3.195  -2.307  -1.255  1.00  0.00     0.032 C 
HETATM   14  N5  UNL     1       1.791  -1.129   0.446  1.00  0.00    -0.362 N 
ENDROOT
BRANCH   8  15
HETATM   15  C7  UNL     1      -3.631   0.221   0.113  1.00  0.00     0.086 A 
HETATM   16  N2  UNL     1      -4.543  -0.795   0.091  1.00  0.00    -0.281 N 
HETATM   17  N3  UNL     1      -5.760  -0.283  -0.090  1.00  0.00    -0.225 N 
ATOM     18  H2  UNL     1      -4.327  -1.786   0.196  1.00  0.00     0.189 HD
HETATM   19  N4  UNL     1      -5.652   1.000  -0.179  1.00  0.00    -0.285 N 
HETATM   20  C12 UNL     1      -4.331   1.372  -0.049  1.00  0.00     0.056 A 
ATOM     21  H4  UNL     1      -6.430   1.644  -0.324  1.00  0.00     0.188 HD
BRANCH  17  22
HETATM   22  C8  UNL     1      -6.936  -1.170  -0.162  1.00  0.00     0.060 C 
HETATM   23  C9  UNL     1      -6.710  -2.328   0.804  1.00  0.00     0.041 C 
HETATM   24  C10 UNL     1      -7.118  -1.770  -1.513  1.00  0.00     0.041 C 
HETATM   25  C11 UNL     1      -8.198  -0.474   0.262  1.00  0.00     0.041 C 
ENDBRANCH  17  22
BRANCH  20  26
HETATM   26  C13 UNL     1      -3.858   2.733   0.127  1.00  0.00     0.063 C 
BRANCH  26  27
HETATM   27  C14 UNL     1      -2.797   3.289  -0.737  1.00  0.00     0.032 C 
BRANCH  27  28
HETATM   28  C15 UNL     1      -2.589   4.719  -0.161  1.00  0.00     0.164 C 
BRANCH  28  29
HETATM   29  O1  UNL     1      -1.619   5.422  -0.806  1.00  0.00    -0.401 OA
ATOM     30  H1  UNL     1      -1.492   6.295  -0.454  1.00  0.00     0.209 HD
ENDBRANCH  28  29
ENDBRANCH  27  28
ENDBRANCH  26  27
ENDBRANCH  20  26
ENDBRANCH   8  15
BRANCH  14  31
HETATM   31  C21 UNL     1       2.605  -0.175   1.097  1.00  0.00     0.125 C 
BRANCH  31  32
HETATM   32  C22 UNL     1       3.589   0.542   0.160  1.00  0.00     0.031 C 
BRANCH  32  33
HETATM   33  C23 UNL     1       4.520   1.431   1.025  1.00  0.00     0.088 C 
BRANCH  33  34
HETATM   34  C24 UNL     1       5.731   1.460   1.038  1.00  0.00    -0.134 C 
BRANCH  34  35
HETATM   35  C25 UNL     1       7.110   1.181   0.752  1.00  0.00     0.085 A 
HETATM   36  S1  UNL     1       8.553   1.597   1.572  1.00  0.00    -0.074 SA
HETATM   37  C26 UNL     1       9.720   0.934   0.531  1.00  0.00     0.092 A 
HETATM   38  C28 UNL     1       8.958   0.398  -0.452  1.00  0.00     0.068 A 
HETATM   39  C29 UNL     1       7.619   0.502  -0.364  1.00  0.00     0.142 A 
HETATM   40  F4  UNL     1       6.767   0.003  -1.325  1.00  0.00    -0.204 F 
BRANCH  37  41
HETATM   41  C27 UNL     1      11.222   0.912   0.653  1.00  0.00     0.423 C 
HETATM   42  F1  UNL     1      11.674  -0.317   0.298  1.00  0.00    -0.166 F 
HETATM   43  F2  UNL     1      11.847   1.885  -0.049  1.00  0.00    -0.166 F 
HETATM   44  F3  UNL     1      11.504   1.069   2.016  1.00  0.00    -0.166 F 
ENDBRANCH  37  41
ENDBRANCH  34  35
ENDBRANCH  33  34
ENDBRANCH  32  33
ENDBRANCH  31  32
ENDBRANCH  14  31
TORSDOF 12
