REMARK  10 active torsions:
REMARK  status: ('A' for Active; 'I' for Inactive)
REMARK    1  A    between atoms: C2_5  and  C3_6 
REMARK    2  A    between atoms: C3_6  and  C4_7 
REMARK    3  A    between atoms: C4_7  and  O1_8 
REMARK    4  A    between atoms: C4_7  and  C6_14 
REMARK    5  A    between atoms: O1_8  and  C5_9 
REMARK    6  A    between atoms: C6_14  and  N8_23 
REMARK    7  A    between atoms: N5_15  and  O2_17 
REMARK    8  A    between atoms: O2_17  and  C7_18 
REMARK       I    between atoms: N8_23  and  C8_25 
REMARK    9  A    between atoms: N10_27  and  N11_29 
REMARK   10  A    between atoms: C9_34  and  N13_35 
ROOT
HETATM    1  C4  UNL     1       0.221  -0.015  -0.229  1.00  0.00     0.208 C 
ENDROOT
BRANCH   1   2
HETATM    2  C3  UNL     1       1.330  -1.025  -0.057  1.00  0.00     0.119 C 
BRANCH   2   3
HETATM    3  C2  UNL     1       2.427  -0.809  -1.045  1.00  0.00     0.115 A 
HETATM    4  N2  UNL     1       3.523  -0.040  -0.916  1.00  0.00    -0.272 N 
HETATM    5  N1  UNL     1       4.256  -0.121  -2.031  1.00  0.00    -0.127 N 
ATOM      6  H2  UNL     1       3.758   0.518  -0.095  1.00  0.00     0.189 HD
HETATM    7  C1  UNL     1       5.512   0.557  -2.293  1.00  0.00     0.197 C 
HETATM    8  C9  UNL     1       3.641  -0.946  -2.898  1.00  0.00     0.693 A 
HETATM    9  N12 UNL     1       2.517  -1.358  -2.271  1.00  0.00    -0.178 N 
ATOM     10  H12 UNL     1       1.831  -1.997  -2.672  1.00  0.00     0.185 HD
BRANCH   8  11
HETATM   11  N13 UNL     1       4.044  -1.275  -4.086  1.00  0.00    -0.233 N 
ATOM     12 2H13 UNL     1       4.892  -0.964  -4.559  1.00  0.00     0.174 HD
ATOM     13 1H13 UNL     1       3.578  -1.900  -4.743  1.00  0.00     0.174 HD
ENDBRANCH   8  11
ENDBRANCH   2   3
ENDBRANCH   1   2
BRANCH   1  14
HETATM   14  O1  UNL     1       0.684   1.311  -0.055  1.00  0.00    -0.311 OA
BRANCH  14  15
HETATM   15  C5  UNL     1      -0.250   2.329  -0.190  1.00  0.00     0.225 C 
HETATM   16  N3  UNL     1      -1.251   2.179  -0.989  1.00  0.00    -0.368 N 
ATOM     17  H32 UNL     1      -1.324   1.302  -1.505  1.00  0.00     0.159 HD
ATOM     18  H31 UNL     1      -1.937   2.927  -1.088  1.00  0.00     0.159 HD
HETATM   19  N4  UNL     1      -0.148   3.556   0.532  1.00  0.00    -0.057 NA
ENDBRANCH  14  15
ENDBRANCH   1  14
BRANCH   1  20
HETATM   20  C6  UNL     1      -0.842  -0.354   0.743  1.00  0.00     0.134 C 
HETATM   21  N5  UNL     1      -1.241   0.450   1.667  1.00  0.00    -0.243 N 
ATOM     22  H5  UNL     1      -0.800   1.368   1.730  1.00  0.00     0.196 HD
BRANCH  21  23
HETATM   23  O2  UNL     1      -2.212   0.145   2.558  1.00  0.00    -0.203 OA
BRANCH  23  24
HETATM   24  C7  UNL     1      -2.329   0.802   3.775  1.00  0.00     0.249 C 
HETATM   25  N6  UNL     1      -1.232   1.250   4.300  1.00  0.00    -0.366 N 
ATOM     26  H62 UNL     1      -0.329   1.126   3.843  1.00  0.00     0.159 HD
ATOM     27  H61 UNL     1      -1.318   1.733   5.194  1.00  0.00     0.159 HD
HETATM   28  N7  UNL     1      -3.593   0.975   4.415  1.00  0.00    -0.055 NA
ENDBRANCH  23  24
ENDBRANCH  21  23
BRANCH  20  29
HETATM   29  N8  UNL     1      -1.449  -1.634   0.646  1.00  0.00    -0.315 N 
HETATM   30  C8  UNL     1      -2.646  -1.886  -0.073  1.00  0.00     0.208 C 
HETATM   31  N9  UNL     1      -3.331  -3.108   0.181  1.00  0.00    -0.062 NA
HETATM   32  N10 UNL     1      -3.081  -1.037  -0.915  1.00  0.00    -0.280 N 
ATOM     33  H10 UNL     1      -2.556  -0.175  -1.064  1.00  0.00     0.189 HD
ATOM     34  H8  UNL     1      -0.999  -2.417   1.120  1.00  0.00     0.170 HD
BRANCH  32  35
HETATM   35  N11 UNL     1      -4.246  -1.246  -1.637  1.00  0.00    -0.343 N 
ATOM     36 2H11 UNL     1      -4.759  -2.113  -1.476  1.00  0.00     0.176 HD
ATOM     37 1H11 UNL     1      -4.595  -0.565  -2.312  1.00  0.00     0.176 HD
ENDBRANCH  32  35
ENDBRANCH  20  29
ENDBRANCH   1  20
TORSDOF 10
