REMARK  7 active torsions:
REMARK  status: ('A' for Active; 'I' for Inactive)
REMARK    1  A    between atoms: N1_1  and  C1_4 
REMARK    2  A    between atoms: C4_12  and  O2_13 
REMARK    3  A    between atoms: O2_13  and  C5_14 
REMARK    4  A    between atoms: C5_14  and  C6_15 
REMARK    5  A    between atoms: C7_20  and  C8_21 
REMARK    6  A    between atoms: C8_21  and  O3_22 
REMARK    7  A    between atoms: C8_21  and  O4_24 
REMARK       I    between atoms: N7_28  and  C9_29 
REMARK       I    between atoms: C9_29  and  N8_30 
REMARK       I    between atoms: C9_29  and  N9_34 
ROOT
HETATM    1  C1  UNL     1      -5.233  -0.088   0.225  1.00  0.00     0.680 A 
HETATM    2  N2  UNL     1      -5.249  -1.385   0.587  1.00  0.00    -0.154 N 
ATOM      3  H2  UNL     1      -6.146  -1.848   0.732  1.00  0.00     0.187 HD
HETATM    4  C2  UNL     1      -4.114  -2.089   0.763  1.00  0.00     0.290 A 
HETATM    5  O1  UNL     1      -4.100  -3.294   1.098  1.00  0.00    -0.265 OA
HETATM    6  C3  UNL     1      -2.925  -1.406   0.550  1.00  0.00     0.150 A 
HETATM    7  N3  UNL     1      -1.626  -1.772   0.629  1.00  0.00    -0.314 N 
ATOM      8  H3  UNL     1      -1.282  -2.698   0.882  1.00  0.00     0.170 HD
HETATM    9  C4  UNL     1      -0.864  -0.709   0.318  1.00  0.00     0.231 A 
HETATM   10  N7  UNL     1      -1.634   0.344   0.039  1.00  0.00    -0.244 N 
HETATM   11  C9  UNL     1      -1.273   1.690  -0.343  1.00  0.00     0.491 C 
HETATM   12  N8  UNL     1      -1.638   2.631   0.691  1.00  0.00    -0.032 N 
ATOM     13  H81 UNL     1      -1.383   3.581   0.421  1.00  0.00     0.279 HD
ATOM     14  H82 UNL     1      -1.238   2.374   1.594  1.00  0.00     0.279 HD
ATOM     15  H83 UNL     1      -2.626   2.560   0.935  1.00  0.00     0.279 HD
HETATM   16  N9  UNL     1       0.126   1.831  -0.629  1.00  0.00    -0.032 N 
ATOM     17  H91 UNL     1       0.381   2.781  -0.899  1.00  0.00     0.279 HD
ATOM     18  H92 UNL     1       0.424   1.158  -1.336  1.00  0.00     0.279 HD
ATOM     19  H93 UNL     1       0.693   1.509   0.155  1.00  0.00     0.279 HD
HETATM   20  C10 UNL     1      -2.905  -0.073   0.179  1.00  0.00     0.162 A 
HETATM   21  N10 UNL     1      -4.086   0.585   0.016  1.00  0.00    -0.174 N 
ATOM     22  H10 UNL     1      -4.101   1.567  -0.259  1.00  0.00     0.186 HD
ENDROOT
BRANCH   9  23
HETATM   23  O2  UNL     1       0.508  -0.726   0.298  1.00  0.00    -0.314 OA
BRANCH  23  24
HETATM   24  C5  UNL     1       1.301  -1.838   0.594  1.00  0.00     0.256 C 
BRANCH  24  25
HETATM   25  C6  UNL     1       2.732  -1.476   0.466  1.00  0.00     0.122 A 
HETATM   26  N4  UNL     1       3.818  -2.250   0.663  1.00  0.00    -0.286 N 
HETATM   27  N5  UNL     1       4.909  -1.540   0.445  1.00  0.00    -0.283 N 
ATOM     28  H4  UNL     1       3.799  -3.232   0.938  1.00  0.00     0.188 HD
HETATM   29  C7  UNL     1       4.537  -0.296   0.103  1.00  0.00     0.153 A 
ATOM     30  H5  UNL     1       5.868  -1.878   0.523  1.00  0.00     0.188 HD
HETATM   31  N6  UNL     1       3.195  -0.278   0.123  1.00  0.00    -0.328 N 
ATOM     32  H6  UNL     1       2.617   0.534  -0.093  1.00  0.00     0.168 HD
BRANCH  29  33
HETATM   33  C8  UNL     1       5.456   0.850  -0.234  1.00  0.00     0.325 C 
BRANCH  33  34
HETATM   34  O3  UNL     1       6.468   0.418  -1.092  1.00  0.00    -0.365 OA
ATOM     35  H3  UNL     1       7.047   1.140  -1.304  1.00  0.00     0.213 HD
ENDBRANCH  33  34
BRANCH  33  36
HETATM   36  O4  UNL     1       4.683   1.785  -0.914  1.00  0.00    -0.365 OA
ATOM     37  H4  UNL     1       5.262   2.507  -1.126  1.00  0.00     0.213 HD
ENDBRANCH  33  36
ENDBRANCH  29  33
ENDBRANCH  24  25
ENDBRANCH  23  24
ENDBRANCH   9  23
BRANCH   1  38
HETATM   38  N1  UNL     1      -6.383   0.495   0.084  1.00  0.00    -0.234 N 
ATOM     39  H12 UNL     1      -7.252  -0.015   0.242  1.00  0.00     0.174 HD
ATOM     40  H11 UNL     1      -6.371   1.477  -0.190  1.00  0.00     0.174 HD
ENDBRANCH   1  38
TORSDOF 7
