REMARK  2 active torsions:
REMARK  status: ('A' for Active; 'I' for Inactive)
REMARK    1  A    between atoms: N1_1  and  C1_5 
REMARK    2  A    between atoms: C1_5  and  C2_6 
ROOT
HETATM    1  C1  UNL     1       1.080   0.128   0.122  1.00  0.00     0.149 C 
HETATM    2  C3  UNL     1       0.334  -0.997   0.706  1.00  0.00     0.041 C 
HETATM    3  C4  UNL     1      -0.762  -1.567  -0.148  1.00  0.00     0.002 C 
HETATM    4  C5  UNL     1      -1.793  -0.580  -0.560  1.00  0.00     0.000 C 
HETATM    5  C6  UNL     1      -1.860   0.520   0.450  1.00  0.00     0.000 C 
HETATM    6  C7  UNL     1      -0.968   1.645   0.040  1.00  0.00     0.002 C 
HETATM    7  C8  UNL     1       0.474   1.458   0.080  1.00  0.00     0.041 C 
ENDROOT
BRANCH   1   8
HETATM    8  N1  UNL     1       2.339   0.172   0.902  1.00  0.00    -0.068 N 
ATOM      9  H13 UNL     1       2.878  -0.694   0.894  1.00  0.00     0.275 HD
ATOM     10  H12 UNL     1       3.074   0.751   0.496  1.00  0.00     0.275 HD
ATOM     11  H11 UNL     1       2.021   0.469   1.824  1.00  0.00     0.275 HD
ENDBRANCH   1   8
BRANCH   1  12
HETATM   12  C2  UNL     1       1.560  -0.320  -1.268  1.00  0.00     0.260 C 
HETATM   13  F1  UNL     1       2.173  -1.570  -1.136  1.00  0.00    -0.253 F 
ENDBRANCH   1  12
TORSDOF 2
