REMARK  0 active torsions:
REMARK  status: ('A' for Active; 'I' for Inactive)
ROOT
HETATM    1  C1  UNL     1       2.268   1.606   0.295  1.00  0.00     0.052 C 
HETATM    2  C2  UNL     1       1.247   0.535   0.368  1.00  0.00     0.106 C 
HETATM    3  F1  UNL     1       1.142   0.121   1.689  1.00  0.00    -0.243 F 
HETATM    4  C3  UNL     1       1.663  -0.717  -0.419  1.00  0.00     0.087 C 
HETATM    5  C4  UNL     1       0.707  -1.783   0.078  1.00  0.00     0.059 C 
HETATM    6  N1  UNL     1      -0.644  -1.484  -0.071  1.00  0.00    -0.394 N 
ATOM      7  H1  UNL     1      -1.318  -2.243  -0.171  1.00  0.00     0.159 HD
HETATM    8  C5  UNL     1      -1.090  -0.162  -0.085  1.00  0.00     0.025 C 
HETATM    9  C6  UNL     1      -1.916   0.089   1.183  1.00  0.00     0.038 C 
HETATM   10  C7  UNL     1      -2.066   0.003  -1.260  1.00  0.00     0.038 C 
HETATM   11  C8  UNL     1      -0.085   0.919  -0.187  1.00  0.00     0.073 C 
ENDROOT
TORSDOF 0
