REMARK  1 active torsions:
REMARK  status: ('A' for Active; 'I' for Inactive)
REMARK    1  A    between atoms: O1_1  and  C1_3 
ROOT
HETATM    1  C1  UNL     1       1.602  -0.249  -0.158  1.00  0.00     0.118 C 
HETATM    2  C2  UNL     1       0.905   0.854   0.608  1.00  0.00     0.032 C 
HETATM    3  C3  UNL     1       0.082   1.750  -0.257  1.00  0.00     0.002 C 
HETATM    4  C4  UNL     1      -1.385   1.621  -0.086  1.00  0.00     0.000 C 
HETATM    5  C5  UNL     1      -1.901   0.252   0.130  1.00  0.00     0.000 C 
HETATM    6  C6  UNL     1      -1.201  -0.835  -0.589  1.00  0.00     0.000 C 
HETATM    7  C7  UNL     1      -0.408  -1.649   0.402  1.00  0.00     0.002 C 
HETATM    8  C8  UNL     1       1.059  -1.608   0.127  1.00  0.00     0.032 C 
ENDROOT
BRANCH   1   9
HETATM    9  O1  UNL     1       2.982  -0.295   0.152  1.00  0.00    -0.396 OA
ATOM     10  H1  UNL     1       3.420  -0.988  -0.329  1.00  0.00     0.210 HD
ENDBRANCH   1   9
TORSDOF 1
