REMARK  4 active torsions:
REMARK  status: ('A' for Active; 'I' for Inactive)
REMARK    1  A    between atoms: C2_2  and  O1_3 
REMARK    2  A    between atoms: C2_2  and  N1_5 
REMARK    3  A    between atoms: C2_2  and  C10_14 
REMARK    4  A    between atoms: N1_5  and  C3_7 
ROOT
HETATM    1  C1  UNL     1      -0.961  -1.413   0.664  1.00  0.00     0.071 C 
HETATM    2  C2  UNL     1      -1.005   0.026   0.258  1.00  0.00     0.131 C 
ENDROOT
BRANCH   2   3
HETATM    3  O1  UNL     1      -0.747   0.737   1.444  1.00  0.00    -0.371 OA
ATOM      4  H1  UNL     1      -0.775   1.651   1.186  1.00  0.00     0.212 HD
ENDBRANCH   2   3
BRANCH   2   5
HETATM    5  N1  UNL     1      -0.080   0.349  -0.726  1.00  0.00    -0.365 N 
ATOM      6  H1  UNL     1      -0.455   0.655  -1.624  1.00  0.00     0.162 HD
BRANCH   5   7
HETATM    7  C3  UNL     1       1.297   0.298  -0.613  1.00  0.00    -0.015 C 
HETATM    8  C4  UNL     1       1.912   1.164   0.468  1.00  0.00     0.052 C 
HETATM    9  C5  UNL     1       3.261   1.701   0.036  1.00  0.00     0.006 C 
HETATM   10  C6  UNL     1       4.149   0.667  -0.576  1.00  0.00     0.000 C 
HETATM   11  C7  UNL     1       4.209  -0.634   0.174  1.00  0.00     0.000 C 
HETATM   12  C8  UNL     1       2.942  -1.399   0.243  1.00  0.00     0.006 C 
HETATM   13  C9  UNL     1       1.909  -1.027  -0.803  1.00  0.00     0.052 C 
ENDBRANCH   5   7
ENDBRANCH   2   5
BRANCH   2  14
HETATM   14  C10 UNL     1      -2.369   0.464  -0.200  1.00  0.00     0.040 C 
HETATM   15  C11 UNL     1      -2.933  -0.276  -1.368  1.00  0.00     0.009 C 
HETATM   16  C12 UNL     1      -4.440  -0.305  -1.124  1.00  0.00     0.001 C 
HETATM   17  C13 UNL     1      -4.664   0.561   0.068  1.00  0.00     0.001 C 
HETATM   18  C14 UNL     1      -3.387   0.346   0.890  1.00  0.00     0.009 C 
ENDBRANCH   2  14
TORSDOF 4
