REMARK  2 active torsions:
REMARK  status: ('A' for Active; 'I' for Inactive)
REMARK    1  A    between atoms: C2_2  and  C3_4 
REMARK    2  A    between atoms: C13_14  and  O1_15 
ROOT
HETATM    1  C3  UNL     1      -0.986   0.026  -0.179  1.00  0.00    -0.027 C 
HETATM    2  C4  UNL     1      -2.057  -0.451  -1.173  1.00  0.00     0.016 C 
HETATM    3  C5  UNL     1      -0.223   1.094  -0.823  1.00  0.00     0.018 C 
HETATM    4  C6  UNL     1       1.277   1.026  -0.695  1.00  0.00     0.015 C 
HETATM    5  C7  UNL     1       1.944   0.049  -1.560  1.00  0.00     0.007 C 
HETATM    6  C8  UNL     1       1.813  -1.389  -1.281  1.00  0.00     0.001 C 
HETATM    7  C9  UNL     1       0.467  -1.881  -0.913  1.00  0.00     0.005 C 
HETATM    8  C10 UNL     1      -0.212  -1.199   0.222  1.00  0.00    -0.005 C 
HETATM    9  C11 UNL     1       0.576  -1.066   1.469  1.00  0.00     0.008 C 
HETATM   10  C12 UNL     1       1.641  -0.084   1.560  1.00  0.00     0.032 C 
HETATM   11  C13 UNL     1       1.655   1.104   0.718  1.00  0.00     0.122 C 
ENDROOT
BRANCH   1  12
HETATM   12  C2  UNL     1      -1.766   0.496   1.046  1.00  0.00     0.063 C 
HETATM   13  C1  UNL     1      -2.681   1.623   0.578  1.00  0.00     0.023 C 
HETATM   14  S1  UNL     1      -2.807  -0.860   1.677  1.00  0.00    -0.092 SA
ENDBRANCH   1  12
BRANCH  11  15
HETATM   15  O1  UNL     1       2.951   1.678   0.786  1.00  0.00    -0.395 OA
ATOM     16  H1  UNL     1       3.196   1.729   1.702  1.00  0.00     0.210 HD
ENDBRANCH  11  15
TORSDOF 2
