REMARK  3 active torsions:
REMARK  status: ('A' for Active; 'I' for Inactive)
REMARK    1  A    between atoms: C2_2  and  C3_4 
REMARK    2  A    between atoms: C3_4  and  C4_5 
REMARK    3  A    between atoms: C8_9  and  O2_10 
ROOT
HETATM    1  C4  UNL     1       0.929   0.097   0.458  1.00  0.00    -0.027 C 
HETATM    2  C5  UNL     1       1.631   0.926   1.505  1.00  0.00     0.016 C 
HETATM    3  C6  UNL     1       0.717  -1.285   1.042  1.00  0.00     0.013 C 
HETATM    4  C7  UNL     1      -0.763  -1.393   1.369  1.00  0.00     0.039 C 
HETATM    5  C8  UNL     1      -1.266   0.057   1.294  1.00  0.00     0.066 C 
HETATM    6  C9  UNL     1      -2.727   0.165   1.164  1.00  0.00     0.038 C 
HETATM    7  C10 UNL     1      -3.292  -0.133  -0.187  1.00  0.00     0.003 C 
HETATM    8  C11 UNL     1      -2.406   0.130  -1.333  1.00  0.00     0.001 C 
HETATM    9  C12 UNL     1      -0.943  -0.140  -1.099  1.00  0.00     0.013 C 
HETATM   10  C13 UNL     1      -0.444   0.557   0.144  1.00  0.00    -0.005 C 
HETATM   11  C14 UNL     1      -0.570   2.033  -0.084  1.00  0.00     0.019 C 
ENDROOT
BRANCH   1  12
HETATM   12  C3  UNL     1       1.738  -0.037  -0.800  1.00  0.00     0.087 C 
BRANCH  12  13
HETATM   13  C2  UNL     1       3.054  -0.691  -0.520  1.00  0.00     0.123 C 
HETATM   14  C1  UNL     1       4.051  -0.916  -1.592  1.00  0.00     0.091 C 
HETATM   15  O1  UNL     1       3.303  -1.041   0.608  1.00  0.00    -0.298 OA
ENDBRANCH  12  13
ENDBRANCH   1  12
BRANCH   5  16
HETATM   16  O2  UNL     1      -0.872   0.650   2.470  1.00  0.00    -0.389 OA
ATOM     17  H2  UNL     1      -1.183   1.546   2.424  1.00  0.00     0.210 HD
ENDBRANCH   5  16
TORSDOF 3
