REMARK  3 active torsions:
REMARK  status: ('A' for Active; 'I' for Inactive)
REMARK    1  A    between atoms: C2_2  and  C3_3 
REMARK    2  A    between atoms: C9_9  and  C10_10 
REMARK    3  A    between atoms: C10_10  and  C11_11 
ROOT
HETATM    1  C3  UNL     1       1.003  -0.907   0.255  1.00  0.00    -0.006 C 
HETATM    2  C4  UNL     1       2.306  -0.163   0.265  1.00  0.00     0.038 C 
HETATM    3  C5  UNL     1       2.334   1.131  -0.394  1.00  0.00    -0.087 C 
HETATM    4  C6  UNL     1       3.250   2.222   0.101  1.00  0.00     0.043 C 
HETATM    5  C7  UNL     1       1.551   1.368  -1.442  1.00  0.00    -0.024 C 
HETATM    6  C8  UNL     1       0.687   0.257  -1.866  1.00  0.00     0.033 C 
HETATM    7  C9  UNL     1      -0.000  -0.459  -0.730  1.00  0.00     0.003 C 
ENDROOT
BRANCH   7   8
HETATM    8  C10 UNL     1      -1.225   0.192  -0.195  1.00  0.00    -0.011 C 
HETATM    9  C13 UNL     1      -2.014  -0.912   0.534  1.00  0.00     0.039 C 
HETATM   10  C14 UNL     1      -2.516  -0.300   1.814  1.00  0.00     0.233 C 
HETATM   11  N1  UNL     1      -2.175   1.075   1.786  1.00  0.00    -0.074 N 
HETATM   12  C15 UNL     1      -1.106   1.244   0.810  1.00  0.00     0.242 C 
ATOM     13  H12 UNL     1      -2.977   1.679   1.605  1.00  0.00     0.277 HD
ATOM     14  H11 UNL     1      -1.934   1.443   2.706  1.00  0.00     0.277 HD
BRANCH   8  15
HETATM   15  C11 UNL     1      -2.126   0.611  -1.339  1.00  0.00     0.007 C 
HETATM   16  C12 UNL     1      -3.396   1.281  -0.871  1.00  0.00     0.006 C 
ENDBRANCH   8  15
ENDBRANCH   7   8
BRANCH   1  17
HETATM   17  C2  UNL     1       1.389  -2.372   0.001  1.00  0.00     0.001 C 
HETATM   18  C1  UNL     1       2.293  -2.904   1.069  1.00  0.00     0.005 C 
ENDBRANCH   1  17
TORSDOF 3
