REMARK  9 active torsions:
REMARK  status: ('A' for Active; 'I' for Inactive)
REMARK    1  A    between atoms: C2_2  and  N1_4 
REMARK    2  A    between atoms: N1_4  and  C4_7 
REMARK    3  A    between atoms: C4_7  and  C5_8 
REMARK    4  A    between atoms: C5_8  and  N2_9 
REMARK       I    between atoms: N2_9  and  C7_11 
REMARK    5  A    between atoms: C7_11  and  C8_13 
REMARK    6  A    between atoms: C8_13  and  N3_15 
REMARK       I    between atoms: N3_15  and  C10_17 
REMARK    7  A    between atoms: C10_17  and  C11_19 
REMARK    8  A    between atoms: C11_19  and  C12_20 
REMARK    9  A    between atoms: C11_19  and  C18_26 
ROOT
HETATM    1  N3  UNL     1      -0.498   0.649   0.451  1.00  0.00    -0.348 N 
ATOM      2  H3  UNL     1      -0.518   0.345  -0.523  1.00  0.00     0.163 HD
HETATM    3  C10 UNL     1      -1.661   0.503   1.255  1.00  0.00     0.223 C 
HETATM    4  O2  UNL     1      -1.587   0.896   2.469  1.00  0.00    -0.273 OA
ENDROOT
BRANCH   1   5
HETATM    5  C8  UNL     1       0.718   1.224   0.996  1.00  0.00     0.172 C 
HETATM    6  C9  UNL     1       1.076   2.488   0.247  1.00  0.00     0.042 C 
BRANCH   5   7
HETATM    7  C7  UNL     1       1.786   0.212   0.909  1.00  0.00     0.241 C 
HETATM    8  N2  UNL     1       3.086   0.502   1.393  1.00  0.00    -0.353 N 
HETATM    9  C6  UNL     1       3.402   1.770   1.985  1.00  0.00     0.152 C 
HETATM   10  O1  UNL     1       1.536  -0.922   0.398  1.00  0.00    -0.271 OA
BRANCH   8  11
HETATM   11  C5  UNL     1       4.117  -0.535   1.280  1.00  0.00     0.152 C 
BRANCH  11  12
HETATM   12  C4  UNL     1       4.795  -0.331  -0.056  1.00  0.00     0.252 C 
BRANCH  12  13
HETATM   13  N1  UNL     1       5.814  -1.347  -0.180  1.00  0.00    -0.070 N 
ATOM     14  H12 UNL     1       5.413  -2.276  -0.051  1.00  0.00     0.277 HD
ATOM     15  H11 UNL     1       6.447  -1.321   0.619  1.00  0.00     0.277 HD
BRANCH  13  16
HETATM   16  C2  UNL     1       6.547  -1.280  -1.406  1.00  0.00     0.178 C 
HETATM   17  C1  UNL     1       7.573  -2.402  -1.388  1.00  0.00     0.039 C 
HETATM   18  C3  UNL     1       7.293   0.012  -1.602  1.00  0.00     0.039 C 
ENDBRANCH  13  16
ENDBRANCH  12  13
ENDBRANCH  11  12
ENDBRANCH   8  11
ENDBRANCH   5   7
ENDBRANCH   1   5
BRANCH   3  19
HETATM   19  C11 UNL     1      -2.914  -0.081   0.714  1.00  0.00     0.086 C 
BRANCH  19  20
HETATM   20  C12 UNL     1      -2.701  -1.465   0.176  1.00  0.00    -0.001 C 
HETATM   21  C13 UNL     1      -2.203  -2.333   1.304  1.00  0.00     0.005 C 
HETATM   22  C14 UNL     1      -3.289  -2.758   2.240  1.00  0.00     0.000 C 
HETATM   23  C15 UNL     1      -4.338  -3.495   1.455  1.00  0.00     0.000 C 
HETATM   24  C16 UNL     1      -4.894  -2.690   0.313  1.00  0.00     0.000 C 
HETATM   25  C17 UNL     1      -3.839  -2.056  -0.542  1.00  0.00     0.005 C 
ENDBRANCH  19  20
BRANCH  19  26
HETATM   26  C18 UNL     1      -3.573   0.878  -0.194  1.00  0.00    -0.001 C 
HETATM   27  C19 UNL     1      -2.796   1.315  -1.389  1.00  0.00     0.005 C 
HETATM   28  C20 UNL     1      -3.794   2.068  -2.283  1.00  0.00     0.000 C 
HETATM   29  C21 UNL     1      -4.344   3.258  -1.584  1.00  0.00     0.000 C 
HETATM   30  C22 UNL     1      -4.788   3.006  -0.174  1.00  0.00     0.000 C 
HETATM   31  C23 UNL     1      -3.829   2.161   0.618  1.00  0.00     0.005 C 
ENDBRANCH  19  26
ENDBRANCH   3  19
TORSDOF 9
