REMARK  8 active torsions:
REMARK  status: ('A' for Active; 'I' for Inactive)
REMARK    1  A    between atoms: N1_2  and  C2_3 
REMARK    2  A    between atoms: C2_3  and  C3_4 
REMARK    3  A    between atoms: C3_4  and  C4_5 
REMARK    4  A    between atoms: C4_5  and  C5_6 
REMARK    5  A    between atoms: C5_6  and  C6_7 
REMARK    6  A    between atoms: C6_7  and  C7_8 
REMARK    7  A    between atoms: C7_8  and  C8_9 
REMARK    8  A    between atoms: C8_9  and  C9_10 
ROOT
HETATM    1  C3  UNL     1      -0.257   0.357  -1.729  1.00  0.00     0.028 C 
ENDROOT
BRANCH   1   2
HETATM    2  C2  UNL     1      -1.550   0.751  -1.142  1.00  0.00     0.238 C 
BRANCH   2   3
HETATM    3  N1  UNL     1      -2.149  -0.027  -0.119  1.00  0.00    -0.062 N 
HETATM    4  C1  UNL     1      -1.835  -1.457  -0.219  1.00  0.00     0.273 C 
HETATM    5  C12 UNL     1      -1.664   0.387   1.178  1.00  0.00     0.238 C 
HETATM    6  C13 UNL     1      -2.638   0.578   2.292  1.00  0.00     0.032 C 
HETATM    7  C14 UNL     1      -3.939   1.201   1.949  1.00  0.00    -0.010 C 
HETATM    8  C15 UNL     1      -5.170   0.392   2.177  1.00  0.00     0.009 C 
HETATM    9  C22 UNL     1      -3.853   1.477   0.470  1.00  0.00     0.044 C 
HETATM   10  C16 UNL     1      -5.513  -0.565   1.105  1.00  0.00    -0.012 C 
HETATM   11  C17 UNL     1      -6.325  -0.065  -0.044  1.00  0.00     0.005 C 
HETATM   12  C21 UNL     1      -4.215  -1.047   0.482  1.00  0.00     0.044 C 
HETATM   13  C18 UNL     1      -5.688  -0.174  -1.386  1.00  0.00     0.003 C 
HETATM   14  C19 UNL     1      -4.239   0.229  -1.503  1.00  0.00     0.039 C 
HETATM   15  C20 UNL     1      -3.577   0.131  -0.162  1.00  0.00     0.130 C 
ENDBRANCH   2   3
ENDBRANCH   1   2
BRANCH   1  16
HETATM   16  C4  UNL     1       0.915   0.294  -0.806  1.00  0.00     0.002 C 
BRANCH  16  17
HETATM   17  C5  UNL     1       2.185  -0.123  -1.547  1.00  0.00     0.000 C 
BRANCH  17  18
HETATM   18  C6  UNL     1       3.283  -0.148  -0.510  1.00  0.00     0.000 C 
BRANCH  18  19
HETATM   19  C7  UNL     1       4.618  -0.549  -1.100  1.00  0.00     0.002 C 
BRANCH  19  20
HETATM   20  C8  UNL     1       5.608  -0.529   0.047  1.00  0.00     0.032 C 
BRANCH  20  21
HETATM   21  C9  UNL     1       7.002  -0.910  -0.386  1.00  0.00     0.145 C 
HETATM   22  N2  UNL     1       7.843  -0.851   0.802  1.00  0.00    -0.354 N 
HETATM   23  C10 UNL     1       8.511   0.392   0.830  1.00  0.00     0.189 C 
ATOM     24  H2  UNL     1       7.934  -1.589   1.501  1.00  0.00     0.163 HD
HETATM   25  N3  UNL     1       9.263   0.989   1.892  1.00  0.00    -0.063 NA
HETATM   26  N4  UNL     1       8.370   1.018  -0.311  1.00  0.00    -0.323 N 
HETATM   27  C11 UNL     1       7.590   0.218  -1.180  1.00  0.00     0.102 C 
ATOM     28  H4  UNL     1       8.759   1.933  -0.537  1.00  0.00     0.169 HD
HETATM   29  S1  UNL     1       7.403   0.525  -2.770  1.00  0.00    -0.063 SA
ENDBRANCH  20  21
ENDBRANCH  19  20
ENDBRANCH  18  19
ENDBRANCH  17  18
ENDBRANCH  16  17
ENDBRANCH   1  16
TORSDOF 8
