REMARK  8 active torsions:
REMARK  status: ('A' for Active; 'I' for Inactive)
REMARK    1  A    between atoms: C3_3  and  C5_5 
REMARK    2  A    between atoms: C3_3  and  C7_7 
REMARK    3  A    between atoms: C8_8  and  C9_9 
REMARK    4  A    between atoms: C10_10  and  C11_11 
REMARK    5  A    between atoms: C11_11  and  C12_12 
REMARK    6  A    between atoms: C17_20  and  C18_21 
REMARK       I    between atoms: C18_21  and  N2_23 
REMARK    7  A    between atoms: N2_23  and  C19_25 
REMARK    8  A    between atoms: C19_25  and  C20_26 
ROOT
HETATM    1  C1  UNL     1       9.242   0.958  -1.459  1.00  0.00     0.013 C 
HETATM    2  C2  UNL     1       8.319   0.727  -0.705  1.00  0.00    -0.100 C 
HETATM    3  C3  UNL     1       7.215   0.450   0.201  1.00  0.00     0.054 C 
HETATM    4  C4  UNL     1       7.405  -0.908   0.863  1.00  0.00     0.038 C 
ENDROOT
BRANCH   3   5
HETATM    5  C5  UNL     1       7.110   1.468   1.279  1.00  0.00    -0.011 C 
HETATM    6  C6  UNL     1       6.559   2.638   1.036  1.00  0.00     0.009 C 
ENDBRANCH   3   5
BRANCH   3   7
HETATM    7  C7  UNL     1       5.949   0.460  -0.575  1.00  0.00    -0.001 C 
HETATM    8  C8  UNL     1       4.796   0.560   0.049  1.00  0.00    -0.002 C 
BRANCH   8   9
HETATM    9  C9  UNL     1       3.569   0.570  -0.701  1.00  0.00    -0.004 C 
HETATM   10  C10 UNL     1       2.395   0.669  -0.107  1.00  0.00    -0.026 C 
BRANCH  10  11
HETATM   11  C11 UNL     1       1.116   0.678  -0.903  1.00  0.00     0.032 C 
BRANCH  11  12
HETATM   12  C12 UNL     1       0.319  -0.516  -0.420  1.00  0.00     0.006 C 
HETATM   13  C13 UNL     1       1.068  -1.809  -0.641  1.00  0.00     0.033 C 
HETATM   14  C14 UNL     1       0.399  -2.895   0.151  1.00  0.00     0.233 C 
HETATM   15  N1  UNL     1      -1.018  -2.618   0.279  1.00  0.00    -0.070 N 
HETATM   16  C15 UNL     1      -1.565  -2.006  -0.891  1.00  0.00     0.195 C 
ATOM     17  H12 UNL     1      -1.535  -3.461   0.528  1.00  0.00     0.277 HD
ATOM     18  H11 UNL     1      -1.209  -2.057   1.109  1.00  0.00     0.277 HD
HETATM   19  C16 UNL     1      -1.459  -2.862  -2.128  1.00  0.00     0.041 C 
HETATM   20  C17 UNL     1      -1.022  -0.615  -1.065  1.00  0.00     0.112 C 
BRANCH  20  21
HETATM   21  C18 UNL     1      -1.991   0.375  -0.547  1.00  0.00     0.224 C 
HETATM   22  O1  UNL     1      -1.649   1.164   0.348  1.00  0.00    -0.273 OA
HETATM   23  N2  UNL     1      -3.298   0.418  -1.071  1.00  0.00    -0.360 N 
ATOM     24  H2  UNL     1      -3.545  -0.245  -1.806  1.00  0.00     0.162 HD
BRANCH  23  25
HETATM   25  C19 UNL     1      -4.302   1.344  -0.627  1.00  0.00     0.127 C 
BRANCH  25  26
HETATM   26  C20 UNL     1      -4.631   1.200   0.852  1.00  0.00     0.003 C 
HETATM   27  C21 UNL     1      -5.143  -0.181   1.167  1.00  0.00     0.006 C 
HETATM   28  C22 UNL     1      -6.675  -0.222   1.180  1.00  0.00     0.000 C 
HETATM   29  C23 UNL     1      -7.186   0.596   2.330  1.00  0.00     0.000 C 
HETATM   30  C24 UNL     1      -6.413   1.891   2.426  1.00  0.00     0.000 C 
HETATM   31  C25 UNL     1      -5.762   2.198   1.105  1.00  0.00     0.006 C 
ENDBRANCH  25  26
ENDBRANCH  23  25
ENDBRANCH  20  21
ENDBRANCH  11  12
ENDBRANCH  10  11
ENDBRANCH   8   9
ENDBRANCH   3   7
TORSDOF 8
