REMARK  9 active torsions:
REMARK  status: ('A' for Active; 'I' for Inactive)
REMARK    1  A    between atoms: C2_2  and  N1_4 
REMARK    2  A    between atoms: C2_2  and  C19_25 
REMARK       I    between atoms: N1_4  and  C4_6 
REMARK    3  A    between atoms: C4_6  and  C5_8 
REMARK    4  A    between atoms: C5_8  and  C6_9 
REMARK    5  A    between atoms: C5_8  and  C10_15 
REMARK    6  A    between atoms: C6_9  and  C7_10 
REMARK    7  A    between atoms: C7_10  and  C8_11 
REMARK    8  A    between atoms: C8_11  and  C9_12 
REMARK    9  A    between atoms: C10_15  and  C11_17 
ROOT
HETATM    1  C5  UNL     1      -1.730   0.563   0.045  1.00  0.00     0.148 C 
ENDROOT
BRANCH   1   2
HETATM    2  C4  UNL     1      -0.467  -0.116   0.408  1.00  0.00     0.229 C 
HETATM    3  N1  UNL     1       0.646  -0.173  -0.456  1.00  0.00    -0.352 N 
ATOM      4  H1  UNL     1       0.547   0.280  -1.365  1.00  0.00     0.163 HD
HETATM    5  O1  UNL     1      -0.390  -0.659   1.531  1.00  0.00    -0.273 OA
BRANCH   3   6
HETATM    6  C2  UNL     1       1.915  -0.811  -0.179  1.00  0.00     0.029 C 
HETATM    7  C1  UNL     1       1.628  -2.272   0.114  1.00  0.00     0.038 C 
HETATM    8  C3  UNL     1       2.666  -0.860  -1.493  1.00  0.00     0.038 C 
BRANCH   6   9
HETATM    9  C19 UNL     1       2.700  -0.144   0.924  1.00  0.00     0.013 C 
HETATM   10  C20 UNL     1       3.012   1.283   0.674  1.00  0.00     0.007 C 
HETATM   11  C21 UNL     1       4.394   1.728   1.045  1.00  0.00     0.000 C 
HETATM   12  C22 UNL     1       5.494   0.811   0.666  1.00  0.00     0.000 C 
HETATM   13  C23 UNL     1       5.169  -0.645   0.770  1.00  0.00     0.000 C 
HETATM   14  C24 UNL     1       3.858  -0.944   1.413  1.00  0.00     0.007 C 
ENDBRANCH   6   9
ENDBRANCH   3   6
ENDBRANCH   1   2
BRANCH   1  15
HETATM   15  C6  UNL     1      -1.487   2.059  -0.207  1.00  0.00     0.022 C 
BRANCH  15  16
HETATM   16  C7  UNL     1      -0.946   2.726   1.027  1.00  0.00     0.010 C 
BRANCH  16  17
HETATM   17  C8  UNL     1      -0.686   4.195   0.813  1.00  0.00     0.099 C 
BRANCH  17  18
HETATM   18  C9  UNL     1      -0.153   4.836   2.040  1.00  0.00     0.231 C 
HETATM   19  N2  UNL     1       0.194   6.200   2.105  1.00  0.00    -0.062 NA
HETATM   20  O2  UNL     1      -0.009   4.122   3.061  1.00  0.00    -0.277 OA
ENDBRANCH  17  18
ENDBRANCH  16  17
ENDBRANCH  15  16
ENDBRANCH   1  15
BRANCH   1  21
HETATM   21  C10 UNL     1      -2.481  -0.056  -1.056  1.00  0.00     0.148 C 
HETATM   22  O3  UNL     1      -2.625   0.656  -2.069  1.00  0.00    -0.296 OA
BRANCH  21  23
HETATM   23  C11 UNL     1      -3.068  -1.366  -1.119  1.00  0.00     0.022 C 
HETATM   24  C12 UNL     1      -4.098  -1.659  -0.050  1.00  0.00     0.022 C 
HETATM   25  C13 UNL     1      -4.356  -3.148  -0.276  1.00  0.00    -0.009 C 
HETATM   26  C14 UNL     1      -5.304  -3.325  -1.473  1.00  0.00     0.010 C 
HETATM   27  C17 UNL     1      -3.264  -3.637  -1.163  1.00  0.00    -0.005 C 
HETATM   28  C15 UNL     1      -4.049  -3.128  -2.336  1.00  0.00    -0.009 C 
HETATM   29  C16 UNL     1      -3.778  -1.648  -2.453  1.00  0.00     0.022 C 
HETATM   30  C18 UNL     1      -2.178  -2.558  -1.033  1.00  0.00     0.022 C 
ENDBRANCH  21  23
ENDBRANCH   1  21
TORSDOF 9
