REMARK  8 active torsions:
REMARK  status: ('A' for Active; 'I' for Inactive)
REMARK    1  A    between atoms: N1_4  and  C4_5 
REMARK    2  A    between atoms: C4_5  and  C5_6 
REMARK    3  A    between atoms: C5_6  and  C6_7 
REMARK    4  A    between atoms: C13_15  and  C14_16 
REMARK    5  A    between atoms: C14_16  and  C15_17 
REMARK       I    between atoms: C15_17  and  N2_19 
REMARK    6  A    between atoms: N2_19  and  C16_21 
REMARK    7  A    between atoms: C16_21  and  C17_22 
REMARK    8  A    between atoms: C17_22  and  C18_23 
ROOT
HETATM    1  C1  UNL     1       0.688  -0.456   3.469  1.00  0.00     0.033 C 
HETATM    2  C2  UNL     1       0.605  -0.327   1.942  1.00  0.00     0.091 C 
HETATM    3  C3  UNL     1       2.006  -0.485   1.415  1.00  0.00     0.150 C 
HETATM    4  N1  UNL     1       2.423   0.604   0.582  1.00  0.00    -0.348 N 
HETATM    5  C12 UNL     1       1.514   1.488  -0.059  1.00  0.00     0.242 C 
HETATM    6  O1  UNL     1       1.887   2.344  -0.902  1.00  0.00    -0.271 OA
HETATM    7  C13 UNL     1       0.087   1.372   0.298  1.00  0.00     0.178 C 
HETATM    8  N3  UNL     1       0.003   0.929   1.660  1.00  0.00    -0.404 N 
ATOM      9  H3  UNL     1      -0.460   1.482   2.381  1.00  0.00     0.154 HD
ENDROOT
BRANCH   7  10
HETATM   10  C14 UNL     1      -0.630   0.410  -0.625  1.00  0.00     0.137 C 
BRANCH  10  11
HETATM   11  C15 UNL     1      -2.084   0.307  -0.244  1.00  0.00     0.220 C 
HETATM   12  O2  UNL     1      -2.502   0.984   0.727  1.00  0.00    -0.274 OA
HETATM   13  N2  UNL     1      -2.969  -0.522  -0.945  1.00  0.00    -0.361 N 
ATOM     14  H2  UNL     1      -2.609  -1.069  -1.727  1.00  0.00     0.162 HD
BRANCH  13  15
HETATM   15  C16 UNL     1      -4.351  -0.634  -0.613  1.00  0.00     0.127 C 
BRANCH  15  16
HETATM   16  C17 UNL     1      -5.057   0.678  -0.777  1.00  0.00     0.053 C 
BRANCH  16  17
HETATM   17  C18 UNL     1      -6.512   0.491  -0.427  1.00  0.00    -0.082 C 
HETATM   18  C19 UNL     1      -7.036   1.181   0.550  1.00  0.00    -0.024 C 
HETATM   19  C20 UNL     1      -8.470   1.061   0.967  1.00  0.00     0.027 C 
HETATM   20  C21 UNL     1      -8.944  -0.318   0.493  1.00  0.00     0.004 C 
HETATM   21  C22 UNL     1      -8.739  -0.363  -0.989  1.00  0.00     0.005 C 
HETATM   22  C23 UNL     1      -7.263  -0.504  -1.255  1.00  0.00     0.034 C 
ENDBRANCH  16  17
ENDBRANCH  15  16
ENDBRANCH  13  15
ENDBRANCH  10  11
ENDBRANCH   7  10
BRANCH   4  23
HETATM   23  C4  UNL     1       3.840   0.821   0.381  1.00  0.00     0.126 C 
BRANCH  23  24
HETATM   24  C5  UNL     1       4.377   0.073  -0.809  1.00  0.00     0.024 C 
BRANCH  24  25
HETATM   25  C6  UNL     1       5.868   0.395  -0.893  1.00  0.00    -0.013 C 
HETATM   26  C7  UNL     1       6.524  -0.295  -2.046  1.00  0.00     0.005 C 
HETATM   27  C8  UNL     1       7.066  -1.653  -1.714  1.00  0.00     0.000 C 
HETATM   28  C9  UNL     1       7.941  -1.652  -0.484  1.00  0.00     0.000 C 
HETATM   29  C10 UNL     1       7.936  -0.305   0.209  1.00  0.00     0.000 C 
HETATM   30  C11 UNL     1       6.493   0.071   0.439  1.00  0.00     0.005 C 
ENDBRANCH  24  25
ENDBRANCH  23  24
ENDBRANCH   4  23
TORSDOF 8
