REMARK  8 active torsions:
REMARK  status: ('A' for Active; 'I' for Inactive)
REMARK    1  A    between atoms: C8_8  and  O1_9 
REMARK    2  A    between atoms: C9_11  and  C10_12 
REMARK    3  A    between atoms: C10_12  and  C12_14 
REMARK    4  A    between atoms: C12_14  and  C13_15 
REMARK    5  A    between atoms: C12_14  and  C14_17 
REMARK    6  A    between atoms: C14_17  and  C15_18 
REMARK    7  A    between atoms: C15_18  and  C16_19 
REMARK    8  A    between atoms: C22_29  and  O3_30 
ROOT
HETATM    1  C1  UNL     1      -4.560   0.909   2.184  1.00  0.00     0.015 C 
HETATM    2  C2  UNL     1      -3.885   0.514   1.149  1.00  0.00    -0.073 C 
HETATM    3  C3  UNL     1      -3.927   1.093  -0.247  1.00  0.00     0.022 C 
HETATM    4  C4  UNL     1      -4.833   0.163  -1.010  1.00  0.00     0.010 C 
HETATM    5  C5  UNL     1      -4.341  -1.230  -1.000  1.00  0.00     0.006 C 
HETATM    6  C6  UNL     1      -3.508  -1.650   0.132  1.00  0.00     0.003 C 
HETATM    7  C7  UNL     1      -2.494  -2.648  -0.383  1.00  0.00     0.038 C 
HETATM    8  C8  UNL     1      -1.384  -1.895  -1.138  1.00  0.00     0.126 C 
HETATM    9  C9  UNL     1      -0.803  -0.914  -0.208  1.00  0.00     0.054 C 
HETATM   10  C20 UNL     1      -1.757   0.174   0.295  1.00  0.00     0.083 C 
HETATM   11  O2  UNL     1      -1.005   0.830   1.239  1.00  0.00    -0.376 OA
HETATM   12  C21 UNL     1      -1.176   2.121   1.513  1.00  0.00     0.200 C 
HETATM   13  C22 UNL     1      -1.639   3.053   0.458  1.00  0.00     0.142 C 
HETATM   14  C23 UNL     1      -1.993   2.423  -0.841  1.00  0.00     0.042 C 
HETATM   15  C24 UNL     1      -2.461   0.974  -0.699  1.00  0.00     0.032 C 
HETATM   16  C25 UNL     1      -2.905  -0.582   0.991  1.00  0.00     0.015 C 
HETATM   17  C26 UNL     1      -2.357  -1.143   2.252  1.00  0.00     0.023 C 
ENDROOT
BRANCH   9  18
HETATM   18  C10 UNL     1       0.587  -0.463  -0.404  1.00  0.00    -0.003 C 
HETATM   19  C11 UNL     1       0.850   0.156  -1.753  1.00  0.00     0.011 C 
BRANCH  18  20
HETATM   20  C12 UNL     1       1.703  -1.421  -0.085  1.00  0.00     0.019 C 
BRANCH  20  21
HETATM   21  C13 UNL     1       1.732  -1.921   1.293  1.00  0.00     0.227 C 
HETATM   22  F1  UNL     1       2.751  -2.824   1.454  1.00  0.00    -0.255 F 
ENDBRANCH  20  21
BRANCH  20  23
HETATM   23  C14 UNL     1       2.964  -0.585  -0.304  1.00  0.00     0.012 C 
BRANCH  23  24
HETATM   24  C15 UNL     1       4.261  -1.251  -0.059  1.00  0.00     0.042 C 
BRANCH  24  25
HETATM   25  C16 UNL     1       5.405  -0.335  -0.403  1.00  0.00    -0.024 A 
HETATM   26  C17 UNL     1       5.978  -0.274  -1.645  1.00  0.00     0.115 A 
HETATM   27  N1  UNL     1       6.944   0.627  -1.591  1.00  0.00    -0.310 N 
HETATM   28  N2  UNL     1       7.037   1.160  -0.387  1.00  0.00    -0.308 N 
ATOM     29  H1  UNL     1       7.541   0.878  -2.379  1.00  0.00     0.186 HD
HETATM   30  C18 UNL     1       7.981   2.177   0.033  1.00  0.00     0.177 C 
HETATM   31  C19 UNL     1       6.075   0.568   0.382  1.00  0.00     0.118 A 
ENDBRANCH  24  25
ENDBRANCH  23  24
ENDBRANCH  20  23
ENDBRANCH  18  20
ENDBRANCH   9  18
BRANCH   8  32
HETATM   32  O1  UNL     1      -0.464  -2.871  -1.457  1.00  0.00    -0.395 OA
ATOM     33  H1  UNL     1       0.221  -2.406  -1.923  1.00  0.00     0.210 HD
ENDBRANCH   8  32
BRANCH  13  34
HETATM   34  O3  UNL     1      -2.756   3.807   0.893  1.00  0.00    -0.393 OA
ATOM     35  H3  UNL     1      -3.053   4.404   0.217  1.00  0.00     0.210 HD
ENDBRANCH  13  34
TORSDOF 8
