REMARK  6 active torsions:
REMARK  status: ('A' for Active; 'I' for Inactive)
REMARK    1  A    between atoms: C2_2  and  C3_3 
REMARK    2  A    between atoms: C4_6  and  N2_7 
REMARK    3  A    between atoms: N4_15  and  C7_16 
REMARK    4  A    between atoms: C7_16  and  C8_17 
REMARK    5  A    between atoms: C9_18  and  C10_19 
REMARK    6  A    between atoms: C15_25  and  O1_26 
ROOT
HETATM    1  C3  UNL     1       3.702   0.828   0.286  1.00  0.00     0.083 A 
HETATM    2  N1  UNL     1       4.410   0.206  -0.663  1.00  0.00    -0.330 N 
ATOM      3  H1  UNL     1       5.240   0.680  -1.020  1.00  0.00     0.168 HD
HETATM    4  C4  UNL     1       4.112  -0.989  -1.178  1.00  0.00     0.131 A 
HETATM    5  C5  UNL     1       2.982  -1.628  -0.687  1.00  0.00     0.123 A 
HETATM    6  N3  UNL     1       2.365  -2.800  -0.935  1.00  0.00    -0.330 N 
ATOM      7  H3  UNL     1       2.668  -3.499  -1.613  1.00  0.00     0.168 HD
HETATM    8  C6  UNL     1       1.277  -2.896  -0.137  1.00  0.00     0.158 A 
HETATM    9 BR1  UNL     1       0.076  -4.363  -0.109  1.00  0.00    -0.010 Br
HETATM   10  N4  UNL     1       1.181  -1.794   0.630  1.00  0.00    -0.308 N 
HETATM   11  C17 UNL     1       2.239  -1.010   0.288  1.00  0.00     0.142 A 
HETATM   12  N5  UNL     1       2.608   0.195   0.752  1.00  0.00    -0.330 N 
ATOM     13  H5  UNL     1       2.046   0.642   1.476  1.00  0.00     0.168 HD
ENDROOT
BRANCH  10  14
HETATM   14  C7  UNL     1       0.170  -1.487   1.621  1.00  0.00     0.160 C 
BRANCH  14  15
HETATM   15  C8  UNL     1      -0.973  -0.756   0.983  1.00  0.00    -0.006 C 
HETATM   16  C9  UNL     1      -2.159  -1.290   1.035  1.00  0.00     0.012 C 
BRANCH  16  17
HETATM   17  C10 UNL     1      -3.408  -0.790   0.503  1.00  0.00    -0.003 A 
HETATM   18  C11 UNL     1      -4.597  -1.511   0.658  1.00  0.00     0.015 A 
HETATM   19  C12 UNL     1      -5.810  -1.079   0.171  1.00  0.00     0.020 A 
HETATM   20  C13 UNL     1      -5.918   0.101  -0.503  1.00  0.00     0.013 A 
HETATM   21 BR2  UNL     1      -7.575   0.746  -1.200  1.00  0.00    -0.051 Br
HETATM   22  C14 UNL     1      -4.774   0.841  -0.679  1.00  0.00     0.056 A 
HETATM   23  C15 UNL     1      -3.540   0.394  -0.179  1.00  0.00     0.079 A 
BRANCH  23  24
HETATM   24  O1  UNL     1      -2.475   1.211  -0.412  1.00  0.00    -0.355 OA
HETATM   25  C16 UNL     1      -2.520   2.429  -1.095  1.00  0.00     0.210 C 
ENDBRANCH  23  24
ENDBRANCH  16  17
ENDBRANCH  14  15
ENDBRANCH  10  14
BRANCH   4  26
HETATM   26  N2  UNL     1       4.819  -1.551  -2.088  1.00  0.00    -0.383 N 
ATOM     27  H22 UNL     1       5.649  -1.081  -2.449  1.00  0.00     0.157 HD
ATOM     28  H21 UNL     1       4.591  -2.464  -2.482  1.00  0.00     0.157 HD
ENDBRANCH   4  26
BRANCH   1  29
HETATM   29  C2  UNL     1       4.045   2.155   0.848  1.00  0.00     0.072 C 
HETATM   30  C1  UNL     1       5.304   2.686   0.188  1.00  0.00     0.013 C 
ENDBRANCH   1  29
TORSDOF 6
