REMARK  8 active torsions:
REMARK  status: ('A' for Active; 'I' for Inactive)
REMARK       I    between atoms: C1_2  and  N6_19 
REMARK    1  A    between atoms: N2_3  and  C2_5 
REMARK    2  A    between atoms: C2_5  and  C3_6 
REMARK    3  A    between atoms: C3_6  and  C4_7 
REMARK    4  A    between atoms: C4_7  and  N3_8 
REMARK    5  A    between atoms: N3_8  and  C5_10 
REMARK    6  A    between atoms: N6_19  and  C9_21 
REMARK    7  A    between atoms: C9_21  and  C10_22 
REMARK    8  A    between atoms: C10_22  and  C11_23 
ROOT
HETATM    1  N1  UNL     1       1.148  -1.643   1.555  1.00  0.00    -0.064 NA
HETATM    2  C1  UNL     1       1.303  -1.694   0.154  1.00  0.00     0.187 C 
HETATM    3  N2  UNL     1       0.772  -0.739  -0.551  1.00  0.00    -0.364 N 
ATOM      4  H2  UNL     1       0.873  -0.756  -1.566  1.00  0.00     0.162 HD
HETATM    5  N6  UNL     1       1.955  -2.722  -0.546  1.00  0.00    -0.344 N 
ATOM      6  H6  UNL     1       1.868  -3.666  -0.170  1.00  0.00     0.167 HD
ENDROOT
BRANCH   3   7
HETATM    7  C2  UNL     1       0.058   0.324   0.052  1.00  0.00     0.127 C 
BRANCH   7   8
HETATM    8  C3  UNL     1      -1.372  -0.072   0.436  1.00  0.00     0.065 C 
BRANCH   8   9
HETATM    9  C4  UNL     1      -2.017   1.142   1.040  1.00  0.00     0.080 C 
BRANCH   9  10
HETATM   10  N3  UNL     1      -3.337   0.976   1.478  1.00  0.00    -0.205 N 
ATOM     11  H3  UNL     1      -3.404   0.836   2.486  1.00  0.00     0.183 HD
BRANCH  10  12
HETATM   12  C5  UNL     1      -4.456   0.961   0.910  1.00  0.00     0.684 A 
HETATM   13  N4  UNL     1      -4.696   1.115  -0.390  1.00  0.00    -0.201 N 
HETATM   14  C6  UNL     1      -5.972   1.077  -0.880  1.00  0.00     0.111 A 
ATOM     15  H4  UNL     1      -3.916   1.264  -1.031  1.00  0.00     0.183 HD
HETATM   16  C7  UNL     1      -7.040   0.879  -0.051  1.00  0.00     0.092 A 
HETATM   17  C8  UNL     1      -6.783   0.723   1.289  1.00  0.00     0.260 A 
HETATM   18  O1  UNL     1      -7.765   0.537   2.090  1.00  0.00    -0.268 OA
HETATM   19  N5  UNL     1      -5.523   0.766   1.733  1.00  0.00    -0.156 N 
ATOM     20  H5  UNL     1      -5.353   0.648   2.732  1.00  0.00     0.187 HD
ENDBRANCH  10  12
ENDBRANCH   9  10
ENDBRANCH   8   9
ENDBRANCH   7   8
ENDBRANCH   3   7
BRANCH   5  21
HETATM   21  C9  UNL     1       2.719  -2.569  -1.720  1.00  0.00     0.068 C 
BRANCH  21  22
HETATM   22  C10 UNL     1       4.054  -1.968  -1.552  1.00  0.00     0.083 C 
BRANCH  22  23
HETATM   23  C11 UNL     1       4.167  -0.639  -1.007  1.00  0.00    -0.053 A 
HETATM   24  C12 UNL     1       4.087   0.508  -1.802  1.00  0.00     0.007 A 
HETATM   25  C13 UNL     1       4.258   1.739  -1.204  1.00  0.00     0.001 A 
HETATM   26  C14 UNL     1       4.505   1.888   0.142  1.00  0.00     0.000 A 
HETATM   27  C15 UNL     1       4.584   0.750   0.929  1.00  0.00     0.001 A 
HETATM   28  C16 UNL     1       4.417  -0.465   0.352  1.00  0.00     0.007 A 
ENDBRANCH  22  23
ENDBRANCH  21  22
ENDBRANCH   5  21
TORSDOF 8
