REMARK  10 active torsions:
REMARK  status: ('A' for Active; 'I' for Inactive)
REMARK    1  A    between atoms: C3_3  and  C4_4 
REMARK    2  A    between atoms: C4_4  and  N1_5 
REMARK    3  A    between atoms: N1_5  and  C5_7 
REMARK    4  A    between atoms: C6_10  and  N3_11 
REMARK    5  A    between atoms: C7_16  and  N5_17 
REMARK    6  A    between atoms: N5_17  and  C8_19 
REMARK    7  A    between atoms: C8_19  and  C9_20 
REMARK    8  A    between atoms: C9_20  and  C10_21 
REMARK    9  A    between atoms: C10_21  and  C11_22 
REMARK   10  A    between atoms: C11_22  and  N6_23 
ROOT
HETATM    1  C1  UNL     1       7.630   2.609   2.062  1.00  0.00     0.012 C 
HETATM    2  C2  UNL     1       6.472   2.271   1.959  1.00  0.00    -0.116 C 
HETATM    3  C3  UNL     1       5.080   1.862   1.841  1.00  0.00     0.113 C 
ENDROOT
BRANCH   3   4
HETATM    4  C4  UNL     1       4.480   2.417   0.552  1.00  0.00     0.150 C 
BRANCH   4   5
HETATM    5  N1  UNL     1       3.115   2.010   0.439  1.00  0.00    -0.224 N 
ATOM      6  H1  UNL     1       2.392   2.647   0.775  1.00  0.00     0.177 HD
BRANCH   5   7
HETATM    7  C5  UNL     1       2.751   0.894  -0.059  1.00  0.00     0.707 A 
HETATM    8  N2  UNL     1       3.637   0.005  -0.521  1.00  0.00    -0.022 N 
HETATM    9  C6  UNL     1       3.165  -1.168  -1.040  1.00  0.00     0.705 A 
ATOM     10  H2  UNL     1       4.638   0.197  -0.487  1.00  0.00     0.203 HD
HETATM   11  N4  UNL     1       1.846  -1.415  -1.081  1.00  0.00    -0.022 N 
HETATM   12  C7  UNL     1       0.940  -0.520  -0.615  1.00  0.00     0.707 A 
ATOM     13  H4  UNL     1       1.517  -2.298  -1.472  1.00  0.00     0.203 HD
HETATM   14  N7  UNL     1       1.415   0.615  -0.114  1.00  0.00    -0.022 N 
ATOM     15  H7  UNL     1       0.756   1.306   0.244  1.00  0.00     0.203 HD
BRANCH   9  16
HETATM   16  N3  UNL     1       4.010  -2.023  -1.484  1.00  0.00    -0.234 N 
ATOM     17  H32 UNL     1       5.012  -1.835  -1.453  1.00  0.00     0.174 HD
ATOM     18  H31 UNL     1       3.658  -2.898  -1.871  1.00  0.00     0.174 HD
ENDBRANCH   9  16
BRANCH  12  19
HETATM   19  N5  UNL     1      -0.331  -0.733  -0.642  1.00  0.00    -0.225 N 
ATOM     20  H5  UNL     1      -0.988  -0.040  -0.283  1.00  0.00     0.177 HD
BRANCH  19  21
HETATM   21  C8  UNL     1      -0.790  -1.963  -1.188  1.00  0.00     0.138 C 
BRANCH  21  22
HETATM   22  C9  UNL     1      -2.246  -2.242  -1.184  1.00  0.00     0.022 C 
BRANCH  22  23
HETATM   23  C10 UNL     1      -3.132  -1.295  -1.881  1.00  0.00     0.022 C 
BRANCH  23  24
HETATM   24  C11 UNL     1      -3.319   0.075  -1.354  1.00  0.00     0.128 C 
BRANCH  24  25
HETATM   25  N6  UNL     1      -4.011   0.159  -0.086  1.00  0.00    -0.366 N 
HETATM   26  C12 UNL     1      -5.383   0.244  -0.111  1.00  0.00     0.090 A 
HETATM   27  C13 UNL     1      -6.149   0.341   1.015  1.00  0.00     0.017 A 
HETATM   28  C14 UNL     1      -5.561   0.358   2.260  1.00  0.00     0.003 A 
HETATM   29  C15 UNL     1      -4.193   0.273   2.296  1.00  0.00     0.017 A 
HETATM   30  C16 UNL     1      -3.462   0.176   1.110  1.00  0.00     0.090 A 
ENDBRANCH  24  25
ENDBRANCH  23  24
ENDBRANCH  22  23
ENDBRANCH  21  22
ENDBRANCH  19  21
ENDBRANCH  12  19
ENDBRANCH   5   7
ENDBRANCH   4   5
ENDBRANCH   3   4
TORSDOF 10
