REMARK  8 active torsions:
REMARK  status: ('A' for Active; 'I' for Inactive)
REMARK    1  A    between atoms: N3_8  and  C4_10 
REMARK    2  A    between atoms: C4_10  and  C5_11 
REMARK    3  A    between atoms: C5_11  and  N4_12 
REMARK    4  A    between atoms: C6_16  and  S1_17 
REMARK    5  A    between atoms: S1_17  and  C7_19 
REMARK    6  A    between atoms: C7_19  and  C8_20 
REMARK    7  A    between atoms: C8_20  and  C9_21 
REMARK    8  A    between atoms: C9_21  and  C10_22 
ROOT
HETATM    1  C1  UNL     1      -1.083  -3.418  -0.998  1.00  0.00     0.071 C 
HETATM    2  C2  UNL     1      -2.010  -2.303  -0.582  1.00  0.00     0.045 A 
HETATM    3  N1  UNL     1      -3.206  -2.443  -0.007  1.00  0.00    -0.302 N 
ATOM      4  H1  UNL     1      -3.642  -3.335   0.227  1.00  0.00     0.186 HD
HETATM    5  N2  UNL     1      -3.742  -1.259   0.214  1.00  0.00    -0.284 N 
ATOM      6  H2  UNL     1      -4.654  -1.106   0.645  1.00  0.00     0.188 HD
HETATM    7  C3  UNL     1      -2.926  -0.285  -0.205  1.00  0.00     0.137 A 
HETATM    8  N3  UNL     1      -3.118   1.000  -0.152  1.00  0.00    -0.372 N 
ATOM      9  H3  UNL     1      -2.416   1.650  -0.507  1.00  0.00     0.161 HD
HETATM   10  C6  UNL     1      -1.793  -0.928  -0.727  1.00  0.00     0.100 A 
ENDROOT
BRANCH  10  11
HETATM   11  S1  UNL     1      -0.427  -0.186  -1.394  1.00  0.00     0.055 S 
HETATM   12  O1  UNL     1      -0.271   0.029  -2.961  1.00  0.00    -0.253 OA
BRANCH  11  13
HETATM   13  C7  UNL     1       0.887   0.087  -0.325  1.00  0.00     0.114 C 
BRANCH  13  14
HETATM   14  C8  UNL     1       1.440  -1.173   0.295  1.00  0.00     0.017 C 
BRANCH  14  15
HETATM   15  C9  UNL     1       2.560  -0.858   1.223  1.00  0.00     0.039 C 
BRANCH  15  16
HETATM   16  C10 UNL     1       3.680  -0.188   0.550  1.00  0.00    -0.052 A 
HETATM   17  C11 UNL     1       4.660  -0.933  -0.080  1.00  0.00     0.024 A 
HETATM   18  C12 UNL     1       5.708  -0.276  -0.676  1.00  0.00     0.092 A 
HETATM   19  N5  UNL     1       5.787   1.055  -0.652  1.00  0.00    -0.334 N 
HETATM   20  C13 UNL     1       4.840   1.814  -0.040  1.00  0.00     0.245 A 
ATOM     21  H5  UNL     1       6.577   1.515  -1.104  1.00  0.00     0.168 HD
HETATM   22  O2  UNL     1       4.966   3.062  -0.049  1.00  0.00    -0.268 OA
HETATM   23  C14 UNL     1       3.801   1.177   0.551  1.00  0.00     0.081 A 
ENDBRANCH  15  16
ENDBRANCH  14  15
ENDBRANCH  13  14
ENDBRANCH  11  13
ENDBRANCH  10  11
BRANCH   8  24
HETATM   24  C4  UNL     1      -4.344   1.479   0.419  1.00  0.00     0.148 C 
BRANCH  24  25
HETATM   25  C5  UNL     1      -4.613   2.862  -0.141  1.00  0.00     0.249 C 
BRANCH  25  26
HETATM   26  N4  UNL     1      -3.519   3.741   0.209  1.00  0.00    -0.078 N 
ATOM     27  H43 UNL     1      -3.343   3.758   1.214  1.00  0.00     0.274 HD
ATOM     28  H42 UNL     1      -2.616   3.372  -0.090  1.00  0.00     0.274 HD
ATOM     29  H41 UNL     1      -3.700   4.671  -0.168  1.00  0.00     0.274 HD
ENDBRANCH  25  26
ENDBRANCH  24  25
ENDBRANCH   8  24
TORSDOF 8
