REMARK  10 active torsions:
REMARK  status: ('A' for Active; 'I' for Inactive)
REMARK    1  A    between atoms: C1_4  and  C2_5 
REMARK    2  A    between atoms: C1_4  and  N3_12 
REMARK    3  A    between atoms: C2_5  and  C3_6 
REMARK    4  A    between atoms: C3_6  and  C4_7 
REMARK    5  A    between atoms: C4_7  and  N2_8 
REMARK    6  A    between atoms: N3_12  and  C5_14 
REMARK    7  A    between atoms: C5_14  and  C6_15 
REMARK    8  A    between atoms: C9_18  and  C10_19 
REMARK    9  A    between atoms: C10_19  and  C11_20 
REMARK   10  A    between atoms: N4_21  and  N5_23 
ROOT
HETATM    1  C6  UNL     1      -1.095  -1.493   1.058  1.00  0.00     0.001 A 
HETATM    2  C7  UNL     1      -0.510  -2.306   0.123  1.00  0.00     0.017 A 
HETATM    3  C8  UNL     1       0.157  -1.719  -0.874  1.00  0.00     0.016 A 
HETATM    4  C9  UNL     1       0.207  -0.351  -0.886  1.00  0.00    -0.012 A 
HETATM    5  S1  UNL     1      -0.688   0.067   0.508  1.00  0.00    -0.097 SA
ENDROOT
BRANCH   1   6
HETATM    6  C5  UNL     1      -1.885  -1.875   2.261  1.00  0.00     0.167 C 
BRANCH   6   7
HETATM    7  N3  UNL     1      -2.407  -0.673   2.856  1.00  0.00    -0.375 N 
ATOM      8  H3  UNL     1      -2.144  -0.400   3.803  1.00  0.00     0.161 HD
BRANCH   7   9
HETATM    9  C1  UNL     1      -3.306   0.130   2.081  1.00  0.00     0.070 C 
HETATM   10  N1  UNL     1      -3.209   1.399   2.100  1.00  0.00    -0.389 N 
ATOM     11  H12 UNL     1      -3.849   1.971   1.548  1.00  0.00     0.157 HD
ATOM     12  H11 UNL     1      -2.491   1.880   2.641  1.00  0.00     0.157 HD
BRANCH   9  13
HETATM   13  C2  UNL     1      -4.338  -0.561   1.303  1.00  0.00     0.077 C 
BRANCH  13  14
HETATM   14  C3  UNL     1      -5.096   0.338   0.406  1.00  0.00     0.034 C 
BRANCH  14  15
HETATM   15  C4  UNL     1      -4.325   1.020  -0.669  1.00  0.00     0.230 C 
BRANCH  15  16
HETATM   16  N2  UNL     1      -5.185   1.873  -1.485  1.00  0.00    -0.079 N 
ATOM     17  H23 UNL     1      -5.975   1.352  -1.865  1.00  0.00     0.274 HD
ATOM     18  H22 UNL     1      -5.699   2.542  -0.912  1.00  0.00     0.274 HD
ATOM     19  H21 UNL     1      -4.657   2.340  -2.222  1.00  0.00     0.274 HD
ENDBRANCH  15  16
ENDBRANCH  14  15
ENDBRANCH  13  14
ENDBRANCH   9  13
ENDBRANCH   7   9
ENDBRANCH   6   7
ENDBRANCH   1   6
BRANCH   4  20
HETATM   20  C10 UNL     1       0.890   0.543  -1.891  1.00  0.00     0.092 C 
BRANCH  20  21
HETATM   21  C11 UNL     1       2.276   0.743  -1.373  1.00  0.00     0.085 C 
HETATM   22  N4  UNL     1       3.251   0.007  -1.756  1.00  0.00    -0.310 N 
ATOM     23  H4  UNL     1       3.103  -0.742  -2.433  1.00  0.00     0.186 HD
BRANCH  22  24
HETATM   24  N5  UNL     1       4.521   0.250  -1.229  1.00  0.00    -0.279 N 
HETATM   25  C12 UNL     1       5.319   1.183  -1.777  1.00  0.00     0.115 A 
HETATM   26  C13 UNL     1       6.578   1.489  -1.328  1.00  0.00     0.019 A 
HETATM   27  C14 UNL     1       7.046   0.784  -0.237  1.00  0.00     0.003 A 
HETATM   28  C15 UNL     1       6.221  -0.179   0.330  1.00  0.00     0.019 A 
HETATM   29  C16 UNL     1       4.961  -0.459  -0.151  1.00  0.00     0.115 A 
ENDBRANCH  22  24
ENDBRANCH  20  21
ENDBRANCH   4  20
TORSDOF 10
