REMARK  10 active torsions:
REMARK  status: ('A' for Active; 'I' for Inactive)
REMARK    1  A    between atoms: N1_2  and  C2_4 
REMARK    2  A    between atoms: C5_7  and  C6_8 
REMARK    3  A    between atoms: C6_8  and  C7_9 
REMARK    4  A    between atoms: C7_9  and  N2_10 
REMARK    5  A    between atoms: N2_10  and  C8_12 
REMARK    6  A    between atoms: C9_17  and  N5_18 
REMARK    7  A    between atoms: N5_18  and  C10_20 
REMARK    8  A    between atoms: C10_20  and  C11_21 
REMARK    9  A    between atoms: C11_21  and  C12_22 
REMARK   10  A    between atoms: C12_22  and  O1_23 
ROOT
HETATM    1  C8  UNL     1       0.405  -2.193  -0.696  1.00  0.00     0.707 A 
HETATM    2  N3  UNL     1       1.559  -2.902  -0.561  1.00  0.00    -0.117 N 
ATOM      3  H3  UNL     1       1.635  -3.918  -0.607  1.00  0.00     0.206 HD
HETATM    4  N4  UNL     1       2.567  -2.069  -0.361  1.00  0.00    -0.117 N 
ATOM      5  H4  UNL     1       3.543  -2.333  -0.227  1.00  0.00     0.206 HD
HETATM    6  C9  UNL     1       2.083  -0.814  -0.364  1.00  0.00     0.707 A 
HETATM    7  N6  UNL     1       0.761  -0.904  -0.570  1.00  0.00    -0.020 N 
ATOM      8  H6  UNL     1       0.121  -0.112  -0.623  1.00  0.00     0.203 HD
ENDROOT
BRANCH   1   9
HETATM    9  N2  UNL     1      -0.782  -2.677  -0.904  1.00  0.00    -0.224 N 
ATOM     10  H2  UNL     1      -0.942  -3.681  -0.985  1.00  0.00     0.177 HD
BRANCH   9  11
HETATM   11  C7  UNL     1      -1.868  -1.726  -1.015  1.00  0.00     0.142 C 
BRANCH  11  12
HETATM   12  C6  UNL     1      -2.281  -1.365   0.407  1.00  0.00     0.060 C 
BRANCH  12  13
HETATM   13  C5  UNL     1      -3.390  -0.395   0.358  1.00  0.00    -0.041 A 
HETATM   14  C4  UNL     1      -3.160   0.954   0.336  1.00  0.00     0.012 A 
HETATM   15  C3  UNL     1      -4.229   1.813   0.290  1.00  0.00     0.049 A 
HETATM   16  C2  UNL     1      -5.531   1.360   0.267  1.00  0.00     0.100 A 
HETATM   17  N7  UNL     1      -5.692   0.028   0.291  1.00  0.00    -0.352 N 
HETATM   18  C14 UNL     1      -4.679  -0.854   0.336  1.00  0.00     0.096 A 
ATOM     19  H7  UNL     1      -6.644  -0.338   0.274  1.00  0.00     0.166 HD
BRANCH  16  20
HETATM   20  N1  UNL     1      -6.509   2.187   0.224  1.00  0.00    -0.381 N 
HETATM   21  C1  UNL     1      -7.894   1.774   0.198  1.00  0.00     0.147 C 
ATOM     22  H1  UNL     1      -6.300   3.185   0.207  1.00  0.00     0.160 HD
ENDBRANCH  16  20
ENDBRANCH  12  13
ENDBRANCH  11  12
ENDBRANCH   9  11
ENDBRANCH   1   9
BRANCH   6  23
HETATM   23  N5  UNL     1       2.721   0.314  -0.203  1.00  0.00    -0.224 N 
ATOM     24  H5  UNL     1       2.249   1.218  -0.223  1.00  0.00     0.177 HD
BRANCH  23  25
HETATM   25  C10 UNL     1       4.199   0.181   0.014  1.00  0.00     0.140 C 
BRANCH  25  26
HETATM   26  C11 UNL     1       4.617   1.476   0.589  1.00  0.00     0.046 C 
BRANCH  26  27
HETATM   27  C12 UNL     1       6.002   1.712   1.004  1.00  0.00     0.168 C 
BRANCH  27  28
HETATM   28  O1  UNL     1       7.004   1.654   0.136  1.00  0.00    -0.396 OA
HETATM   29  C13 UNL     1       7.400   0.546  -0.521  1.00  0.00     0.201 C 
ENDBRANCH  27  28
ENDBRANCH  26  27
ENDBRANCH  25  26
ENDBRANCH  23  25
ENDBRANCH   6  23
TORSDOF 10
