REMARK  7 active torsions:
REMARK  status: ('A' for Active; 'I' for Inactive)
REMARK    1  A    between atoms: N2_4  and  C3_5 
REMARK    2  A    between atoms: C3_5  and  C4_6 
REMARK    3  A    between atoms: C4_6  and  C5_7 
REMARK    4  A    between atoms: C5_7  and  C6_8 
REMARK    5  A    between atoms: C6_8  and  C7_9 
REMARK    6  A    between atoms: C7_9  and  N3_10 
REMARK    7  A    between atoms: C12_16  and  C13_17 
ROOT
HETATM    1  C7  UNL     1      -1.873   0.719  -0.965  1.00  0.00     0.129 C 
ENDROOT
BRANCH   1   2
HETATM    2  C6  UNL     1      -0.801   0.528   0.070  1.00  0.00     0.020 C 
BRANCH   2   3
HETATM    3  C5  UNL     1       0.592   0.453  -0.473  1.00  0.00     0.003 C 
BRANCH   3   4
HETATM    4  C4  UNL     1       0.856  -0.656  -1.433  1.00  0.00     0.020 C 
BRANCH   4   5
HETATM    5  C3  UNL     1       2.247  -0.708  -1.963  1.00  0.00     0.129 C 
BRANCH   5   6
HETATM    6  N2  UNL     1       3.267  -0.876  -0.978  1.00  0.00    -0.353 N 
HETATM    7  C2  UNL     1       3.827   0.219  -0.424  1.00  0.00     0.186 A 
HETATM    8  N1  UNL     1       4.794   0.164   0.510  1.00  0.00    -0.336 N 
HETATM    9  C1  UNL     1       5.355   1.359   1.067  1.00  0.00     0.158 C 
HETATM   10  C16 UNL     1       5.207  -1.062   0.897  1.00  0.00     0.120 A 
HETATM   11  C15 UNL     1       4.653  -2.198   0.348  1.00  0.00     0.062 A 
HETATM   12  N7  UNL     1       6.231  -1.162   1.886  1.00  0.00    -0.083 NA
HETATM   13  C14 UNL     1       3.664  -2.129  -0.608  1.00  0.00     0.095 A 
ENDBRANCH   5   6
ENDBRANCH   4   5
ENDBRANCH   3   4
ENDBRANCH   2   3
ENDBRANCH   1   2
BRANCH   1  14
HETATM   14  N3  UNL     1      -3.199   0.815  -0.410  1.00  0.00    -0.352 N 
HETATM   15  C8  UNL     1      -3.642   2.060  -0.006  1.00  0.00     0.117 A 
HETATM   16  C9  UNL     1      -4.874   2.265   0.556  1.00  0.00     0.061 A 
HETATM   17  N4  UNL     1      -5.279   3.577   0.955  1.00  0.00    -0.101 NA
HETATM   18  C10 UNL     1      -5.736   1.211   0.743  1.00  0.00     0.030 A 
HETATM   19  C11 UNL     1      -5.301  -0.017   0.345  1.00  0.00     0.035 A 
HETATM   20  C12 UNL     1      -4.018  -0.205  -0.236  1.00  0.00     0.075 A 
BRANCH  20  21
HETATM   21  C13 UNL     1      -3.717  -1.561  -0.623  1.00  0.00     0.137 C 
HETATM   22  N5  UNL     1      -2.652  -1.917  -1.193  1.00  0.00    -0.386 N 
ATOM     23  H52 UNL     1      -1.977  -1.176  -1.383  1.00  0.00     0.157 HD
ATOM     24  H51 UNL     1      -2.439  -2.876  -1.467  1.00  0.00     0.157 HD
HETATM   25  N6  UNL     1      -4.656  -2.592  -0.359  1.00  0.00    -0.081 NA
ENDBRANCH  20  21
ENDBRANCH   1  14
TORSDOF 7
