REMARK  3 active torsions:
REMARK  status: ('A' for Active; 'I' for Inactive)
REMARK    1  A    between atoms: C3_5  and  C4_6 
REMARK    2  A    between atoms: C4_6  and  C5_7 
REMARK    3  A    between atoms: C15_17  and  C16_18 
ROOT
HETATM    1  C4  UNL     1       0.151  -0.927  -1.193  1.00  0.00     0.062 C 
ENDROOT
BRANCH   1   2
HETATM    2  C3  UNL     1       1.571  -0.714  -0.816  1.00  0.00     0.011 A 
HETATM    3  N1  UNL     1       2.478  -1.654  -0.523  1.00  0.00    -0.360 N 
HETATM    4  C2  UNL     1       3.662  -1.097  -0.227  1.00  0.00     0.033 A 
ATOM      5  H1  UNL     1       2.294  -2.657  -0.525  1.00  0.00     0.166 HD
HETATM    6  C1  UNL     1       4.765  -1.736   0.105  1.00  0.00     0.044 C 
HETATM    7  C15 UNL     1       3.508   0.267  -0.335  1.00  0.00    -0.013 A 
HETATM    8  C14 UNL     1       2.182   0.516  -0.709  1.00  0.00     0.038 A 
BRANCH   7   9
HETATM    9  C16 UNL     1       4.462   1.158  -0.118  1.00  0.00    -0.017 C 
HETATM   10  C17 UNL     1       4.111   2.594  -0.283  1.00  0.00     0.037 C 
ENDBRANCH   7   9
ENDBRANCH   1   2
BRANCH   1  11
HETATM   11  C5  UNL     1      -0.648  -0.927   0.053  1.00  0.00    -0.004 C 
HETATM   12  C6  UNL     1      -0.594   0.317   0.867  1.00  0.00     0.010 C 
HETATM   13  C7  UNL     1      -1.835   0.231   1.733  1.00  0.00    -0.014 C 
HETATM   14  C8  UNL     1      -2.775   1.315   1.275  1.00  0.00     0.005 C 
HETATM   15  C13 UNL     1      -2.536  -1.083   1.354  1.00  0.00     0.010 C 
HETATM   16  C9  UNL     1      -3.370   1.101  -0.060  1.00  0.00     0.005 C 
HETATM   17  C10 UNL     1      -2.779   0.009  -0.885  1.00  0.00    -0.014 C 
HETATM   18  C11 UNL     1      -3.844  -0.584  -1.818  1.00  0.00     0.010 C 
HETATM   19  C12 UNL     1      -2.145  -1.099  -0.139  1.00  0.00    -0.006 C 
ENDBRANCH   1  11
TORSDOF 3
