REMARK  4 active torsions:
REMARK  status: ('A' for Active; 'I' for Inactive)
REMARK    1  A    between atoms: C3_3  and  C4_4 
REMARK    2  A    between atoms: C4_4  and  C5_5 
REMARK    3  A    between atoms: C6_6  and  C7_7 
REMARK    4  A    between atoms: N1_11  and  C11_12 
ROOT
HETATM    1  C1  UNL     1       8.783   0.035   0.318  1.00  0.00     0.012 C 
HETATM    2  C2  UNL     1       7.585  -0.096   0.425  1.00  0.00    -0.117 C 
HETATM    3  C3  UNL     1       6.138  -0.258   0.569  1.00  0.00     0.105 C 
ENDROOT
BRANCH   3   4
HETATM    4  C4  UNL     1       5.400   0.546  -0.498  1.00  0.00     0.106 C 
BRANCH   4   5
HETATM    5  C5  UNL     1       3.958   0.393  -0.365  1.00  0.00    -0.099 C 
HETATM    6  C6  UNL     1       2.767   0.273  -0.238  1.00  0.00    -0.049 C 
BRANCH   6   7
HETATM    7  C7  UNL     1       1.330   0.132  -0.064  1.00  0.00     0.088 A 
HETATM    8  C8  UNL     1       0.355   0.723  -0.831  1.00  0.00     0.054 A 
HETATM    9  C9  UNL     1      -0.853   0.323  -0.322  1.00  0.00     0.009 A 
HETATM   10  C10 UNL     1      -2.186   0.574  -0.652  1.00  0.00     0.104 A 
HETATM   11  C17 UNL     1      -0.569  -0.502   0.743  1.00  0.00     0.052 A 
HETATM   12  N1  UNL     1      -3.207   0.037   0.034  1.00  0.00    -0.361 N 
HETATM   13  C14 UNL     1      -2.907  -0.769   1.075  1.00  0.00     0.100 A 
HETATM   14  C15 UNL     1      -1.610  -1.053   1.447  1.00  0.00    -0.019 A 
HETATM   15  C16 UNL     1      -1.311  -1.943   2.596  1.00  0.00     0.052 C 
HETATM   16  N2  UNL     1       0.761  -0.610   0.890  1.00  0.00    -0.348 N 
ATOM     17  H2  UNL     1       1.248  -1.158   1.600  1.00  0.00     0.167 HD
BRANCH  12  18
HETATM   18  C11 UNL     1      -4.585   0.321  -0.338  1.00  0.00     0.080 C 
HETATM   19  C12 UNL     1      -4.878   1.763  -0.063  1.00  0.00     0.032 C 
HETATM   20  C13 UNL     1      -4.868  -0.002  -1.774  1.00  0.00     0.032 C 
ENDBRANCH  12  18
ENDBRANCH   6   7
ENDBRANCH   4   5
ENDBRANCH   3   4
TORSDOF 4
