REMARK  3 active torsions:
REMARK  status: ('A' for Active; 'I' for Inactive)
REMARK    1  A    between atoms: N1_10  and  C11_12 
REMARK    2  A    between atoms: C11_12  and  C12_13 
REMARK    3  A    between atoms: C12_13  and  N2_14 
ROOT
HETATM    1  C1  UNL     1      -3.076   0.800  -1.729  1.00  0.00     0.011 C 
HETATM    2  C2  UNL     1      -1.722   0.400  -1.144  1.00  0.00    -0.001 C 
HETATM    3  C3  UNL     1      -1.737  -1.089  -0.936  1.00  0.00     0.021 C 
HETATM    4  C4  UNL     1      -2.902  -1.151   0.076  1.00  0.00     0.015 C 
HETATM    5  C5  UNL     1      -2.251  -0.220   1.055  1.00  0.00     0.003 C 
HETATM    6  C6  UNL     1      -0.981  -1.040   1.380  1.00  0.00     0.021 C 
HETATM    7  C7  UNL     1      -0.188   0.091   1.935  1.00  0.00     0.016 C 
HETATM    8  C8  UNL     1      -0.192   1.040   0.775  1.00  0.00     0.022 C 
HETATM    9  C9  UNL     1       0.915   0.942  -0.165  1.00  0.00     0.248 C 
HETATM   10  N1  UNL     1       1.532  -0.319  -0.447  1.00  0.00    -0.049 N 
HETATM   11  C10 UNL     1       2.055  -0.115  -1.821  1.00  0.00     0.278 C 
HETATM   12  C13 UNL     1       0.718  -1.469  -0.479  1.00  0.00     0.205 C 
HETATM   13  C14 UNL     1      -0.633  -1.536   0.043  1.00  0.00    -0.047 C 
HETATM   14  C15 UNL     1      -1.584   0.899   0.241  1.00  0.00    -0.031 C 
HETATM   15  C16 UNL     1      -2.448   2.137   0.496  1.00  0.00     0.016 C 
ENDROOT
BRANCH  10  16
HETATM   16  C11 UNL     1       2.641  -0.521   0.468  1.00  0.00     0.269 C 
BRANCH  16  17
HETATM   17  C12 UNL     1       3.995  -0.668  -0.095  1.00  0.00     0.257 C 
BRANCH  17  18
HETATM   18  N2  UNL     1       4.495   0.466  -0.851  1.00  0.00    -0.078 N 
ATOM     19  H23 UNL     1       3.836   0.706  -1.592  1.00  0.00     0.274 HD
ATOM     20  H22 UNL     1       4.446   1.311  -0.281  1.00  0.00     0.274 HD
ATOM     21  H21 UNL     1       5.432   0.364  -1.241  1.00  0.00     0.274 HD
ENDBRANCH  17  18
ENDBRANCH  16  17
ENDBRANCH  10  16
TORSDOF 3
