REMARK  2 active torsions:
REMARK  status: ('A' for Active; 'I' for Inactive)
REMARK    1  A    between atoms: C3_3  and  C4_4 
REMARK    2  A    between atoms: C4_4  and  N1_5 
ROOT
HETATM    1  C1  UNL     1       1.933   3.164   1.120  1.00  0.00     0.012 C 
HETATM    2  C2  UNL     1       1.635   2.399   0.241  1.00  0.00    -0.115 C 
HETATM    3  C3  UNL     1       1.278   1.517  -0.824  1.00  0.00     0.133 C 
ENDROOT
BRANCH   3   4
HETATM    4  C4  UNL     1       0.644   0.195  -0.387  1.00  0.00     0.144 C 
HETATM    5  C8  UNL     1       0.278  -0.473  -1.691  1.00  0.00     0.051 C 
HETATM    6  C9  UNL     1      -1.214  -0.756  -1.815  1.00  0.00     0.034 C 
HETATM    7  C10 UNL     1      -1.826   0.654  -1.954  1.00  0.00     0.015 C 
HETATM    8  C15 UNL     1      -1.804  -1.226  -0.538  1.00  0.00    -0.007 C 
HETATM    9  C11 UNL     1      -1.548   1.369  -0.689  1.00  0.00    -0.005 C 
HETATM   10  C12 UNL     1      -2.651   0.918   0.287  1.00  0.00     0.020 C 
HETATM   11  C16 UNL     1      -0.611   0.669   0.285  1.00  0.00     0.041 C 
HETATM   12  C13 UNL     1      -1.691  -0.270   0.564  1.00  0.00     0.001 C 
HETATM   13  C14 UNL     1      -1.991  -0.737   1.944  1.00  0.00     0.022 C 
HETATM   14  N2  UNL     1      -2.346  -2.346  -0.453  1.00  0.00    -0.405 N 
ATOM     15  H22 UNL     1      -2.425  -3.012  -1.221  1.00  0.00     0.155 HD
ATOM     16  H21 UNL     1      -2.752  -2.669   0.425  1.00  0.00     0.155 HD
BRANCH   4  17
HETATM   17  N1  UNL     1       1.515  -0.570   0.427  1.00  0.00    -0.068 N 
HETATM   18  C5  UNL     1       2.865  -0.413  -0.165  1.00  0.00     0.272 C 
HETATM   19  C6  UNL     1       1.308  -1.996   0.457  1.00  0.00     0.272 C 
HETATM   20  C7  UNL     1       1.650  -0.198   1.795  1.00  0.00     0.272 C 
ENDBRANCH   4  17
ENDBRANCH   3   4
TORSDOF 2
