REMARK  6 active torsions:
REMARK  status: ('A' for Active; 'I' for Inactive)
REMARK    1  A    between atoms: C3_5  and  C4_6 
REMARK    2  A    between atoms: N2_11  and  C9_12 
REMARK    3  A    between atoms: C9_12  and  C10_13 
REMARK    4  A    between atoms: C11_14  and  C12_15 
REMARK    5  A    between atoms: C13_16  and  C14_17 
REMARK    6  A    between atoms: C14_17  and  C15_18 
ROOT
HETATM    1  C1  UNL     1      -0.394   0.198   2.375  1.00  0.00     0.064 C 
HETATM    2  C2  UNL     1      -1.381  -0.120   1.588  1.00  0.00     0.098 A 
HETATM    3  N1  UNL     1      -2.311   0.907   1.229  1.00  0.00    -0.346 N 
ATOM      4  H1  UNL     1      -2.197   1.860   1.575  1.00  0.00     0.167 HD
HETATM    5  C3  UNL     1      -3.391   0.566   0.383  1.00  0.00     0.015 A 
HETATM    6  C7  UNL     1      -3.492  -0.682  -0.037  1.00  0.00     0.042 A 
HETATM    7  C8  UNL     1      -2.534  -1.677   0.350  1.00  0.00     0.095 A 
HETATM    8  N2  UNL     1      -1.520  -1.451   1.118  1.00  0.00    -0.333 N 
ENDROOT
BRANCH   8   9
HETATM    9  C9  UNL     1      -0.627  -2.520   1.418  1.00  0.00     0.224 C 
BRANCH   9  10
HETATM   10  C10 UNL     1       0.673  -2.310   0.764  1.00  0.00    -0.072 C 
HETATM   11  C11 UNL     1       1.742  -2.130   0.202  1.00  0.00    -0.013 C 
BRANCH  11  12
HETATM   12  C12 UNL     1       2.973  -1.907  -0.471  1.00  0.00    -0.015 C 
HETATM   13  C13 UNL     1       4.011  -1.707  -1.061  1.00  0.00    -0.092 C 
BRANCH  13  14
HETATM   14  C14 UNL     1       5.255  -1.451  -1.794  1.00  0.00     0.094 C 
BRANCH  14  15
HETATM   15  C15 UNL     1       5.706  -0.051  -1.436  1.00  0.00     0.007 C 
HETATM   16  C16 UNL     1       6.989   0.294  -2.151  1.00  0.00     0.006 C 
ENDBRANCH  14  15
ENDBRANCH  13  14
ENDBRANCH  11  12
ENDBRANCH   9  10
ENDBRANCH   8   9
BRANCH   5  17
HETATM   17  C4  UNL     1      -4.392   1.589  -0.029  1.00  0.00     0.027 C 
HETATM   18  C5  UNL     1      -5.173   2.117   1.132  1.00  0.00     0.016 C 
HETATM   19  C6  UNL     1      -3.633   2.690  -0.779  1.00  0.00     0.016 C 
ENDBRANCH   5  17
TORSDOF 6
