REMARK  5 active torsions:
REMARK  status: ('A' for Active; 'I' for Inactive)
REMARK    1  A    between atoms: C4_4  and  C5_5 
REMARK    2  A    between atoms: N2_11  and  C9_12 
REMARK    3  A    between atoms: C9_12  and  C10_13 
REMARK    4  A    between atoms: C11_14  and  C12_15 
REMARK    5  A    between atoms: C13_16  and  C14_17 
ROOT
HETATM    1  C5  UNL     1      -2.081  -0.975  -0.301  1.00  0.00     0.058 A 
HETATM    2  C6  UNL     1      -2.448  -2.229   0.125  1.00  0.00     0.033 A 
HETATM    3  C7  UNL     1      -3.378  -2.652   1.208  1.00  0.00     0.070 C 
HETATM    4  N1  UNL     1      -1.749  -3.120  -0.644  1.00  0.00    -0.354 N 
ATOM      5  H1  UNL     1      -1.797  -4.137  -0.579  1.00  0.00     0.166 HD
HETATM    6  C8  UNL     1      -0.988  -2.417  -1.499  1.00  0.00     0.184 A 
HETATM    7  N2  UNL     1      -1.171  -1.101  -1.312  1.00  0.00    -0.330 N 
ENDROOT
BRANCH   7   8
HETATM    8  C9  UNL     1      -0.497  -0.051  -2.060  1.00  0.00     0.224 C 
BRANCH   8   9
HETATM    9  C10 UNL     1       0.789   0.296  -1.402  1.00  0.00    -0.072 C 
HETATM   10  C11 UNL     1       1.840   0.553  -0.871  1.00  0.00    -0.013 C 
BRANCH  10  11
HETATM   11  C12 UNL     1       3.090   0.832  -0.253  1.00  0.00    -0.015 C 
HETATM   12  C13 UNL     1       4.162   1.054   0.258  1.00  0.00    -0.088 C 
BRANCH  12  13
HETATM   13  C14 UNL     1       5.468   1.299   0.873  1.00  0.00     0.058 C 
HETATM   14  C15 UNL     1       6.065   2.564   0.313  1.00  0.00     0.023 C 
HETATM   15  C16 UNL     1       6.353   0.103   0.674  1.00  0.00     0.023 C 
ENDBRANCH  12  13
ENDBRANCH  10  11
ENDBRANCH   8   9
ENDBRANCH   7   8
BRANCH   1  16
HETATM   16  C4  UNL     1      -2.544   0.321   0.146  1.00  0.00     0.033 C 
HETATM   17  C2  UNL     1      -3.764   0.764   0.221  1.00  0.00    -0.085 C 
HETATM   18  C1  UNL     1      -4.918  -0.050  -0.170  1.00  0.00     0.043 C 
HETATM   19  C3  UNL     1      -3.999   2.150   0.723  1.00  0.00     0.043 C 
ENDBRANCH   1  16
TORSDOF 5
