REMARK  8 active torsions:
REMARK  status: ('A' for Active; 'I' for Inactive)
REMARK       I    between atoms: C1_4  and  N2_5 
REMARK       I    between atoms: C1_4  and  N9_31 
REMARK    1  A    between atoms: N2_5  and  C2_7 
REMARK    2  A    between atoms: C2_7  and  C3_8 
REMARK    3  A    between atoms: C3_8  and  N3_9 
REMARK    4  A    between atoms: N3_9  and  C4_11 
REMARK    5  A    between atoms: N5_17  and  O1_19 
REMARK    6  A    between atoms: O1_19  and  N6_20 
REMARK    7  A    between atoms: C8_25  and  O2_26 
REMARK    8  A    between atoms: N9_31  and  N10_33 
ROOT
HETATM    1  C4  UNL     1      -0.632  -0.484  -0.500  1.00  0.00     0.679 C 
HETATM    2  N4  UNL     1      -0.915  -0.259  -1.759  1.00  0.00    -0.224 N 
ATOM      3  H4  UNL     1      -0.235  -0.078  -2.498  1.00  0.00     0.177 HD
HETATM    4  C5  UNL     1      -2.380  -0.310  -1.933  1.00  0.00     0.172 C 
HETATM    5  C6  UNL     1      -2.800   0.120  -0.525  1.00  0.00     0.198 C 
HETATM    6  C7  UNL     1      -4.175  -0.171  -0.174  1.00  0.00     0.128 C 
HETATM    7  N5  UNL     1      -5.121   0.601  -0.558  1.00  0.00    -0.228 N 
ATOM      8  H5  UNL     1      -6.091   0.399  -0.314  1.00  0.00     0.198 HD
HETATM    9  N7  UNL     1      -4.452  -1.316   0.619  1.00  0.00    -0.343 N 
ATOM     10  H7  UNL     1      -5.326  -1.819   0.466  1.00  0.00     0.164 HD
HETATM   11  C8  UNL     1      -3.543  -1.795   1.635  1.00  0.00     0.314 C 
HETATM   12  C9  UNL     1      -2.129  -1.429   1.373  1.00  0.00     0.287 C 
HETATM   13  O3  UNL     1      -1.251  -1.787   2.158  1.00  0.00    -0.267 OA
HETATM   14  N8  UNL     1      -1.834  -0.676   0.222  1.00  0.00    -0.134 N 
ENDROOT
BRANCH   1  15
HETATM   15  N3  UNL     1       0.704  -0.512   0.054  1.00  0.00    -0.225 N 
ATOM     16  H3  UNL     1       0.909  -1.099   0.862  1.00  0.00     0.177 HD
BRANCH  15  17
HETATM   17  C3  UNL     1       1.749   0.293  -0.539  1.00  0.00     0.158 C 
BRANCH  17  18
HETATM   18  C2  UNL     1       2.982   0.188   0.308  1.00  0.00     0.158 C 
BRANCH  18  19
HETATM   19  N2  UNL     1       4.050   0.996  -0.261  1.00  0.00    -0.224 N 
HETATM   20  C1  UNL     1       5.312   1.100   0.379  1.00  0.00     0.691 C 
HETATM   21  N1  UNL     1       5.708   2.223   0.921  1.00  0.00    -0.233 N 
HETATM   22  N9  UNL     1       6.144  -0.039   0.425  1.00  0.00    -0.072 N 
ATOM     23  H12 UNL     1       5.107   3.046   0.888  1.00  0.00     0.174 HD
ATOM     24  H11 UNL     1       6.615   2.298   1.381  1.00  0.00     0.174 HD
ATOM     25  H9  UNL     1       6.277  -0.552   1.297  1.00  0.00     0.212 HD
ATOM     26  H2  UNL     1       3.889   1.496  -1.135  1.00  0.00     0.177 HD
BRANCH  22  27
HETATM   27  N10 UNL     1       6.778  -0.447  -0.740  1.00  0.00    -0.024 N 
HETATM   28  O4  UNL     1       6.501  -1.545  -1.249  1.00  0.00    -0.516 OA
HETATM   29  O5  UNL     1       7.708   0.364  -1.333  1.00  0.00    -0.516 OA
ENDBRANCH  22  27
ENDBRANCH  18  19
ENDBRANCH  17  18
ENDBRANCH  15  17
ENDBRANCH   1  15
BRANCH  11  30
HETATM   30  O2  UNL     1      -3.701  -3.178   1.728  1.00  0.00    -0.368 OA
ATOM     31  H2  UNL     1      -3.103  -3.493   2.396  1.00  0.00     0.212 HD
ENDBRANCH  11  30
BRANCH   7  32
HETATM   32  O1  UNL     1      -4.801   1.706  -1.305  1.00  0.00    -0.163 OA
BRANCH  32  33
HETATM   33  N6  UNL     1      -4.741   2.908  -0.637  1.00  0.00    -0.286 N 
ATOM     34  H62 UNL     1      -4.928   2.958   0.364  1.00  0.00     0.186 HD
ATOM     35  H61 UNL     1      -4.503   3.730  -1.192  1.00  0.00     0.186 HD
ENDBRANCH  32  33
ENDBRANCH   7  32
TORSDOF 8
