REMARK  7 active torsions:
REMARK  status: ('A' for Active; 'I' for Inactive)
REMARK    1  A    between atoms: N1_1  and  C1_4 
REMARK    2  A    between atoms: C2_7  and  N3_8 
REMARK    3  A    between atoms: N6_16  and  C4_17 
REMARK    4  A    between atoms: C4_17  and  C5_18 
REMARK    5  A    between atoms: C6_20  and  N7_21 
REMARK    6  A    between atoms: N7_21  and  N8_22 
REMARK       I    between atoms: N8_22  and  C7_24 
REMARK    7  A    between atoms: C9_31  and  O4_32 
ROOT
HETATM    1  C1  UNL     1      -3.646   2.094   0.077  1.00  0.00     0.679 A 
HETATM    2  N2  UNL     1      -4.782   1.519  -0.342  1.00  0.00    -0.175 N 
ATOM      3  H2  UNL     1      -5.550   2.126  -0.628  1.00  0.00     0.186 HD
HETATM    4  C2  UNL     1      -4.968   0.191  -0.407  1.00  0.00     0.147 A 
HETATM    5  C3  UNL     1      -3.929  -0.650  -0.017  1.00  0.00     0.140 A 
HETATM    6  N4  UNL     1      -3.748  -1.960   0.057  1.00  0.00    -0.279 N 
ATOM      7  H4  UNL     1      -4.441  -2.664  -0.197  1.00  0.00     0.189 HD
HETATM    8  N5  UNL     1      -2.540  -2.215   0.507  1.00  0.00    -0.238 N 
ATOM      9  H5  UNL     1      -2.155  -3.148   0.655  1.00  0.00     0.208 HD
HETATM   10  N6  UNL     1      -1.904  -1.096   0.737  1.00  0.00    -0.257 N 
HETATM   11  C10 UNL     1      -2.751  -0.085   0.418  1.00  0.00     0.171 A 
HETATM   12  N11 UNL     1      -2.641   1.256   0.454  1.00  0.00    -0.173 N 
ATOM     13  H11 UNL     1      -1.764   1.663   0.779  1.00  0.00     0.186 HD
ENDROOT
BRANCH  10  14
HETATM   14  C4  UNL     1      -0.584  -0.846   1.236  1.00  0.00     0.187 C 
BRANCH  14  15
HETATM   15  C5  UNL     1       0.475  -0.716   0.149  1.00  0.00     0.183 C 
HETATM   16  O1  UNL     1       1.667  -0.480   0.821  1.00  0.00    -0.341 OA
HETATM   17  C6  UNL     1       2.810  -0.864   0.143  1.00  0.00     0.342 C 
HETATM   18  N10 UNL     1       2.822  -2.314   0.065  1.00  0.00    -0.318 N 
HETATM   19  C8  UNL     1       1.558  -2.914  -0.251  1.00  0.00     0.252 C 
ATOM     20  H10 UNL     1       3.666  -2.865   0.223  1.00  0.00     0.166 HD
HETATM   21  O3  UNL     1       1.314  -4.141  -0.130  1.00  0.00    -0.270 OA
HETATM   22  C9  UNL     1       0.534  -1.924  -0.750  1.00  0.00     0.240 C 
BRANCH  17  23
HETATM   23  N7  UNL     1       3.939  -0.377   0.927  1.00  0.00    -0.084 NA
BRANCH  23  24
HETATM   24  N8  UNL     1       3.854   1.009   1.009  1.00  0.00    -0.254 N 
HETATM   25  C7  UNL     1       4.638   1.833   0.168  1.00  0.00     0.344 C 
HETATM   26  N9  UNL     1       4.574   3.263   0.227  1.00  0.00    -0.039 NA
HETATM   27  O2  UNL     1       5.412   1.293  -0.653  1.00  0.00    -0.250 OA
ATOM     28  H8  UNL     1       3.219   1.436   1.683  1.00  0.00     0.187 HD
ENDBRANCH  23  24
ENDBRANCH  17  23
BRANCH  22  29
HETATM   29  O4  UNL     1       1.006  -1.554  -2.034  1.00  0.00    -0.383 OA
ATOM     30  H4  UNL     1       1.043  -2.316  -2.601  1.00  0.00     0.210 HD
ENDBRANCH  22  29
ENDBRANCH  14  15
ENDBRANCH  10  14
BRANCH   4  31
HETATM   31  N3  UNL     1      -6.056  -0.352  -0.809  1.00  0.00    -0.383 N 
ATOM     32  H32 UNL     1      -6.817   0.264  -1.095  1.00  0.00     0.157 HD
ATOM     33  H31 UNL     1      -6.197  -1.361  -0.858  1.00  0.00     0.157 HD
ENDBRANCH   4  31
BRANCH   1  34
HETATM   34  N1  UNL     1      -3.509   3.378   0.122  1.00  0.00    -0.234 N 
ATOM     35  H12 UNL     1      -4.262   4.006  -0.160  1.00  0.00     0.174 HD
ATOM     36  H11 UNL     1      -2.645   3.816   0.441  1.00  0.00     0.174 HD
ENDBRANCH   1  34
TORSDOF 7
