REMARK  9 active torsions:
REMARK  status: ('A' for Active; 'I' for Inactive)
REMARK    1  A    between atoms: N1_1  and  C1_4 
REMARK    2  A    between atoms: C1_4  and  N2_5 
REMARK    3  A    between atoms: C1_4  and  C3_11 
REMARK    4  A    between atoms: N2_5  and  O1_7 
REMARK    5  A    between atoms: O1_7  and  C2_8 
REMARK       I    between atoms: N6_17  and  C6_19 
REMARK    6  A    between atoms: C6_19  and  C7_21 
REMARK    7  A    between atoms: C7_21  and  N7_22 
REMARK    8  A    between atoms: C8_29  and  N11_30 
REMARK    9  A    between atoms: N12_33  and  N13_34 
ROOT
HETATM    1  C3  UNL     1      -1.733   0.628  -0.416  1.00  0.00     0.160 A 
HETATM    2  C4  UNL     1      -1.215   1.863  -0.716  1.00  0.00     0.165 A 
HETATM    3  N4  UNL     1      -1.838   3.040  -1.202  1.00  0.00    -0.079 NA
HETATM    4  N5  UNL     1       0.136   1.817  -0.459  1.00  0.00    -0.174 N 
ATOM      5  H5  UNL     1       0.789   2.590  -0.588  1.00  0.00     0.185 HD
HETATM    6  C5  UNL     1       0.457   0.597  -0.013  1.00  0.00     0.707 A 
HETATM    7  N6  UNL     1       1.599   0.110   0.328  1.00  0.00    -0.156 N 
ATOM      8  H6  UNL     1       1.626  -0.859   0.646  1.00  0.00     0.187 HD
HETATM    9  C6  UNL     1       2.798   0.813   0.293  1.00  0.00     0.256 C 
HETATM   10  O3  UNL     1       3.008   1.679  -0.579  1.00  0.00    -0.271 OA
HETATM   11  N12 UNL     1      -0.703  -0.124   0.009  1.00  0.00    -0.086 N 
ENDROOT
BRANCH  11  12
HETATM   12  N13 UNL     1      -0.783  -1.443   0.423  1.00  0.00    -0.324 N 
ATOM     13 2H13 UNL     1      -1.649  -1.981   0.439  1.00  0.00     0.178 HD
ATOM     14 1H13 UNL     1      -0.001  -2.014   0.745  1.00  0.00     0.178 HD
ENDBRANCH  11  12
BRANCH   9  15
HETATM   15  C7  UNL     1       3.904   0.573   1.292  1.00  0.00     0.273 C 
BRANCH  15  16
HETATM   16  N7  UNL     1       4.717  -0.534   0.849  1.00  0.00    -0.098 N 
HETATM   17  N8  UNL     1       4.510  -1.797   1.154  1.00  0.00    -0.211 N 
HETATM   18  N9  UNL     1       5.438  -2.534   0.574  1.00  0.00    -0.213 N 
ATOM     19  H8  UNL     1       3.755  -2.149   1.743  1.00  0.00     0.210 HD
HETATM   20  N10 UNL     1       6.244  -1.739  -0.106  1.00  0.00    -0.115 N 
ATOM     21  H9  UNL     1       5.519  -3.549   0.640  1.00  0.00     0.210 HD
HETATM   22  C8  UNL     1       5.799  -0.482   0.061  1.00  0.00     0.710 A 
ATOM     23  H10 UNL     1       7.054  -2.026  -0.656  1.00  0.00     0.207 HD
BRANCH  22  24
HETATM   24  N11 UNL     1       6.327   0.592  -0.453  1.00  0.00    -0.232 N 
ATOM     25 2H11 UNL     1       5.989   1.546  -0.326  1.00  0.00     0.174 HD
ATOM     26 1H11 UNL     1       7.151   0.632  -1.053  1.00  0.00     0.174 HD
ENDBRANCH  22  24
ENDBRANCH  15  16
ENDBRANCH   9  15
BRANCH   1  27
HETATM   27  C1  UNL     1      -3.104   0.214  -0.537  1.00  0.00     0.152 C 
BRANCH  27  28
HETATM   28  N1  UNL     1      -4.043   0.960  -0.939  1.00  0.00    -0.382 N 
ATOM     29  H12 UNL     1      -5.016   0.666  -1.025  1.00  0.00     0.157 HD
ATOM     30  H11 UNL     1      -3.754   1.909  -1.175  1.00  0.00     0.157 HD
ENDBRANCH  27  28
BRANCH  27  31
HETATM   31  N2  UNL     1      -3.516  -1.137  -0.201  1.00  0.00    -0.238 N 
ATOM     32  H2  UNL     1      -3.037  -1.949  -0.591  1.00  0.00     0.196 HD
BRANCH  31  33
HETATM   33  O1  UNL     1      -4.564  -1.279   0.653  1.00  0.00    -0.182 OA
BRANCH  33  34
HETATM   34  C2  UNL     1      -5.884  -1.428   0.185  1.00  0.00     0.394 C 
HETATM   35  N3  UNL     1      -7.004  -1.575   1.030  1.00  0.00    -0.031 NA
HETATM   36  O2  UNL     1      -5.993  -1.420  -1.084  1.00  0.00    -0.240 OA
ENDBRANCH  33  34
ENDBRANCH  31  33
ENDBRANCH  27  31
ENDBRANCH   1  27
TORSDOF 9
