REMARK  1 active torsions:
REMARK  status: ('A' for Active; 'I' for Inactive)
REMARK    1  A    between atoms: O1_3  and  N1_4 
REMARK       I    between atoms: N1_4  and  C3_6 
REMARK       I    between atoms: C3_6  and  N3_10 
ROOT
HETATM    1  C1  UNL     1       3.757  -0.593  -0.612  1.00  0.00     0.047 C 
HETATM    2  C2  UNL     1       2.593  -0.921  -0.459  1.00  0.00     0.074 C 
HETATM    3  O1  UNL     1       1.295  -1.307  -0.275  1.00  0.00    -0.172 OA
ENDROOT
BRANCH   3   4
HETATM    4  N1  UNL     1       0.404  -0.463   0.331  1.00  0.00    -0.082 N 
HETATM    5  C3  UNL     1      -0.618   0.170  -0.410  1.00  0.00     0.694 C 
HETATM    6  N2  UNL     1      -0.705   1.442  -0.594  1.00  0.00    -0.229 N 
HETATM    7  N3  UNL     1      -1.623  -0.644  -0.995  1.00  0.00    -0.229 N 
HETATM    8  C4  UNL     1       0.256   2.350  -0.048  1.00  0.00     0.165 C 
ATOM      9  H2  UNL     1      -1.480   1.812  -1.144  1.00  0.00     0.177 HD
HETATM   10  C5  UNL     1      -2.419  -1.488  -0.109  1.00  0.00     0.165 C 
ATOM     11  H3  UNL     1      -1.784  -0.639  -2.002  1.00  0.00     0.177 HD
ATOM     12  H1  UNL     1       0.479  -0.289   1.333  1.00  0.00     0.214 HD
ENDBRANCH   3   4
TORSDOF 1
