REMARK  3 active torsions:
REMARK  status: ('A' for Active; 'I' for Inactive)
REMARK    1  A    between atoms: N1_2  and  C2_4 
REMARK    2  A    between atoms: C2_4  and  N2_6 
REMARK    3  A    between atoms: N2_6  and  N3_8 
ROOT
HETATM    1  C2  UNL     1       0.924   0.255   0.135  1.00  0.00     0.185 C 
HETATM    2  S1  UNL     1       0.831   1.501  -0.908  1.00  0.00    -0.040 SA
ENDROOT
BRANCH   1   3
HETATM    3  N1  UNL     1       2.136  -0.002   0.821  1.00  0.00    -0.370 N 
HETATM    4  C1  UNL     1       3.321   0.802   0.638  1.00  0.00     0.148 C 
ATOM      5  H1  UNL     1       2.173  -0.787   1.471  1.00  0.00     0.161 HD
ENDBRANCH   1   3
BRANCH   1   6
HETATM    6  N2  UNL     1      -0.229  -0.540   0.323  1.00  0.00    -0.279 N 
ATOM      7  H2  UNL     1      -0.160  -1.318   0.979  1.00  0.00     0.189 HD
BRANCH   6   8
HETATM    8  N3  UNL     1      -1.438  -0.348  -0.308  1.00  0.00    -0.334 N 
HETATM    9  C3  UNL     1      -2.242  -1.514  -0.440  1.00  0.00     0.170 C 
HETATM   10  C4  UNL     1      -2.112   0.855  -0.016  1.00  0.00     0.170 C 
ENDBRANCH   6   8
ENDBRANCH   1   6
TORSDOF 3
