REMARK  3 active torsions:
REMARK  status: ('A' for Active; 'I' for Inactive)
REMARK    1  A    between atoms: N1_2  and  C2_4 
REMARK    2  A    between atoms: C2_4  and  N2_6 
REMARK    3  A    between atoms: N2_6  and  C3_8 
ROOT
HETATM    1  C3  UNL     1       2.137   0.818  -0.103  1.00  0.00     0.246 C 
HETATM    2  C4  UNL     1       2.643  -0.300  -0.892  1.00  0.00     0.078 C 
HETATM    3  N3  UNL     1       3.023  -1.175  -1.522  1.00  0.00    -0.196 NA
ENDROOT
BRANCH   1   4
HETATM    4  N2  UNL     1       0.966   0.406   0.610  1.00  0.00    -0.355 N 
ATOM      5  H2  UNL     1       0.993   0.326   1.626  1.00  0.00     0.162 HD
BRANCH   4   6
HETATM    6  C2  UNL     1      -0.223   0.111  -0.085  1.00  0.00     0.167 C 
HETATM    7  S1  UNL     1      -0.233   0.247  -1.713  1.00  0.00    -0.041 SA
BRANCH   6   8
HETATM    8  N1  UNL     1      -1.393  -0.300   0.630  1.00  0.00    -0.372 N 
HETATM    9  C1  UNL     1      -2.617  -0.607  -0.045  1.00  0.00     0.148 C 
ATOM     10  H1  UNL     1      -1.353  -0.376   1.646  1.00  0.00     0.161 HD
ENDBRANCH   6   8
ENDBRANCH   4   6
ENDBRANCH   1   4
TORSDOF 3
