REMARK  5 active torsions:
REMARK  status: ('A' for Active; 'I' for Inactive)
REMARK    1  A    between atoms: N1_2  and  S1_3 
REMARK    2  A    between atoms: S1_3  and  N2_4 
REMARK    3  A    between atoms: S1_3  and  N3_7 
REMARK    4  A    between atoms: N3_7  and  O1_8 
REMARK    5  A    between atoms: N4_10  and  O2_12 
ROOT
HETATM    1  N3  UNL     1       1.475  -0.309  -0.040  1.00  0.00    -0.090 N 
HETATM    2  N4  UNL     1       2.125   0.533   0.655  1.00  0.00    -0.175 N 
ATOM      3  H4  UNL     1       1.653   1.387   0.953  1.00  0.00     0.219 HD
ENDROOT
BRANCH   1   4
HETATM    4  S1  UNL     1      -0.136   0.068  -0.412  1.00  0.00     0.108 SA
BRANCH   4   5
HETATM    5  N1  UNL     1      -1.129  -0.399   0.720  1.00  0.00    -0.154 NA
HETATM    6  C1  UNL     1      -2.504  -0.088   0.390  1.00  0.00     0.148 C 
ENDBRANCH   4   5
BRANCH   4   7
HETATM    7  N2  UNL     1      -0.669  -0.606  -1.694  1.00  0.00    -0.351 NA
ATOM      8  H22 UNL     1      -1.638  -0.379  -1.918  1.00  0.00     0.166 HD
ATOM      9  H21 UNL     1      -0.027  -0.304  -2.426  1.00  0.00     0.166 HD
ENDBRANCH   4   7
ENDBRANCH   1   4
BRANCH   1  10
HETATM   10  O1  UNL     1       2.015  -1.489  -0.493  1.00  0.00    -0.259 OA
ATOM     11  H1  UNL     1       2.917  -1.700  -0.285  1.00  0.00     0.247 HD
ENDBRANCH   1  10
BRANCH   2  12
HETATM   12  O2  UNL     1       3.432   0.344   1.021  1.00  0.00    -0.272 OA
ATOM     13  H2  UNL     1       3.918   0.974   1.541  1.00  0.00     0.246 HD
ENDBRANCH   2  12
TORSDOF 5
