REMARK  2 active torsions:
REMARK  status: ('A' for Active; 'I' for Inactive)
REMARK    1  A    between atoms: C6_8  and  C7_9 
REMARK    2  A    between atoms: C7_9  and  N3_10 
ROOT
HETATM    1  C1  UNL     1      -2.082  -1.018  -0.386  1.00  0.00     0.155 C 
HETATM    2  N1  UNL     1      -1.087  -0.002  -0.106  1.00  0.00    -0.362 N 
HETATM    3  C2  UNL     1      -1.517   1.297   0.045  1.00  0.00     0.090 A 
HETATM    4  C3  UNL     1      -0.616   2.378   0.120  1.00  0.00     0.019 A 
HETATM    5  C4  UNL     1       0.729   2.131   0.053  1.00  0.00     0.030 A 
HETATM    6  C5  UNL     1       1.126   0.831  -0.094  1.00  0.00     0.070 A 
HETATM    7  N2  UNL     1       2.500   0.493  -0.193  1.00  0.00    -0.100 NA
HETATM    8  C6  UNL     1       0.231  -0.203  -0.174  1.00  0.00     0.060 A 
ENDROOT
BRANCH   8   9
HETATM    9  C7  UNL     1       0.777  -1.621  -0.309  1.00  0.00     0.288 C 
BRANCH   9  10
HETATM   10  N3  UNL     1       0.631  -2.101   1.128  1.00  0.00    -0.074 N 
ATOM     11  H33 UNL     1       1.076  -1.519   1.838  1.00  0.00     0.274 HD
ATOM     12  H32 UNL     1      -0.303  -2.021   1.530  1.00  0.00     0.274 HD
ATOM     13  H31 UNL     1       0.996  -3.049   1.038  1.00  0.00     0.274 HD
ENDBRANCH   9  10
ENDBRANCH   8   9
TORSDOF 2
