REMARK  4 active torsions:
REMARK  status: ('A' for Active; 'I' for Inactive)
REMARK    1  A    between atoms: C2_2  and  N1_4 
REMARK    2  A    between atoms: N1_4  and  S1_6 
REMARK    3  A    between atoms: S1_6  and  N2_7 
REMARK    4  A    between atoms: S1_6  and  N3_10 
ROOT
HETATM    1  S1  UNL     1       1.309   0.419  -0.083  1.00  0.00     0.186 S 
HETATM    2  O1  UNL     1       0.708   1.448  -0.984  1.00  0.00    -0.207 OA
ENDROOT
BRANCH   1   3
HETATM    3  N1  UNL     1       0.232   0.075   0.986  1.00  0.00    -0.316 N 
ATOM      4  H1  UNL     1       0.546  -0.291   1.885  1.00  0.00     0.172 HD
BRANCH   3   5
HETATM    5  C2  UNL     1      -1.160   0.242   0.781  1.00  0.00     0.085 C 
HETATM    6  C1  UNL     1      -1.856  -0.868   1.583  1.00  0.00     0.032 C 
HETATM    7  C3  UNL     1      -1.590   0.168  -0.649  1.00  0.00     0.032 C 
ENDBRANCH   3   5
ENDBRANCH   1   3
BRANCH   1   8
HETATM    8  N2  UNL     1       1.891  -0.955  -0.900  1.00  0.00    -0.329 N 
ATOM      9  H22 UNL     1       1.559  -1.898  -0.699  1.00  0.00     0.168 HD
ATOM     10  H21 UNL     1       2.597  -0.729  -1.601  1.00  0.00     0.168 HD
ENDBRANCH   1   8
BRANCH   1  11
HETATM   11  N3  UNL     1       2.626   1.170   0.758  1.00  0.00    -0.329 N 
ATOM     12  H32 UNL     1       2.671   1.346   1.762  1.00  0.00     0.168 HD
ATOM     13  H31 UNL     1       3.332   1.396   0.057  1.00  0.00     0.168 HD
ENDBRANCH   1  11
TORSDOF 4
