REMARK  2 active torsions:
REMARK  status: ('A' for Active; 'I' for Inactive)
REMARK    1  A    between atoms: N1_2  and  C2_4 
REMARK       I    between atoms: N6_29  and  C14_30 
REMARK    2  A    between atoms: C14_30  and  O5_32 
ROOT
HETATM    1  C2  UNL     1      -3.516   2.599   0.239  1.00  0.00     0.214 C 
HETATM    2  N2  UNL     1      -4.099   1.767  -0.554  1.00  0.00    -0.356 N 
ATOM      3  H2  UNL     1      -4.886   1.258  -0.151  1.00  0.00     0.163 HD
HETATM    4  C3  UNL     1      -3.804   1.456  -1.908  1.00  0.00     0.132 C 
HETATM    5  C4  UNL     1      -3.671  -0.072  -1.987  1.00  0.00     0.123 C 
HETATM    6  C5  UNL     1      -4.964  -0.724  -1.672  1.00  0.00     0.227 C 
HETATM    7  O1  UNL     1      -5.679  -1.102  -2.641  1.00  0.00    -0.273 OA
HETATM    8  N3  UNL     1      -5.453  -0.951  -0.358  1.00  0.00    -0.273 N 
ATOM      9  H3  UNL     1      -6.459  -0.867  -0.211  1.00  0.00     0.174 HD
HETATM   10  C6  UNL     1      -4.656  -1.285   0.764  1.00  0.00     0.367 C 
HETATM   11  O2  UNL     1      -5.034  -0.874   1.902  1.00  0.00    -0.238 OA
HETATM   12  O3  UNL     1      -3.524  -2.026   0.592  1.00  0.00    -0.302 OA
HETATM   13  C7  UNL     1      -3.406  -3.225  -0.107  1.00  0.00     0.208 C 
HETATM   14  C8  UNL     1      -1.980  -3.717   0.010  1.00  0.00     0.259 C 
HETATM   15  N4  UNL     1      -1.029  -2.651   0.238  1.00  0.00    -0.072 N 
ATOM     16  H41 UNL     1      -1.504  -1.755   0.349  1.00  0.00     0.277 HD
ATOM     17  H42 UNL     1      -0.494  -2.451  -0.607  1.00  0.00     0.277 HD
HETATM   18  C9  UNL     1      -0.149  -2.915   1.360  1.00  0.00     0.259 C 
HETATM   19  C10 UNL     1       1.273  -3.112   0.953  1.00  0.00     0.260 C 
HETATM   20  N5  UNL     1       1.641  -2.402  -0.249  1.00  0.00    -0.070 N 
ATOM     21  H51 UNL     1       1.194  -2.807  -1.072  1.00  0.00     0.277 HD
ATOM     22  H52 UNL     1       2.616  -2.571  -0.497  1.00  0.00     0.277 HD
HETATM   23  C11 UNL     1       1.359  -0.969  -0.139  1.00  0.00     0.274 C 
HETATM   24  C12 UNL     1       2.625  -0.185   0.008  1.00  0.00     0.016 A 
HETATM   25  C13 UNL     1       3.780  -0.919  -0.307  1.00  0.00     0.118 A 
HETATM   26  N6  UNL     1       4.971  -0.322  -0.181  1.00  0.00    -0.218 N 
HETATM   27  C14 UNL     1       6.169  -1.034  -0.492  1.00  0.00     0.374 C 
HETATM   28  O4  UNL     1       6.094  -2.234  -0.888  1.00  0.00    -0.237 OA
HETATM   29  C16 UNL     1       5.061   0.957   0.241  1.00  0.00     0.356 A 
HETATM   30  O6  UNL     1       6.182   1.498   0.353  1.00  0.00    -0.245 OA
HETATM   31  N7  UNL     1       3.964   1.698   0.554  1.00  0.00    -0.091 N 
HETATM   32  C17 UNL     1       3.798   2.949   0.994  1.00  0.00     0.689 A 
HETATM   33  N8  UNL     1       4.725   3.812   1.230  1.00  0.00    -0.234 N 
ATOM     34  H81 UNL     1       4.598   4.767   1.566  1.00  0.00     0.174 HD
ATOM     35  H82 UNL     1       5.730   3.675   1.120  1.00  0.00     0.174 HD
HETATM   36  N9  UNL     1       2.467   3.130   1.140  1.00  0.00    -0.168 N 
ATOM     37  H9  UNL     1       2.027   3.992   1.464  1.00  0.00     0.186 HD
HETATM   38  C18 UNL     1       1.800   2.002   0.794  1.00  0.00     0.186 A 
HETATM   39  C19 UNL     1       2.764   1.086   0.422  1.00  0.00     0.122 A 
HETATM   40  O7  UNL     1       0.461   1.707   0.774  1.00  0.00    -0.332 OA
HETATM   41  C20 UNL     1      -0.506   1.849  -0.250  1.00  0.00     0.204 C 
HETATM   42  C21 UNL     1      -1.119   3.228  -0.261  1.00  0.00     0.205 C 
HETATM   43  O8  UNL     1      -2.471   3.324  -0.176  1.00  0.00    -0.320 OA
ENDROOT
BRANCH  27  44
HETATM   44  O5  UNL     1       7.422  -0.488  -0.387  1.00  0.00    -0.308 OA
HETATM   45  C15 UNL     1       8.587  -1.242  -0.710  1.00  0.00     0.215 C 
ENDBRANCH  27  44
BRANCH   1  46
HETATM   46  N1  UNL     1      -4.117   2.638   1.569  1.00  0.00    -0.361 N 
HETATM   47  C1  UNL     1      -4.864   3.802   1.955  1.00  0.00     0.150 C 
ATOM     48  H1  UNL     1      -4.008   1.853   2.212  1.00  0.00     0.162 HD
ENDBRANCH   1  46
TORSDOF 2
