REMARK  3 active torsions:
REMARK  status: ('A' for Active; 'I' for Inactive)
REMARK    1  A    between atoms: C12_28  and  C13_29 
REMARK    2  A    between atoms: C13_29  and  O5_30 
REMARK    3  A    between atoms: C14_34  and  O6_35 
ROOT
HETATM    1  C1  UNL     1      -1.747   3.125   1.718  1.00  0.00     0.047 C 
HETATM    2  C2  UNL     1      -2.274   2.209   0.602  1.00  0.00     0.132 C 
HETATM    3  C3  UNL     1      -3.564   2.827   0.127  1.00  0.00     0.047 C 
HETATM    4  C4  UNL     1      -1.235   2.261  -0.496  1.00  0.00     0.124 C 
HETATM    5  S1  UNL     1      -0.382   3.884  -0.423  1.00  0.00    -0.095 SA
HETATM    6  S2  UNL     1       1.574   3.668   0.389  1.00  0.00    -0.096 SA
HETATM    7  C5  UNL     1       2.806   4.310  -0.768  1.00  0.00     0.105 C 
HETATM    8  C6  UNL     1       3.864   3.283  -1.092  1.00  0.00     0.134 C 
HETATM    9  N1  UNL     1       4.684   3.041   0.086  1.00  0.00    -0.355 N 
ATOM     10  H1  UNL     1       5.005   3.841   0.632  1.00  0.00     0.163 HD
HETATM   11  C7  UNL     1       5.015   1.874   0.461  1.00  0.00     0.227 A 
HETATM   12  N2  UNL     1       4.600   0.714  -0.257  1.00  0.00    -0.320 N 
ATOM     13  H2  UNL     1       4.025   0.715  -1.099  1.00  0.00     0.169 HD
HETATM   14  C8  UNL     1       5.067  -0.335   0.327  1.00  0.00     0.098 A 
HETATM   15  C9  UNL     1       4.755  -1.664  -0.256  1.00  0.00     0.147 C 
HETATM   16  S3  UNL     1       2.993  -2.000   0.060  1.00  0.00    -0.062 SA
HETATM   17  C10 UNL     1       2.648  -3.695  -0.408  1.00  0.00     0.294 C 
HETATM   18  O1  UNL     1       3.409  -4.248  -1.272  1.00  0.00    -0.259 OA
HETATM   19  N3  UNL     1       1.563  -4.435   0.147  1.00  0.00    -0.228 N 
ATOM     20  H3  UNL     1       1.715  -5.420   0.362  1.00  0.00     0.184 HD
HETATM   21  S4  UNL     1       0.026  -3.770   0.473  1.00  0.00     0.328 S 
HETATM   22  O2  UNL     1      -0.735  -4.696   1.378  1.00  0.00    -0.182 OA
HETATM   23  O3  UNL     1       0.230  -2.479   1.216  1.00  0.00    -0.182 OA
HETATM   24  N4  UNL     1      -0.832  -3.427  -0.980  1.00  0.00    -0.235 N 
ATOM     25  H4  UNL     1      -0.478  -3.800  -1.861  1.00  0.00     0.183 HD
HETATM   26  C11 UNL     1      -2.016  -2.642  -0.994  1.00  0.00     0.257 C 
HETATM   27  O4  UNL     1      -2.250  -1.995  -2.044  1.00  0.00    -0.270 OA
HETATM   28  C12 UNL     1      -2.978  -2.532   0.118  1.00  0.00     0.197 C 
HETATM   29  N5  UNL     1      -2.864  -1.355   0.903  1.00  0.00    -0.360 N 
ATOM     30  H5  UNL     1      -2.944  -1.378   1.920  1.00  0.00     0.158 HD
HETATM   31  C14 UNL     1      -2.632  -0.141   0.196  1.00  0.00     0.423 C 
HETATM   32  N6  UNL     1      -2.435   0.914   1.170  1.00  0.00    -0.022 N 
ATOM     33  H61 UNL     1      -3.193   0.915   1.853  1.00  0.00     0.283 HD
ATOM     34  H62 UNL     1      -1.650   0.693   1.782  1.00  0.00     0.283 HD
HETATM   35  C15 UNL     1       5.840   0.064   1.498  1.00  0.00     0.314 A 
HETATM   36  O7  UNL     1       6.432  -0.725   2.291  1.00  0.00    -0.257 OA
HETATM   37  O8  UNL     1       5.783   1.444   1.545  1.00  0.00    -0.241 OA
ENDROOT
BRANCH  28  38
HETATM   38  C13 UNL     1      -4.407  -2.787  -0.353  1.00  0.00     0.198 C 
BRANCH  38  39
HETATM   39  O5  UNL     1      -4.492  -3.936  -1.115  1.00  0.00    -0.398 OA
ATOM     40  H5  UNL     1      -5.382  -4.095  -1.408  1.00  0.00     0.209 HD
ENDBRANCH  38  39
ENDBRANCH  28  38
BRANCH  31  41
HETATM   41  O6  UNL     1      -3.724   0.232  -0.586  1.00  0.00    -0.355 OA
ATOM     42  H6  UNL     1      -3.569   1.042  -1.058  1.00  0.00     0.213 HD
ENDBRANCH  31  41
TORSDOF 3
