REMARK  3 active torsions:
REMARK  status: ('A' for Active; 'I' for Inactive)
REMARK    1  A    between atoms: O1_2  and  C2_3 
REMARK    2  A    between atoms: C2_3  and  C3_5 
REMARK    3  A    between atoms: C12_21  and  O7_22 
ROOT
HETATM    1  C3  UNL     1       4.574   1.195   0.308  1.00  0.00     0.150 C 
HETATM    2  C4  UNL     1       3.463   1.591  -0.319  1.00  0.00     0.174 C 
HETATM    3  O3  UNL     1       2.510   0.639  -0.688  1.00  0.00    -0.302 OA
HETATM    4  C5  UNL     1       2.944  -0.640  -1.059  1.00  0.00     0.369 C 
HETATM    5  O4  UNL     1       2.030  -1.506  -1.579  1.00  0.00    -0.280 OA
HETATM    6  C6  UNL     1       0.737  -1.810  -1.361  1.00  0.00     0.261 C 
HETATM    7  O5  UNL     1      -0.203  -1.492  -2.140  1.00  0.00    -0.265 OA
HETATM    8  C7  UNL     1       0.340  -2.564  -0.149  1.00  0.00     0.112 C 
HETATM    9  C8  UNL     1      -1.073  -3.060  -0.329  1.00  0.00     0.020 C 
HETATM   10  C9  UNL     1      -1.705  -3.617   0.895  1.00  0.00     0.075 C 
HETATM   11  S1  UNL     1      -3.165  -2.723   1.461  1.00  0.00    -0.160 SA
HETATM   12  C10 UNL     1      -4.667  -3.253   0.591  1.00  0.00     0.176 C 
HETATM   13  C11 UNL     1      -5.757  -2.233   0.749  1.00  0.00     0.228 C 
HETATM   14  O6  UNL     1      -6.635  -2.490   1.613  1.00  0.00    -0.273 OA
HETATM   15  N1  UNL     1      -5.789  -1.051  -0.034  1.00  0.00    -0.334 N 
ATOM     16  H1  UNL     1      -6.679  -0.563  -0.135  1.00  0.00     0.165 HD
HETATM   17  C12 UNL     1      -4.627  -0.502  -0.696  1.00  0.00     0.221 C 
HETATM   18  C13 UNL     1      -4.897   0.881  -1.197  1.00  0.00     0.073 C 
HETATM   19  C14 UNL     1      -3.699   1.795  -0.996  1.00  0.00     0.142 C 
HETATM   20  N2  UNL     1      -2.521   1.022  -0.674  1.00  0.00    -0.224 N 
ATOM     21  H2  UNL     1      -2.362   0.171  -1.213  1.00  0.00     0.177 HD
HETATM   22  C15 UNL     1      -1.560   1.344   0.331  1.00  0.00     0.707 A 
HETATM   23  N3  UNL     1      -1.210   0.592   1.398  1.00  0.00    -0.117 N 
ATOM     24  H3  UNL     1      -1.584  -0.322   1.652  1.00  0.00     0.206 HD
HETATM   25  N4  UNL     1      -0.287   1.278   2.045  1.00  0.00    -0.116 N 
ATOM     26  H4  UNL     1       0.175   0.969   2.900  1.00  0.00     0.206 HD
HETATM   27  C16 UNL     1      -0.043   2.437   1.421  1.00  0.00     0.727 A 
HETATM   28  N5  UNL     1      -0.846   2.470   0.347  1.00  0.00    -0.018 N 
ATOM     29  H5  UNL     1      -0.901   3.224  -0.337  1.00  0.00     0.203 HD
HETATM   30  N6  UNL     1       0.849   3.510   1.717  1.00  0.00    -0.116 N 
ATOM     31  H6  UNL     1       0.743   3.909   2.650  1.00  0.00     0.207 HD
HETATM   32  N7  UNL     1       1.718   4.028   1.035  1.00  0.00    -0.225 N 
ATOM     33  H7  UNL     1       2.195   4.785   1.526  1.00  0.00     0.209 HD
HETATM   34  N8  UNL     1       2.208   3.840  -0.228  1.00  0.00    -0.249 N 
ATOM     35  H8  UNL     1       1.744   4.353  -0.978  1.00  0.00     0.192 HD
HETATM   36  C17 UNL     1       3.289   3.010  -0.604  1.00  0.00     0.297 C 
HETATM   37  O8  UNL     1       4.285   3.486  -1.285  1.00  0.00    -0.264 OA
HETATM   38  C18 UNL     1       3.761  -1.136   0.082  1.00  0.00     0.278 C 
HETATM   39  O9  UNL     1       3.628  -2.241   0.632  1.00  0.00    -0.268 OA
HETATM   40  N9  UNL     1       4.754  -0.230   0.532  1.00  0.00    -0.315 N 
ATOM     41  H9  UNL     1       5.587  -0.575   1.009  1.00  0.00     0.169 HD
ENDROOT
BRANCH   1  42
HETATM   42  C2  UNL     1       5.626   2.074   0.752  1.00  0.00     0.312 C 
HETATM   43  O2  UNL     1       5.650   3.300   0.680  1.00  0.00    -0.258 OA
BRANCH  42  44
HETATM   44  O1  UNL     1       6.784   1.516   1.342  1.00  0.00    -0.321 OA
HETATM   45  C1  UNL     1       7.851   2.309   1.797  1.00  0.00     0.213 C 
ENDBRANCH  42  44
ENDBRANCH   1  42
BRANCH  17  46
HETATM   46  O7  UNL     1      -4.315  -1.319  -1.780  1.00  0.00    -0.377 OA
ATOM     47  H7  UNL     1      -3.551  -0.958  -2.215  1.00  0.00     0.212 HD
ENDBRANCH  17  46
TORSDOF 3
