REMARK  4 active torsions:
REMARK  status: ('A' for Active; 'I' for Inactive)
REMARK    1  A    between atoms: N1_1  and  C1_5 
REMARK    2  A    between atoms: C16_37  and  O6_38 
REMARK    3  A    between atoms: C18_41  and  O7_42 
REMARK    4  A    between atoms: C20_47  and  O8_48 
ROOT
HETATM    1  C1  UNL     1      -3.698  -0.500  -0.273  1.00  0.00     0.219 C 
HETATM    2  C2  UNL     1      -2.990  -1.705   0.298  1.00  0.00     0.114 C 
HETATM    3  C3  UNL     1      -1.938  -2.233  -0.601  1.00  0.00     0.117 A 
HETATM    4  N2  UNL     1      -1.802  -2.186  -1.932  1.00  0.00    -0.272 N 
ATOM      5  H2  UNL     1      -2.459  -1.744  -2.575  1.00  0.00     0.190 HD
HETATM    6  N3  UNL     1      -0.696  -2.795  -2.283  1.00  0.00    -0.227 N 
ATOM      7  H3  UNL     1      -0.353  -2.904  -3.237  1.00  0.00     0.210 HD
HETATM    8  N4  UNL     1      -0.105  -3.241  -1.200  1.00  0.00    -0.225 N 
ATOM      9  H4  UNL     1       0.775  -3.756  -1.163  1.00  0.00     0.210 HD
HETATM   10  N5  UNL     1      -0.854  -2.903  -0.166  1.00  0.00    -0.263 N 
HETATM   11  C4  UNL     1      -0.658  -3.151   1.270  1.00  0.00     0.162 C 
HETATM   12  C5  UNL     1       0.078  -4.466   1.445  1.00  0.00     0.096 C 
HETATM   13  S1  UNL     1       1.530  -4.221   2.501  1.00  0.00    -0.158 SA
HETATM   14  C6  UNL     1       2.608  -2.939   1.850  1.00  0.00     0.176 C 
HETATM   15  C7  UNL     1       3.401  -3.489   0.719  1.00  0.00     0.226 C 
HETATM   16  O1  UNL     1       3.124  -4.610   0.253  1.00  0.00    -0.273 OA
HETATM   17  N6  UNL     1       4.479  -2.692   0.194  1.00  0.00    -0.358 N 
ATOM     18  H6  UNL     1       5.245  -3.143  -0.307  1.00  0.00     0.162 HD
HETATM   19  C8  UNL     1       4.484  -1.242   0.374  1.00  0.00     0.149 C 
HETATM   20  C9  UNL     1       5.117  -0.582  -0.811  1.00  0.00     0.198 C 
HETATM   21  O2  UNL     1       4.188  -0.316  -1.844  1.00  0.00    -0.319 OA
HETATM   22  C10 UNL     1       3.676   0.949  -2.087  1.00  0.00     0.276 C 
HETATM   23  O3  UNL     1       3.480   1.436  -3.227  1.00  0.00    -0.263 OA
HETATM   24  C11 UNL     1       3.333   1.794  -0.912  1.00  0.00     0.233 C 
HETATM   25  N7  UNL     1       3.538   3.194  -1.186  1.00  0.00    -0.350 N 
ATOM     26  H7  UNL     1       4.205   3.424  -1.923  1.00  0.00     0.163 HD
HETATM   27  C12 UNL     1       2.909   4.278  -0.538  1.00  0.00     0.242 C 
HETATM   28  O4  UNL     1       3.620   5.215  -0.027  1.00  0.00    -0.271 OA
HETATM   29  C13 UNL     1       1.449   4.468  -0.374  1.00  0.00     0.280 C 
HETATM   30  O5  UNL     1       0.777   3.365  -0.905  1.00  0.00    -0.326 OA
HETATM   31  C14 UNL     1      -0.547   3.041  -0.598  1.00  0.00     0.147 A 
HETATM   32  C15 UNL     1      -1.715   3.396  -1.156  1.00  0.00     0.093 A 
HETATM   33  C16 UNL     1      -2.942   2.893  -0.606  1.00  0.00     0.080 A 
HETATM   34  C17 UNL     1      -2.918   2.048   0.493  1.00  0.00     0.028 A 
HETATM   35  C18 UNL     1      -1.722   1.705   1.034  1.00  0.00     0.151 A 
HETATM   36  N8  UNL     1      -0.585   2.234   0.443  1.00  0.00    -0.317 N 
ATOM     37  H8  UNL     1       0.311   1.973   0.855  1.00  0.00     0.170 HD
HETATM   38  C19 UNL     1      -4.174   1.530   1.063  1.00  0.00     0.079 C 
HETATM   39  C20 UNL     1      -4.628   0.160   0.650  1.00  0.00     0.153 C 
ENDROOT
BRANCH   1  40
HETATM   40  N1  UNL     1      -4.448  -0.987  -1.449  1.00  0.00    -0.072 N 
ATOM     41  H13 UNL     1      -3.866  -1.477  -2.129  1.00  0.00     0.274 HD
ATOM     42  H12 UNL     1      -5.074  -1.765  -1.239  1.00  0.00     0.274 HD
ATOM     43  H11 UNL     1      -4.926  -0.173  -1.835  1.00  0.00     0.274 HD
ENDBRANCH   1  40
BRANCH  39  44
HETATM   44  O8  UNL     1      -5.921   0.182   0.080  1.00  0.00    -0.393 OA
ATOM     45  H8  UNL     1      -6.523   0.609   0.678  1.00  0.00     0.210 HD
ENDBRANCH  39  44
BRANCH  33  46
HETATM   46  O6  UNL     1      -3.993   3.431  -1.401  1.00  0.00    -0.360 OA
ATOM     47  H6  UNL     1      -4.805   3.098  -1.037  1.00  0.00     0.217 HD
ENDBRANCH  33  46
BRANCH  35  48
HETATM   48  O7  UNL     1      -1.200   0.897   2.112  1.00  0.00    -0.346 OA
ATOM     49  H7  UNL     1      -0.363   0.657   2.491  1.00  0.00     0.219 HD
ENDBRANCH  35  48
TORSDOF 4
