REMARK  2 active torsions:
REMARK  status: ('A' for Active; 'I' for Inactive)
REMARK    1  A    between atoms: N5_26  and  O4_28 
REMARK    2  A    between atoms: C17_32  and  O5_33 
ROOT
HETATM    1  N1  UNL     1       8.926   2.134   0.605  1.00  0.00    -0.188 NA
HETATM    2  C1  UNL     1       7.831   1.791   0.544  1.00  0.00     0.145 C 
HETATM    3  C2  UNL     1       6.449   1.386   0.466  1.00  0.00     0.233 A 
HETATM    4  N2  UNL     1       6.030   0.141   0.166  1.00  0.00    -0.322 N 
ATOM      5  H2  UNL     1       6.623  -0.663  -0.040  1.00  0.00     0.169 HD
HETATM    6  C3  UNL     1       4.689   0.154   0.189  1.00  0.00     0.116 A 
HETATM    7  C4  UNL     1       4.289   1.433   0.509  1.00  0.00     0.180 A 
HETATM    8  N3  UNL     1       2.947   1.543   0.554  1.00  0.00    -0.332 N 
ATOM      9  H3  UNL     1       2.390   2.371   0.766  1.00  0.00     0.168 HD
HETATM   10  C5  UNL     1       2.516   0.315   0.256  1.00  0.00     0.075 A 
HETATM   11  C6  UNL     1       1.288  -0.124   0.143  1.00  0.00     0.041 A 
HETATM   12  C7  UNL     1       1.207  -1.578  -0.226  1.00  0.00     0.024 A 
HETATM   13  C8  UNL     1       2.047  -2.402  -0.438  1.00  0.00     0.103 A 
HETATM   14  N4  UNL     1       3.368  -1.894  -0.313  1.00  0.00    -0.361 N 
ATOM     15  H4  UNL     1       4.171  -2.503  -0.472  1.00  0.00     0.165 HD
HETATM   16  C9  UNL     1       3.550  -0.602   0.017  1.00  0.00     0.091 A 
HETATM   17  C10 UNL     1      -0.128  -1.981  -0.485  1.00  0.00     0.101 C 
HETATM   18  C11 UNL     1      -0.005  -1.379  -1.759  1.00  0.00     0.248 C 
HETATM   19  O1  UNL     1       0.847  -0.816  -2.509  1.00  0.00    -0.282 OA
HETATM   20  C12 UNL     1      -1.429  -1.384  -2.139  1.00  0.00     0.242 C 
HETATM   21  O2  UNL     1      -2.003  -1.864  -3.002  1.00  0.00    -0.285 OA
HETATM   22  C13 UNL     1      -2.054  -0.435  -0.913  1.00  0.00     0.208 C 
HETATM   23  O3  UNL     1      -3.092  -0.008  -1.606  1.00  0.00    -0.359 OA
HETATM   24  C14 UNL     1      -3.997   0.862  -1.252  1.00  0.00     0.236 C 
HETATM   25  C15 UNL     1      -3.385   2.219  -1.243  1.00  0.00     0.092 C 
HETATM   26  N5  UNL     1      -3.834   3.228  -1.868  1.00  0.00    -0.265 N 
ATOM     27  H5  UNL     1      -4.681   3.125  -2.428  1.00  0.00     0.194 HD
HETATM   28  S1  UNL     1      -1.925   2.206  -0.219  1.00  0.00    -0.099 SA
HETATM   29  C16 UNL     1      -1.050   0.586  -0.655  1.00  0.00     0.162 C 
HETATM   30  C17 UNL     1       0.162   0.774   0.177  1.00  0.00     0.183 C 
HETATM   31  N6  UNL     1      -0.071   1.023   1.591  1.00  0.00    -0.305 N 
ATOM     32  H6  UNL     1       0.486   1.795   1.957  1.00  0.00     0.167 HD
HETATM   33  C18 UNL     1      -0.904   0.427   2.572  1.00  0.00     0.325 C 
HETATM   34  O6  UNL     1      -0.818   0.925   3.720  1.00  0.00    -0.247 OA
HETATM   35  N7  UNL     1      -1.833  -0.648   2.489  1.00  0.00    -0.275 N 
ATOM     36  H7  UNL     1      -1.983  -1.117   3.382  1.00  0.00     0.173 HD
HETATM   37  C19 UNL     1      -2.590  -1.203   1.439  1.00  0.00     0.287 C 
HETATM   38  O7  UNL     1      -3.739  -1.527   1.914  1.00  0.00    -0.268 OA
HETATM   39  C20 UNL     1      -2.375  -1.471   0.042  1.00  0.00     0.324 C 
HETATM   40  N8  UNL     1      -3.263  -2.511  -0.375  1.00  0.00    -0.020 N 
ATOM     41  H81 UNL     1      -3.502  -2.629  -1.360  1.00  0.00     0.282 HD
ATOM     42  H82 UNL     1      -4.258  -2.466  -0.154  1.00  0.00     0.282 HD
HETATM   43  C21 UNL     1      -2.388  -3.471   0.303  1.00  0.00     0.364 C 
HETATM   44  N9  UNL     1      -1.313  -2.573  -0.093  1.00  0.00    -0.309 N 
HETATM   45  O8  UNL     1       5.391   2.117   0.661  1.00  0.00    -0.265 OA
ENDROOT
BRANCH  30  46
HETATM   46  O5  UNL     1       0.539   2.106  -0.233  1.00  0.00    -0.365 OA
ATOM     47  H5  UNL     1      -0.204   2.698  -0.211  1.00  0.00     0.213 HD
ENDBRANCH  30  46
BRANCH  26  48
HETATM   48  O4  UNL     1      -3.225   4.438  -1.816  1.00  0.00    -0.289 OA
ATOM     49  H4  UNL     1      -3.561   5.193  -2.284  1.00  0.00     0.244 HD
ENDBRANCH  26  48
TORSDOF 2
