REMARK  3 active torsions:
REMARK  status: ('A' for Active; 'I' for Inactive)
REMARK       I    between atoms: N2_5  and  C4_6 
REMARK    1  A    between atoms: C4_6  and  C5_8 
REMARK    2  A    between atoms: C5_8  and  C6_9 
REMARK    3  A    between atoms: C6_9  and  C7_10 
ROOT
HETATM    1  C7  UNL     1      -1.577  -1.058  -0.530  1.00  0.00     0.084 A 
HETATM    2  N3  UNL     1      -1.249   0.110   0.003  1.00  0.00    -0.312 N 
ATOM      3  H3  UNL     1      -0.302   0.447  -0.173  1.00  0.00     0.170 HD
HETATM    4  C8  UNL     1      -2.041   0.892   0.751  1.00  0.00     0.255 A 
HETATM    5  O2  UNL     1      -1.647   1.971   1.209  1.00  0.00    -0.268 OA
HETATM    6  C9  UNL     1      -3.321   0.450   0.997  1.00  0.00     0.032 A 
HETATM    7  C10 UNL     1      -3.688  -0.763   0.453  1.00  0.00     0.022 A 
HETATM    8  N4  UNL     1      -2.839  -1.495  -0.289  1.00  0.00    -0.349 N 
ATOM      9  H4  UNL     1      -3.146  -2.388  -0.675  1.00  0.00     0.167 HD
HETATM   10  C11 UNL     1      -5.083  -1.217   0.736  1.00  0.00     0.058 C 
HETATM   11  C12 UNL     1      -6.084  -0.115   0.627  1.00  0.00     0.006 C 
HETATM   12  C13 UNL     1      -5.605   1.220   1.082  1.00  0.00     0.005 C 
HETATM   13  C14 UNL     1      -4.301   1.212   1.806  1.00  0.00     0.046 C 
ENDROOT
BRANCH   1  14
HETATM   14  C6  UNL     1      -0.634  -1.839  -1.336  1.00  0.00     0.086 C 
BRANCH  14  15
HETATM   15  C5  UNL     1       0.725  -1.260  -1.466  1.00  0.00     0.110 C 
BRANCH  15  16
HETATM   16  C4  UNL     1       1.468  -1.110  -0.206  1.00  0.00     0.220 C 
HETATM   17  N2  UNL     1       2.713  -0.401  -0.197  1.00  0.00    -0.349 N 
HETATM   18  C3  UNL     1       3.220   0.154  -1.411  1.00  0.00     0.156 C 
HETATM   19  C15 UNL     1       3.414  -0.276   1.052  1.00  0.00     0.156 C 
HETATM   20  C2  UNL     1       4.411   1.031  -1.290  1.00  0.00     0.291 C 
HETATM   21  N1  UNL     1       4.865   1.300   0.039  1.00  0.00     0.087 N 
HETATM   22  C1  UNL     1       6.165   1.909   0.031  1.00  0.00     0.310 C 
HETATM   23  C16 UNL     1       4.866   0.050   0.774  1.00  0.00     0.291 C 
HETATM   24  O1  UNL     1       0.996  -1.609   0.848  1.00  0.00    -0.273 OA
ENDBRANCH  15  16
ENDBRANCH  14  15
ENDBRANCH   1  14
TORSDOF 3
