REMARK  5 active torsions:
REMARK  status: ('A' for Active; 'I' for Inactive)
REMARK       I    between atoms: C1_2  and  N1_3 
REMARK    1  A    between atoms: C1_2  and  C8_12 
REMARK    2  A    between atoms: N1_3  and  C2_4 
REMARK    3  A    between atoms: C2_4  and  C3_5 
REMARK    4  A    between atoms: C3_5  and  N2_6 
REMARK    5  A    between atoms: C8_12  and  N3_14 
ROOT
HETATM    1  O1  UNL     1      -1.321  -0.200   2.499  1.00  0.00    -0.248 OA
HETATM    2  C1  UNL     1      -0.746   0.079   1.432  1.00  0.00     0.353 C 
HETATM    3  N1  UNL     1       0.718   0.127   1.367  1.00  0.00    -0.380 NA
ENDROOT
BRANCH   2   4
HETATM    4  C8  UNL     1      -1.480   0.363   0.217  1.00  0.00     0.182 C 
HETATM    5  S1  UNL     1      -0.607   0.768  -1.130  1.00  0.00    -0.053 SA
BRANCH   4   6
HETATM    6  N3  UNL     1      -2.866   0.245   0.108  1.00  0.00    -0.367 N 
HETATM    7  C9  UNL     1      -3.369   0.633  -1.265  1.00  0.00     0.124 C 
HETATM    8  C10 UNL     1      -3.995  -0.641  -1.775  1.00  0.00     0.020 C 
HETATM    9  C11 UNL     1      -5.408  -0.820  -1.486  1.00  0.00     0.002 C 
HETATM   10  C12 UNL     1      -5.937  -0.496  -0.161  1.00  0.00     0.002 C 
HETATM   11  C13 UNL     1      -5.148   0.235   0.838  1.00  0.00     0.020 C 
HETATM   12  C14 UNL     1      -3.765  -0.272   1.104  1.00  0.00     0.124 C 
ENDBRANCH   4   6
ENDBRANCH   2   4
BRANCH   3  13
HETATM   13  C2  UNL     1       2.028   0.168   1.318  1.00  0.00     0.189 C 
BRANCH  13  14
HETATM   14  C3  UNL     1       2.727   0.383  -0.033  1.00  0.00     0.331 C 
BRANCH  14  15
HETATM   15  N2  UNL     1       4.132   0.543   0.180  1.00  0.00     0.098 N 
HETATM   16  C4  UNL     1       4.802  -0.567   0.670  1.00  0.00     0.299 C 
HETATM   17  C5  UNL     1       5.868  -1.050  -0.320  1.00  0.00     0.198 C 
HETATM   18  O2  UNL     1       6.671  -0.035  -0.687  1.00  0.00    -0.388 OA
HETATM   19  C6  UNL     1       6.124   1.138  -1.121  1.00  0.00     0.198 C 
HETATM   20  C7  UNL     1       4.679   1.249  -0.957  1.00  0.00     0.299 C 
ENDBRANCH  14  15
ENDBRANCH  13  14
ENDBRANCH   3  13
TORSDOF 5
