REMARK  3 active torsions:
REMARK  status: ('A' for Active; 'I' for Inactive)
REMARK       I    between atoms: C2_2  and  N1_4 
REMARK    1  A    between atoms: N1_4  and  C3_6 
REMARK    2  A    between atoms: C3_6  and  C4_7 
REMARK    3  A    between atoms: C4_7  and  N2_8 
ROOT
HETATM    1  N2  UNL     1       0.606  -0.281  -0.289  1.00  0.00    -0.257 NA
HETATM    2  C5  UNL     1       0.782  -1.633  -0.687  1.00  0.00     0.338 C 
HETATM    3  N3  UNL     1       0.067  -2.637   0.004  1.00  0.00     0.048 N 
HETATM    4  O2  UNL     1       0.865  -3.766  -0.001  1.00  0.00    -0.059 OA
HETATM    5  C6  UNL     1      -1.129  -3.090  -0.726  1.00  0.00     0.345 C 
HETATM    6  C7  UNL     1      -2.298  -2.170  -0.517  1.00  0.00     0.205 C 
HETATM    7  O3  UNL     1      -1.985  -0.966  -1.121  1.00  0.00    -0.376 OA
HETATM    8  C8  UNL     1      -1.781   0.066  -0.220  1.00  0.00     0.077 C 
HETATM    9  C9  UNL     1      -1.662   1.327  -1.099  1.00  0.00     0.040 C 
HETATM   10  C10 UNL     1      -3.079   1.659  -1.583  1.00  0.00     0.003 C 
HETATM   11  C11 UNL     1      -3.742   2.424  -0.450  1.00  0.00     0.000 C 
HETATM   12  C12 UNL     1      -3.315   1.748   0.840  1.00  0.00     0.003 C 
HETATM   13  C13 UNL     1      -3.020   0.264   0.584  1.00  0.00     0.040 C 
HETATM   14  C14 UNL     1      -0.525  -0.012   0.557  1.00  0.00     0.101 C 
HETATM   15  C15 UNL     1      -0.478  -0.942   1.710  1.00  0.00     0.060 C 
HETATM   16  C16 UNL     1      -0.254  -2.376   1.366  1.00  0.00     0.321 C 
ENDROOT
BRANCH   1  17
HETATM   17  C4  UNL     1       1.775   0.305   0.325  1.00  0.00     0.117 C 
BRANCH  17  18
HETATM   18  C3  UNL     1       2.935   0.515  -0.582  1.00  0.00     0.137 C 
BRANCH  18  19
HETATM   19  N1  UNL     1       4.022   1.102   0.172  1.00  0.00    -0.360 N 
HETATM   20  C2  UNL     1       5.276   1.424  -0.416  1.00  0.00     0.213 C 
HETATM   21  C1  UNL     1       6.347   2.022   0.420  1.00  0.00     0.117 C 
HETATM   22  O1  UNL     1       5.537   1.228  -1.623  1.00  0.00    -0.274 OA
ATOM     23  H1  UNL     1       3.883   1.292   1.164  1.00  0.00     0.162 HD
ENDBRANCH  18  19
ENDBRANCH  17  18
ENDBRANCH   1  17
TORSDOF 3
