REMARK  4 active torsions:
REMARK  status: ('A' for Active; 'I' for Inactive)
REMARK    1  A    between atoms: N1_2  and  C3_4 
REMARK    2  A    between atoms: C3_4  and  C4_5 
REMARK    3  A    between atoms: C4_5  and  N2_6 
REMARK    4  A    between atoms: N4_20  and  C15_21 
ROOT
HETATM    1  N2  UNL     1       1.146  -0.860  -0.087  1.00  0.00    -0.347 N 
HETATM    2  C5  UNL     1       1.046  -1.847   0.975  1.00  0.00     0.153 C 
HETATM    3  C6  UNL     1      -0.214  -1.655   1.787  1.00  0.00     0.253 C 
HETATM    4  N3  UNL     1      -1.333  -1.260   1.005  1.00  0.00    -0.053 N 
ATOM      5  H31 UNL     1      -2.183  -1.247   1.568  1.00  0.00     0.278 HD
ATOM      6  H32 UNL     1      -1.585  -1.989   0.338  1.00  0.00     0.278 HD
HETATM    7  C7  UNL     1      -1.142  -0.006   0.341  1.00  0.00     0.230 C 
HETATM    8  C8  UNL     1      -0.891   1.135   1.305  1.00  0.00     0.052 C 
HETATM    9  C9  UNL     1      -1.148   2.331   0.447  1.00  0.00     0.005 C 
HETATM   10  C10 UNL     1      -2.135   1.902  -0.623  1.00  0.00     0.034 C 
HETATM   11  C11 UNL     1      -2.373   0.424  -0.429  1.00  0.00     0.077 C 
HETATM   12  C12 UNL     1      -2.530  -0.338  -1.721  1.00  0.00     0.036 C 
HETATM   13  C13 UNL     1      -3.817  -1.157  -1.602  1.00  0.00     0.022 C 
HETATM   14  C14 UNL     1      -4.292  -0.945  -0.176  1.00  0.00     0.126 C 
HETATM   15  N4  UNL     1      -3.599   0.243   0.288  1.00  0.00    -0.347 N 
HETATM   16  C16 UNL     1       0.036  -0.088  -0.523  1.00  0.00     0.259 C 
HETATM   17  O2  UNL     1       0.146   0.482  -1.637  1.00  0.00    -0.270 OA
ENDROOT
BRANCH  15  18
HETATM   18  C15 UNL     1      -4.088   1.092   1.301  1.00  0.00     0.351 C 
HETATM   19  O1  UNL     1      -5.178   0.832   1.876  1.00  0.00    -0.284 OA
ENDBRANCH  15  18
BRANCH   1  20
HETATM   20  C4  UNL     1       2.482  -0.722  -0.667  1.00  0.00     0.156 C 
BRANCH  20  21
HETATM   21  C3  UNL     1       3.219   0.323   0.131  1.00  0.00     0.291 C 
BRANCH  21  22
HETATM   22  N1  UNL     1       4.558   0.566  -0.325  1.00  0.00     0.081 N 
HETATM   23  C1  UNL     1       4.640   1.203  -1.614  1.00  0.00     0.309 C 
HETATM   24  C2  UNL     1       5.432  -0.569  -0.201  1.00  0.00     0.309 C 
ENDBRANCH  21  22
ENDBRANCH  20  21
ENDBRANCH   1  20
TORSDOF 4
