REMARK  4 active torsions:
REMARK  status: ('A' for Active; 'I' for Inactive)
REMARK    1  A    between atoms: C1_2  and  C2_3 
REMARK       I    between atoms: C1_2  and  N2_11 
REMARK    2  A    between atoms: C2_3  and  C3_4 
REMARK    3  A    between atoms: C3_4  and  N1_5 
REMARK    4  A    between atoms: N2_11  and  C8_13 
ROOT
HETATM    1  O1  UNL     1      -0.931  -0.557   1.546  1.00  0.00    -0.273 OA
HETATM    2  C1  UNL     1      -0.991  -0.238   0.335  1.00  0.00     0.225 C 
HETATM    3  N2  UNL     1      -0.509   1.069  -0.045  1.00  0.00    -0.307 N 
ATOM      4  H2  UNL     1      -1.136   1.851  -0.235  1.00  0.00     0.171 HD
ENDROOT
BRANCH   3   5
HETATM    5  C8  UNL     1       0.803   1.176  -0.128  1.00  0.00     0.152 A 
HETATM    6  N3  UNL     1       1.744   0.267   0.085  1.00  0.00    -0.333 N 
HETATM    7  C9  UNL     1       3.010   0.612  -0.062  1.00  0.00     0.093 A 
ATOM      8  H3  UNL     1       1.494  -0.683   0.358  1.00  0.00     0.168 HD
HETATM    9  C10 UNL     1       3.271   1.901  -0.428  1.00  0.00     0.017 A 
HETATM   10  C14 UNL     1       4.209  -0.264   0.132  1.00  0.00     0.176 C 
HETATM   11  S1  UNL     1       1.714   2.569  -0.549  1.00  0.00    -0.056 SA
HETATM   12  C11 UNL     1       4.624   2.486  -0.646  1.00  0.00     0.049 C 
HETATM   13  C12 UNL     1       5.700   1.468  -0.618  1.00  0.00     0.013 C 
HETATM   14  C13 UNL     1       5.475   0.460   0.470  1.00  0.00     0.086 C 
HETATM   15  O3  UNL     1       4.134  -1.509   0.016  1.00  0.00    -0.291 OA
ENDBRANCH   3   5
BRANCH   2  16
HETATM   16  C2  UNL     1      -1.529  -1.173  -0.650  1.00  0.00     0.123 C 
BRANCH  16  17
HETATM   17  C3  UNL     1      -2.426  -2.205  -0.059  1.00  0.00     0.135 C 
BRANCH  17  18
HETATM   18  N1  UNL     1      -3.585  -1.644   0.532  1.00  0.00    -0.352 N 
HETATM   19  C4  UNL     1      -4.812  -1.273  -0.242  1.00  0.00     0.126 C 
HETATM   20  C5  UNL     1      -5.020   0.115   0.321  1.00  0.00     0.029 C 
HETATM   21  C6  UNL     1      -4.725  -0.037   1.787  1.00  0.00     0.104 C 
HETATM   22  C7  UNL     1      -3.904  -1.268   1.861  1.00  0.00     0.219 C 
HETATM   23  O2  UNL     1      -3.544  -1.887   2.883  1.00  0.00    -0.273 OA
ENDBRANCH  17  18
ENDBRANCH  16  17
ENDBRANCH   2  16
TORSDOF 4
