REMARK  6 active torsions:
REMARK  status: ('A' for Active; 'I' for Inactive)
REMARK    1  A    between atoms: C4_4  and  C5_5 
REMARK    2  A    between atoms: C7_7  and  C8_8 
REMARK    3  A    between atoms: C8_8  and  O1_9 
REMARK    4  A    between atoms: O1_9  and  C9_10 
REMARK    5  A    between atoms: C9_10  and  O2_11 
REMARK    6  A    between atoms: C9_10  and  C10_13 
ROOT
HETATM    1  C10 UNL     1      -1.092   1.176   0.274  1.00  0.00     0.050 C 
HETATM    2  C11 UNL     1      -1.800   0.260   1.296  1.00  0.00     0.019 C 
HETATM    3  C12 UNL     1      -3.247   0.600   0.925  1.00  0.00    -0.039 C 
HETATM    4  C13 UNL     1      -3.603   2.000   1.376  1.00  0.00     0.015 C 
HETATM    5  C14 UNL     1      -4.217  -0.328   1.573  1.00  0.00     0.010 C 
HETATM    6  C15 UNL     1      -5.332  -0.634   0.592  1.00  0.00     0.005 C 
HETATM    7  C16 UNL     1      -4.723  -1.495  -0.474  1.00  0.00    -0.018 C 
HETATM    8  C17 UNL     1      -4.344  -2.821   0.201  1.00  0.00     0.010 C 
HETATM    9  C18 UNL     1      -3.537  -0.850  -1.121  1.00  0.00     0.010 C 
HETATM   10  C19 UNL     1      -3.196   0.510  -0.582  1.00  0.00     0.002 C 
HETATM   11  C20 UNL     1      -1.764   0.887  -0.993  1.00  0.00    -0.035 C 
HETATM   12  C21 UNL     1      -1.146  -0.106  -1.900  1.00  0.00     0.016 C 
HETATM   13  C22 UNL     1      -1.891   2.183  -1.803  1.00  0.00     0.016 C 
ENDROOT
BRANCH   1  14
HETATM   14  C9  UNL     1       0.359   1.174   0.410  1.00  0.00     0.261 C 
BRANCH  14  15
HETATM   15  O1  UNL     1       1.066   0.023   0.262  1.00  0.00    -0.357 OA
BRANCH  15  16
HETATM   16  C8  UNL     1       2.216   0.313  -0.516  1.00  0.00     0.198 C 
BRANCH  16  17
HETATM   17  C7  UNL     1       3.043  -0.841  -0.748  1.00  0.00     0.006 C 
HETATM   18  C5  UNL     1       4.305  -0.952  -0.369  1.00  0.00    -0.064 C 
HETATM   19  C6  UNL     1       4.950  -2.241  -0.718  1.00  0.00     0.048 C 
BRANCH  18  20
HETATM   20  C4  UNL     1       5.031   0.075   0.334  1.00  0.00     0.008 C 
HETATM   21  C2  UNL     1       6.248   0.111   0.759  1.00  0.00    -0.087 C 
HETATM   22  C1  UNL     1       7.257  -0.928   0.635  1.00  0.00     0.043 C 
HETATM   23  C3  UNL     1       6.721   1.379   1.481  1.00  0.00     0.043 C 
ENDBRANCH  18  20
ENDBRANCH  16  17
ENDBRANCH  15  16
ENDBRANCH  14  15
BRANCH  14  24
HETATM   24  O2  UNL     1       0.611   1.553   1.778  1.00  0.00    -0.371 OA
ATOM     25  H2  UNL     1       0.117   2.358   1.881  1.00  0.00     0.212 HD
ENDBRANCH  14  24
ENDBRANCH   1  14
TORSDOF 6
