REMARK  2 active torsions:
REMARK  status: ('A' for Active; 'I' for Inactive)
REMARK    1  A    between atoms: C6_6  and  N1_7 
REMARK       I    between atoms: N1_7  and  C7_8 
REMARK    2  A    between atoms: C7_8  and  C8_10 
ROOT
HETATM    1  N1  UNL     1       0.322  -0.986   0.468  1.00  0.00    -0.365 NA
HETATM    2  C7  UNL     1      -0.653  -1.900   0.298  1.00  0.00     0.329 C 
HETATM    3  O1  UNL     1      -0.480  -3.113   0.626  1.00  0.00    -0.251 OA
ENDROOT
BRANCH   1   4
HETATM    4  C6  UNL     1       1.295  -0.075   0.638  1.00  0.00     0.123 A 
HETATM    5  C4  UNL     1       2.219   0.203  -0.361  1.00  0.00    -0.020 A 
HETATM    6  C3  UNL     1       3.206   1.141  -0.230  1.00  0.00     0.017 A 
HETATM    7  C5  UNL     1       2.139  -0.564  -1.641  1.00  0.00     0.052 C 
HETATM    8  C2  UNL     1       3.289   1.842   0.939  1.00  0.00    -0.061 A 
HETATM    9  C1  UNL     1       4.353   2.874   1.114  1.00  0.00     0.048 C 
HETATM   10  C16 UNL     1       2.413   1.614   1.951  1.00  0.00     0.017 A 
HETATM   11  C14 UNL     1       1.421   0.667   1.813  1.00  0.00    -0.020 A 
HETATM   12  C15 UNL     1       0.436   0.346   2.876  1.00  0.00     0.052 C 
ENDBRANCH   1   4
BRANCH   2  13
HETATM   13  C8  UNL     1      -2.033  -1.646  -0.278  1.00  0.00     0.084 A 
HETATM   14  C9  UNL     1      -2.919  -2.689  -0.419  1.00  0.00     0.104 A 
HETATM   15  N2  UNL     1      -2.729  -4.078  -0.077  1.00  0.00    -0.093 NA
HETATM   16  S1  UNL     1      -4.313  -1.973  -1.091  1.00  0.00    -0.079 SA
HETATM   17  C10 UNL     1      -3.759  -0.370  -1.183  1.00  0.00    -0.013 A 
HETATM   18  C11 UNL     1      -4.519   0.833  -1.705  1.00  0.00     0.057 C 
HETATM   19  C12 UNL     1      -2.482  -0.436  -0.680  1.00  0.00    -0.030 A 
HETATM   20  C13 UNL     1      -1.683   0.859  -0.595  1.00  0.00     0.050 C 
ENDBRANCH   2  13
TORSDOF 2
