REMARK  4 active torsions:
REMARK  status: ('A' for Active; 'I' for Inactive)
REMARK       I    between atoms: C2_2  and  N1_4 
REMARK    1  A    between atoms: N1_4  and  C3_6 
REMARK    2  A    between atoms: C4_8  and  C5_9 
REMARK    3  A    between atoms: C9_13  and  O2_14 
REMARK    4  A    between atoms: C10_16  and  C11_17 
ROOT
HETATM    1  C3  UNL     1      -1.036   0.689  -0.276  1.00  0.00     0.086 A 
HETATM    2  S1  UNL     1       0.323   1.683  -0.042  1.00  0.00    -0.073 SA
HETATM    3  C4  UNL     1       1.519   0.466   0.143  1.00  0.00     0.026 A 
HETATM    4  C9  UNL     1       0.802  -0.674   0.013  1.00  0.00     0.089 A 
HETATM    5  C10 UNL     1      -0.518  -0.583  -0.204  1.00  0.00     0.018 A 
ENDROOT
BRANCH   1   6
HETATM    6  N1  UNL     1      -2.361   1.151  -0.486  1.00  0.00    -0.321 N 
HETATM    7  C2  UNL     1      -2.604   2.550  -0.512  1.00  0.00     0.218 C 
HETATM    8  C1  UNL     1      -3.947   3.131  -0.723  1.00  0.00     0.117 C 
HETATM    9  O1  UNL     1      -1.654   3.380  -0.349  1.00  0.00    -0.274 OA
ATOM     10  H1  UNL     1      -3.126   0.489  -0.616  1.00  0.00     0.169 HD
ENDBRANCH   1   6
BRANCH   5  11
HETATM   11  C11 UNL     1      -1.479  -1.741  -0.382  1.00  0.00    -0.019 C 
HETATM   12  C12 UNL     1      -0.823  -3.076  -0.279  1.00  0.00     0.019 C 
HETATM   13  C13 UNL     1      -2.110  -1.619  -1.743  1.00  0.00     0.019 C 
HETATM   14  C14 UNL     1      -2.527  -1.678   0.727  1.00  0.00     0.019 C 
ENDBRANCH   5  11
BRANCH   3  15
HETATM   15  C5  UNL     1       2.998   0.648   0.389  1.00  0.00    -0.015 C 
HETATM   16  C6  UNL     1       3.229   2.145   0.443  1.00  0.00     0.020 C 
HETATM   17  C7  UNL     1       3.804   0.090  -0.744  1.00  0.00     0.020 C 
HETATM   18  C8  UNL     1       3.397   0.073   1.717  1.00  0.00     0.020 C 
ENDBRANCH   3  15
BRANCH   4  19
HETATM   19  O2  UNL     1       1.463  -1.925   0.109  1.00  0.00    -0.359 OA
ATOM     20  H2  UNL     1       0.960  -2.725   0.018  1.00  0.00     0.217 HD
ENDBRANCH   4  19
TORSDOF 4
