REMARK  3 active torsions:
REMARK  status: ('A' for Active; 'I' for Inactive)
REMARK    1  A    between atoms: C9_10  and  N1_11 
REMARK    2  A    between atoms: N1_11  and  N2_13 
REMARK       I    between atoms: N2_13  and  C10_15 
REMARK       I    between atoms: C10_15  and  N3_17 
REMARK    3  A    between atoms: N3_17  and  C11_19 
ROOT
HETATM    1  N1  UNL     1      -0.344   0.559   0.490  1.00  0.00    -0.299 N 
ATOM      2  H1  UNL     1      -0.552   0.299   1.454  1.00  0.00     0.186 HD
ENDROOT
BRANCH   1   3
HETATM    3  C9  UNL     1      -1.354   0.696  -0.327  1.00  0.00     0.051 C 
HETATM    4  C2  UNL     1      -1.203   1.058  -1.706  1.00  0.00     0.016 C 
HETATM    5  C1  UNL     1      -0.247   0.848  -2.574  1.00  0.00     0.033 C 
HETATM    6  S1  UNL     1      -2.732   1.956  -2.079  1.00  0.00    -0.118 SA
HETATM    7  C3  UNL     1      -3.692   1.205  -0.732  1.00  0.00     0.018 C 
HETATM    8  C4  UNL     1      -4.483   2.254   0.018  1.00  0.00     0.028 C 
HETATM    9  C5  UNL     1      -4.708   0.286  -1.390  1.00  0.00     0.028 C 
HETATM   10  C6  UNL     1      -2.714   0.482   0.124  1.00  0.00     0.014 C 
HETATM   11  C7  UNL     1      -2.833   0.810   1.586  1.00  0.00     0.023 C 
HETATM   12  C8  UNL     1      -3.005  -1.023   0.003  1.00  0.00     0.023 C 
ENDBRANCH   1   3
BRANCH   1  13
HETATM   13  N2  UNL     1       0.974   0.737   0.156  1.00  0.00    -0.251 N 
HETATM   14  C10 UNL     1       1.946  -0.220   0.601  1.00  0.00     0.335 C 
HETATM   15  O1  UNL     1       1.595  -1.220   1.293  1.00  0.00    -0.246 OA
HETATM   16  N3  UNL     1       3.312  -0.073   0.280  1.00  0.00    -0.334 N 
ATOM     17  H3  UNL     1       3.613   0.727  -0.277  1.00  0.00     0.165 HD
ATOM     18  H2  UNL     1       1.260   1.541  -0.403  1.00  0.00     0.191 HD
BRANCH  16  19
HETATM   19  C11 UNL     1       4.288  -1.033   0.726  1.00  0.00     0.023 C 
HETATM   20  C12 UNL     1       4.284  -1.088   2.244  1.00  0.00     0.037 C 
HETATM   21  C13 UNL     1       4.000  -2.426   0.186  1.00  0.00     0.037 C 
HETATM   22  C14 UNL     1       5.678  -0.659   0.263  1.00  0.00     0.037 C 
ENDBRANCH  16  19
ENDBRANCH   1  13
TORSDOF 3
