REMARK  4 active torsions:
REMARK  status: ('A' for Active; 'I' for Inactive)
REMARK    1  A    between atoms: C3_3  and  C4_4 
REMARK    2  A    between atoms: C10_11  and  S2_12 
REMARK    3  A    between atoms: S2_12  and  N1_13 
REMARK    4  A    between atoms: N1_13  and  O1_15 
ROOT
HETATM    1  C1  UNL     1      -1.240   1.145   1.398  1.00  0.00     0.050 C 
HETATM    2  C2  UNL     1      -0.628   0.208   0.362  1.00  0.00    -0.036 A 
HETATM    3  C3  UNL     1      -1.443  -0.366  -0.568  1.00  0.00    -0.002 A 
HETATM    4  S1  UNL     1      -0.369  -1.306  -1.494  1.00  0.00    -0.093 SA
HETATM    5  C8  UNL     1       1.089  -0.948  -0.679  1.00  0.00     0.017 A 
HETATM    6  C9  UNL     1       2.427  -1.330  -0.833  1.00  0.00     0.042 A 
HETATM    7  C10 UNL     1       3.419  -0.856   0.014  1.00  0.00     0.049 A 
HETATM    8  C11 UNL     1       3.028   0.008   1.013  1.00  0.00     0.065 A 
HETATM    9  N2  UNL     1       4.034   0.517   1.908  1.00  0.00    -0.101 NA
HETATM   10  C12 UNL     1       1.721   0.374   1.153  1.00  0.00     0.041 A 
HETATM   11  C13 UNL     1       0.686  -0.088   0.311  1.00  0.00    -0.010 A 
ENDROOT
BRANCH   7  12
HETATM   12  S2  UNL     1       5.120  -1.379  -0.228  1.00  0.00     0.009 SA
BRANCH  12  13
HETATM   13  N1  UNL     1       6.244  -0.271  -0.534  1.00  0.00    -0.237 N 
ATOM     14  H1  UNL     1       7.211  -0.564  -0.672  1.00  0.00     0.203 HD
BRANCH  13  15
HETATM   15  O1  UNL     1       5.926   1.066  -0.613  1.00  0.00    -0.283 OA
ATOM     16  H1  UNL     1       6.590   1.721  -0.794  1.00  0.00     0.245 HD
ENDBRANCH  13  15
ENDBRANCH  12  13
ENDBRANCH   7  12
BRANCH   3  17
HETATM   17  C4  UNL     1      -2.928  -0.218  -0.746  1.00  0.00    -0.017 C 
HETATM   18  C5  UNL     1      -3.294  -1.093  -1.948  1.00  0.00     0.020 C 
HETATM   19  C6  UNL     1      -3.685  -0.746   0.448  1.00  0.00     0.020 C 
HETATM   20  C7  UNL     1      -3.323   1.195  -1.051  1.00  0.00     0.020 C 
ENDBRANCH   3  17
TORSDOF 4
