REMARK  4 active torsions:
REMARK  status: ('A' for Active; 'I' for Inactive)
REMARK    1  A    between atoms: C4_6  and  O2_7 
REMARK    2  A    between atoms: C5_9  and  C6_10 
REMARK    3  A    between atoms: C6_10  and  O3_11 
REMARK    4  A    between atoms: C7_14  and  C8_15 
ROOT
HETATM    1  C1  UNL     1      -2.369  -0.664   0.689  1.00  0.00     0.064 C 
HETATM    2  C2  UNL     1      -2.085  -0.064  -0.632  1.00  0.00     0.142 C 
HETATM    3 CL1  UNL     1      -3.675   0.385  -1.377  1.00  0.00    -0.088 Cl
HETATM    4  O1  UNL     1      -1.569  -1.081  -1.477  1.00  0.00    -0.356 OA
HETATM    5  C3  UNL     1      -0.401  -0.353  -1.630  1.00  0.00     0.166 C 
HETATM    6  C4  UNL     1       0.746  -1.000  -0.980  1.00  0.00     0.178 C 
HETATM    7  C5  UNL     1       1.293  -0.328   0.235  1.00  0.00     0.176 C 
HETATM    8  O4  UNL     1       1.205   1.025   0.083  1.00  0.00    -0.374 OA
HETATM    9  C7  UNL     1      -0.126   1.502   0.039  1.00  0.00     0.142 C 
HETATM   10  C9  UNL     1      -0.992   0.837  -0.911  1.00  0.00     0.097 C 
ENDROOT
BRANCH   7  11
HETATM   11  C6  UNL     1       2.755  -0.669   0.437  1.00  0.00     0.198 C 
BRANCH  11  12
HETATM   12  O3  UNL     1       3.529  -0.271  -0.661  1.00  0.00    -0.398 OA
ATOM     13  H3  UNL     1       4.446  -0.485  -0.534  1.00  0.00     0.209 HD
ENDBRANCH  11  12
ENDBRANCH   7  11
BRANCH   6  14
HETATM   14  O2  UNL     1       0.445  -2.333  -0.608  1.00  0.00    -0.390 OA
ATOM     15  H2  UNL     1       1.187  -2.752  -0.188  1.00  0.00     0.210 HD
ENDBRANCH   6  14
BRANCH   9  16
HETATM   16  C8  UNL     1      -0.579   1.595   1.474  1.00  0.00     0.117 C 
HETATM   17 BR1  UNL     1       0.625   2.847   2.403  1.00  0.00    -0.094 Br
ENDBRANCH   9  16
TORSDOF 4
