REMARK  4 active torsions:
REMARK  status: ('A' for Active; 'I' for Inactive)
REMARK    1  A    between atoms: N1_4  and  C4_5 
REMARK    2  A    between atoms: C4_5  and  C5_6 
REMARK       I    between atoms: C5_6  and  N2_8 
REMARK    3  A    between atoms: C8_11  and  O2_12 
REMARK    4  A    between atoms: C11_16  and  C12_17 
ROOT
HETATM    1  C1  UNL     1      -3.616   2.541  -1.469  1.00  0.00     0.042 C 
HETATM    2  C2  UNL     1      -3.299   1.451  -0.468  1.00  0.00     0.210 C 
HETATM    3  C3  UNL     1      -1.878   1.059  -0.658  1.00  0.00     0.306 C 
HETATM    4  N1  UNL     1      -1.434  -0.105   0.056  1.00  0.00     0.111 N 
HETATM    5  C11 UNL     1      -2.326  -1.184  -0.049  1.00  0.00     0.320 C 
HETATM    6  C14 UNL     1      -3.793  -0.740   0.029  1.00  0.00     0.274 C 
HETATM    7  N3  UNL     1      -4.102   0.295  -0.910  1.00  0.00    -0.067 N 
ATOM      8  H31 UNL     1      -3.950   0.032  -1.884  1.00  0.00     0.277 HD
ATOM      9  H32 UNL     1      -5.099   0.491  -0.999  1.00  0.00     0.277 HD
ENDROOT
BRANCH   4  10
HETATM   10  C4  UNL     1      -0.080  -0.354  -0.274  1.00  0.00     0.375 C 
BRANCH  10  11
HETATM   11  C5  UNL     1       0.880   0.624   0.302  1.00  0.00     0.248 C 
HETATM   12  O1  UNL     1       0.543   1.582   1.047  1.00  0.00    -0.271 OA
HETATM   13  N2  UNL     1       2.244   0.474  -0.003  1.00  0.00    -0.350 N 
HETATM   14  C6  UNL     1       2.724  -0.565  -0.872  1.00  0.00     0.128 C 
HETATM   15  C10 UNL     1       3.208   1.380   0.575  1.00  0.00     0.128 C 
HETATM   16  C7  UNL     1       3.843  -1.291  -0.160  1.00  0.00     0.051 C 
HETATM   17  C8  UNL     1       4.974  -0.372   0.205  1.00  0.00     0.121 C 
HETATM   18  C9  UNL     1       4.615   1.082   0.122  1.00  0.00     0.051 C 
BRANCH  17  19
HETATM   19  O2  UNL     1       5.486  -0.643   1.482  1.00  0.00    -0.395 OA
ATOM     20  H2  UNL     1       6.201  -0.062   1.713  1.00  0.00     0.210 HD
ENDBRANCH  17  19
ENDBRANCH  10  11
ENDBRANCH   4  10
BRANCH   5  21
HETATM   21  C12 UNL     1      -2.225  -2.243   1.027  1.00  0.00     0.272 C 
HETATM   22  C13 UNL     1      -2.472  -1.613   2.360  1.00  0.00     0.092 C 
HETATM   23  F1  UNL     1      -1.154  -3.063   0.951  1.00  0.00    -0.204 F 
HETATM   24  F2  UNL     1      -3.338  -3.079   0.797  1.00  0.00    -0.204 F 
ENDBRANCH   5  21
TORSDOF 4
