REMARK  5 active torsions:
REMARK  status: ('A' for Active; 'I' for Inactive)
REMARK    1  A    between atoms: C2_2  and  N1_3 
REMARK    2  A    between atoms: N1_3  and  N2_4 
REMARK       I    between atoms: N1_3  and  C10_21 
REMARK    3  A    between atoms: N2_4  and  C3_6 
REMARK    4  A    between atoms: C3_6  and  N3_8 
REMARK    5  A    between atoms: N3_8  and  N4_10 
ROOT
HETATM    1  N3  UNL     1      -0.111   1.917   0.326  1.00  0.00    -0.275 N 
ATOM      2  H3  UNL     1      -0.486   2.757   0.767  1.00  0.00     0.189 HD
ENDROOT
BRANCH   1   3
HETATM    3  C3  UNL     1       1.200   1.492   0.719  1.00  0.00     0.205 C 
HETATM    4  S1  UNL     1       1.931   2.451   1.836  1.00  0.00    -0.038 SA
BRANCH   3   5
HETATM    5  N2  UNL     1       1.735   0.345   0.142  1.00  0.00    -0.270 N 
ATOM      6  H2  UNL     1       1.127  -0.121  -0.532  1.00  0.00     0.189 HD
BRANCH   5   7
HETATM    7  N1  UNL     1       2.944  -0.254   0.336  1.00  0.00    -0.260 N 
HETATM    8  C10 UNL     1       3.159  -1.613  -0.106  1.00  0.00     0.234 C 
HETATM    9  C11 UNL     1       4.452  -2.254   0.054  1.00  0.00     0.119 C 
HETATM   10  O1  UNL     1       2.161  -2.223  -0.635  1.00  0.00    -0.272 OA
BRANCH   7  11
HETATM   11  C2  UNL     1       4.082   0.390   0.919  1.00  0.00     0.148 C 
HETATM   12  C1  UNL     1       4.827   1.137  -0.169  1.00  0.00     0.028 C 
ENDBRANCH   7  11
ENDBRANCH   5   7
ENDBRANCH   3   5
ENDBRANCH   1   3
BRANCH   1  13
HETATM   13  N4  UNL     1      -0.894   1.286  -0.591  1.00  0.00    -0.299 N 
HETATM   14  C4  UNL     1      -1.877   0.516  -0.467  1.00  0.00     0.092 C 
HETATM   15  C5  UNL     1      -2.401   0.126   0.859  1.00  0.00     0.176 C 
HETATM   16  C9  UNL     1      -2.552  -0.005  -1.696  1.00  0.00     0.286 C 
HETATM   17  N5  UNL     1      -3.830  -0.038   0.754  1.00  0.00    -0.411 N 
HETATM   18  C6  UNL     1      -4.301  -1.374   0.923  1.00  0.00     0.143 C 
HETATM   19  C7  UNL     1      -4.473   0.705  -0.269  1.00  0.00     0.123 C 
HETATM   20  C8  UNL     1      -4.022   0.365  -1.672  1.00  0.00     0.105 C 
HETATM   21  F1  UNL     1      -2.339  -1.363  -1.768  1.00  0.00    -0.199 F 
HETATM   22  F2  UNL     1      -1.983   0.568  -2.805  1.00  0.00    -0.199 F 
ATOM     23  H4  UNL     1      -0.633   1.474  -1.559  1.00  0.00     0.186 HD
ENDBRANCH   1  13
TORSDOF 5
