REMARK  4 active torsions:
REMARK  status: ('A' for Active; 'I' for Inactive)
REMARK    1  A    between atoms: C3_3  and  O1_4 
REMARK    2  A    between atoms: C4_6  and  O2_7 
REMARK    3  A    between atoms: N1_13  and  C8_14 
REMARK    4  A    between atoms: C8_14  and  C9_16 
ROOT
HETATM    1  C1  UNL     1      -2.860   0.374   1.413  1.00  0.00     0.015 C 
HETATM    2  C2  UNL     1      -1.828  -0.336   0.572  1.00  0.00     0.044 C 
HETATM    3  C3  UNL     1      -1.874   0.038  -0.885  1.00  0.00     0.155 C 
HETATM    4  C4  UNL     1      -0.498  -0.332  -1.370  1.00  0.00     0.183 C 
HETATM    5  C5  UNL     1       0.418  -0.357  -0.171  1.00  0.00     0.287 C 
HETATM    6  C6  UNL     1      -0.439   0.091   0.985  1.00  0.00     0.166 C 
HETATM    7  O3  UNL     1      -0.316   1.466   1.041  1.00  0.00    -0.354 OA
HETATM    8  C7  UNL     1       0.681   1.854   0.159  1.00  0.00     0.443 C 
HETATM    9  N1  UNL     1       1.367   0.696  -0.279  1.00  0.00     0.137 N 
ENDROOT
BRANCH   9  10
HETATM   10  C8  UNL     1       2.644   0.434   0.279  1.00  0.00     0.311 C 
HETATM   11 BR1  UNL     1       2.595   0.021   2.158  1.00  0.00    -0.057 Br
BRANCH  10  12
HETATM   12  C9  UNL     1       3.384  -0.671  -0.428  1.00  0.00     0.162 C 
HETATM   13 CL1  UNL     1       4.973  -0.924   0.370  1.00  0.00    -0.127 Cl
ENDBRANCH  10  12
ENDBRANCH   9  10
BRANCH   4  14
HETATM   14  O2  UNL     1      -0.594  -1.578  -1.979  1.00  0.00    -0.391 OA
ATOM     15  H2  UNL     1       0.274  -1.812  -2.285  1.00  0.00     0.210 HD
ENDBRANCH   4  14
BRANCH   3  16
HETATM   16  O1  UNL     1      -2.880  -0.707  -1.494  1.00  0.00    -0.392 OA
ATOM     17  H1  UNL     1      -2.909  -0.471  -2.414  1.00  0.00     0.210 HD
ENDBRANCH   3  16
TORSDOF 4
