REMARK  3 active torsions:
REMARK  status: ('A' for Active; 'I' for Inactive)
REMARK    1  A    between atoms: O1_1  and  C1_3 
REMARK    2  A    between atoms: C1_3  and  C2_4 
REMARK    3  A    between atoms: C2_4  and  C3_5 
ROOT
HETATM    1  C2  UNL     1      -1.685   0.386   0.243  1.00  0.00     0.108 C 
HETATM    2  O2  UNL     1      -0.961   0.769   1.349  1.00  0.00    -0.371 OA
HETATM    3  C4  UNL     1       0.250   0.194   1.496  1.00  0.00     0.237 C 
HETATM    4  C5  UNL     1       1.079  -0.005   0.290  1.00  0.00     0.249 C 
HETATM    5  C6  UNL     1       0.352  -0.090  -1.000  1.00  0.00     0.094 C 
HETATM    6  C7  UNL     1      -0.891   0.798  -0.973  1.00  0.00     0.124 C 
HETATM    7 CL1  UNL     1      -0.277   2.464  -0.685  1.00  0.00    -0.122 Cl
HETATM    8  N1  UNL     1       1.912  -1.195   0.529  1.00  0.00    -0.039 N 
ATOM      9  H11 UNL     1       1.506  -2.051   0.152  1.00  0.00     0.281 HD
ATOM     10  H12 UNL     1       1.931  -1.481   1.508  1.00  0.00     0.281 HD
HETATM   11  C8  UNL     1       3.204  -0.910   0.004  1.00  0.00     0.262 C 
HETATM   12  C9  UNL     1       3.108   0.486  -0.504  1.00  0.00     0.198 C 
HETATM   13  O3  UNL     1       2.042   1.020   0.173  1.00  0.00    -0.351 OA
ENDROOT
BRANCH   1  14
HETATM   14  C1  UNL     1      -1.969  -1.091   0.184  1.00  0.00     0.204 C 
BRANCH  14  15
HETATM   15  O1  UNL     1      -2.707  -1.310  -0.994  1.00  0.00    -0.398 OA
ATOM     16  H1  UNL     1      -2.886  -2.242  -1.031  1.00  0.00     0.209 HD
ENDBRANCH  14  15
ENDBRANCH   1  14
BRANCH   1  17
HETATM   17  C3  UNL     1      -3.032   1.085   0.257  1.00  0.00     0.127 C 
HETATM   18 BR1  UNL     1      -2.887   2.986   0.331  1.00  0.00    -0.093 Br
ENDBRANCH   1  17
TORSDOF 3
