REMARK  4 active torsions:
REMARK  status: ('A' for Active; 'I' for Inactive)
REMARK    1  A    between atoms: C6_7  and  O1_8 
REMARK    2  A    between atoms: O1_8  and  C7_9 
REMARK    3  A    between atoms: C12_15  and  O3_16 
REMARK    4  A    between atoms: C13_18  and  O4_19 
ROOT
HETATM    1  C1  UNL     1       2.201   1.510   2.693  1.00  0.00     0.015 C 
HETATM    2  C2  UNL     1       2.661   0.847   1.805  1.00  0.00    -0.068 C 
HETATM    3  C3  UNL     1       3.199   0.042   0.724  1.00  0.00     0.228 C 
HETATM    4  F1  UNL     1       4.558  -0.045   0.715  1.00  0.00    -0.223 F 
HETATM    5  C4  UNL     1       2.572  -1.358   0.707  1.00  0.00     0.243 C 
HETATM    6  C5  UNL     1       1.116  -1.196   0.934  1.00  0.00     0.072 C 
HETATM    7  C6  UNL     1       0.411  -0.280   0.007  1.00  0.00     0.156 C 
HETATM    8  C12 UNL     1       1.236   0.762  -0.642  1.00  0.00     0.187 C 
HETATM    9  C13 UNL     1       2.704   0.533  -0.626  1.00  0.00     0.159 C 
HETATM   10  C14 UNL     1       2.983  -0.703  -1.489  1.00  0.00     0.277 C 
HETATM   11  N1  UNL     1       2.867  -1.839  -0.606  1.00  0.00    -0.064 N 
ATOM     12  H11 UNL     1       2.187  -2.525  -0.935  1.00  0.00     0.277 HD
ATOM     13  H12 UNL     1       3.691  -2.440  -0.628  1.00  0.00     0.277 HD
ENDROOT
BRANCH   9  14
HETATM   14  O4  UNL     1       3.384   1.641  -1.065  1.00  0.00    -0.381 OA
ATOM     15  H4  UNL     1       3.075   1.948  -1.909  1.00  0.00     0.211 HD
ENDBRANCH   9  14
BRANCH   8  16
HETATM   16  O3  UNL     1       0.869   0.968  -1.989  1.00  0.00    -0.390 OA
ATOM     17  H3  UNL     1       1.399   1.637  -2.406  1.00  0.00     0.210 HD
ENDBRANCH   8  16
BRANCH   7  18
HETATM   18  O1  UNL     1      -0.672   0.251   0.733  1.00  0.00    -0.378 OA
BRANCH  18  19
HETATM   19  C7  UNL     1      -1.890  -0.133   0.250  1.00  0.00     0.126 C 
HETATM   20  C8  UNL     1      -2.758  -0.807   1.300  1.00  0.00     0.058 C 
HETATM   21  C9  UNL     1      -4.147  -0.175   1.310  1.00  0.00     0.170 C 
HETATM   22  O2  UNL     1      -4.674  -0.027   0.054  1.00  0.00    -0.391 OA
HETATM   23  C10 UNL     1      -3.919   0.723  -0.808  1.00  0.00     0.170 C 
HETATM   24  C11 UNL     1      -2.636   1.134  -0.163  1.00  0.00     0.058 C 
ENDBRANCH  18  19
ENDBRANCH   7  18
TORSDOF 4
