REMARK  4 active torsions:
REMARK  status: ('A' for Active; 'I' for Inactive)
REMARK    1  A    between atoms: O1_1  and  C1_3 
REMARK    2  A    between atoms: C1_3  and  C2_4 
REMARK    3  A    between atoms: C3_6  and  C4_7 
REMARK    4  A    between atoms: C6_12  and  O4_13 
ROOT
HETATM    1  C2  UNL     1       1.147   1.384  -0.465  1.00  0.00     0.155 C 
HETATM    2  O2  UNL     1       2.253   0.909  -1.092  1.00  0.00    -0.348 OA
HETATM    3  C3  UNL     1       2.632  -0.360  -0.886  1.00  0.00     0.325 C 
HETATM    4  O3  UNL     1       2.158  -0.994   0.229  1.00  0.00    -0.347 OA
HETATM    5  C5  UNL     1       0.749  -1.020   0.068  1.00  0.00     0.162 C 
HETATM    6  C6  UNL     1       0.279  -1.961   1.145  1.00  0.00     0.165 C 
HETATM    7  C7  UNL     1      -1.218  -2.115   0.998  1.00  0.00     0.148 C 
HETATM    8  N1  UNL     1      -1.810  -0.969   1.583  1.00  0.00    -0.414 N 
ATOM      9  H1  UNL     1      -1.960  -0.897   2.589  1.00  0.00     0.153 HD
HETATM   10  C8  UNL     1      -2.184   0.075   0.694  1.00  0.00     0.081 C 
HETATM   11  C9  UNL     1      -3.297  -0.404  -0.230  1.00  0.00     0.025 C 
HETATM   12  C10 UNL     1      -3.001   0.320  -1.506  1.00  0.00     0.002 C 
HETATM   13  C11 UNL     1      -1.468   0.232  -1.556  1.00  0.00     0.007 C 
HETATM   14  C12 UNL     1      -1.132   0.643  -0.154  1.00  0.00     0.017 C 
HETATM   15  C13 UNL     1       0.287   0.381   0.235  1.00  0.00     0.054 C 
ENDROOT
BRANCH   1  16
HETATM   16  C1  UNL     1       1.614   2.497   0.490  1.00  0.00     0.196 C 
BRANCH  16  17
HETATM   17  O1  UNL     1       0.522   3.035   1.174  1.00  0.00    -0.398 OA
ATOM     18  H1  UNL     1       0.810   3.722   1.763  1.00  0.00     0.209 HD
ENDBRANCH  16  17
ENDBRANCH   1  16
BRANCH   3  19
HETATM   19  C4  UNL     1       4.161  -0.459  -0.847  1.00  0.00     0.407 C 
HETATM   20  F1  UNL     1       4.727  -0.037  -2.019  1.00  0.00    -0.209 F 
HETATM   21  F2  UNL     1       4.658   0.212   0.253  1.00  0.00    -0.209 F 
ENDBRANCH   3  19
BRANCH   6  22
HETATM   22  O4  UNL     1       0.668  -1.591   2.410  1.00  0.00    -0.391 OA
ATOM     23  H4  UNL     1       0.371  -2.185   3.090  1.00  0.00     0.210 HD
ENDBRANCH   6  22
TORSDOF 4
