REMARK  5 active torsions:
REMARK  status: ('A' for Active; 'I' for Inactive)
REMARK    1  A    between atoms: O1_1  and  C1_3 
REMARK    2  A    between atoms: C1_3  and  C2_4 
REMARK    3  A    between atoms: C3_6  and  N1_7 
REMARK    4  A    between atoms: C6_10  and  O3_11 
REMARK    5  A    between atoms: C10_19  and  O4_20 
ROOT
HETATM    1  C2  UNL     1      -2.202   0.523  -0.233  1.00  0.00     0.178 C 
HETATM    2  O2  UNL     1      -0.866   0.548  -0.670  1.00  0.00    -0.351 OA
HETATM    3  C3  UNL     1      -0.132   0.093   0.457  1.00  0.00     0.294 C 
HETATM    4  C8  UNL     1      -0.404  -1.315   0.805  1.00  0.00     0.301 C 
HETATM    5  F1  UNL     1       0.115  -2.234  -0.083  1.00  0.00    -0.200 F 
HETATM    6  F2  UNL     1       0.117  -1.598   2.048  1.00  0.00    -0.200 F 
HETATM    7  C9  UNL     1      -1.897  -1.599   0.877  1.00  0.00     0.166 C 
HETATM    8 BR1  UNL     1      -2.538  -0.776   2.519  1.00  0.00    -0.082 Br
HETATM    9  C10 UNL     1      -2.581  -0.947  -0.299  1.00  0.00     0.169 C 
ENDROOT
BRANCH   3  10
HETATM   10  N1  UNL     1       1.175   0.535   0.287  1.00  0.00    -0.380 N 
HETATM   11  C4  UNL     1       2.111   0.558   1.320  1.00  0.00     0.122 C 
HETATM   12  C5  UNL     1       3.305  -0.196   0.715  1.00  0.00     0.053 C 
HETATM   13  C6  UNL     1       3.272   0.468  -0.672  1.00  0.00     0.137 C 
HETATM   14  C7  UNL     1       1.794   0.347  -0.975  1.00  0.00     0.151 C 
BRANCH  13  15
HETATM   15  O3  UNL     1       4.071  -0.215  -1.565  1.00  0.00    -0.394 OA
ATOM     16  H3  UNL     1       4.051   0.195  -2.422  1.00  0.00     0.210 HD
ENDBRANCH  13  15
ENDBRANCH   3  10
BRANCH   1  17
HETATM   17  C1  UNL     1      -3.016   1.395  -1.122  1.00  0.00     0.198 C 
BRANCH  17  18
HETATM   18  O1  UNL     1      -2.496   2.694  -1.056  1.00  0.00    -0.398 OA
ATOM     19  H1  UNL     1      -3.016   3.251  -1.624  1.00  0.00     0.209 HD
ENDBRANCH  17  18
ENDBRANCH   1  17
BRANCH   9  20
HETATM   20  O4  UNL     1      -1.990  -1.464  -1.474  1.00  0.00    -0.392 OA
ATOM     21  H4  UNL     1      -2.227  -2.383  -1.515  1.00  0.00     0.210 HD
ENDBRANCH   9  20
TORSDOF 5
