REMARK  4 active torsions:
REMARK  status: ('A' for Active; 'I' for Inactive)
REMARK    1  A    between atoms: C1_2  and  C2_4 
REMARK    2  A    between atoms: C2_4  and  O3_5 
REMARK    3  A    between atoms: C2_4  and  C3_7 
REMARK    4  A    between atoms: C5_11  and  O5_12 
ROOT
HETATM    1  C3  UNL     1       0.612  -0.721  -0.084  1.00  0.00     0.249 C 
HETATM    2  F1  UNL     1       0.444  -1.251   1.151  1.00  0.00    -0.208 F 
HETATM    3  O4  UNL     1      -0.127  -1.426  -1.058  1.00  0.00    -0.340 OA
HETATM    4  C4  UNL     1      -1.130  -0.479  -1.061  1.00  0.00     0.166 C 
HETATM    5  C5  UNL     1      -2.169  -0.756  -0.015  1.00  0.00     0.163 C 
HETATM    6  C6  UNL     1      -1.993   0.234   1.095  1.00  0.00     0.108 C 
HETATM    7 BR1  UNL     1      -3.667   1.201   1.390  1.00  0.00    -0.087 Br
HETATM    8  C7  UNL     1      -0.920   1.196   0.626  1.00  0.00     0.111 C 
HETATM    9 CL1  UNL     1       0.061   1.833   1.933  1.00  0.00    -0.123 Cl
HETATM   10  C8  UNL     1      -0.153   0.496  -0.446  1.00  0.00     0.108 C 
ENDROOT
BRANCH   1  11
HETATM   11  C2  UNL     1       2.046  -0.621  -0.577  1.00  0.00     0.286 C 
BRANCH  11  12
HETATM   12  C1  UNL     1       2.841   0.026   0.486  1.00  0.00     0.208 C 
HETATM   13  O1  UNL     1       2.865  -0.511   1.620  1.00  0.00    -0.646 OA
HETATM   14  O2  UNL     1       3.560   1.191   0.298  1.00  0.00    -0.646 OA
ENDBRANCH  11  12
BRANCH  11  15
HETATM   15  O3  UNL     1       2.094   0.048  -1.775  1.00  0.00    -0.380 OA
ATOM     16  H3  UNL     1       1.583  -0.368  -2.459  1.00  0.00     0.210 HD
ENDBRANCH  11  15
ENDBRANCH   1  11
BRANCH   5  17
HETATM   17  O5  UNL     1      -3.426  -0.654  -0.634  1.00  0.00    -0.392 OA
ATOM     18  H5  UNL     1      -4.084  -0.829   0.028  1.00  0.00     0.210 HD
ENDBRANCH   5  17
TORSDOF 4
