REMARK  7 active torsions:
REMARK  status: ('A' for Active; 'I' for Inactive)
REMARK    1  A    between atoms: O1_1  and  C1_3 
REMARK    2  A    between atoms: C1_3  and  C2_4 
REMARK    3  A    between atoms: C6_9  and  O3_10 
REMARK    4  A    between atoms: C6_9  and  C7_12 
REMARK    5  A    between atoms: C8_13  and  C9_14 
REMARK    6  A    between atoms: C9_14  and  C10_15 
REMARK    7  A    between atoms: C12_19  and  O5_20 
ROOT
HETATM    1  C2  UNL     1      -2.092  -0.014  -0.093  1.00  0.00     0.145 C 
HETATM    2  O2  UNL     1      -1.410   0.792   0.774  1.00  0.00    -0.354 OA
HETATM    3  C3  UNL     1      -0.132   1.119   0.390  1.00  0.00     0.131 A 
HETATM    4  C4  UNL     1       0.579   2.256   1.016  1.00  0.00     0.048 A 
HETATM    5  C5  UNL     1       0.202   2.247  -0.475  1.00  0.00     0.048 A 
HETATM    6  C6  UNL     1       0.603  -0.184   0.175  1.00  0.00     0.263 C 
HETATM    7  O4  UNL     1       0.053  -0.823  -0.886  1.00  0.00    -0.331 OA
HETATM    8  C11 UNL     1      -1.291  -0.855  -0.991  1.00  0.00     0.197 C 
HETATM    9  C12 UNL     1      -1.750  -2.304  -0.785  1.00  0.00     0.187 C 
HETATM   10  C13 UNL     1      -2.410  -2.333   0.549  1.00  0.00     0.238 C 
HETATM   11  F2  UNL     1      -3.448  -3.275   0.518  1.00  0.00    -0.243 F 
HETATM   12  C14 UNL     1      -2.996  -0.967   0.696  1.00  0.00     0.245 C 
HETATM   13  F3  UNL     1      -4.276  -0.973   0.200  1.00  0.00    -0.243 F 
ENDROOT
BRANCH   6  14
HETATM   14  O3  UNL     1       0.567  -0.907   1.363  1.00  0.00    -0.353 OA
ATOM     15  H3  UNL     1       1.029  -1.726   1.228  1.00  0.00     0.214 HD
ENDBRANCH   6  14
BRANCH   6  16
HETATM   16  C7  UNL     1       2.009   0.125  -0.094  1.00  0.00    -0.035 C 
HETATM   17  C8  UNL     1       3.185   0.363  -0.313  1.00  0.00    -0.099 C 
BRANCH  17  18
HETATM   18  C9  UNL     1       4.600   0.623  -0.577  1.00  0.00     0.125 C 
BRANCH  18  19
HETATM   19  C10 UNL     1       5.384   0.248   0.662  1.00  0.00     0.234 C 
HETATM   20  F1  UNL     1       4.921   1.029   1.704  1.00  0.00    -0.255 F 
ENDBRANCH  18  19
ENDBRANCH  17  18
ENDBRANCH   6  16
BRANCH   1  21
HETATM   21  C1  UNL     1      -3.038   0.910  -0.873  1.00  0.00     0.208 C 
BRANCH  21  22
HETATM   22  O1  UNL     1      -3.904   1.539   0.041  1.00  0.00    -0.398 OA
ATOM     23  H1  UNL     1      -4.489   2.111  -0.442  1.00  0.00     0.209 HD
ENDBRANCH  21  22
ENDBRANCH   1  21
BRANCH   9  24
HETATM   24  O5  UNL     1      -0.652  -3.167  -0.866  1.00  0.00    -0.390 OA
ATOM     25  H5  UNL     1      -0.936  -4.064  -0.738  1.00  0.00     0.210 HD
ENDBRANCH   9  24
TORSDOF 7
