REMARK  4 active torsions:
REMARK  status: ('A' for Active; 'I' for Inactive)
REMARK    1  A    between atoms: C2_2  and  O1_3 
REMARK    2  A    between atoms: C3_6  and  C4_7 
REMARK    3  A    between atoms: C4_7  and  N1_8 
REMARK    4  A    between atoms: C5_13  and  C6_14 
ROOT
HETATM    1  C1  UNL     1       2.638   0.403  -0.695  1.00  0.00     0.083 C 
HETATM    2  C2  UNL     1       1.680  -0.333   0.247  1.00  0.00     0.199 C 
HETATM    3  O2  UNL     1       0.873   0.569   0.813  1.00  0.00    -0.341 OA
HETATM    4  C3  UNL     1      -0.471   0.482   0.631  1.00  0.00     0.205 C 
HETATM    5  C5  UNL     1      -0.986  -0.449  -0.389  1.00  0.00     0.256 C 
HETATM    6  O5  UNL     1      -0.092  -1.154  -1.136  1.00  0.00    -0.346 OA
HETATM    7  C7  UNL     1       1.063  -1.457  -0.493  1.00  0.00     0.280 C 
HETATM    8 CL1  UNL     1       0.955  -2.943   0.520  1.00  0.00    -0.089 Cl
ENDROOT
BRANCH   4   9
HETATM    9  C4  UNL     1      -0.966   1.916   0.382  1.00  0.00     0.286 C 
HETATM   10 BR1  UNL     1      -0.031   2.786  -1.032  1.00  0.00    -0.058 Br
BRANCH   9  11
HETATM   11  N1  UNL     1      -2.398   1.956   0.171  1.00  0.00    -0.063 N 
ATOM     12  H13 UNL     1      -2.682   1.328  -0.581  1.00  0.00     0.275 HD
ATOM     13  H12 UNL     1      -2.901   1.517   0.942  1.00  0.00     0.275 HD
ATOM     14  H11 UNL     1      -2.726   2.907   0.006  1.00  0.00     0.275 HD
ENDBRANCH   9  11
ENDBRANCH   4   9
BRANCH   5  15
HETATM   15  C6  UNL     1      -2.038  -1.357   0.193  1.00  0.00     0.206 C 
HETATM   16  O3  UNL     1      -2.934  -0.889   0.937  1.00  0.00    -0.646 OA
HETATM   17  O4  UNL     1      -2.071  -2.710  -0.055  1.00  0.00    -0.646 OA
ENDBRANCH   5  15
BRANCH   2  18
HETATM   18  O1  UNL     1       2.488  -0.907   1.260  1.00  0.00    -0.363 OA
ATOM     19  H1  UNL     1       1.894  -1.363   1.844  1.00  0.00     0.213 HD
ENDBRANCH   2  18
TORSDOF 4
