REMARK  17 active torsions:
REMARK  status: ('A' for Active; 'I' for Inactive)
REMARK    1  A    between atoms: C4_6  and  O2_7 
REMARK    2  A    between atoms: C4_6  and  C5_9 
REMARK    3  A    between atoms: C6_10  and  C7_11 
REMARK    4  A    between atoms: C8_12  and  O3_13 
REMARK    5  A    between atoms: O3_13  and  C9_14 
REMARK    6  A    between atoms: C9_14  and  C10_15 
REMARK    7  A    between atoms: C10_15  and  C11_16 
REMARK    8  A    between atoms: C11_16  and  N1_17 
REMARK    9  A    between atoms: C12_23  and  N3_24 
REMARK   10  A    between atoms: C13_29  and  N5_30 
REMARK   11  A    between atoms: N5_30  and  C14_32 
REMARK   12  A    between atoms: C14_32  and  C15_33 
REMARK   13  A    between atoms: C14_32  and  C16_36 
REMARK   14  A    between atoms: C15_33  and  O4_34 
REMARK   15  A    between atoms: C16_36  and  N6_37 
REMARK   16  A    between atoms: C16_36  and  C17_41 
REMARK   17  A    between atoms: C17_41  and  O5_42 
ROOT
HETATM    1  C7  UNL     1       0.375  -0.979  -0.139  1.00  0.00     0.113 A 
HETATM    2  C8  UNL     1       1.474  -1.793   0.092  1.00  0.00     0.180 A 
HETATM    3  N2  UNL     1       1.330  -3.101  -0.133  1.00  0.00    -0.169 N 
ATOM      4  H2  UNL     1       2.119  -3.728   0.027  1.00  0.00     0.186 HD
HETATM    5  C12 UNL     1       0.150  -3.610  -0.571  1.00  0.00     0.679 A 
HETATM    6  N4  UNL     1      -0.930  -2.845  -0.803  1.00  0.00    -0.176 N 
ATOM      7  H4  UNL     1      -1.802  -3.258  -1.133  1.00  0.00     0.186 HD
HETATM    8  C13 UNL     1      -0.832  -1.523  -0.590  1.00  0.00     0.140 A 
ENDROOT
BRANCH   8   9
HETATM    9  N5  UNL     1      -1.910  -0.642  -0.827  1.00  0.00    -0.366 N 
ATOM     10  H5  UNL     1      -1.728   0.350  -0.677  1.00  0.00     0.161 HD
BRANCH   9  11
HETATM   11  C14 UNL     1      -3.224  -0.991  -1.253  1.00  0.00     0.139 C 
BRANCH  11  12
HETATM   12  C15 UNL     1      -4.061  -1.720  -0.230  1.00  0.00     0.191 C 
BRANCH  12  13
HETATM   13  O4  UNL     1      -5.313  -1.969  -0.843  1.00  0.00    -0.399 OA
ATOM     14  H4  UNL     1      -5.840  -2.428  -0.199  1.00  0.00     0.209 HD
ENDBRANCH  12  13
ENDBRANCH  11  12
BRANCH  11  15
HETATM   15  C16 UNL     1      -3.977   0.226  -1.703  1.00  0.00     0.231 C 
BRANCH  15  16
HETATM   16  N6  UNL     1      -3.285   0.890  -2.821  1.00  0.00    -0.071 N 
ATOM     17  H63 UNL     1      -2.317   1.111  -2.587  1.00  0.00     0.274 HD
ATOM     18  H62 UNL     1      -3.114   0.246  -3.593  1.00  0.00     0.274 HD
ATOM     19  H61 UNL     1      -3.797   1.717  -3.127  1.00  0.00     0.274 HD
ENDBRANCH  15  16
BRANCH  15  20
HETATM   20  C17 UNL     1      -4.107   1.240  -0.602  1.00  0.00     0.199 C 
BRANCH  20  21
HETATM   21  O5  UNL     1      -4.845   2.359  -1.023  1.00  0.00    -0.399 OA
ATOM     22  H5  UNL     1      -4.927   3.000  -0.327  1.00  0.00     0.209 HD
ENDBRANCH  20  21
ENDBRANCH  15  20
ENDBRANCH  11  15
ENDBRANCH   9  11
ENDBRANCH   8   9
BRANCH   1  23
HETATM   23  C6  UNL     1       0.480   0.433   0.088  1.00  0.00    -0.053 C 
HETATM   24  C5  UNL     1       0.553   1.625   0.290  1.00  0.00    -0.030 C 
BRANCH  24  25
HETATM   25  C4  UNL     1       0.617   3.078   0.542  1.00  0.00     0.256 C 
HETATM   26  C3  UNL     1      -0.718   3.466   1.118  1.00  0.00     0.256 C 
HETATM   27  O1  UNL     1      -0.429   4.231   2.215  1.00  0.00    -0.336 OA
HETATM   28  C2  UNL     1       0.926   4.273   2.402  1.00  0.00     0.246 C 
HETATM   29  C1  UNL     1       1.527   5.636   2.266  1.00  0.00     0.099 C 
HETATM   30 CL1  UNL     1       1.247   3.714   4.080  1.00  0.00    -0.057 Cl
HETATM   31  O6  UNL     1       1.526   3.397   1.524  1.00  0.00    -0.292 OA
BRANCH  25  32
HETATM   32  O2  UNL     1       0.847   3.788  -0.633  1.00  0.00    -0.354 OA
ATOM     33  H2  UNL     1       1.690   3.543  -0.997  1.00  0.00     0.214 HD
ENDBRANCH  25  32
ENDBRANCH  24  25
ENDBRANCH   1  23
BRANCH   2  34
HETATM   34  O3  UNL     1       2.625  -1.185   0.535  1.00  0.00    -0.334 OA
BRANCH  34  35
HETATM   35  C9  UNL     1       3.847  -1.772   0.832  1.00  0.00     0.179 C 
BRANCH  35  36
HETATM   36  C10 UNL     1       4.418  -2.441  -0.386  1.00  0.00     0.054 C 
BRANCH  36  37
HETATM   37  C11 UNL     1       5.747  -3.047   0.030  1.00  0.00     0.231 C 
BRANCH  37  38
HETATM   38  N1  UNL     1       6.415  -3.725  -1.036  1.00  0.00    -0.079 N 
ATOM     39  H13 UNL     1       5.809  -4.431  -1.453  1.00  0.00     0.274 HD
ATOM     40  H12 UNL     1       6.533  -3.109  -1.840  1.00  0.00     0.274 HD
ATOM     41  H11 UNL     1       7.308  -4.132  -0.757  1.00  0.00     0.274 HD
ENDBRANCH  37  38
ENDBRANCH  36  37
ENDBRANCH  35  36
ENDBRANCH  34  35
ENDBRANCH   2  34
BRANCH   5  42
HETATM   42  N3  UNL     1       0.049  -4.900  -0.779  1.00  0.00    -0.234 N 
ATOM     43  H32 UNL     1       0.869  -5.481  -0.603  1.00  0.00     0.174 HD
ATOM     44  H31 UNL     1      -0.838  -5.282  -1.108  1.00  0.00     0.174 HD
ENDBRANCH   5  42
TORSDOF 17
