REMARK  12 active torsions:
REMARK  status: ('A' for Active; 'I' for Inactive)
REMARK    1  A    between atoms: N1_1  and  C1_4 
REMARK    2  A    between atoms: N5_16  and  C6_17 
REMARK    3  A    between atoms: C6_17  and  C7_18 
REMARK    4  A    between atoms: C7_18  and  C8_19 
REMARK    5  A    between atoms: C7_18  and  N13_44 
REMARK    6  A    between atoms: C8_19  and  C9_20 
REMARK    7  A    between atoms: C9_20  and  N6_21 
REMARK    8  A    between atoms: C10_26  and  C11_27 
REMARK    9  A    between atoms: C11_27  and  N9_28 
REMARK   10  A    between atoms: N9_28  and  C12_30 
REMARK   11  A    between atoms: N13_44  and  C17_46 
REMARK   12  A    between atoms: C17_46  and  O1_47 
ROOT
HETATM    1  C7  UNL     1      -2.403  -0.098  -1.169  1.00  0.00     0.102 C 
ENDROOT
BRANCH   1   2
HETATM    2  C6  UNL     1      -2.666   0.524   0.245  1.00  0.00     0.155 C 
BRANCH   2   3
HETATM    3  N5  UNL     1      -4.003   1.016   0.290  1.00  0.00    -0.335 N 
HETATM    4  C3  UNL     1      -5.199   0.599   0.609  1.00  0.00     0.125 A 
HETATM    5  C2  UNL     1      -5.644  -0.579   1.113  1.00  0.00     0.145 A 
HETATM    6  C4  UNL     1      -6.159   1.590   0.313  1.00  0.00     0.152 A 
HETATM    7  N2  UNL     1      -6.972  -0.778   1.303  1.00  0.00    -0.175 N 
HETATM    8  N3  UNL     1      -4.827  -1.443   1.474  1.00  0.00    -0.383 N 
HETATM    9  C1  UNL     1      -7.853   0.195   0.994  1.00  0.00     0.679 A 
ATOM     10  H2  UNL     1      -7.305  -1.665   1.680  1.00  0.00     0.186 HD
HETATM   11  N14 UNL     1      -7.464   1.383   0.504  1.00  0.00    -0.174 N 
ATOM     12  H14 UNL     1      -8.147   2.108   0.284  1.00  0.00     0.186 HD
ATOM     13  H32 UNL     1      -5.162  -2.329   1.853  1.00  0.00     0.157 HD
ATOM     14  H31 UNL     1      -3.828  -1.293   1.331  1.00  0.00     0.157 HD
HETATM   15  N4  UNL     1      -5.464   2.617  -0.183  1.00  0.00    -0.336 N 
HETATM   16  C5  UNL     1      -4.189   2.303  -0.204  1.00  0.00     0.185 A 
ATOM     17  H4  UNL     1      -5.860   3.503  -0.496  1.00  0.00     0.168 HD
BRANCH   9  18
HETATM   18  N1  UNL     1      -9.124  -0.004   1.127  1.00  0.00    -0.234 N 
ATOM     19  H12 UNL     1      -9.420  -0.906   1.499  1.00  0.00     0.174 HD
ATOM     20  H11 UNL     1      -9.790   0.732   0.893  1.00  0.00     0.174 HD
ENDBRANCH   9  18
ENDBRANCH   2   3
ENDBRANCH   1   2
BRANCH   1  21
HETATM   21  C8  UNL     1      -0.894  -0.385  -1.180  1.00  0.00     0.050 C 
BRANCH  21  22
HETATM   22  C9  UNL     1      -0.064   0.906  -1.115  1.00  0.00     0.173 C 
BRANCH  22  23
HETATM   23  N6  UNL     1       1.291   0.363  -1.013  1.00  0.00    -0.218 N 
HETATM   24  N7  UNL     1       2.130  -0.084  -1.897  1.00  0.00    -0.225 N 
HETATM   25  N8  UNL     1       3.278  -0.363  -1.296  1.00  0.00    -0.271 N 
ATOM     26  H7  UNL     1       1.937  -0.201  -2.892  1.00  0.00     0.210 HD
HETATM   27  C10 UNL     1       3.144  -0.071   0.011  1.00  0.00     0.131 A 
ATOM     28  H8  UNL     1       4.115  -0.734  -1.745  1.00  0.00     0.190 HD
HETATM   29  N12 UNL     1       1.915   0.374   0.181  1.00  0.00    -0.269 N 
ATOM     30  H12 UNL     1       1.506   0.675   1.066  1.00  0.00     0.190 HD
BRANCH  27  31
HETATM   31  C11 UNL     1       4.336  -0.122   0.963  1.00  0.00     0.200 C 
BRANCH  31  32
HETATM   32  N9  UNL     1       5.232   0.850   0.317  1.00  0.00    -0.367 N 
ATOM     33  H9  UNL     1       4.829   1.728  -0.009  1.00  0.00     0.161 HD
BRANCH  32  34
HETATM   34  C12 UNL     1       6.584   0.648   0.125  1.00  0.00     0.142 A 
HETATM   35  N10 UNL     1       7.308  -0.411   0.513  1.00  0.00    -0.324 N 
HETATM   36  C13 UNL     1       8.610  -0.522   0.262  1.00  0.00     0.140 A 
ATOM     37  H10 UNL     1       6.842  -1.162   1.021  1.00  0.00     0.169 HD
HETATM   38  N11 UNL     1       9.291  -1.564   0.688  1.00  0.00    -0.383 N 
HETATM   39  C14 UNL     1       9.291   0.450  -0.420  1.00  0.00     0.162 A 
ATOM     40 2H11 UNL     1       8.784  -2.288   1.196  1.00  0.00     0.157 HD
ATOM     41 1H11 UNL     1      10.289  -1.649   0.496  1.00  0.00     0.157 HD
HETATM   42  F1  UNL     1      10.614   0.356  -0.711  1.00  0.00    -0.202 F 
HETATM   43  C15 UNL     1       8.602   1.585  -0.854  1.00  0.00     0.092 A 
HETATM   44  C16 UNL     1       7.270   1.676  -0.578  1.00  0.00     0.163 A 
HETATM   45  F2  UNL     1       6.540   2.761  -0.995  1.00  0.00    -0.202 F 
ENDBRANCH  32  34
ENDBRANCH  31  32
ENDBRANCH  27  31
ENDBRANCH  22  23
ENDBRANCH  21  22
ENDBRANCH   1  21
BRANCH   1  46
HETATM   46  N13 UNL     1      -3.021  -1.417  -1.297  1.00  0.00    -0.375 N 
ATOM     47  H13 UNL     1      -3.998  -1.537  -1.566  1.00  0.00     0.161 HD
BRANCH  46  48
HETATM   48  C17 UNL     1      -2.177  -2.512  -1.024  1.00  0.00     0.219 C 
BRANCH  48  49
HETATM   49  O1  UNL     1      -2.478  -3.435  -0.090  1.00  0.00    -0.357 OA
ATOM     50  H1  UNL     1      -1.909  -4.173   0.094  1.00  0.00     0.218 HD
ENDBRANCH  48  49
ENDBRANCH  46  48
ENDBRANCH   1  46
TORSDOF 12
