REMARK  14 active torsions:
REMARK  status: ('A' for Active; 'I' for Inactive)
REMARK    1  A    between atoms: N1_2  and  C2_3 
REMARK    2  A    between atoms: N1_2  and  C3_5 
REMARK    3  A    between atoms: C4_8  and  N3_9 
REMARK    4  A    between atoms: C6_16  and  C7_17 
REMARK    5  A    between atoms: C7_17  and  N7_21 
REMARK    6  A    between atoms: N7_21  and  C8_23 
REMARK    7  A    between atoms: C8_23  and  C9_24 
REMARK    8  A    between atoms: C9_24  and  C10_25 
REMARK    9  A    between atoms: C10_25  and  C11_26 
REMARK   10  A    between atoms: C11_26  and  N8_27 
REMARK   11  A    between atoms: C11_26  and  C14_38 
REMARK   12  A    between atoms: N8_27  and  C12_29 
REMARK   13  A    between atoms: C14_38  and  O2_39 
REMARK   14  A    between atoms: C14_38  and  O3_41 
ROOT
HETATM    1  N7  UNL     1      -0.500   0.433   0.724  1.00  0.00    -0.376 N 
ATOM      2  H7  UNL     1      -0.271   0.549   1.711  1.00  0.00     0.161 HD
ENDROOT
BRANCH   1   3
HETATM    3  C7  UNL     1      -1.794  -0.129   0.349  1.00  0.00     0.112 C 
HETATM    4  N6  UNL     1      -1.757  -1.306   0.058  1.00  0.00    -0.385 N 
ATOM      5  H62 UNL     1      -2.661  -1.699  -0.204  1.00  0.00     0.157 HD
ATOM      6  H61 UNL     1      -0.911  -1.875   0.065  1.00  0.00     0.157 HD
BRANCH   3   7
HETATM    7  C6  UNL     1      -3.015   0.692   0.339  1.00  0.00     0.094 A 
HETATM    8  C3  UNL     1      -4.200   0.124  -0.015  1.00  0.00     0.142 A 
HETATM    9  N2  UNL     1      -5.323   0.931  -0.024  1.00  0.00    -0.176 N 
HETATM   10  C4  UNL     1      -5.280   2.227   0.302  1.00  0.00     0.678 A 
ATOM     11  H2  UNL     1      -6.219   0.522  -0.290  1.00  0.00     0.186 HD
HETATM   12  N4  UNL     1      -4.139   2.810   0.655  1.00  0.00    -0.178 N 
HETATM   13  C5  UNL     1      -3.005   2.041   0.673  1.00  0.00     0.149 A 
ATOM     14  H4  UNL     1      -4.108   3.799   0.905  1.00  0.00     0.185 HD
HETATM   15  N5  UNL     1      -1.795   2.658   1.068  1.00  0.00    -0.081 NA
BRANCH   8  16
HETATM   16  N1  UNL     1      -4.397  -1.240  -0.361  1.00  0.00    -0.314 N 
HETATM   17  C1  UNL     1      -4.750  -2.193   0.686  1.00  0.00     0.160 C 
BRANCH  16  18
HETATM   18  C2  UNL     1      -4.326  -1.732  -1.694  1.00  0.00     0.356 C 
HETATM   19  O1  UNL     1      -4.500  -2.951  -1.932  1.00  0.00    -0.283 OA
ENDBRANCH  16  18
ENDBRANCH   8  16
BRANCH  10  20
HETATM   20  N3  UNL     1      -6.379   2.927   0.278  1.00  0.00    -0.234 N 
ATOM     21  H32 UNL     1      -7.255   2.480   0.007  1.00  0.00     0.174 HD
ATOM     22  H31 UNL     1      -6.346   3.916   0.527  1.00  0.00     0.174 HD
ENDBRANCH  10  20
ENDBRANCH   3   7
ENDBRANCH   1   3
BRANCH   1  23
HETATM   23  C8  UNL     1       0.456   0.825  -0.272  1.00  0.00     0.121 C 
BRANCH  23  24
HETATM   24  C9  UNL     1       1.059  -0.244  -1.097  1.00  0.00     0.022 C 
BRANCH  24  25
HETATM   25  C10 UNL     1       1.813  -1.273  -0.360  1.00  0.00     0.032 C 
BRANCH  25  26
HETATM   26  C11 UNL     1       2.999  -0.776   0.461  1.00  0.00     0.138 C 
BRANCH  26  27
HETATM   27  N8  UNL     1       3.916  -0.106  -0.373  1.00  0.00    -0.363 N 
ATOM     28  H8  UNL     1       3.583   0.056  -1.323  1.00  0.00     0.161 HD
BRANCH  27  29
HETATM   29  C12 UNL     1       5.224   0.382  -0.116  1.00  0.00     0.160 A 
HETATM   30  N9  UNL     1       5.986   0.277   0.980  1.00  0.00    -0.267 N 
HETATM   31  N10 UNL     1       7.139   0.857   0.754  1.00  0.00    -0.223 N 
ATOM     32  H9  UNL     1       5.713  -0.180   1.850  1.00  0.00     0.190 HD
HETATM   33  N11 UNL     1       7.174   1.353  -0.475  1.00  0.00    -0.165 N 
ATOM     34  H10 UNL     1       7.902   0.918   1.428  1.00  0.00     0.210 HD
HETATM   35 CL1  UNL     1       8.495   2.221  -1.248  1.00  0.00     0.038 Cl
HETATM   36  C13 UNL     1       5.997   1.077  -1.048  1.00  0.00     0.185 A 
HETATM   37 CL2  UNL     1       5.544   1.555  -2.693  1.00  0.00    -0.057 Cl
ENDBRANCH  27  29
ENDBRANCH  26  27
BRANCH  26  38
HETATM   38  C14 UNL     1       3.470  -1.970   1.226  1.00  0.00     0.276 C 
BRANCH  38  39
HETATM   39  O2  UNL     1       4.455  -1.787   2.139  1.00  0.00    -0.369 OA
ATOM     40  H2  UNL     1       4.754  -2.546   2.625  1.00  0.00     0.212 HD
ENDBRANCH  38  39
BRANCH  38  41
HETATM   41  O3  UNL     1       2.339  -2.446   1.943  1.00  0.00    -0.369 OA
ATOM     42  H3  UNL     1       2.638  -3.205   2.429  1.00  0.00     0.212 HD
ENDBRANCH  38  41
ENDBRANCH  26  38
ENDBRANCH  25  26
ENDBRANCH  24  25
ENDBRANCH  23  24
ENDBRANCH   1  23
TORSDOF 14
