REMARK  13 active torsions:
REMARK  status: ('A' for Active; 'I' for Inactive)
REMARK    1  A    between atoms: N1_1  and  C1_4 
REMARK    2  A    between atoms: C3_9  and  C4_10 
REMARK    3  A    between atoms: C4_10  and  C5_11 
REMARK    4  A    between atoms: C4_10  and  C8_23 
REMARK    5  A    between atoms: C5_11  and  N4_12 
REMARK    6  A    between atoms: C7_19  and  N7_20 
REMARK    7  A    between atoms: N9_30  and  C11_31 
REMARK    8  A    between atoms: C11_31  and  C12_32 
REMARK    9  A    between atoms: C12_32  and  N10_33 
REMARK   10  A    between atoms: N10_33  and  C13_35 
REMARK   11  A    between atoms: C13_35  and  C14_36 
REMARK   12  A    between atoms: C14_36  and  O2_37 
REMARK   13  A    between atoms: C15_39  and  N11_40 
ROOT
HETATM    1  C4  UNL     1      -1.459   0.750  -0.143  1.00  0.00     0.091 C 
ENDROOT
BRANCH   1   2
HETATM    2  C3  UNL     1      -2.233  -0.453   0.238  1.00  0.00     0.038 A 
HETATM    3  C2  UNL     1      -2.373  -1.031   1.484  1.00  0.00     0.132 A 
HETATM    4  N2  UNL     1      -3.114  -2.118   1.559  1.00  0.00    -0.325 N 
HETATM    5  N3  UNL     1      -1.721  -0.449   2.660  1.00  0.00    -0.082 NA
HETATM    6  C1  UNL     1      -3.675  -2.589   0.445  1.00  0.00     0.143 A 
ATOM      7  H2  UNL     1      -3.256  -2.590   2.452  1.00  0.00     0.169 HD
HETATM    8  S1  UNL     1      -3.156  -1.484  -0.739  1.00  0.00    -0.055 SA
BRANCH   6   9
HETATM    9  N1  UNL     1      -4.442  -3.653   0.323  1.00  0.00    -0.380 N 
ATOM     10  H12 UNL     1      -4.753  -4.316   1.033  1.00  0.00     0.158 HD
ATOM     11  H11 UNL     1      -4.871  -4.013  -0.529  1.00  0.00     0.158 HD
ENDBRANCH   6   9
ENDBRANCH   1   2
BRANCH   1  12
HETATM   12  C5  UNL     1      -2.232   2.013  -0.254  1.00  0.00     0.183 C 
BRANCH  12  13
HETATM   13  N4  UNL     1      -2.894   2.442   0.955  1.00  0.00    -0.120 N 
HETATM   14  N5  UNL     1      -2.348   3.174   1.918  1.00  0.00    -0.244 N 
HETATM   15  C6  UNL     1      -3.237   3.379   2.908  1.00  0.00     0.295 A 
ATOM     16  H5  UNL     1      -1.392   3.530   1.909  1.00  0.00     0.191 HD
HETATM   17  F1  UNL     1      -2.968   4.091   4.028  1.00  0.00    -0.163 F 
HETATM   18  N6  UNL     1      -4.362   2.764   2.559  1.00  0.00    -0.149 N 
HETATM   19  C7  UNL     1      -4.155   2.185   1.355  1.00  0.00     0.696 A 
ATOM     20  H6  UNL     1      -5.225   2.734   3.101  1.00  0.00     0.188 HD
BRANCH  19  21
HETATM   21  N7  UNL     1      -5.033   1.511   0.694  1.00  0.00    -0.233 N 
ATOM     22  H72 UNL     1      -4.877   1.074  -0.214  1.00  0.00     0.174 HD
ATOM     23  H71 UNL     1      -5.987   1.316   0.997  1.00  0.00     0.174 HD
ENDBRANCH  19  21
ENDBRANCH  12  13
ENDBRANCH   1  12
BRANCH   1  24
HETATM   24  C8  UNL     1      -0.568   0.531  -1.290  1.00  0.00     0.053 A 
HETATM   25  C9  UNL     1      -0.989   0.442  -2.600  1.00  0.00     0.203 A 
HETATM   26  F2  UNL     1      -2.311   0.576  -2.904  1.00  0.00    -0.185 F 
HETATM   27  N8  UNL     1      -0.117   0.228  -3.603  1.00  0.00    -0.284 N 
HETATM   28  C10 UNL     1       1.200   0.089  -3.416  1.00  0.00     0.330 A 
ATOM     29  H8  UNL     1      -0.479   0.169  -4.555  1.00  0.00     0.173 HD
HETATM   30  O1  UNL     1       2.001  -0.111  -4.371  1.00  0.00    -0.246 OA
HETATM   31  N9  UNL     1       1.661   0.170  -2.142  1.00  0.00    -0.283 N 
HETATM   32  C15 UNL     1       0.826   0.381  -1.115  1.00  0.00     0.116 A 
BRANCH  31  33
HETATM   33  C11 UNL     1       3.082   0.016  -1.931  1.00  0.00     0.154 C 
BRANCH  33  34
HETATM   34  C12 UNL     1       3.486  -1.397  -1.665  1.00  0.00     0.134 C 
BRANCH  34  35
HETATM   35  N10 UNL     1       4.902  -1.471  -1.478  1.00  0.00    -0.418 N 
ATOM     36  H10 UNL     1       5.507  -1.936  -2.155  1.00  0.00     0.153 HD
BRANCH  35  37
HETATM   37  C13 UNL     1       5.424  -0.867  -0.307  1.00  0.00     0.139 C 
BRANCH  37  38
HETATM   38  C14 UNL     1       5.011  -1.592   0.969  1.00  0.00     0.183 C 
BRANCH  38  39
HETATM   39  O2  UNL     1       5.556  -0.952   2.092  1.00  0.00    -0.399 OA
ATOM     40  H2  UNL     1       5.299  -1.404   2.887  1.00  0.00     0.209 HD
ENDBRANCH  38  39
ENDBRANCH  37  38
ENDBRANCH  35  37
ENDBRANCH  34  35
ENDBRANCH  33  34
ENDBRANCH  31  33
BRANCH  32  41
HETATM   41  N11 UNL     1       1.224   0.456   0.099  1.00  0.00    -0.385 N 
ATOM     42 2H11 UNL     1       0.589   0.617   0.881  1.00  0.00     0.157 HD
ATOM     43 1H11 UNL     1       2.230   0.348   0.225  1.00  0.00     0.157 HD
ENDBRANCH  32  41
ENDBRANCH   1  24
TORSDOF 13
