REMARK  13 active torsions:
REMARK  status: ('A' for Active; 'I' for Inactive)
REMARK    1  A    between atoms: C2_3  and  O1_4 
REMARK    2  A    between atoms: C4_9  and  C5_10 
REMARK    3  A    between atoms: C5_10  and  N3_11 
REMARK    4  A    between atoms: C5_10  and  N12_41 
REMARK    5  A    between atoms: N3_11  and  C6_13 
REMARK    6  A    between atoms: C6_13  and  C7_14 
REMARK    7  A    between atoms: C7_14  and  C8_15 
REMARK    8  A    between atoms: C8_15  and  O2_16 
REMARK    9  A    between atoms: C8_15  and  C9_18 
REMARK   10  A    between atoms: C9_18  and  C10_19 
REMARK   11  A    between atoms: C10_19  and  N4_20 
REMARK   12  A    between atoms: N4_20  and  C11_22 
REMARK   13  A    between atoms: C14_36  and  N10_37 
ROOT
HETATM    1  N12 UNL     1      -4.064   2.383   0.720  1.00  0.00    -0.276 N 
ATOM      2  H12 UNL     1      -3.802   2.640   1.672  1.00  0.00     0.179 HD
HETATM    3  C15 UNL     1      -4.113   3.359  -0.275  1.00  0.00     0.183 C 
HETATM    4  N13 UNL     1      -4.149   4.180  -1.116  1.00  0.00    -0.172 NA
ENDROOT
BRANCH   1   5
HETATM    5  C5  UNL     1      -4.377   1.035   0.412  1.00  0.00     0.155 C 
BRANCH   5   6
HETATM    6  C4  UNL     1      -5.712   0.517   0.619  1.00  0.00     0.154 A 
HETATM    7  N1  UNL     1      -6.147  -0.747   0.368  1.00  0.00    -0.314 N 
HETATM    8  C1  UNL     1      -5.386  -1.842  -0.153  1.00  0.00     0.160 C 
HETATM    9  C2  UNL     1      -7.456  -0.825   0.695  1.00  0.00     0.159 A 
HETATM   10  C3  UNL     1      -7.842   0.408   1.156  1.00  0.00     0.145 A 
HETATM   11  N2  UNL     1      -6.756   1.208   1.098  1.00  0.00    -0.345 N 
ATOM     12  H2  UNL     1      -6.733   2.189   1.376  1.00  0.00     0.167 HD
BRANCH   9  13
HETATM   13  O1  UNL     1      -8.252  -1.980   0.572  1.00  0.00    -0.345 OA
ATOM     14  H1  UNL     1      -9.172  -2.035   0.802  1.00  0.00     0.219 HD
ENDBRANCH   9  13
ENDBRANCH   5   6
BRANCH   5  15
HETATM   15  N3  UNL     1      -3.448   0.283  -0.055  1.00  0.00    -0.373 N 
ATOM     16  H3  UNL     1      -3.659  -0.689  -0.281  1.00  0.00     0.161 HD
BRANCH  15  17
HETATM   17  C6  UNL     1      -2.085   0.793  -0.271  1.00  0.00     0.123 C 
BRANCH  17  18
HETATM   18  C7  UNL     1      -1.100  -0.348  -0.251  1.00  0.00     0.051 C 
BRANCH  18  19
HETATM   19  C8  UNL     1       0.316   0.068  -0.470  1.00  0.00     0.121 C 
BRANCH  19  20
HETATM   20  O2  UNL     1       1.185  -1.029  -0.443  1.00  0.00    -0.395 OA
ATOM     21  H2  UNL     1       2.087  -0.764  -0.582  1.00  0.00     0.210 HD
ENDBRANCH  19  20
BRANCH  19  22
HETATM   22  C9  UNL     1       0.744   1.006   0.620  1.00  0.00     0.052 C 
BRANCH  22  23
HETATM   23  C10 UNL     1       2.185   1.441   0.423  1.00  0.00     0.140 C 
BRANCH  23  24
HETATM   24  N4  UNL     1       3.100   0.319   0.439  1.00  0.00    -0.223 N 
ATOM     25  H4  UNL     1       2.769  -0.629   0.615  1.00  0.00     0.177 HD
BRANCH  24  26
HETATM   26  C11 UNL     1       4.358   0.562   0.221  1.00  0.00     0.729 A 
HETATM   27  N5  UNL     1       4.916   1.783  -0.026  1.00  0.00    -0.116 N 
HETATM   28  N6  UNL     1       6.211   1.584  -0.189  1.00  0.00    -0.116 N 
ATOM     29  H5  UNL     1       4.427   2.677  -0.075  1.00  0.00     0.206 HD
HETATM   30  C12 UNL     1       6.523   0.286  -0.059  1.00  0.00     0.748 A 
ATOM     31  H6  UNL     1       6.887   2.322  -0.388  1.00  0.00     0.206 HD
HETATM   32  N7  UNL     1       7.694  -0.412  -0.135  1.00  0.00    -0.019 N 
HETATM   33  N11 UNL     1       5.366  -0.350   0.197  1.00  0.00     0.202 N 
HETATM   34  C13 UNL     1       7.732  -1.745   0.041  1.00  0.00     0.705 A 
ATOM     35  H7  UNL     1       8.561   0.089  -0.330  1.00  0.00     0.203 HD
HETATM   36  N8  UNL     1       8.844  -2.416  -0.030  1.00  0.00    -0.234 N 
HETATM   37  N9  UNL     1       6.576  -2.379   0.296  1.00  0.00    -0.021 N 
ATOM     38  H82 UNL     1       9.722  -1.934  -0.224  1.00  0.00     0.174 HD
ATOM     39  H81 UNL     1       8.873  -3.427   0.103  1.00  0.00     0.174 HD
HETATM   40  C14 UNL     1       5.411  -1.673   0.370  1.00  0.00     0.727 A 
ATOM     41  H9  UNL     1       6.569  -3.390   0.435  1.00  0.00     0.203 HD
BRANCH  40  42
HETATM   42  N10 UNL     1       4.308  -2.313   0.619  1.00  0.00    -0.233 N 
ATOM     43 2H10 UNL     1       4.342  -3.324   0.751  1.00  0.00     0.174 HD
ATOM     44 1H10 UNL     1       3.437  -1.785   0.674  1.00  0.00     0.174 HD
ENDBRANCH  40  42
ENDBRANCH  24  26
ENDBRANCH  23  24
ENDBRANCH  22  23
ENDBRANCH  19  22
ENDBRANCH  18  19
ENDBRANCH  17  18
ENDBRANCH  15  17
ENDBRANCH   5  15
ENDBRANCH   1   5
TORSDOF 13
