REMARK  11 active torsions:
REMARK  status: ('A' for Active; 'I' for Inactive)
REMARK    1  A    between atoms: S1_2  and  C2_3 
REMARK    2  A    between atoms: C2_3  and  C3_4 
REMARK    3  A    between atoms: C3_4  and  C4_5 
REMARK    4  A    between atoms: C7_10  and  N2_11 
REMARK    5  A    between atoms: N2_11  and  C8_13 
REMARK    6  A    between atoms: C8_13  and  O1_14 
REMARK    7  A    between atoms: C8_13  and  N3_16 
REMARK    8  A    between atoms: N3_16  and  C9_19 
REMARK    9  A    between atoms: C9_19  and  C10_20 
REMARK   10  A    between atoms: C12_29  and  S2_30 
REMARK   11  A    between atoms: C14_37  and  N10_38 
ROOT
HETATM    1  C8  UNL     1      -0.249  -1.122   1.635  1.00  0.00     0.440 C 
ENDROOT
BRANCH   1   2
HETATM    2  N2  UNL     1       0.610  -1.433   0.556  1.00  0.00    -0.174 N 
ATOM      3  H2  UNL     1       0.369  -2.265   0.018  1.00  0.00     0.182 HD
BRANCH   2   4
HETATM    4  C7  UNL     1       1.649  -0.800   0.173  1.00  0.00     0.683 A 
HETATM    5  N1  UNL     1       2.342  -1.276  -0.899  1.00  0.00    -0.195 N 
HETATM    6  C5  UNL     1       3.456  -0.686  -1.366  1.00  0.00     0.032 A 
ATOM      7  H1  UNL     1       2.001  -2.116  -1.367  1.00  0.00     0.184 HD
HETATM    8  C4  UNL     1       3.976   0.443  -0.789  1.00  0.00     0.009 A 
HETATM    9  C6  UNL     1       4.127  -1.270  -2.565  1.00  0.00     0.069 C 
HETATM   10  C14 UNL     1       3.271   0.931   0.307  1.00  0.00     0.122 A 
HETATM   11  N9  UNL     1       2.150   0.303   0.742  1.00  0.00    -0.177 N 
ATOM     12  H9  UNL     1       1.662   0.693   1.548  1.00  0.00     0.186 HD
BRANCH   8  13
HETATM   13  C3  UNL     1       5.206   1.149  -1.234  1.00  0.00     0.054 C 
BRANCH  13  14
HETATM   14  C2  UNL     1       6.451   0.401  -0.830  1.00  0.00     0.078 C 
BRANCH  14  15
HETATM   15  S1  UNL     1       6.598   0.165   0.947  1.00  0.00    -0.173 SA
HETATM   16  C1  UNL     1       8.201   0.816   1.527  1.00  0.00     0.089 C 
ENDBRANCH  14  15
ENDBRANCH  13  14
ENDBRANCH   8  13
BRANCH  10  17
HETATM   17  N10 UNL     1       3.727   2.004   0.863  1.00  0.00    -0.385 N 
ATOM     18 2H10 UNL     1       4.570   2.476   0.536  1.00  0.00     0.157 HD
ATOM     19 1H10 UNL     1       3.210   2.362   1.666  1.00  0.00     0.157 HD
ENDBRANCH  10  17
ENDBRANCH   2   4
ENDBRANCH   1   2
BRANCH   1  20
HETATM   20  O1  UNL     1      -0.250  -2.072   2.669  1.00  0.00    -0.354 OA
ATOM     21  H1  UNL     1      -0.827  -1.863   3.394  1.00  0.00     0.214 HD
ENDBRANCH   1  20
BRANCH   1  22
HETATM   22  N3  UNL     1      -1.637  -1.068   1.162  1.00  0.00    -0.027 N 
ATOM     23  H32 UNL     1      -1.982  -1.995   0.913  1.00  0.00     0.282 HD
ATOM     24  H31 UNL     1      -2.282  -0.858   1.923  1.00  0.00     0.282 HD
BRANCH  22  25
HETATM   25  C9  UNL     1      -1.788  -0.147   0.081  1.00  0.00     0.293 C 
BRANCH  25  26
HETATM   26  C10 UNL     1      -3.265  -0.141  -0.309  1.00  0.00     0.328 C 
HETATM   27  N4  UNL     1      -3.627  -1.456  -0.710  1.00  0.00    -0.302 N 
HETATM   28  N5  UNL     1      -4.950  -1.664  -1.038  1.00  0.00    -0.276 N 
ATOM     29  H4  UNL     1      -2.941  -2.210  -0.753  1.00  0.00     0.182 HD
HETATM   30  C11 UNL     1      -6.118  -1.106  -0.441  1.00  0.00     0.204 C 
ATOM     31  H5  UNL     1      -5.116  -2.305  -1.814  1.00  0.00     0.189 HD
HETATM   32  N6  UNL     1      -7.294  -1.925  -0.440  1.00  0.00    -0.062 NA
HETATM   33  N7  UNL     1      -6.250   0.045   0.112  1.00  0.00    -0.327 N 
HETATM   34  C12 UNL     1      -5.224   1.063   0.264  1.00  0.00     0.352 C 
ATOM     35  H7  UNL     1      -7.173   0.269   0.484  1.00  0.00     0.165 HD
HETATM   36  N8  UNL     1      -4.043   0.404   0.789  1.00  0.00    -0.021 N 
ATOM     37  H82 UNL     1      -4.274  -0.304   1.486  1.00  0.00     0.283 HD
ATOM     38  H81 UNL     1      -3.490   1.020   1.385  1.00  0.00     0.283 HD
BRANCH  34  39
HETATM   39  S2  UNL     1      -5.762   2.480   1.206  1.00  0.00    -0.120 SA
HETATM   40  C13 UNL     1      -7.060   3.329   0.235  1.00  0.00     0.093 C 
ENDBRANCH  34  39
ENDBRANCH  25  26
ENDBRANCH  22  25
ENDBRANCH   1  22
TORSDOF 11
