REMARK  16 active torsions:
REMARK  status: ('A' for Active; 'I' for Inactive)
REMARK    1  A    between atoms: C2_2  and  O1_3 
REMARK    2  A    between atoms: C2_2  and  C3_5 
REMARK    3  A    between atoms: C3_5  and  N1_6 
REMARK    4  A    between atoms: N1_6  and  C4_8 
REMARK    5  A    between atoms: C5_11  and  C6_12 
REMARK    6  A    between atoms: C6_12  and  O2_13 
REMARK    7  A    between atoms: C6_12  and  N3_15 
REMARK    8  A    between atoms: N3_15  and  O3_16 
REMARK    9  A    between atoms: C7_18  and  C8_19 
REMARK   10  A    between atoms: N4_20  and  C9_22 
REMARK   11  A    between atoms: C10_25  and  N6_26 
REMARK   12  A    between atoms: C11_31  and  N8_32 
REMARK   13  A    between atoms: N8_32  and  C12_34 
REMARK   14  A    between atoms: C12_34  and  C13_35 
REMARK   15  A    between atoms: C13_35  and  O4_36 
REMARK   16  A    between atoms: C14_40  and  O5_41 
ROOT
HETATM    1  C4  UNL     1      -3.240  -0.863   0.418  1.00  0.00     0.680 A 
HETATM    2  N2  UNL     1      -2.606  -1.382  -0.646  1.00  0.00    -0.191 N 
ATOM      3  H2  UNL     1      -3.068  -2.119  -1.179  1.00  0.00     0.184 HD
HETATM    4  C5  UNL     1      -1.370  -0.964  -1.042  1.00  0.00     0.089 A 
HETATM    5  C7  UNL     1      -0.749   0.012  -0.333  1.00  0.00     0.058 A 
HETATM    6  C14 UNL     1      -1.458   0.521   0.771  1.00  0.00     0.169 A 
HETATM    7  N10 UNL     1      -2.659   0.104   1.138  1.00  0.00    -0.170 N 
ATOM      8  H10 UNL     1      -3.129   0.509   1.948  1.00  0.00     0.186 HD
ENDROOT
BRANCH   5   9
HETATM    9  C8  UNL     1       0.604   0.495  -0.557  1.00  0.00     0.124 C 
HETATM   10  N4  UNL     1       1.455   0.116  -1.409  1.00  0.00    -0.200 N 
ATOM     11  H4  UNL     1       1.210  -0.633  -2.057  1.00  0.00     0.183 HD
BRANCH  10  12
HETATM   12  C9  UNL     1       2.750   0.709  -1.489  1.00  0.00     0.711 A 
HETATM   13  N5  UNL     1       3.056   1.645  -2.398  1.00  0.00    -0.021 N 
HETATM   14  C10 UNL     1       4.285   2.171  -2.432  1.00  0.00     0.705 A 
ATOM     15  H5  UNL     1       2.350   1.957  -3.065  1.00  0.00     0.203 HD
HETATM   16  N7  UNL     1       5.227   1.761  -1.550  1.00  0.00    -0.022 N 
HETATM   17  C11 UNL     1       4.967   0.826  -0.621  1.00  0.00     0.707 A 
ATOM     18  H7  UNL     1       6.159   2.173  -1.592  1.00  0.00     0.203 HD
HETATM   19  N9  UNL     1       3.723   0.322  -0.618  1.00  0.00    -0.021 N 
ATOM     20  H9  UNL     1       3.494  -0.390   0.075  1.00  0.00     0.203 HD
BRANCH  14  21
HETATM   21  N6  UNL     1       4.621   3.088  -3.307  1.00  0.00    -0.234 N 
ATOM     22  H62 UNL     1       3.911   3.397  -3.971  1.00  0.00     0.174 HD
ATOM     23  H61 UNL     1       5.558   3.489  -3.333  1.00  0.00     0.174 HD
ENDBRANCH  14  21
BRANCH  17  24
HETATM   24  N8  UNL     1       5.860   0.425   0.229  1.00  0.00    -0.223 N 
ATOM     25  H8  UNL     1       6.803   0.813   0.218  1.00  0.00     0.177 HD
BRANCH  24  26
HETATM   26  C12 UNL     1       5.487  -0.585   1.192  1.00  0.00     0.164 C 
BRANCH  26  27
HETATM   27  C13 UNL     1       6.580  -0.877   2.178  1.00  0.00     0.184 C 
BRANCH  27  28
HETATM   28  O4  UNL     1       7.734  -1.333   1.548  1.00  0.00    -0.399 OA
ATOM     29  H4  UNL     1       8.426  -1.518   2.172  1.00  0.00     0.209 HD
ENDBRANCH  27  28
ENDBRANCH  26  27
ENDBRANCH  24  26
ENDBRANCH  17  24
ENDBRANCH  10  12
ENDBRANCH   5   9
BRANCH   4  30
HETATM   30  C6  UNL     1      -0.788  -1.518  -2.287  1.00  0.00     0.290 C 
BRANCH  30  31
HETATM   31  O2  UNL     1      -0.438  -0.556  -3.216  1.00  0.00    -0.372 OA
ATOM     32  H2  UNL     1      -0.065  -0.911  -4.014  1.00  0.00     0.212 HD
ENDBRANCH  30  31
BRANCH  30  33
HETATM   33  N3  UNL     1      -1.663  -2.445  -2.933  1.00  0.00    -0.065 NA
BRANCH  33  34
HETATM   34  O3  UNL     1      -1.985  -3.510  -2.193  1.00  0.00    -0.293 OA
ATOM     35  H3  UNL     1      -2.567  -4.126  -2.622  1.00  0.00     0.238 HD
ENDBRANCH  33  34
ENDBRANCH  30  33
ENDBRANCH   4  30
BRANCH   6  36
HETATM   36  O5  UNL     1      -0.867   1.540   1.545  1.00  0.00    -0.345 OA
ATOM     37  H5  UNL     1      -1.346   1.884   2.290  1.00  0.00     0.219 HD
ENDBRANCH   6  36
BRANCH   1  38
HETATM   38  N1  UNL     1      -4.416  -1.283   0.768  1.00  0.00    -0.224 N 
ATOM     39  H1  UNL     1      -4.840  -2.021   0.205  1.00  0.00     0.177 HD
BRANCH  38  40
HETATM   40  C3  UNL     1      -5.162  -0.791   1.881  1.00  0.00     0.169 C 
BRANCH  40  41
HETATM   41  C2  UNL     1      -5.966   0.460   1.494  1.00  0.00     0.132 C 
HETATM   42  C1  UNL     1      -6.824   0.893   2.642  1.00  0.00     0.041 C 
BRANCH  41  43
HETATM   43  O1  UNL     1      -6.821   0.031   0.462  1.00  0.00    -0.394 OA
ATOM     44  H1  UNL     1      -6.277  -0.244  -0.266  1.00  0.00     0.210 HD
ENDBRANCH  41  43
ENDBRANCH  40  41
ENDBRANCH  38  40
ENDBRANCH   1  38
TORSDOF 16
