REMARK  14 active torsions:
REMARK  status: ('A' for Active; 'I' for Inactive)
REMARK    1  A    between atoms: N1_1  and  C1_4 
REMARK    2  A    between atoms: C2_7  and  N3_8 
REMARK    3  A    between atoms: N3_8  and  N4_10 
REMARK    4  A    between atoms: C3_12  and  N5_13 
REMARK    5  A    between atoms: N5_13  and  C4_15 
REMARK    6  A    between atoms: C9_20  and  O1_21 
REMARK    7  A    between atoms: C11_24  and  N6_25 
REMARK    8  A    between atoms: N7_28  and  C12_29 
REMARK    9  A    between atoms: C12_29  and  C13_30 
REMARK   10  A    between atoms: C13_30  and  O2_31 
REMARK   11  A    between atoms: C13_30  and  C14_33 
REMARK   12  A    between atoms: C14_33  and  O3_34 
REMARK   13  A    between atoms: C14_33  and  C15_36 
REMARK   14  A    between atoms: C15_36  and  O4_37 
ROOT
HETATM    1  C1  UNL     1      -0.319   3.209   0.271  1.00  0.00     0.679 A 
HETATM    2  N2  UNL     1      -0.929   2.008   0.456  1.00  0.00    -0.174 N 
ATOM      3  H2  UNL     1      -1.947   1.994   0.521  1.00  0.00     0.186 HD
HETATM    4  C2  UNL     1      -0.282   0.850   0.557  1.00  0.00     0.153 A 
HETATM    5  C10 UNL     1       1.113   0.917   0.462  1.00  0.00     0.101 A 
HETATM    6  C11 UNL     1       1.881  -0.253   0.556  1.00  0.00     0.135 A 
HETATM    7  N7  UNL     1       3.216  -0.209   0.465  1.00  0.00    -0.259 N 
HETATM    8  N8  UNL     1       3.758   0.994   0.285  1.00  0.00    -0.237 N 
ATOM      9  H8  UNL     1       4.774   1.051   0.214  1.00  0.00     0.208 HD
HETATM   10  N9  UNL     1       3.074   2.112   0.192  1.00  0.00    -0.269 N 
ATOM     11  H9  UNL     1       3.573   2.991   0.054  1.00  0.00     0.190 HD
HETATM   12  C16 UNL     1       1.734   2.124   0.275  1.00  0.00     0.154 A 
HETATM   13  N10 UNL     1       1.011   3.266   0.181  1.00  0.00    -0.174 N 
ATOM     14  H10 UNL     1       1.479   4.161   0.043  1.00  0.00     0.186 HD
ENDROOT
BRANCH   4  15
HETATM   15  N3  UNL     1      -0.806  -0.303   0.728  1.00  0.00    -0.283 N 
ATOM     16  H3  UNL     1      -0.184  -1.109   0.787  1.00  0.00     0.188 HD
BRANCH  15  17
HETATM   17  N4  UNL     1      -2.160  -0.520   0.837  1.00  0.00    -0.295 N 
HETATM   18  C3  UNL     1      -2.854  -0.096   1.825  1.00  0.00     0.197 C 
ATOM     19  H4  UNL     1      -2.631  -1.042   0.098  1.00  0.00     0.187 HD
BRANCH  18  20
HETATM   20  N5  UNL     1      -4.243  -0.298   1.975  1.00  0.00    -0.349 N 
ATOM     21  H5  UNL     1      -4.579  -0.758   2.821  1.00  0.00     0.166 HD
BRANCH  20  22
HETATM   22  C4  UNL     1      -5.184   0.104   1.014  1.00  0.00     0.066 A 
HETATM   23  C5  UNL     1      -4.859   0.725  -0.165  1.00  0.00     0.032 A 
HETATM   24  C6  UNL     1      -5.845   1.095  -1.069  1.00  0.00     0.002 A 
HETATM   25  C7  UNL     1      -7.144   0.834  -0.774  1.00  0.00     0.003 A 
HETATM   26  C8  UNL     1      -7.491   0.214   0.397  1.00  0.00     0.039 A 
HETATM   27  C9  UNL     1      -6.515  -0.144   1.277  1.00  0.00     0.092 A 
BRANCH  27  28
HETATM   28  O1  UNL     1      -6.900  -0.776   2.468  1.00  0.00    -0.358 OA
ATOM     29  H1  UNL     1      -7.817  -0.947   2.649  1.00  0.00     0.217 HD
ENDBRANCH  27  28
ENDBRANCH  20  22
ENDBRANCH  18  20
ENDBRANCH  15  17
ENDBRANCH   4  15
BRANCH   1  30
HETATM   30  N1  UNL     1      -1.036   4.275   0.186  1.00  0.00    -0.234 N 
ATOM     31  H12 UNL     1      -2.053   4.231   0.255  1.00  0.00     0.174 HD
ATOM     32  H11 UNL     1      -0.578   5.176   0.047  1.00  0.00     0.174 HD
ENDBRANCH   1  30
BRANCH   6  33
HETATM   33  N6  UNL     1       1.250  -1.354   0.746  1.00  0.00    -0.383 N 
ATOM     34  H62 UNL     1       0.233  -1.388   0.815  1.00  0.00     0.157 HD
ATOM     35  H61 UNL     1       1.808  -2.205   0.814  1.00  0.00     0.157 HD
ENDBRANCH   6  33
BRANCH   7  36
HETATM   36  C12 UNL     1       4.020  -1.393   0.547  1.00  0.00     0.186 C 
BRANCH  36  37
HETATM   37  C13 UNL     1       4.332  -2.077  -0.735  1.00  0.00     0.168 C 
BRANCH  37  38
HETATM   38  O2  UNL     1       3.269  -2.519  -1.477  1.00  0.00    -0.391 OA
ATOM     39  H2  UNL     1       3.468  -2.956  -2.296  1.00  0.00     0.210 HD
ENDBRANCH  37  38
BRANCH  37  40
HETATM   40  C14 UNL     1       5.346  -1.321  -1.562  1.00  0.00     0.172 C 
BRANCH  40  41
HETATM   41  O3  UNL     1       4.838  -0.216  -2.195  1.00  0.00    -0.391 OA
ATOM     42  H3  UNL     1       5.475   0.259  -2.715  1.00  0.00     0.210 HD
ENDBRANCH  40  41
BRANCH  40  43
HETATM   43  C15 UNL     1       6.028  -2.280  -2.518  1.00  0.00     0.198 C 
BRANCH  43  44
HETATM   44  O4  UNL     1       5.075  -2.694  -3.452  1.00  0.00    -0.398 OA
ATOM     45  H4  UNL     1       5.502  -3.295  -4.051  1.00  0.00     0.209 HD
ENDBRANCH  43  44
ENDBRANCH  40  43
ENDBRANCH  37  40
ENDBRANCH  36  37
ENDBRANCH   7  36
TORSDOF 14
