REMARK  14 active torsions:
REMARK  status: ('A' for Active; 'I' for Inactive)
REMARK    1  A    between atoms: S1_2  and  C2_3 
REMARK    2  A    between atoms: C3_6  and  N2_7 
REMARK    3  A    between atoms: C5_13  and  N4_14 
REMARK    4  A    between atoms: N4_14  and  C6_16 
REMARK    5  A    between atoms: C6_16  and  C7_17 
REMARK    6  A    between atoms: C6_16  and  C8_20 
REMARK    7  A    between atoms: C7_17  and  O1_18 
REMARK    8  A    between atoms: C8_20  and  O2_21 
REMARK    9  A    between atoms: N7_28  and  C10_29 
REMARK   10  A    between atoms: C10_29  and  C11_30 
REMARK   11  A    between atoms: C11_30  and  O3_31 
REMARK   12  A    between atoms: C11_30  and  C12_33 
REMARK   13  A    between atoms: C12_33  and  O4_34 
REMARK   14  A    between atoms: C15_38  and  N8_39 
ROOT
HETATM    1  C2  UNL     1      -1.830   2.736  -0.171  1.00  0.00     0.098 A 
HETATM    2  N1  UNL     1      -0.674   3.364  -0.152  1.00  0.00    -0.334 N 
ATOM      3  H1  UNL     1      -0.675   4.381  -0.073  1.00  0.00     0.168 HD
HETATM    4  C3  UNL     1       0.495   2.736  -0.231  1.00  0.00     0.128 A 
HETATM    5  C4  UNL     1       0.504   1.368  -0.334  1.00  0.00     0.093 A 
HETATM    6  N3  UNL     1       1.687   0.747  -0.448  1.00  0.00    -0.337 N 
ATOM      7  H3  UNL     1       2.542   1.303  -0.434  1.00  0.00     0.167 HD
HETATM    8  C5  UNL     1       1.776  -0.572  -0.579  1.00  0.00     0.133 A 
HETATM    9  C9  UNL     1       0.611  -1.300  -0.589  1.00  0.00     0.122 A 
HETATM   10  N5  UNL     1       0.378  -2.613  -0.655  1.00  0.00    -0.280 N 
ATOM     11  H5  UNL     1       1.087  -3.340  -0.752  1.00  0.00     0.188 HD
HETATM   12  N6  UNL     1      -0.886  -2.806  -0.576  1.00  0.00    -0.239 N 
ATOM     13  H6  UNL     1      -1.326  -3.726  -0.601  1.00  0.00     0.208 HD
HETATM   14  N7  UNL     1      -1.586  -1.614  -0.453  1.00  0.00    -0.272 N 
HETATM   15  C13 UNL     1      -0.656  -0.701  -0.473  1.00  0.00     0.099 A 
HETATM   16  C14 UNL     1      -0.720   0.679  -0.351  1.00  0.00     0.054 A 
HETATM   17  C15 UNL     1      -1.898   1.310  -0.279  1.00  0.00     0.075 A 
ENDROOT
BRANCH   8  18
HETATM   18  N4  UNL     1       2.871  -1.201  -0.694  1.00  0.00    -0.366 N 
ATOM     19  H4  UNL     1       2.799  -2.214  -0.787  1.00  0.00     0.161 HD
BRANCH  18  20
HETATM   20  C6  UNL     1       4.183  -0.664  -0.709  1.00  0.00     0.130 C 
BRANCH  20  21
HETATM   21  C7  UNL     1       5.120  -1.747  -1.259  1.00  0.00     0.191 C 
BRANCH  21  22
HETATM   22  O1  UNL     1       5.076  -2.884  -0.444  1.00  0.00    -0.399 OA
ATOM     23  H1  UNL     1       5.656  -3.555  -0.785  1.00  0.00     0.209 HD
ENDBRANCH  21  22
ENDBRANCH  20  21
BRANCH  20  24
HETATM   24  C8  UNL     1       4.715  -0.286   0.645  1.00  0.00     0.191 C 
BRANCH  24  25
HETATM   25  O2  UNL     1       6.009   0.222   0.448  1.00  0.00    -0.399 OA
ATOM     26  H2  UNL     1       6.345   0.461   1.304  1.00  0.00     0.209 HD
ENDBRANCH  24  25
ENDBRANCH  20  24
ENDBRANCH  18  20
ENDBRANCH   8  18
BRANCH   4  27
HETATM   27  N2  UNL     1       1.624   3.366  -0.214  1.00  0.00    -0.384 N 
ATOM     28  H22 UNL     1       1.617   4.383  -0.137  1.00  0.00     0.157 HD
ATOM     29  H21 UNL     1       2.521   2.884  -0.275  1.00  0.00     0.157 HD
ENDBRANCH   4  27
BRANCH  14  30
HETATM   30  C10 UNL     1      -2.938  -1.765  -0.276  1.00  0.00     0.184 C 
BRANCH  30  31
HETATM   31  C11 UNL     1      -3.325  -2.023   1.199  1.00  0.00     0.161 C 
BRANCH  31  32
HETATM   32  O3  UNL     1      -4.757  -2.119   1.102  1.00  0.00    -0.392 OA
ATOM     33  H3  UNL     1      -4.995  -2.277   2.008  1.00  0.00     0.210 HD
ENDBRANCH  31  32
BRANCH  31  34
HETATM   34  C12 UNL     1      -2.893  -3.345   1.738  1.00  0.00     0.197 C 
BRANCH  34  35
HETATM   35  O4  UNL     1      -1.584  -3.511   2.062  1.00  0.00    -0.398 OA
ATOM     36  H4  UNL     1      -1.309  -4.353   2.405  1.00  0.00     0.209 HD
ENDBRANCH  34  35
ENDBRANCH  31  34
ENDBRANCH  30  31
ENDBRANCH  14  30
BRANCH  17  37
HETATM   37  N8  UNL     1      -3.201   0.934  -0.442  1.00  0.00    -0.396 N 
ATOM     38  H82 UNL     1      -4.099   1.415  -0.387  1.00  0.00     0.156 HD
ATOM     39  H81 UNL     1      -3.249  -0.082  -0.519  1.00  0.00     0.156 HD
ENDBRANCH  17  37
BRANCH   1  40
HETATM   40  S1  UNL     1      -3.373   3.632  -0.055  1.00  0.00    -0.114 SA
HETATM   41  C1  UNL     1      -3.071   5.392   0.080  1.00  0.00     0.097 C 
ENDBRANCH   1  40
TORSDOF 14
