REMARK  12 active torsions:
REMARK  status: ('A' for Active; 'I' for Inactive)
REMARK    1  A    between atoms: C3_4  and  C4_5 
REMARK    2  A    between atoms: C4_5  and  O2_6 
REMARK    3  A    between atoms: C4_5  and  C5_8 
REMARK    4  A    between atoms: C5_8  and  O3_9 
REMARK    5  A    between atoms: C5_8  and  C6_11 
REMARK    6  A    between atoms: C6_11  and  O4_12 
REMARK    7  A    between atoms: C6_11  and  C7_14 
REMARK    8  A    between atoms: C7_14  and  O5_15 
REMARK    9  A    between atoms: C8_19  and  C9_20 
REMARK   10  A    between atoms: C9_20  and  N2_21 
REMARK   11  A    between atoms: N2_21  and  C10_23 
REMARK   12  A    between atoms: C14_33  and  N6_34 
REMARK       I    between atoms: N6_34  and  C15_36 
REMARK       I    between atoms: C15_36  and  N7_37 
REMARK       I    between atoms: C15_36  and  N8_41 
ROOT
HETATM    1  C10 UNL     1      -2.376   0.857  -0.429  1.00  0.00     0.046 C 
HETATM    2  C11 UNL     1      -2.250   2.212  -0.243  1.00  0.00     0.119 C 
HETATM    3  N3  UNL     1      -3.239   3.130  -0.002  1.00  0.00    -0.347 N 
ATOM      4  H3  UNL     1      -3.144   4.056  -0.418  1.00  0.00     0.167 HD
HETATM    5  C12 UNL     1      -4.352   2.878   0.767  1.00  0.00     0.150 A 
HETATM    6  N4  UNL     1      -5.210   3.336   1.678  1.00  0.00    -0.283 N 
ATOM      7  H4  UNL     1      -5.303   4.224   2.172  1.00  0.00     0.188 HD
HETATM    8  N5  UNL     1      -5.899   2.201   1.701  1.00  0.00    -0.293 N 
ATOM      9  H5  UNL     1      -6.717   1.857   2.203  1.00  0.00     0.187 HD
HETATM   10  C13 UNL     1      -5.075   1.709   0.798  1.00  0.00     0.120 A 
HETATM   11  C14 UNL     1      -4.820   0.539   0.032  1.00  0.00     0.065 C 
HETATM   12  C16 UNL     1      -3.557   0.129  -0.392  1.00  0.00     0.062 C 
ENDROOT
BRANCH   1  13
HETATM   13  N2  UNL     1      -1.164   0.102  -0.687  1.00  0.00    -0.383 N 
ATOM     14  H2  UNL     1      -1.206  -0.916  -0.732  1.00  0.00     0.160 HD
BRANCH  13  15
HETATM   15  C9  UNL     1       0.087   0.763  -0.879  1.00  0.00     0.179 C 
BRANCH  15  16
HETATM   16  C8  UNL     1       1.226  -0.004  -0.308  1.00  0.00     0.058 A 
HETATM   17  C2  UNL     1       1.313  -0.369   1.036  1.00  0.00     0.076 A 
HETATM   18  C1  UNL     1       0.182  -0.219   1.985  1.00  0.00     0.079 C 
HETATM   19  O1  UNL     1       2.482  -0.823   1.248  1.00  0.00    -0.294 OA
HETATM   20  C3  UNL     1       3.205  -0.791   0.114  1.00  0.00     0.180 A 
HETATM   21  N1  UNL     1       2.411  -0.286  -0.842  1.00  0.00    -0.335 N 
ATOM     22  H1  UNL     1       2.673  -0.142  -1.817  1.00  0.00     0.168 HD
BRANCH  20  23
HETATM   23  C4  UNL     1       4.605  -1.247   0.048  1.00  0.00     0.126 C 
BRANCH  23  24
HETATM   24  O2  UNL     1       4.826  -2.564   0.347  1.00  0.00    -0.358 OA
ATOM     25  H2  UNL     1       5.728  -2.858   0.304  1.00  0.00     0.217 HD
ENDBRANCH  23  24
BRANCH  23  26
HETATM   26  C5  UNL     1       5.464  -0.638  -0.992  1.00  0.00     0.209 C 
BRANCH  26  27
HETATM   27  O3  UNL     1       5.417  -1.472  -2.131  1.00  0.00    -0.386 OA
ATOM     28  H3  UNL     1       5.968  -1.081  -2.799  1.00  0.00     0.210 HD
ENDBRANCH  26  27
BRANCH  26  29
HETATM   29  C6  UNL     1       6.864  -0.332  -0.610  1.00  0.00     0.177 C 
BRANCH  29  30
HETATM   30  O4  UNL     1       7.617  -1.385  -0.188  1.00  0.00    -0.390 OA
ATOM     31  H4  UNL     1       8.514  -1.189   0.057  1.00  0.00     0.210 HD
ENDBRANCH  29  30
BRANCH  29  32
HETATM   32  C7  UNL     1       6.983   0.895   0.226  1.00  0.00     0.198 C 
BRANCH  32  33
HETATM   33  O5  UNL     1       6.625   0.759   1.536  1.00  0.00    -0.398 OA
ATOM     34  H5  UNL     1       6.701   1.542   2.069  1.00  0.00     0.209 HD
ENDBRANCH  32  33
ENDBRANCH  29  32
ENDBRANCH  26  29
ENDBRANCH  23  26
ENDBRANCH  20  23
ENDBRANCH  15  16
ENDBRANCH  13  15
ENDBRANCH   1  13
BRANCH  11  35
HETATM   35  N6  UNL     1      -5.846  -0.114  -0.229  1.00  0.00    -0.339 N 
HETATM   36  C15 UNL     1      -6.050  -1.292  -0.932  1.00  0.00     0.480 C 
HETATM   37  N7  UNL     1      -6.544  -2.386  -0.090  1.00  0.00    -0.033 N 
HETATM   38  N8  UNL     1      -7.081  -1.007  -1.964  1.00  0.00    -0.033 N 
ATOM     39  H73 UNL     1      -5.925  -2.540   0.706  1.00  0.00     0.278 HD
ATOM     40  H72 UNL     1      -7.390  -2.108   0.407  1.00  0.00     0.278 HD
ATOM     41  H71 UNL     1      -6.694  -3.252  -0.607  1.00  0.00     0.278 HD
ATOM     42  H83 UNL     1      -7.940  -0.617  -1.576  1.00  0.00     0.278 HD
ATOM     43  H82 UNL     1      -6.841  -0.218  -2.564  1.00  0.00     0.278 HD
ATOM     44  H81 UNL     1      -7.231  -1.873  -2.481  1.00  0.00     0.278 HD
ATOM     45  H6  UNL     1      -6.702   0.296   0.146  1.00  0.00     0.163 HD
ENDBRANCH  11  35
TORSDOF 12
