REMARK  11 active torsions:
REMARK  status: ('A' for Active; 'I' for Inactive)
REMARK    1  A    between atoms: N1_1  and  C1_4 
REMARK    2  A    between atoms: C2_7  and  O1_8 
REMARK    3  A    between atoms: C3_10  and  C4_11 
REMARK    4  A    between atoms: C4_11  and  S1_12 
REMARK    5  A    between atoms: S1_12  and  C5_13 
REMARK    6  A    between atoms: C5_13  and  C6_14 
REMARK    7  A    between atoms: C6_14  and  N3_15 
REMARK    8  A    between atoms: N3_15  and  S2_17 
REMARK    9  A    between atoms: S2_17  and  C7_20 
REMARK   10  A    between atoms: C9_25  and  C10_26 
REMARK       I    between atoms: C10_26  and  N6_28 
REMARK   11  A    between atoms: N6_28  and  N7_30 
ROOT
HETATM    1  S2  UNL     1      -1.297  -0.901   3.130  1.00  0.00     0.280 S 
HETATM    2  O2  UNL     1      -2.124  -1.589   4.208  1.00  0.00    -0.199 OA
HETATM    3  O3  UNL     1      -0.571   0.225   3.850  1.00  0.00    -0.199 OA
ENDROOT
BRANCH   1   4
HETATM    4  N3  UNL     1      -0.236  -2.054   2.490  1.00  0.00    -0.313 N 
ATOM      5  H3  UNL     1      -0.241  -3.027   2.797  1.00  0.00     0.172 HD
BRANCH   4   6
HETATM    6  C6  UNL     1       0.663  -1.577   1.496  1.00  0.00     0.142 C 
BRANCH   6   7
HETATM    7  C5  UNL     1       1.580  -2.655   0.969  1.00  0.00     0.094 C 
BRANCH   7   8
HETATM    8  S1  UNL     1       2.700  -1.985  -0.292  1.00  0.00    -0.161 SA
BRANCH   8   9
HETATM    9  C4  UNL     1       3.852  -0.795   0.397  1.00  0.00     0.136 C 
BRANCH   9  10
HETATM   10  C3  UNL     1       4.724  -0.299  -0.699  1.00  0.00     0.087 A 
HETATM   11  C2  UNL     1       5.754   0.642  -0.576  1.00  0.00     0.179 A 
HETATM   12  N2  UNL     1       6.320   0.843  -1.770  1.00  0.00    -0.169 N 
HETATM   13  C1  UNL     1       5.691   0.067  -2.653  1.00  0.00     0.678 A 
ATOM     14  H2  UNL     1       7.094   1.476  -1.970  1.00  0.00     0.186 HD
HETATM   15  N9  UNL     1       4.729  -0.622  -2.010  1.00  0.00    -0.191 N 
ATOM     16  H9  UNL     1       4.096  -1.291  -2.449  1.00  0.00     0.184 HD
BRANCH  11  17
HETATM   17  O1  UNL     1       6.101   1.248   0.626  1.00  0.00    -0.344 OA
ATOM     18  H1  UNL     1       5.699   1.105   1.475  1.00  0.00     0.219 HD
ENDBRANCH  11  17
BRANCH  13  19
HETATM   19  N1  UNL     1       5.941  -0.030  -3.926  1.00  0.00    -0.234 N 
ATOM     20  H12 UNL     1       6.670   0.492  -4.413  1.00  0.00     0.174 HD
ATOM     21  H11 UNL     1       5.460  -0.624  -4.602  1.00  0.00     0.174 HD
ENDBRANCH  13  19
ENDBRANCH   9  10
ENDBRANCH   8   9
ENDBRANCH   7   8
ENDBRANCH   6   7
ENDBRANCH   4   6
ENDBRANCH   1   4
BRANCH   1  22
HETATM   22  C7  UNL     1      -2.372  -0.204   1.933  1.00  0.00     0.218 A 
HETATM   23  N4  UNL     1      -3.565  -0.755   1.648  1.00  0.00    -0.328 N 
HETATM   24  C8  UNL     1      -4.398  -0.223   0.730  1.00  0.00     0.150 A 
ATOM     25  H4  UNL     1      -3.849  -1.601   2.141  1.00  0.00     0.168 HD
HETATM   26  N5  UNL     1      -5.657  -0.798   0.423  1.00  0.00    -0.080 NA
HETATM   27  C9  UNL     1      -4.063   0.932   0.027  1.00  0.00     0.146 A 
HETATM   28  N8  UNL     1      -2.872   1.477   0.316  1.00  0.00    -0.314 N 
HETATM   29  C11 UNL     1      -2.034   0.937   1.242  1.00  0.00     0.286 A 
ATOM     30  H8  UNL     1      -2.585   2.324  -0.174  1.00  0.00     0.169 HD
HETATM   31  O5  UNL     1      -0.938   1.491   1.467  1.00  0.00    -0.265 OA
BRANCH  27  32
HETATM   32  C10 UNL     1      -4.984   1.486  -0.961  1.00  0.00     0.289 C 
HETATM   33  O4  UNL     1      -6.084   0.911  -1.171  1.00  0.00    -0.264 OA
HETATM   34  N6  UNL     1      -4.701   2.655  -1.708  1.00  0.00    -0.271 N 
ATOM     35  H6  UNL     1      -3.816   3.140  -1.557  1.00  0.00     0.189 HD
BRANCH  34  36
HETATM   36  N7  UNL     1      -5.604   3.160  -2.646  1.00  0.00    -0.342 N 
ATOM     37  H72 UNL     1      -6.484   2.663  -2.784  1.00  0.00     0.176 HD
ATOM     38  H71 UNL     1      -5.400   4.002  -3.184  1.00  0.00     0.176 HD
ENDBRANCH  34  36
ENDBRANCH  27  32
ENDBRANCH   1  22
TORSDOF 11
