REMARK  2 active torsions:
REMARK  status: ('A' for Active; 'I' for Inactive)
REMARK    1  A    between atoms: C2_2  and  N2_6 
REMARK    2  A    between atoms: N2_6  and  C3_8 
ROOT
HETATM    1  C3  UNL     1       0.377   0.499  -0.576  1.00  0.00     0.110 C 
HETATM    2  C4  UNL     1      -0.774   1.467  -0.724  1.00  0.00     0.054 C 
HETATM    3  C5  UNL     1      -1.923   0.476  -0.923  1.00  0.00     0.238 C 
HETATM    4  N3  UNL     1      -1.662  -0.501   0.108  1.00  0.00    -0.073 N 
HETATM    5  C6  UNL     1      -2.385  -0.166   1.305  1.00  0.00     0.272 C 
HETATM    6  C7  UNL     1      -2.142  -1.783  -0.399  1.00  0.00     0.272 C 
HETATM    7  C8  UNL     1      -0.250  -0.539   0.339  1.00  0.00     0.261 C 
ENDROOT
BRANCH   1   8
HETATM    8  N2  UNL     1       1.544   1.111   0.004  1.00  0.00    -0.374 N 
ATOM      9  H2  UNL     1       1.550   2.095   0.272  1.00  0.00     0.161 HD
BRANCH   8  10
HETATM   10  C2  UNL     1       2.688   0.285   0.188  1.00  0.00     0.066 C 
HETATM   11  C1  UNL     1       4.036   0.622  -0.309  1.00  0.00     0.088 C 
HETATM   12  N1  UNL     1       2.534  -0.816   0.826  1.00  0.00    -0.389 N 
ATOM     13  H12 UNL     1       3.354  -1.408   0.958  1.00  0.00     0.157 HD
ATOM     14  H11 UNL     1       1.602  -1.049   1.170  1.00  0.00     0.157 HD
ENDBRANCH   8  10
ENDBRANCH   1   8
TORSDOF 2
