REMARK  2 active torsions:
REMARK  status: ('A' for Active; 'I' for Inactive)
REMARK       I    between atoms: N3_4  and  C2_6 
REMARK    1  A    between atoms: C2_6  and  C3_8 
REMARK    2  A    between atoms: C4_9  and  C5_10 
ROOT
HETATM    1  N1  UNL     1      -2.958  -0.234   1.322  1.00  0.00    -0.066 NA
HETATM    2  C1  UNL     1      -3.403  -0.103  -0.011  1.00  0.00     0.203 C 
HETATM    3  N2  UNL     1      -4.739   0.122  -0.390  1.00  0.00    -0.066 NA
HETATM    4  N3  UNL     1      -2.536  -0.193  -0.960  1.00  0.00    -0.300 N 
ATOM      5  H3  UNL     1      -2.836  -0.101  -1.931  1.00  0.00     0.171 HD
HETATM    6  C2  UNL     1      -1.117  -0.427  -0.652  1.00  0.00     0.246 C 
HETATM    7  O1  UNL     1      -0.729  -1.487  -1.147  1.00  0.00    -0.268 OA
ENDROOT
BRANCH   6   8
HETATM    8  C3  UNL     1      -0.459   0.559   0.126  1.00  0.00     0.071 C 
HETATM    9  C4  UNL     1       0.723   0.760   0.586  1.00  0.00    -0.017 C 
BRANCH   9  10
HETATM   10  C5  UNL     1       1.937  -0.015   0.462  1.00  0.00     0.008 C 
HETATM   11  C6  UNL     1       2.132  -0.850  -0.760  1.00  0.00     0.008 C 
HETATM   12  C7  UNL     1       3.640  -0.424  -0.734  1.00  0.00     0.001 C 
HETATM   13  C8  UNL     1       3.114   0.857  -0.089  1.00  0.00     0.008 C 
ENDBRANCH   9  10
ENDBRANCH   6   8
TORSDOF 2
