REMARK  12 active torsions:
REMARK  status: ('A' for Active; 'I' for Inactive)
REMARK    1  A    between atoms: C3_3  and  C5_5 
REMARK    2  A    between atoms: C5_5  and  N1_7 
REMARK    3  A    between atoms: C8_9  and  C9_10 
REMARK    4  A    between atoms: C9_10  and  O1_11 
REMARK    5  A    between atoms: C9_10  and  N2_13 
REMARK    6  A    between atoms: C12_16  and  C13_17 
REMARK    7  A    between atoms: C13_17  and  C14_18 
REMARK    8  A    between atoms: C17_21  and  C19_23 
REMARK       I    between atoms: C19_23  and  N3_25 
REMARK    9  A    between atoms: C27_33  and  C28_34 
REMARK       I    between atoms: C28_34  and  N4_36 
REMARK   10  A    between atoms: N4_36  and  C29_38 
REMARK   11  A    between atoms: C29_38  and  C30_39 
REMARK   12  A    between atoms: C30_39  and  C31_40 
ROOT
HETATM    1  C1  UNL     1      -4.858  -6.910   0.886  1.00  0.00     0.012 C 
HETATM    2  C2  UNL     1      -4.418  -5.819   0.719  1.00  0.00    -0.111 C 
HETATM    3  C3  UNL     1      -3.859  -4.489   0.513  1.00  0.00     0.082 C 
HETATM    4  C4  UNL     1      -3.325  -4.404  -0.899  1.00  0.00     0.025 C 
ENDROOT
BRANCH   3   5
HETATM    5  C5  UNL     1      -4.885  -3.415   0.757  1.00  0.00     0.098 C 
HETATM    6  C6  UNL     1      -5.434  -3.431   2.144  1.00  0.00     0.034 C 
BRANCH   5   7
HETATM    7  N1  UNL     1      -4.341  -2.100   0.492  1.00  0.00    -0.345 N 
HETATM    8  C7  UNL     1      -3.229  -1.474   1.172  1.00  0.00     0.140 C 
HETATM    9  C8  UNL     1      -3.462  -0.017   0.990  1.00  0.00     0.100 C 
HETATM   10  C27 UNL     1      -4.117   0.116  -0.357  1.00  0.00     0.183 C 
HETATM   11  C33 UNL     1      -4.808  -1.203  -0.488  1.00  0.00     0.234 C 
HETATM   12  O4  UNL     1      -5.687  -1.400  -1.394  1.00  0.00    -0.272 OA
BRANCH   9  13
HETATM   13  C9  UNL     1      -2.354   0.883   1.262  1.00  0.00     0.120 C 
BRANCH  13  14
HETATM   14  O1  UNL     1      -2.442   1.612   2.345  1.00  0.00    -0.349 OA
ATOM     15  H1  UNL     1      -1.718   2.200   2.523  1.00  0.00     0.219 HD
ENDBRANCH  13  14
BRANCH  13  16
HETATM   16  N2  UNL     1      -1.167   1.103   0.528  1.00  0.00    -0.365 N 
HETATM   17  C10 UNL     1      -0.853   0.429  -0.685  1.00  0.00     0.125 C 
HETATM   18  C11 UNL     1       0.638   0.202  -0.875  1.00  0.00     0.024 C 
HETATM   19  C12 UNL     1       1.250   0.276   0.514  1.00  0.00    -0.011 C 
HETATM   20  C25 UNL     1       1.201   1.702   0.917  1.00  0.00     0.024 C 
HETATM   21  C26 UNL     1      -0.238   2.116   1.094  1.00  0.00     0.125 C 
BRANCH  19  22
HETATM   22  C13 UNL     1       2.532  -0.428   0.662  1.00  0.00     0.009 C 
BRANCH  22  23
HETATM   23  C14 UNL     1       3.696  -0.064  -0.136  1.00  0.00    -0.013 C 
HETATM   24  C15 UNL     1       3.640  -0.144  -1.600  1.00  0.00     0.006 C 
HETATM   25  C16 UNL     1       5.123  -0.254  -1.969  1.00  0.00     0.019 C 
HETATM   26  C17 UNL     1       5.586  -1.325  -1.020  1.00  0.00     0.038 C 
HETATM   27  C18 UNL     1       5.063  -2.641  -1.648  1.00  0.00     0.025 C 
HETATM   28  C24 UNL     1       4.826  -1.035   0.235  1.00  0.00     0.023 C 
BRANCH  26  29
HETATM   29  C19 UNL     1       7.029  -1.422  -0.841  1.00  0.00     0.228 C 
HETATM   30  O2  UNL     1       7.557  -2.562  -1.099  1.00  0.00    -0.273 OA
HETATM   31  N3  UNL     1       7.878  -0.398  -0.417  1.00  0.00    -0.351 N 
HETATM   32  C20 UNL     1       9.333  -0.597  -0.252  1.00  0.00     0.126 C 
HETATM   33  C23 UNL     1       7.566   0.952  -0.085  1.00  0.00     0.126 C 
HETATM   34  C21 UNL     1       9.753   0.405   0.772  1.00  0.00     0.021 C 
HETATM   35  C22 UNL     1       8.662   1.434   0.855  1.00  0.00     0.021 C 
ENDBRANCH  26  29
ENDBRANCH  22  23
ENDBRANCH  19  22
ENDBRANCH  13  16
ENDBRANCH   9  13
BRANCH  10  36
HETATM   36  C28 UNL     1      -5.180   1.177  -0.277  1.00  0.00     0.231 C 
HETATM   37  O3  UNL     1      -6.361   0.832  -0.461  1.00  0.00    -0.273 OA
HETATM   38  N4  UNL     1      -4.871   2.522  -0.000  1.00  0.00    -0.360 N 
ATOM     39  H4  UNL     1      -3.904   2.809   0.152  1.00  0.00     0.162 HD
BRANCH  38  40
HETATM   40  C29 UNL     1      -5.942   3.492   0.067  1.00  0.00     0.122 C 
BRANCH  40  41
HETATM   41  C30 UNL     1      -5.330   4.839   0.371  1.00  0.00     0.019 C 
BRANCH  41  42
HETATM   42  C31 UNL     1      -6.471   5.838   0.435  1.00  0.00    -0.003 C 
HETATM   43  C32 UNL     1      -7.179   5.844  -0.901  1.00  0.00     0.005 C 
ENDBRANCH  41  42
ENDBRANCH  40  41
ENDBRANCH  38  40
ENDBRANCH  10  36
ENDBRANCH   5   7
ENDBRANCH   3   5
TORSDOF 12
