REMARK  10 active torsions:
REMARK  status: ('A' for Active; 'I' for Inactive)
REMARK    1  A    between atoms: C2_2  and  N1_3 
REMARK    2  A    between atoms: C4_6  and  C5_7 
REMARK       I    between atoms: C5_7  and  N2_9 
REMARK       I    between atoms: N3_15  and  C10_16 
REMARK    3  A    between atoms: C10_16  and  C11_18 
REMARK    4  A    between atoms: C11_18  and  C12_19 
REMARK    5  A    between atoms: C12_19  and  C13_20 
REMARK    6  A    between atoms: C13_20  and  C14_21 
REMARK    7  A    between atoms: C14_21  and  C15_22 
REMARK    8  A    between atoms: C15_22  and  C16_23 
REMARK    9  A    between atoms: C16_23  and  C17_24 
REMARK       I    between atoms: C17_24  and  N4_26 
REMARK   10  A    between atoms: C25_34  and  C26_35 
REMARK       I    between atoms: C26_35  and  N5_37 
ROOT
HETATM    1  N1  UNL     1      -3.994  -1.588  -2.407  1.00  0.00    -0.338 N 
HETATM    2  C3  UNL     1      -2.905  -2.422  -2.771  1.00  0.00     0.234 C 
HETATM    3  O1  UNL     1      -2.853  -2.890  -3.938  1.00  0.00    -0.272 OA
HETATM    4  C4  UNL     1      -1.845  -2.729  -1.763  1.00  0.00     0.178 C 
HETATM    5  C7  UNL     1      -1.614  -1.564  -0.822  1.00  0.00    -0.014 C 
HETATM    6  C8  UNL     1      -0.677  -0.599  -1.541  1.00  0.00     0.030 C 
HETATM    7  C9  UNL     1       0.709  -0.590  -0.877  1.00  0.00     0.126 C 
HETATM    8  N3  UNL     1       0.537  -0.256   0.515  1.00  0.00    -0.352 N 
HETATM    9  C10 UNL     1       1.298   0.738   1.167  1.00  0.00     0.219 C 
HETATM   10  O3  UNL     1       2.174   1.323   0.442  1.00  0.00    -0.273 OA
HETATM   11  C22 UNL     1      -0.460  -0.986   1.269  1.00  0.00     0.126 C 
HETATM   12  C23 UNL     1      -0.912  -2.144   0.415  1.00  0.00     0.030 C 
HETATM   13  C24 UNL     1      -2.844  -0.889  -0.333  1.00  0.00     0.046 C 
HETATM   14  C25 UNL     1      -3.925  -0.616  -1.320  1.00  0.00     0.180 C 
ENDROOT
BRANCH   4  15
HETATM   15  C5  UNL     1      -2.050  -4.015  -1.081  1.00  0.00     0.231 C 
HETATM   16  O2  UNL     1      -1.178  -4.950  -1.139  1.00  0.00    -0.273 OA
HETATM   17  N2  UNL     1      -3.216  -4.292  -0.325  1.00  0.00    -0.365 N 
HETATM   18  C6  UNL     1      -3.416  -5.557   0.346  1.00  0.00     0.149 C 
ATOM     19  H2  UNL     1      -3.938  -3.575  -0.252  1.00  0.00     0.161 HD
ENDBRANCH   4  15
BRANCH  14  20
HETATM   20  C26 UNL     1      -3.930   0.766  -1.843  1.00  0.00     0.242 C 
HETATM   21  O5  UNL     1      -3.712   0.913  -3.089  1.00  0.00    -0.271 OA
HETATM   22  N5  UNL     1      -4.157   1.915  -1.076  1.00  0.00    -0.350 N 
HETATM   23  C27 UNL     1      -4.441   1.819   0.329  1.00  0.00     0.126 C 
HETATM   24  C31 UNL     1      -4.114   3.256  -1.646  1.00  0.00     0.126 C 
HETATM   25  C28 UNL     1      -5.566   2.739   0.708  1.00  0.00     0.020 C 
HETATM   26  C29 UNL     1      -5.298   4.150   0.283  1.00  0.00     0.003 C 
HETATM   27  C30 UNL     1      -4.008   4.257  -0.513  1.00  0.00     0.020 C 
ENDBRANCH  14  20
BRANCH   1  28
HETATM   28  C2  UNL     1      -5.243  -1.704  -3.146  1.00  0.00     0.122 C 
HETATM   29  C1  UNL     1      -6.152  -2.731  -2.510  1.00  0.00     0.026 C 
ENDBRANCH   1  28
BRANCH   9  30
HETATM   30  C11 UNL     1       1.130   1.112   2.573  1.00  0.00     0.103 C 
BRANCH  30  31
HETATM   31  C12 UNL     1       2.315   1.881   3.085  1.00  0.00     0.009 C 
BRANCH  31  32
HETATM   32  C13 UNL     1       3.542   0.997   3.024  1.00  0.00     0.000 C 
BRANCH  32  33
HETATM   33  C14 UNL     1       4.770   1.726   3.522  1.00  0.00     0.000 C 
BRANCH  33  34
HETATM   34  C15 UNL     1       5.955   0.821   3.478  1.00  0.00     0.009 C 
BRANCH  34  35
HETATM   35  C16 UNL     1       6.242   0.321   2.104  1.00  0.00     0.103 C 
BRANCH  35  36
HETATM   36  C17 UNL     1       6.569   1.399   1.160  1.00  0.00     0.219 C 
HETATM   37  O4  UNL     1       6.716   2.617   1.508  1.00  0.00    -0.273 OA
HETATM   38  N4  UNL     1       6.731   1.054  -0.221  1.00  0.00    -0.352 N 
HETATM   39  C18 UNL     1       7.053   1.970  -1.303  1.00  0.00     0.126 C 
HETATM   40  C21 UNL     1       6.608  -0.290  -0.752  1.00  0.00     0.126 C 
HETATM   41  C19 UNL     1       7.867   1.125  -2.269  1.00  0.00     0.021 C 
HETATM   42  C20 UNL     1       7.563  -0.324  -1.934  1.00  0.00     0.021 C 
ENDBRANCH  35  36
ENDBRANCH  34  35
ENDBRANCH  33  34
ENDBRANCH  32  33
ENDBRANCH  31  32
ENDBRANCH  30  31
ENDBRANCH   9  30
TORSDOF 10
