REMARK  11 active torsions:
REMARK  status: ('A' for Active; 'I' for Inactive)
REMARK    1  A    between atoms: C2_2  and  C3_3 
REMARK    2  A    between atoms: C3_3  and  C4_4 
REMARK    3  A    between atoms: C4_4  and  N1_5 
REMARK    4  A    between atoms: C5_7  and  C6_9 
REMARK       I    between atoms: C6_9  and  N3_11 
REMARK    5  A    between atoms: N4_14  and  C8_15 
REMARK    6  A    between atoms: C8_15  and  C9_16 
REMARK    7  A    between atoms: C16_23  and  C17_24 
REMARK       I    between atoms: C17_24  and  N5_26 
REMARK    8  A    between atoms: N5_26  and  C18_27 
REMARK    9  A    between atoms: N5_26  and  C25_36 
REMARK   10  A    between atoms: C18_27  and  C19_28 
REMARK       I    between atoms: C19_28  and  N6_30 
REMARK   11  A    between atoms: C25_36  and  C26_37 
ROOT
HETATM    1  C6  UNL     1      -2.126   1.903   0.950  1.00  0.00     0.293 C 
HETATM    2  O1  UNL     1      -1.309   2.682   1.586  1.00  0.00    -0.264 OA
HETATM    3  N3  UNL     1      -1.762   0.559   0.806  1.00  0.00    -0.248 N 
HETATM    4  C7  UNL     1      -2.389  -0.517   0.128  1.00  0.00     0.328 C 
HETATM    5  O2  UNL     1      -3.019  -0.450  -0.960  1.00  0.00    -0.247 OA
HETATM    6  N4  UNL     1      -2.174  -1.688   0.905  1.00  0.00    -0.331 N 
HETATM    7  C15 UNL     1      -0.985  -1.404   1.750  1.00  0.00     0.163 C 
HETATM    8  C16 UNL     1      -0.511  -0.024   1.381  1.00  0.00     0.208 C 
ENDROOT
BRANCH   8   9
HETATM    9  C17 UNL     1       0.502   0.016   0.316  1.00  0.00     0.245 C 
HETATM   10  O3  UNL     1       0.081   0.112  -0.903  1.00  0.00    -0.271 OA
HETATM   11  N5  UNL     1       1.906  -0.032   0.469  1.00  0.00    -0.341 N 
BRANCH  11  12
HETATM   12  C18 UNL     1       2.728   0.037  -0.761  1.00  0.00     0.228 C 
BRANCH  12  13
HETATM   13  C19 UNL     1       2.997   1.488  -1.069  1.00  0.00     0.237 C 
HETATM   14  O4  UNL     1       2.532   2.362  -0.308  1.00  0.00    -0.272 OA
HETATM   15  N6  UNL     1       3.758   1.902  -2.187  1.00  0.00    -0.351 N 
HETATM   16  C20 UNL     1       4.017   3.300  -2.474  1.00  0.00     0.126 C 
HETATM   17  C24 UNL     1       4.333   0.946  -3.127  1.00  0.00     0.126 C 
HETATM   18  C21 UNL     1       5.505   3.514  -2.237  1.00  0.00     0.020 C 
HETATM   19  C22 UNL     1       6.243   2.196  -2.078  1.00  0.00     0.003 C 
HETATM   20  C23 UNL     1       5.822   1.190  -3.140  1.00  0.00     0.020 C 
ENDBRANCH  12  13
ENDBRANCH  11  12
BRANCH  11  21
HETATM   21  C25 UNL     1       2.631  -0.089   1.696  1.00  0.00     0.131 C 
BRANCH  21  22
HETATM   22  C26 UNL     1       2.862  -1.466   2.180  1.00  0.00     0.004 C 
HETATM   23  C27 UNL     1       3.671  -1.393   3.470  1.00  0.00     0.006 C 
HETATM   24  C28 UNL     1       3.925  -2.677   4.137  1.00  0.00     0.000 C 
HETATM   25  C29 UNL     1       4.143  -3.853   3.243  1.00  0.00     0.000 C 
HETATM   26  C30 UNL     1       3.484  -3.777   1.925  1.00  0.00     0.000 C 
HETATM   27  C31 UNL     1       3.601  -2.398   1.269  1.00  0.00     0.006 C 
ENDBRANCH  21  22
ENDBRANCH  11  21
ENDBRANCH   8   9
BRANCH   1  28
HETATM   28  C5  UNL     1      -3.317   2.550   0.475  1.00  0.00     0.181 C 
HETATM   29  N1  UNL     1      -3.468   3.829   0.703  1.00  0.00    -0.374 N 
ATOM     30  H1  UNL     1      -2.730   4.328   1.200  1.00  0.00     0.160 HD
HETATM   31  N2  UNL     1      -4.375   1.917  -0.216  1.00  0.00    -0.077 NA
BRANCH  29  32
HETATM   32  C4  UNL     1      -4.636   4.564   0.280  1.00  0.00     0.121 C 
BRANCH  32  33
HETATM   33  C3  UNL     1      -4.146   5.931  -0.207  1.00  0.00     0.019 C 
BRANCH  33  34
HETATM   34  C2  UNL     1      -5.357   6.690  -0.646  1.00  0.00    -0.003 C 
HETATM   35  C1  UNL     1      -5.035   8.072  -1.157  1.00  0.00     0.005 C 
ENDBRANCH  33  34
ENDBRANCH  32  33
ENDBRANCH  29  32
ENDBRANCH   1  28
BRANCH   6  36
HETATM   36  C8  UNL     1      -2.893  -2.946   0.919  1.00  0.00     0.132 C 
BRANCH  36  37
HETATM   37  C9  UNL     1      -2.371  -4.035   0.076  1.00  0.00     0.004 C 
HETATM   38  C10 UNL     1      -2.300  -3.805  -1.386  1.00  0.00     0.006 C 
HETATM   39  C11 UNL     1      -3.633  -3.800  -2.099  1.00  0.00     0.000 C 
HETATM   40  C12 UNL     1      -4.528  -4.921  -1.682  1.00  0.00     0.000 C 
HETATM   41  C13 UNL     1      -4.603  -5.062  -0.176  1.00  0.00     0.000 C 
HETATM   42  C14 UNL     1      -3.229  -5.275   0.345  1.00  0.00     0.006 C 
ENDBRANCH  36  37
ENDBRANCH   6  36
TORSDOF 11
