REMARK  13 active torsions:
REMARK  status: ('A' for Active; 'I' for Inactive)
REMARK    1  A    between atoms: N1_2  and  C2_3 
REMARK    2  A    between atoms: N1_2  and  C20_28 
REMARK    3  A    between atoms: C2_3  and  C3_4 
REMARK    4  A    between atoms: C3_4  and  C4_5 
REMARK    5  A    between atoms: C4_5  and  C5_6 
REMARK    6  A    between atoms: C5_6  and  N2_7 
REMARK       I    between atoms: N2_7  and  C6_8 
REMARK    7  A    between atoms: C6_8  and  C7_10 
REMARK    8  A    between atoms: N4_19  and  C15_20 
REMARK    9  A    between atoms: C15_20  and  O2_21 
REMARK   10  A    between atoms: C15_20  and  N5_23 
REMARK   11  A    between atoms: C20_28  and  C21_29 
REMARK   12  A    between atoms: C21_29  and  N6_30 
REMARK   13  A    between atoms: N6_30  and  C23_32 
ROOT
HETATM    1  N2  UNL     1      -3.273  -0.259  -0.683  1.00  0.00    -0.386 NA
HETATM    2  C6  UNL     1      -4.630  -0.316  -0.877  1.00  0.00     0.316 C 
HETATM    3  O1  UNL     1      -5.222  -0.294  -1.969  1.00  0.00    -0.255 OA
ENDROOT
BRANCH   1   4
HETATM    4  C5  UNL     1      -1.901  -0.202  -0.494  1.00  0.00     0.159 C 
BRANCH   4   5
HETATM    5  C4  UNL     1      -1.081   0.930  -1.053  1.00  0.00     0.061 C 
BRANCH   5   6
HETATM    6  C3  UNL     1       0.309   0.777  -0.575  1.00  0.00     0.036 C 
BRANCH   6   7
HETATM    7  C2  UNL     1       1.041  -0.443  -1.023  1.00  0.00     0.272 C 
BRANCH   7   8
HETATM    8  N1  UNL     1       2.323  -0.505  -0.369  1.00  0.00     0.086 N 
HETATM    9  C1  UNL     1       2.039  -0.858   1.028  1.00  0.00     0.309 C 
BRANCH   8  10
HETATM   10  C20 UNL     1       3.321  -1.272  -0.928  1.00  0.00     0.302 C 
BRANCH  10  11
HETATM   11  C21 UNL     1       4.710  -1.041  -0.416  1.00  0.00     0.303 C 
BRANCH  11  12
HETATM   12  N6  UNL     1       5.282   0.226  -0.691  1.00  0.00     0.095 N 
HETATM   13  C22 UNL     1       4.519   1.258   0.009  1.00  0.00     0.310 C 
BRANCH  12  14
HETATM   14  C23 UNL     1       6.671   0.267  -0.174  1.00  0.00     0.160 C 
HETATM   15  C24 UNL     1       7.495  -0.866  -0.767  1.00  0.00     0.046 C 
HETATM   16  C25 UNL     1       8.940  -0.668  -0.358  1.00  0.00    -0.011 C 
HETATM   17  C26 UNL     1       9.519   0.644  -0.796  1.00  0.00     0.009 C 
HETATM   18  C30 UNL     1       9.014  -0.727   1.140  1.00  0.00     0.009 C 
HETATM   19  C27 UNL     1       8.719   1.742  -0.178  1.00  0.00    -0.011 C 
HETATM   20  C28 UNL     1       8.731   1.692   1.335  1.00  0.00     0.009 C 
HETATM   21  C32 UNL     1       7.267   1.586  -0.617  1.00  0.00     0.046 C 
HETATM   22  C29 UNL     1       8.180   0.343   1.756  1.00  0.00    -0.011 C 
HETATM   23  C31 UNL     1       6.734   0.180   1.317  1.00  0.00     0.046 C 
ENDBRANCH  12  14
ENDBRANCH  11  12
ENDBRANCH  10  11
ENDBRANCH   8  10
ENDBRANCH   7   8
ENDBRANCH   6   7
ENDBRANCH   5   6
ENDBRANCH   4   5
ENDBRANCH   1   4
BRANCH   2  24
HETATM   24  C7  UNL     1      -5.517  -0.393   0.335  1.00  0.00     0.226 C 
HETATM   25  C8  UNL     1      -5.793  -1.781   0.713  1.00  0.00     0.228 C 
HETATM   26  C9  UNL     1      -7.210  -1.947   0.169  1.00  0.00     0.039 C 
HETATM   27  N3  UNL     1      -5.202  -2.922   0.271  1.00  0.00    -0.068 N 
HETATM   28  C10 UNL     1      -7.518  -3.271   0.768  1.00  0.00     0.036 C 
HETATM   29  C14 UNL     1      -7.789  -0.761   0.802  1.00  0.00     0.134 C 
HETATM   30  C11 UNL     1      -6.167  -3.939   0.814  1.00  0.00     0.237 C 
HETATM   31  N4  UNL     1      -6.756   0.264   0.352  1.00  0.00    -0.330 N 
HETATM   32  C12 UNL     1      -5.069  -3.257  -1.098  1.00  0.00     0.272 C 
HETATM   33  C13 UNL     1      -3.933  -3.280   0.912  1.00  0.00     0.272 C 
BRANCH  31  34
HETATM   34  C15 UNL     1      -7.211   1.553   0.135  1.00  0.00     0.218 C 
BRANCH  34  35
HETATM   35  O2  UNL     1      -8.519   1.737   0.270  1.00  0.00    -0.332 OA
ATOM     36  H2  UNL     1      -8.831   2.622   0.121  1.00  0.00     0.220 HD
ENDBRANCH  34  35
BRANCH  34  37
HETATM   37  N5  UNL     1      -6.561   2.736  -0.198  1.00  0.00    -0.347 N 
HETATM   38  C16 UNL     1      -7.320   4.007  -0.351  1.00  0.00     0.126 C 
HETATM   39  C17 UNL     1      -6.330   5.041   0.059  1.00  0.00     0.021 C 
HETATM   40  C18 UNL     1      -5.016   4.488  -0.384  1.00  0.00     0.021 C 
HETATM   41  C19 UNL     1      -5.184   2.984  -0.451  1.00  0.00     0.126 C 
ENDBRANCH  34  37
ENDBRANCH  31  34
ENDBRANCH   2  24
TORSDOF 13
