REMARK  12 active torsions:
REMARK  status: ('A' for Active; 'I' for Inactive)
REMARK    1  A    between atoms: C2_2  and  C3_3 
REMARK    2  A    between atoms: C3_3  and  C4_4 
REMARK    3  A    between atoms: C4_4  and  N1_5 
REMARK    4  A    between atoms: N1_5  and  C5_6 
REMARK    5  A    between atoms: N1_5  and  C26_35 
REMARK    6  A    between atoms: C5_6  and  O1_7 
REMARK    7  A    between atoms: C5_6  and  C6_9 
REMARK    8  A    between atoms: C6_9  and  C7_10 
REMARK    9  A    between atoms: C6_9  and  N2_17 
REMARK   10  A    between atoms: C7_10  and  C8_11 
REMARK       I    between atoms: N2_17  and  C14_19 
REMARK   11  A    between atoms: C14_19  and  C15_21 
REMARK       I    between atoms: N3_24  and  C18_25 
REMARK   12  A    between atoms: C18_25  and  C19_27 
ROOT
HETATM    1  C6  UNL     1      -0.627   0.822  -0.470  1.00  0.00     0.082 C 
ENDROOT
BRANCH   1   2
HETATM    2  C5  UNL     1      -1.367   0.916   0.715  1.00  0.00     0.165 C 
BRANCH   2   3
HETATM    3  N1  UNL     1      -2.505   0.398   1.338  1.00  0.00    -0.355 N 
BRANCH   3   4
HETATM    4  C4  UNL     1      -2.922   0.943   2.623  1.00  0.00     0.125 C 
BRANCH   4   5
HETATM    5  C3  UNL     1      -3.880   2.058   2.588  1.00  0.00     0.020 C 
BRANCH   5   6
HETATM    6  C2  UNL     1      -3.490   3.308   1.889  1.00  0.00    -0.003 C 
HETATM    7  C1  UNL     1      -4.614   4.353   1.947  1.00  0.00     0.005 C 
ENDBRANCH   5   6
ENDBRANCH   4   5
ENDBRANCH   3   4
BRANCH   3   8
HETATM    8  C26 UNL     1      -3.240  -0.698   0.790  1.00  0.00     0.089 C 
HETATM    9  C27 UNL     1      -4.732  -0.548   0.751  1.00  0.00     0.053 C 
HETATM   10  C28 UNL     1      -5.282  -1.709  -0.017  1.00  0.00     0.238 C 
HETATM   11  N5  UNL     1      -4.769  -2.988   0.241  1.00  0.00    -0.075 N 
HETATM   12  C29 UNL     1      -5.869  -3.820   0.768  1.00  0.00     0.272 C 
HETATM   13  C30 UNL     1      -4.493  -3.622  -1.067  1.00  0.00     0.272 C 
HETATM   14  C31 UNL     1      -3.638  -3.156   1.071  1.00  0.00     0.238 C 
HETATM   15  C32 UNL     1      -3.094  -1.928   1.722  1.00  0.00     0.053 C 
ENDBRANCH   3   8
ENDBRANCH   2   3
BRANCH   2  16
HETATM   16  O1  UNL     1      -0.780   1.808   1.558  1.00  0.00    -0.344 OA
ATOM     17  H1  UNL     1      -0.006   2.160   1.134  1.00  0.00     0.219 HD
ENDBRANCH   2  16
ENDBRANCH   1   2
BRANCH   1  18
HETATM   18  C7  UNL     1      -0.873   0.375  -1.810  1.00  0.00     0.012 C 
BRANCH  18  19
HETATM   19  C8  UNL     1      -1.818   1.040  -2.728  1.00  0.00     0.010 C 
HETATM   20  C9  UNL     1      -3.249   1.151  -2.422  1.00  0.00     0.008 C 
HETATM   21  C10 UNL     1      -3.999   1.544  -3.716  1.00  0.00     0.001 C 
HETATM   22  C11 UNL     1      -3.524   2.892  -4.142  1.00  0.00     0.000 C 
HETATM   23  C12 UNL     1      -2.019   2.853  -4.359  1.00  0.00     0.001 C 
HETATM   24  C13 UNL     1      -1.326   2.460  -3.075  1.00  0.00     0.008 C 
ENDBRANCH  18  19
ENDBRANCH   1  18
BRANCH   1  25
HETATM   25  N2  UNL     1       0.806   0.646  -0.122  1.00  0.00    -0.323 N 
HETATM   26  C14 UNL     1       1.799   1.613  -0.286  1.00  0.00     0.226 C 
HETATM   27  O2  UNL     1       1.477   2.729  -0.770  1.00  0.00    -0.273 OA
ATOM     28  H2  UNL     1       1.087  -0.254   0.268  1.00  0.00     0.169 HD
BRANCH  26  29
HETATM   29  C15 UNL     1       3.204   1.383   0.085  1.00  0.00     0.081 C 
HETATM   30  C16 UNL     1       3.668   0.115  -0.606  1.00  0.00     0.034 C 
HETATM   31  C17 UNL     1       4.123  -0.847   0.468  1.00  0.00     0.126 C 
HETATM   32  N3  UNL     1       5.196  -0.209   1.184  1.00  0.00    -0.350 N 
HETATM   33  C18 UNL     1       6.453  -0.809   1.319  1.00  0.00     0.253 C 
HETATM   34  C24 UNL     1       4.932   1.085   1.770  1.00  0.00     0.126 C 
HETATM   35  O3  UNL     1       7.355  -0.200   1.968  1.00  0.00    -0.271 OA
HETATM   36  C25 UNL     1       3.443   1.368   1.574  1.00  0.00     0.034 C 
BRANCH  33  37
HETATM   37  C19 UNL     1       6.815  -2.133   0.748  1.00  0.00     0.313 C 
HETATM   38  C20 UNL     1       7.008  -2.069  -0.749  1.00  0.00     0.047 C 
HETATM   39  C21 UNL     1       8.401  -1.448  -0.860  1.00  0.00     0.033 C 
HETATM   40  C22 UNL     1       9.099  -1.827   0.428  1.00  0.00     0.273 C 
HETATM   41  N4  UNL     1       8.127  -2.561   1.188  1.00  0.00     0.098 N 
HETATM   42  C23 UNL     1       8.327  -2.482   2.605  1.00  0.00     0.310 C 
ENDBRANCH  33  37
ENDBRANCH  26  29
ENDBRANCH   1  25
TORSDOF 12
