REMARK  10 active torsions:
REMARK  status: ('A' for Active; 'I' for Inactive)
REMARK    1  A    between atoms: O1_2  and  C2_3 
REMARK    2  A    between atoms: C2_3  and  O2_4 
REMARK    3  A    between atoms: C2_3  and  C3_6 
REMARK    4  A    between atoms: C3_6  and  C4_7 
REMARK    5  A    between atoms: C4_7  and  C5_8 
REMARK    6  A    between atoms: C5_8  and  C6_9 
REMARK    7  A    between atoms: C6_9  and  C7_10 
REMARK    8  A    between atoms: C7_10  and  C9_12 
REMARK    9  A    between atoms: C19_22  and  O3_23 
REMARK   10  A    between atoms: N1_26  and  O4_28 
ROOT
HETATM    1  C9  UNL     1       0.887   1.355   0.331  1.00  0.00    -0.073 C 
HETATM    2  C10 UNL     1      -0.010   0.385   0.362  1.00  0.00    -0.073 C 
HETATM    3  C11 UNL     1      -0.252  -0.821  -0.486  1.00  0.00     0.035 C 
HETATM    4  C12 UNL     1      -1.682  -0.906  -0.941  1.00  0.00     0.011 C 
HETATM    5  C13 UNL     1      -2.673  -0.195  -0.099  1.00  0.00     0.009 C 
HETATM    6  C14 UNL     1      -2.270   0.037   1.334  1.00  0.00     0.003 C 
HETATM    7  C15 UNL     1      -3.268   0.939   1.997  1.00  0.00     0.033 C 
HETATM    8  C16 UNL     1      -4.631   0.398   1.813  1.00  0.00    -0.022 C 
HETATM    9  C17 UNL     1      -4.906  -0.515   0.923  1.00  0.00    -0.066 C 
HETATM   10  C18 UNL     1      -6.174  -1.234   0.521  1.00  0.00     0.073 C 
HETATM   11  C19 UNL     1      -6.104  -1.028  -0.998  1.00  0.00     0.170 C 
HETATM   12  C20 UNL     1      -4.638  -1.163  -1.277  1.00  0.00     0.051 C 
HETATM   13  N1  UNL     1      -4.092  -1.297  -2.438  1.00  0.00    -0.274 N 
ATOM     14  H1  UNL     1      -3.079  -1.381  -2.523  1.00  0.00     0.193 HD
HETATM   15  C21 UNL     1      -3.896  -1.120  -0.006  1.00  0.00     0.026 C 
HETATM   16  C22 UNL     1      -3.534  -2.485   0.498  1.00  0.00     0.027 C 
HETATM   17  C23 UNL     1      -0.909   0.626   1.517  1.00  0.00     0.020 C 
HETATM   18  C24 UNL     1      -0.869   2.112   1.682  1.00  0.00     0.014 C 
HETATM   19  C25 UNL     1       0.640   2.349   1.447  1.00  0.00     0.035 C 
ENDROOT
BRANCH   1  20
HETATM   20  C7  UNL     1       1.996   1.486  -0.670  1.00  0.00     0.011 C 
HETATM   21  C8  UNL     1       1.777   2.820  -1.393  1.00  0.00     0.015 C 
BRANCH  20  22
HETATM   22  C6  UNL     1       3.335   1.595   0.003  1.00  0.00     0.009 C 
BRANCH  22  23
HETATM   23  C5  UNL     1       3.749   0.382   0.773  1.00  0.00     0.001 C 
BRANCH  23  24
HETATM   24  C4  UNL     1       3.862  -0.852  -0.064  1.00  0.00     0.005 C 
BRANCH  24  25
HETATM   25  C3  UNL     1       4.856  -0.762  -1.175  1.00  0.00     0.060 C 
BRANCH  25  26
HETATM   26  C2  UNL     1       6.268  -0.508  -0.745  1.00  0.00     0.256 C 
BRANCH  26  27
HETATM   27  O1  UNL     1       6.756  -1.494   0.077  1.00  0.00    -0.366 OA
HETATM   28  C1  UNL     1       7.344  -1.073   1.240  1.00  0.00     0.204 C 
ENDBRANCH  26  27
BRANCH  26  29
HETATM   29  O2  UNL     1       7.049  -0.567  -1.926  1.00  0.00    -0.371 OA
ATOM     30  H2  UNL     1       6.711   0.115  -2.495  1.00  0.00     0.212 HD
ENDBRANCH  26  29
ENDBRANCH  25  26
ENDBRANCH  24  25
ENDBRANCH  23  24
ENDBRANCH  22  23
ENDBRANCH  20  22
ENDBRANCH   1  20
BRANCH  11  31
HETATM   31  O3  UNL     1      -6.567   0.233  -1.308  1.00  0.00    -0.389 OA
ATOM     32  H3  UNL     1      -6.524   0.361  -2.248  1.00  0.00     0.210 HD
ENDBRANCH  11  31
BRANCH  13  33
HETATM   33  O4  UNL     1      -4.874  -1.325  -3.545  1.00  0.00    -0.290 OA
ATOM     34  H4  UNL     1      -4.472  -1.424  -4.400  1.00  0.00     0.244 HD
ENDBRANCH  13  33
TORSDOF 10
