REMARK  9 active torsions:
REMARK  status: ('A' for Active; 'I' for Inactive)
REMARK    1  A    between atoms: C2_2  and  C3_3 
REMARK    2  A    between atoms: C3_3  and  C4_4 
REMARK    3  A    between atoms: C3_3  and  O4_29 
REMARK    4  A    between atoms: C4_4  and  C5_5 
REMARK    5  A    between atoms: C9_11  and  O1_12 
REMARK    6  A    between atoms: C15_19  and  O2_20 
REMARK    7  A    between atoms: O2_20  and  C16_21 
REMARK       I    between atoms: C16_21  and  N2_23 
REMARK    8  A    between atoms: N2_23  and  C17_25 
REMARK    9  A    between atoms: O4_29  and  C21_30 
ROOT
HETATM    1  C5  UNL     1      -0.259  -0.222  -0.277  1.00  0.00     0.033 C 
HETATM    2  C6  UNL     1      -1.112  -0.753   0.762  1.00  0.00     0.006 A 
HETATM    3  C7  UNL     1      -1.352  -2.091   0.557  1.00  0.00    -0.023 A 
HETATM    4  C8  UNL     1      -2.167  -2.525   1.569  1.00  0.00     0.099 A 
HETATM    5  N1  UNL     1      -2.451  -1.524   2.410  1.00  0.00    -0.346 N 
ATOM      6  H1  UNL     1      -3.033  -1.565   3.247  1.00  0.00     0.167 HD
HETATM    7  C9  UNL     1      -1.801  -0.443   1.913  1.00  0.00     0.147 A 
HETATM    8  C10 UNL     1      -0.584  -2.545  -0.638  1.00  0.00    -0.008 C 
HETATM    9  C11 UNL     1      -1.546  -2.762  -1.763  1.00  0.00     0.021 C 
HETATM   10  C12 UNL     1      -0.023  -3.914  -0.317  1.00  0.00     0.014 C 
HETATM   11  C13 UNL     1       0.910  -3.758   0.855  1.00  0.00     0.004 C 
HETATM   12  C14 UNL     1       2.099  -3.023   0.304  1.00  0.00     0.033 C 
HETATM   13  C15 UNL     1       1.778  -1.657  -0.223  1.00  0.00     0.139 C 
HETATM   14  C20 UNL     1       0.448  -1.499  -0.846  1.00  0.00     0.037 C 
ENDROOT
BRANCH   1  15
HETATM   15  C4  UNL     1      -0.918   0.498  -1.379  1.00  0.00     0.042 C 
BRANCH  15  16
HETATM   16  C3  UNL     1      -1.730   1.710  -1.185  1.00  0.00     0.132 C 
BRANCH  16  17
HETATM   17  C2  UNL     1      -2.197   2.163  -2.651  1.00  0.00     0.028 C 
HETATM   18  C1  UNL     1      -2.981   1.001  -3.176  1.00  0.00     0.007 C 
ENDBRANCH  16  17
BRANCH  16  19
HETATM   19  O4  UNL     1      -2.959   1.607  -0.543  1.00  0.00    -0.316 OA
BRANCH  19  20
HETATM   20  C21 UNL     1      -3.447   2.686   0.234  1.00  0.00     0.255 C 
HETATM   21  C22 UNL     1      -4.767   2.468   0.873  1.00  0.00     0.126 C 
HETATM   22  O5  UNL     1      -2.781   3.740   0.351  1.00  0.00    -0.266 OA
ENDBRANCH  19  20
ENDBRANCH  16  19
ENDBRANCH  15  16
ENDBRANCH   1  15
BRANCH   7  23
HETATM   23  O1  UNL     1      -1.887   0.779   2.578  1.00  0.00    -0.346 OA
ATOM     24  H1  UNL     1      -2.362   0.993   3.372  1.00  0.00     0.219 HD
ENDBRANCH   7  23
BRANCH  13  25
HETATM   25  O2  UNL     1       2.156  -0.604   0.613  1.00  0.00    -0.298 OA
BRANCH  25  26
HETATM   26  C16 UNL     1       3.171   0.300   0.429  1.00  0.00     0.361 C 
HETATM   27  O3  UNL     1       3.817   0.130  -0.631  1.00  0.00    -0.238 OA
HETATM   28  N2  UNL     1       3.484   1.346   1.340  1.00  0.00    -0.333 N 
ATOM     29  H2  UNL     1       2.950   1.474   2.200  1.00  0.00     0.165 HD
BRANCH  28  30
HETATM   30  C17 UNL     1       4.585   2.221   1.006  1.00  0.00     0.078 C 
HETATM   31  C18 UNL     1       4.137   3.669   0.890  1.00  0.00     0.032 C 
HETATM   32  C19 UNL     1       5.623   2.071   2.092  1.00  0.00     0.032 C 
ENDBRANCH  28  30
ENDBRANCH  25  26
ENDBRANCH  13  25
TORSDOF 9
