REMARK  7 active torsions:
REMARK  status: ('A' for Active; 'I' for Inactive)
REMARK    1  A    between atoms: C2_2  and  N1_3 
REMARK    2  A    between atoms: C2_2  and  C22_30 
REMARK    3  A    between atoms: N1_3  and  C3_5 
REMARK    4  A    between atoms: C4_6  and  N2_7 
REMARK    5  A    between atoms: N2_7  and  C5_9 
REMARK    6  A    between atoms: C8_12  and  C9_13 
REMARK    7  A    between atoms: C14_20  and  C15_21 
ROOT
HETATM    1  C5  UNL     1      -0.223  -0.123  -0.147  1.00  0.00     0.033 A 
HETATM    2  C6  UNL     1      -0.751  -1.204  -0.825  1.00  0.00     0.030 A 
HETATM    3  C7  UNL     1      -2.119  -1.341  -0.932  1.00  0.00     0.010 A 
HETATM    4  C8  UNL     1      -3.016  -0.413  -0.373  1.00  0.00    -0.045 A 
HETATM    5  C14 UNL     1      -2.487   0.646   0.287  1.00  0.00    -0.041 A 
HETATM    6  C19 UNL     1      -1.084   0.790   0.401  1.00  0.00     0.038 A 
ENDROOT
BRANCH   1   7
HETATM    7  N2  UNL     1       1.188  -0.028  -0.108  1.00  0.00    -0.351 N 
ATOM      8  H2  UNL     1       1.722  -0.308  -0.931  1.00  0.00     0.166 HD
BRANCH   7   9
HETATM    9  C4  UNL     1       1.886   0.441   1.029  1.00  0.00     0.118 A 
HETATM   10  C3  UNL     1       3.227   0.783   1.223  1.00  0.00     0.114 A 
HETATM   11  C21 UNL     1       2.971   1.047   2.535  1.00  0.00     0.252 A 
HETATM   12  C20 UNL     1       1.633   0.706   2.345  1.00  0.00     0.253 A 
HETATM   13  O2  UNL     1       3.666   1.436   3.504  1.00  0.00    -0.281 OA
HETATM   14  O1  UNL     1       0.681   0.688   3.134  1.00  0.00    -0.281 OA
BRANCH  10  15
HETATM   15  N1  UNL     1       4.367   0.825   0.380  1.00  0.00    -0.380 N 
ATOM     16  H1  UNL     1       4.578   1.669  -0.153  1.00  0.00     0.160 HD
BRANCH  15  17
HETATM   17  C2  UNL     1       5.221  -0.320   0.279  1.00  0.00     0.085 C 
HETATM   18  C1  UNL     1       4.517  -1.521  -0.250  1.00  0.00     0.033 C 
BRANCH  17  19
HETATM   19  C22 UNL     1       6.494  -0.006  -0.499  1.00  0.00    -0.031 C 
HETATM   20  C23 UNL     1       6.184   0.259  -1.941  1.00  0.00     0.016 C 
HETATM   21  C24 UNL     1       7.420  -1.207  -0.357  1.00  0.00     0.016 C 
HETATM   22  C25 UNL     1       7.200   1.177   0.117  1.00  0.00     0.016 C 
ENDBRANCH  17  19
ENDBRANCH  15  17
ENDBRANCH  10  15
ENDBRANCH   7   9
ENDBRANCH   1   7
BRANCH   5  23
HETATM   23  C15 UNL     1      -3.315   1.721   0.867  1.00  0.00    -0.016 A 
HETATM   24  C16 UNL     1      -4.300   1.385   1.972  1.00  0.00     0.020 C 
HETATM   25  C17 UNL     1      -3.682   2.877  -0.023  1.00  0.00     0.015 A 
HETATM   26  C18 UNL     1      -2.648   3.067   1.021  1.00  0.00     0.015 A 
ENDBRANCH   5  23
BRANCH   4  27
HETATM   27  C9  UNL     1      -4.438  -0.671  -0.473  1.00  0.00     0.036 C 
HETATM   28  C10 UNL     1      -4.730  -1.514  -1.762  1.00  0.00     0.012 C 
HETATM   29  C11 UNL     1      -6.231  -1.514  -1.932  1.00  0.00     0.020 C 
HETATM   30  C12 UNL     1      -6.940  -1.061  -0.706  1.00  0.00     0.113 C 
HETATM   31  N3  UNL     1      -6.410  -1.573   0.515  1.00  0.00    -0.420 N 
HETATM   32  C13 UNL     1      -4.975  -1.639   0.594  1.00  0.00     0.123 C 
ATOM     33  H3  UNL     1      -7.010  -1.873   1.283  1.00  0.00     0.153 HD
ENDBRANCH   4  27
TORSDOF 7
