REMARK  8 active torsions:
REMARK  status: ('A' for Active; 'I' for Inactive)
REMARK    1  A    between atoms: C4_4  and  C5_5 
REMARK    2  A    between atoms: C5_5  and  C6_6 
REMARK    3  A    between atoms: C8_8  and  C9_9 
REMARK    4  A    between atoms: C9_9  and  C10_11 
REMARK    5  A    between atoms: C10_11  and  C12_13 
REMARK    6  A    between atoms: C19_20  and  O2_21 
REMARK    7  A    between atoms: C19_20  and  C20_23 
REMARK    8  A    between atoms: C24_29  and  O5_30 
ROOT
HETATM    1  C12 UNL     1      -1.620   0.684   0.057  1.00  0.00     0.005 C 
HETATM    2  C13 UNL     1      -1.999   0.865  -1.382  1.00  0.00     0.007 C 
HETATM    3  C14 UNL     1      -3.524   1.088  -1.336  1.00  0.00     0.009 C 
HETATM    4  C15 UNL     1      -4.067  -0.316  -1.104  1.00  0.00     0.036 C 
HETATM    5  C16 UNL     1      -3.464  -1.041   0.025  1.00  0.00     0.001 C 
HETATM    6  C17 UNL     1      -4.653  -1.358   0.913  1.00  0.00     0.009 C 
HETATM    7  C18 UNL     1      -5.766  -0.433   0.506  1.00  0.00     0.050 C 
HETATM    8  C19 UNL     1      -5.569  -0.339  -0.976  1.00  0.00     0.149 C 
HETATM    9  C21 UNL     1      -2.317  -0.431   0.761  1.00  0.00    -0.039 C 
HETATM   10  C22 UNL     1      -2.769   0.083   2.148  1.00  0.00     0.015 C 
HETATM   11  C23 UNL     1      -1.372  -1.568   1.142  1.00  0.00     0.015 C 
ENDROOT
BRANCH   1  12
HETATM   12  C10 UNL     1      -0.180   0.888   0.383  1.00  0.00     0.061 C 
HETATM   13  C11 UNL     1       0.175   2.346   0.222  1.00  0.00     0.018 C 
BRANCH  12  14
HETATM   14  C9  UNL     1       0.772   0.048  -0.294  1.00  0.00     0.168 C 
HETATM   15  O1  UNL     1       0.432  -0.625  -1.304  1.00  0.00    -0.292 OA
BRANCH  14  16
HETATM   16  C8  UNL     1       2.150  -0.064   0.140  1.00  0.00     0.071 A 
HETATM   17  C7  UNL     1       3.163  -0.825  -0.484  1.00  0.00     0.053 A 
HETATM   18  C6  UNL     1       4.341  -0.669   0.205  1.00  0.00     0.060 A 
HETATM   19  O6  UNL     1       4.102   0.127   1.191  1.00  0.00    -0.291 OA
HETATM   20  C24 UNL     1       2.831   0.507   1.193  1.00  0.00     0.197 A 
BRANCH  18  21
HETATM   21  C5  UNL     1       5.660  -1.310  -0.132  1.00  0.00     0.092 C 
BRANCH  21  22
HETATM   22  C4  UNL     1       6.420  -0.433  -1.043  1.00  0.00    -0.018 C 
HETATM   23  C2  UNL     1       7.606   0.047  -0.717  1.00  0.00    -0.091 C 
HETATM   24  C1  UNL     1       8.212  -0.292   0.598  1.00  0.00     0.042 C 
HETATM   25  C3  UNL     1       8.375   0.931  -1.632  1.00  0.00     0.042 C 
ENDBRANCH  21  22
ENDBRANCH  18  21
BRANCH  20  26
HETATM   26  O5  UNL     1       2.343   1.351   2.148  1.00  0.00    -0.340 OA
ATOM     27  H5  UNL     1       2.813   1.745   2.874  1.00  0.00     0.220 HD
ENDBRANCH  20  26
ENDBRANCH  14  16
ENDBRANCH  12  14
ENDBRANCH   1  12
BRANCH   8  28
HETATM   28  O2  UNL     1      -6.011  -1.570  -1.517  1.00  0.00    -0.378 OA
ATOM     29  H2  UNL     1      -6.957  -1.584  -1.436  1.00  0.00     0.211 HD
ENDBRANCH   8  28
BRANCH   8  30
HETATM   30  C20 UNL     1      -6.272   0.759  -1.610  1.00  0.00     0.209 C 
HETATM   31  O3  UNL     1      -6.050   1.944  -1.283  1.00  0.00    -0.646 OA
HETATM   32  O4  UNL     1      -7.208   0.523  -2.596  1.00  0.00    -0.646 OA
ENDBRANCH   8  30
TORSDOF 8
