REMARK  10 active torsions:
REMARK  status: ('A' for Active; 'I' for Inactive)
REMARK    1  A    between atoms: C2_2  and  C4_4 
REMARK    2  A    between atoms: C4_4  and  C6_6 
REMARK    3  A    between atoms: C4_4  and  O4_26 
REMARK    4  A    between atoms: C6_6  and  C7_7 
REMARK    5  A    between atoms: C8_8  and  C9_9 
REMARK    6  A    between atoms: C9_9  and  O1_10 
REMARK    7  A    between atoms: C15_17  and  O2_19 
REMARK    8  A    between atoms: C19_23  and  O3_24 
REMARK    9  A    between atoms: O4_26  and  C20_27 
REMARK   10  A    between atoms: C20_27  and  C21_29 
ROOT
HETATM    1  C9  UNL     1      -1.956  -1.252  -0.745  1.00  0.00     0.110 C 
HETATM    2  C10 UNL     1      -2.603  -2.211   0.198  1.00  0.00     0.023 C 
HETATM    3  C11 UNL     1      -3.564  -3.123  -0.520  1.00  0.00     0.013 C 
HETATM    4  C12 UNL     1      -3.316  -1.588   1.351  1.00  0.00     0.008 C 
HETATM    5  C13 UNL     1      -4.227  -0.440   0.935  1.00  0.00     0.011 C 
HETATM    6  C14 UNL     1      -3.395   0.550   0.205  1.00  0.00     0.057 C 
HETATM    7  C15 UNL     1      -4.131   1.711  -0.373  1.00  0.00     0.061 C 
HETATM    8  C16 UNL     1      -4.383   2.824   0.611  1.00  0.00     0.046 C 
HETATM    9  C17 UNL     1      -3.191   2.203  -1.456  1.00  0.00     0.041 C 
HETATM   10  C18 UNL     1      -2.274   1.020  -1.787  1.00  0.00     0.044 C 
HETATM   11  C19 UNL     1      -2.884  -0.140  -1.067  1.00  0.00     0.099 C 
ENDROOT
BRANCH   1  12
HETATM   12  C8  UNL     1      -0.634  -0.738  -0.235  1.00  0.00     0.010 C 
HETATM   13  C7  UNL     1       0.439  -1.454  -0.420  1.00  0.00    -0.024 C 
BRANCH  13  14
HETATM   14  C6  UNL     1       1.836  -1.246  -0.058  1.00  0.00     0.070 C 
BRANCH  14  15
HETATM   15  C4  UNL     1       2.251  -0.020   0.654  1.00  0.00     0.093 C 
HETATM   16  C5  UNL     1       1.747   0.138   2.060  1.00  0.00     0.052 C 
BRANCH  15  17
HETATM   17  C2  UNL     1       1.941   1.191  -0.139  1.00  0.00    -0.059 C 
HETATM   18  C1  UNL     1       1.496   2.269   0.450  1.00  0.00     0.017 C 
HETATM   19  C3  UNL     1       2.186   1.181  -1.589  1.00  0.00     0.046 C 
ENDBRANCH  15  17
BRANCH  15  20
HETATM   20  O4  UNL     1       3.718   0.042   0.699  1.00  0.00    -0.302 OA
BRANCH  20  21
HETATM   21  C20 UNL     1       4.503  -0.842   1.368  1.00  0.00     0.289 C 
HETATM   22  O5  UNL     1       3.966  -1.773   2.005  1.00  0.00    -0.260 OA
BRANCH  21  23
HETATM   23  C21 UNL     1       5.956  -0.669   1.318  1.00  0.00     0.009 C 
HETATM   24  C22 UNL     1       6.774  -1.660   2.065  1.00  0.00     0.054 C 
HETATM   25  C23 UNL     1       6.566   0.290   0.665  1.00  0.00    -0.018 C 
HETATM   26  C24 UNL     1       5.892   1.329  -0.109  1.00  0.00     0.036 C 
ENDBRANCH  21  23
ENDBRANCH  20  21
ENDBRANCH  15  20
ENDBRANCH  14  15
ENDBRANCH  13  14
ENDBRANCH   1  12
BRANCH   1  27
HETATM   27  O1  UNL     1      -1.665  -1.940  -1.923  1.00  0.00    -0.382 OA
ATOM     28  H1  UNL     1      -2.498  -2.264  -2.244  1.00  0.00     0.211 HD
ENDBRANCH   1  27
BRANCH  11  29
HETATM   29  O3  UNL     1      -3.962  -0.588  -1.820  1.00  0.00    -0.386 OA
ATOM     30  H3  UNL     1      -4.556   0.124  -2.026  1.00  0.00     0.210 HD
ENDBRANCH  11  29
BRANCH   7  31
HETATM   31  O2  UNL     1      -5.319   1.264  -0.944  1.00  0.00    -0.390 OA
ATOM     32  H2  UNL     1      -5.788   2.004  -1.312  1.00  0.00     0.210 HD
ENDBRANCH   7  31
TORSDOF 10
