REMARK  17 active torsions:
REMARK  status: ('A' for Active; 'I' for Inactive)
REMARK    1  A    between atoms: C2_2  and  C3_3 
REMARK    2  A    between atoms: C3_3  and  C4_4 
REMARK    3  A    between atoms: C4_4  and  C5_5 
REMARK    4  A    between atoms: C5_5  and  C6_6 
REMARK    5  A    between atoms: C5_5  and  C12_15 
REMARK    6  A    between atoms: C5_5  and  N2_19 
REMARK    7  A    between atoms: C6_6  and  C7_7 
REMARK    8  A    between atoms: C7_7  and  C8_8 
REMARK    9  A    between atoms: C8_8  and  C9_9 
REMARK   10  A    between atoms: C9_9  and  N1_10 
REMARK       I    between atoms: N1_10  and  C10_12 
REMARK   11  A    between atoms: C12_15  and  O3_17 
REMARK   12  A    between atoms: N3_24  and  C18_25 
REMARK   13  A    between atoms: C18_25  and  O4_27 
REMARK   14  A    between atoms: C20_29  and  C21_30 
REMARK   15  A    between atoms: C21_30  and  C22_31 
REMARK   16  A    between atoms: C22_31  and  C23_32 
REMARK   17  A    between atoms: C23_32  and  N4_33 
ROOT
HETATM    1  N2  UNL     1       0.158  -0.830   0.077  1.00  0.00    -0.329 N 
HETATM    2  C14 UNL     1       1.253  -0.723  -0.857  1.00  0.00     0.157 C 
HETATM    3  C15 UNL     1       1.739   0.732  -0.951  1.00  0.00     0.044 C 
HETATM    4  C16 UNL     1       0.714   1.524  -1.784  1.00  0.00     0.040 C 
HETATM    5  C17 UNL     1       3.004   0.714  -1.737  1.00  0.00     0.040 C 
HETATM    6  N3  UNL     1       1.895   1.320   0.352  1.00  0.00    -0.342 N 
HETATM    7  C20 UNL     1       1.707   0.589   1.559  1.00  0.00     0.179 C 
HETATM    8  C25 UNL     1       0.447  -0.273   1.349  1.00  0.00     0.244 C 
HETATM    9  O5  UNL     1      -0.253  -0.422   2.372  1.00  0.00    -0.271 OA
ENDROOT
BRANCH   1  10
HETATM   10  C5  UNL     1      -1.101  -1.409  -0.207  1.00  0.00     0.123 C 
BRANCH  10  11
HETATM   11  C4  UNL     1      -0.926  -2.130  -1.562  1.00  0.00     0.042 C 
BRANCH  11  12
HETATM   12  C3  UNL     1      -2.095  -2.982  -1.929  1.00  0.00     0.002 C 
BRANCH  12  13
HETATM   13  C2  UNL     1      -1.840  -3.659  -3.287  1.00  0.00    -0.004 C 
HETATM   14  C1  UNL     1      -3.066  -4.498  -3.581  1.00  0.00     0.005 C 
ENDBRANCH  12  13
ENDBRANCH  11  12
ENDBRANCH  10  11
BRANCH  10  15
HETATM   15  C6  UNL     1      -2.281  -0.539  -0.379  1.00  0.00     0.042 C 
BRANCH  15  16
HETATM   16  C7  UNL     1      -2.742   0.330   0.720  1.00  0.00     0.004 C 
BRANCH  16  17
HETATM   17  C8  UNL     1      -3.999   1.069   0.186  1.00  0.00     0.020 C 
BRANCH  17  18
HETATM   18  C9  UNL     1      -4.549   1.982   1.230  1.00  0.00     0.122 C 
BRANCH  18  19
HETATM   19  N1  UNL     1      -5.712   2.665   0.736  1.00  0.00    -0.361 N 
HETATM   20  C10 UNL     1      -6.411   3.581   1.531  1.00  0.00     0.213 C 
HETATM   21  C11 UNL     1      -7.599   4.268   1.002  1.00  0.00     0.117 C 
HETATM   22  O1  UNL     1      -6.019   3.813   2.697  1.00  0.00    -0.274 OA
ATOM     23  H1  UNL     1      -6.035   2.479  -0.213  1.00  0.00     0.162 HD
ENDBRANCH  18  19
ENDBRANCH  17  18
ENDBRANCH  16  17
ENDBRANCH  15  16
ENDBRANCH  10  15
BRANCH  10  24
HETATM   24  C12 UNL     1      -1.458  -2.493   0.780  1.00  0.00     0.287 C 
HETATM   25  O2  UNL     1      -2.652  -2.851   0.896  1.00  0.00    -0.262 OA
BRANCH  24  26
HETATM   26  O3  UNL     1      -0.529  -3.129   1.581  1.00  0.00    -0.325 OA
HETATM   27  C13 UNL     1      -0.866  -4.144   2.502  1.00  0.00     0.213 C 
ENDBRANCH  24  26
ENDBRANCH  10  24
ENDBRANCH   1  10
BRANCH   7  28
HETATM   28  C21 UNL     1       2.728  -0.212   2.217  1.00  0.00     0.037 C 
BRANCH  28  29
HETATM   29  C22 UNL     1       4.008   0.321   2.713  1.00  0.00     0.022 C 
BRANCH  29  30
HETATM   30  C23 UNL     1       5.040   0.810   1.776  1.00  0.00     0.122 C 
BRANCH  30  31
HETATM   31  N4  UNL     1       5.514  -0.228   0.871  1.00  0.00    -0.367 N 
HETATM   32  C24 UNL     1       6.561  -0.014   0.167  1.00  0.00     0.196 C 
HETATM   33  N5  UNL     1       7.241   1.222   0.277  1.00  0.00    -0.067 NA
HETATM   34  N6  UNL     1       7.067  -0.987  -0.729  1.00  0.00    -0.067 NA
ATOM     35  H4  UNL     1       5.017  -1.116   0.799  1.00  0.00     0.161 HD
ENDBRANCH  30  31
ENDBRANCH  29  30
ENDBRANCH  28  29
ENDBRANCH   7  28
BRANCH   6  36
HETATM   36  C18 UNL     1       2.194   2.709   0.445  1.00  0.00     0.110 C 
HETATM   37  C19 UNL     1       2.401   3.663  -0.639  1.00  0.00     0.097 C 
BRANCH  36  38
HETATM   38  O4  UNL     1       2.287   3.141   1.672  1.00  0.00    -0.350 OA
ATOM     39  H4  UNL     1       2.486   4.068   1.734  1.00  0.00     0.219 HD
ENDBRANCH  36  38
ENDBRANCH   6  36
TORSDOF 17
