REMARK  14 active torsions:
REMARK  status: ('A' for Active; 'I' for Inactive)
REMARK    1  A    between atoms: C2_2  and  C3_3 
REMARK    2  A    between atoms: C3_3  and  N1_4 
REMARK       I    between atoms: N1_4  and  C4_6 
REMARK       I    between atoms: C4_6  and  N6_34 
REMARK    3  A    between atoms: N2_7  and  C5_9 
REMARK       I    between atoms: N3_14  and  C9_15 
REMARK    4  A    between atoms: C9_15  and  C10_17 
REMARK    5  A    between atoms: C10_17  and  C11_18 
REMARK    6  A    between atoms: C11_18  and  N4_19 
REMARK    7  A    between atoms: N4_19  and  S2_21 
REMARK    8  A    between atoms: S2_21  and  C12_24 
REMARK    9  A    between atoms: C12_24  and  C13_25 
REMARK   10  A    between atoms: C13_25  and  C14_26 
REMARK   11  A    between atoms: C14_26  and  C15_27 
REMARK   12  A    between atoms: C15_27  and  N5_28 
REMARK   13  A    between atoms: N6_34  and  C21_36 
REMARK   14  A    between atoms: C21_36  and  C22_37 
ROOT
HETATM    1  C5  UNL     1      -4.115  -1.679  -0.074  1.00  0.00     0.268 C 
HETATM    2  S1  UNL     1      -4.826  -3.195   0.705  1.00  0.00    -0.122 SA
HETATM    3  C6  UNL     1      -4.847  -4.412  -0.672  1.00  0.00     0.079 C 
HETATM    4  C7  UNL     1      -4.967  -3.701  -1.997  1.00  0.00     0.030 C 
HETATM    5  C8  UNL     1      -3.792  -2.808  -2.291  1.00  0.00     0.129 C 
HETATM    6  N3  UNL     1      -3.229  -2.213  -1.103  1.00  0.00    -0.321 N 
HETATM    7  C9  UNL     1      -1.835  -2.134  -0.893  1.00  0.00     0.223 C 
HETATM    8  O1  UNL     1      -1.075  -2.606  -1.805  1.00  0.00    -0.273 OA
ENDROOT
BRANCH   1   9
HETATM    9  N2  UNL     1      -5.154  -0.868  -0.623  1.00  0.00    -0.196 N 
HETATM   10  C4  UNL     1      -5.742   0.113   0.021  1.00  0.00     0.672 C 
HETATM   11  N1  UNL     1      -6.760   0.806  -0.702  1.00  0.00    -0.223 N 
HETATM   12  N6  UNL     1      -5.340   0.426   1.345  1.00  0.00    -0.227 N 
ATOM     13  H1  UNL     1      -6.673   0.819  -1.718  1.00  0.00     0.178 HD
ATOM     14  H6  UNL     1      -5.459  -0.296   2.056  1.00  0.00     0.177 HD
ATOM     15  H2  UNL     1      -5.459  -1.063  -1.577  1.00  0.00     0.180 HD
BRANCH  11  16
HETATM   16  C3  UNL     1      -7.880   1.478  -0.148  1.00  0.00     0.164 C 
BRANCH  16  17
HETATM   17  C2  UNL     1      -8.908   0.622   0.478  1.00  0.00    -0.017 C 
HETATM   18  C1  UNL     1      -8.836  -0.683   0.527  1.00  0.00     0.008 C 
ENDBRANCH  16  17
ENDBRANCH  11  16
BRANCH  12  19
HETATM   19  C21 UNL     1      -4.779   1.680   1.763  1.00  0.00     0.137 C 
BRANCH  19  20
HETATM   20  C22 UNL     1      -3.400   1.949   1.192  1.00  0.00     0.016 C 
HETATM   21  C23 UNL     1      -2.976   3.312   1.743  1.00  0.00     0.006 C 
ENDBRANCH  19  20
ENDBRANCH  12  19
ENDBRANCH   1   9
BRANCH   7  22
HETATM   22  C10 UNL     1      -1.261  -1.531   0.332  1.00  0.00     0.123 C 
BRANCH  22  23
HETATM   23  C11 UNL     1       0.250  -1.601   0.326  1.00  0.00     0.141 C 
BRANCH  23  24
HETATM   24  N4  UNL     1       0.723  -0.989   1.556  1.00  0.00    -0.319 N 
ATOM     25  H4  UNL     1       0.128  -0.590   2.282  1.00  0.00     0.172 HD
BRANCH  24  26
HETATM   26  S2  UNL     1       2.465  -1.042   1.599  1.00  0.00     0.226 S 
HETATM   27  O2  UNL     1       2.913  -2.458   1.609  1.00  0.00    -0.206 OA
HETATM   28  O3  UNL     1       2.839  -0.310   2.883  1.00  0.00    -0.206 OA
BRANCH  26  29
HETATM   29  C12 UNL     1       3.125  -0.135   0.251  1.00  0.00     0.163 C 
BRANCH  29  30
HETATM   30  C13 UNL     1       4.613  -0.146   0.181  1.00  0.00     0.022 C 
BRANCH  30  31
HETATM   31  C14 UNL     1       5.335   0.417   1.365  1.00  0.00     0.046 C 
BRANCH  31  32
HETATM   32  C15 UNL     1       6.840   0.383   1.170  1.00  0.00     0.068 C 
BRANCH  32  33
HETATM   33  N5  UNL     1       7.296   1.118   0.068  1.00  0.00    -0.354 N 
HETATM   34  C16 UNL     1       7.199   2.500   0.099  1.00  0.00     0.068 C 
HETATM   35  C17 UNL     1       8.313   3.271  -0.547  1.00  0.00     0.045 C 
HETATM   36  C18 UNL     1       9.515   2.389  -0.755  1.00  0.00     0.010 C 
HETATM   37  C19 UNL     1       9.048   1.246  -1.648  1.00  0.00     0.045 C 
HETATM   38  C20 UNL     1       8.072   0.417  -0.844  1.00  0.00     0.068 C 
ENDBRANCH  32  33
ENDBRANCH  31  32
ENDBRANCH  30  31
ENDBRANCH  29  30
ENDBRANCH  26  29
ENDBRANCH  24  26
ENDBRANCH  23  24
ENDBRANCH  22  23
ENDBRANCH   7  22
TORSDOF 14
