REMARK  17 active torsions:
REMARK  status: ('A' for Active; 'I' for Inactive)
REMARK    1  A    between atoms: C2_2  and  C3_3 
REMARK    2  A    between atoms: C3_3  and  S1_4 
REMARK    3  A    between atoms: S1_4  and  N1_5 
REMARK       I    between atoms: N1_5  and  C4_6 
REMARK    4  A    between atoms: N1_5  and  C6_9 
REMARK    5  A    between atoms: C6_9  and  C7_10 
REMARK    6  A    between atoms: C6_9  and  C21_38 
REMARK       I    between atoms: C7_10  and  N2_12 
REMARK    7  A    between atoms: N2_12  and  C8_14 
REMARK    8  A    between atoms: C8_14  and  C9_15 
REMARK    9  A    between atoms: C8_14  and  C17_34 
REMARK   10  A    between atoms: C9_15  and  O3_16 
REMARK       I    between atoms: N3_18  and  C10_20 
REMARK       I    between atoms: C10_20  and  N4_21 
REMARK   11  A    between atoms: N4_21  and  C11_23 
REMARK   12  A    between atoms: C11_23  and  C12_24 
REMARK   13  A    between atoms: C12_24  and  C13_25 
REMARK   14  A    between atoms: N6_28  and  C15_30 
REMARK   15  A    between atoms: C15_30  and  O5_32 
REMARK   16  A    between atoms: C17_34  and  C19_36 
REMARK   17  A    between atoms: C21_38  and  C23_40 
ROOT
HETATM    1  C8  UNL     1      -0.350   0.703  -1.183  1.00  0.00     0.163 C 
ENDROOT
BRANCH   1   2
HETATM    2  N2  UNL     1       0.795  -0.247  -1.183  1.00  0.00    -0.344 N 
HETATM    3  C7  UNL     1       1.642  -0.351  -0.052  1.00  0.00     0.266 C 
HETATM    4  O2  UNL     1       1.395   0.397   0.922  1.00  0.00    -0.266 OA
ATOM      5  H2  UNL     1       0.971  -0.827  -2.003  1.00  0.00     0.163 HD
BRANCH   3   6
HETATM    6  C6  UNL     1       2.790  -1.282   0.064  1.00  0.00     0.098 C 
BRANCH   6   7
HETATM    7  N1  UNL     1       3.235  -1.471   1.404  1.00  0.00    -0.254 N 
HETATM    8  C4  UNL     1       3.874  -0.438   2.147  1.00  0.00     0.230 C 
HETATM    9  C5  UNL     1       4.414  -0.629   3.524  1.00  0.00     0.118 C 
HETATM   10  O1  UNL     1       4.044   0.752   1.705  1.00  0.00    -0.273 OA
BRANCH   7  11
HETATM   11  S1  UNL     1       2.984  -3.020   2.174  1.00  0.00    -0.042 SA
BRANCH  11  12
HETATM   12  C3  UNL     1       4.350  -3.772   2.998  1.00  0.00     0.124 C 
BRANCH  12  13
HETATM   13  C2  UNL     1       5.484  -4.190   2.166  1.00  0.00    -0.025 C 
HETATM   14  C1  UNL     1       6.686  -3.688   2.374  1.00  0.00     0.008 C 
ENDBRANCH  12  13
ENDBRANCH  11  12
ENDBRANCH   7  11
ENDBRANCH   6   7
BRANCH   6  15
HETATM   15  C21 UNL     1       3.638  -1.434  -1.122  1.00  0.00     0.038 C 
HETATM   16  C22 UNL     1       4.119  -2.914  -1.219  1.00  0.00     0.016 C 
BRANCH  15  17
HETATM   17  C23 UNL     1       4.829  -0.643  -1.422  1.00  0.00     0.006 C 
HETATM   18  C24 UNL     1       6.025  -0.742  -0.524  1.00  0.00     0.006 C 
ENDBRANCH  15  17
ENDBRANCH   6  15
ENDBRANCH   3   6
ENDBRANCH   1   2
BRANCH   1  19
HETATM   19  C9  UNL     1      -1.566   0.002  -0.776  1.00  0.00     0.154 C 
HETATM   20  N3  UNL     1      -2.789   0.538  -0.521  1.00  0.00    -0.172 N 
HETATM   21  C10 UNL     1      -3.442   1.288   0.201  1.00  0.00     0.683 C 
ATOM     22  H3  UNL     1      -3.431   0.161  -1.218  1.00  0.00     0.186 HD
HETATM   23  N4  UNL     1      -4.860   1.330  -0.229  1.00  0.00    -0.225 N 
HETATM   24  N6  UNL     1      -3.145   2.024   1.305  1.00  0.00    -0.171 N 
ATOM     25  H4  UNL     1      -5.162   1.960  -0.972  1.00  0.00     0.177 HD
HETATM   26  C14 UNL     1      -1.915   1.737   2.134  1.00  0.00     0.177 C 
BRANCH  19  27
HETATM   27  O3  UNL     1      -1.512  -1.295  -0.621  1.00  0.00    -0.347 OA
ATOM     28  H3  UNL     1      -2.302  -1.751  -0.356  1.00  0.00     0.219 HD
ENDBRANCH  19  27
BRANCH  23  29
HETATM   29  C11 UNL     1      -5.795   0.465   0.423  1.00  0.00     0.147 C 
BRANCH  29  30
HETATM   30  C12 UNL     1      -7.191   0.731  -0.077  1.00  0.00     0.119 C 
BRANCH  30  31
HETATM   31  C13 UNL     1      -8.147  -0.183   0.620  1.00  0.00     0.232 C 
HETATM   32  N5  UNL     1      -9.536  -0.094   0.409  1.00  0.00    -0.062 NA
HETATM   33  O4  UNL     1      -7.653  -1.053   1.417  1.00  0.00    -0.277 OA
ENDBRANCH  30  31
ENDBRANCH  29  30
ENDBRANCH  23  29
BRANCH  24  34
HETATM   34  C15 UNL     1      -3.910   3.062   1.863  1.00  0.00     0.129 C 
HETATM   35  C16 UNL     1      -5.083   3.685   1.275  1.00  0.00     0.098 C 
BRANCH  34  36
HETATM   36  O5  UNL     1      -3.558   3.557   3.031  1.00  0.00    -0.349 OA
ATOM     37  H5  UNL     1      -4.075   4.259   3.408  1.00  0.00     0.219 HD
ENDBRANCH  34  36
ENDBRANCH  24  34
ENDBRANCH   1  19
BRANCH   1  38
HETATM   38  C17 UNL     1      -0.360   1.538  -2.399  1.00  0.00     0.012 C 
HETATM   39  C18 UNL     1      -1.513   2.492  -2.485  1.00  0.00     0.012 C 
BRANCH  38  40
HETATM   40  C19 UNL     1      -0.057   0.808  -3.690  1.00  0.00     0.002 C 
HETATM   41  C20 UNL     1      -0.080   1.738  -4.874  1.00  0.00     0.005 C 
ENDBRANCH  38  40
ENDBRANCH   1  38
TORSDOF 17
