REMARK  16 active torsions:
REMARK  status: ('A' for Active; 'I' for Inactive)
REMARK    1  A    between atoms: C2_2  and  C3_3 
REMARK    2  A    between atoms: C3_3  and  C4_4 
REMARK    3  A    between atoms: C4_4  and  C5_5 
REMARK    4  A    between atoms: C5_5  and  C6_6 
REMARK    5  A    between atoms: C6_6  and  C7_7 
REMARK    6  A    between atoms: C7_7  and  C8_8 
REMARK    7  A    between atoms: C8_8  and  C9_9 
REMARK    8  A    between atoms: C9_9  and  C10_10 
REMARK    9  A    between atoms: C10_10  and  C11_11 
REMARK   10  A    between atoms: C11_11  and  C12_12 
REMARK       I    between atoms: C12_12  and  N1_14 
REMARK   11  A    between atoms: C16_18  and  C17_19 
REMARK       I    between atoms: C17_19  and  N2_21 
REMARK   12  A    between atoms: C18_23  and  C19_24 
REMARK   13  A    between atoms: C18_23  and  N3_27 
REMARK   14  A    between atoms: C22_29  and  O4_30 
REMARK   15  A    between atoms: C23_32  and  O5_33 
REMARK   16  A    between atoms: N4_36  and  O6_37 
ROOT
HETATM    1  C17 UNL     1      -2.145   0.378  -0.774  1.00  0.00     0.246 C 
HETATM    2  O2  UNL     1      -1.104   0.613  -0.124  1.00  0.00    -0.271 OA
HETATM    3  N2  UNL     1      -3.372   0.287  -0.120  1.00  0.00    -0.307 N 
ATOM      4  H2  UNL     1      -3.942   1.131  -0.172  1.00  0.00     0.170 HD
HETATM    5  C18 UNL     1      -3.900  -0.661   0.526  1.00  0.00     0.173 C 
ENDROOT
BRANCH   1   6
HETATM    6  C16 UNL     1      -2.062   0.202  -2.244  1.00  0.00     0.179 C 
HETATM    7  N1  UNL     1      -0.762   0.553  -2.759  1.00  0.00    -0.339 N 
HETATM    8  C12 UNL     1       0.385  -0.224  -2.974  1.00  0.00     0.220 C 
HETATM    9  C13 UNL     1      -0.812   2.000  -3.052  1.00  0.00     0.127 C 
HETATM   10  O1  UNL     1       0.295  -1.454  -2.702  1.00  0.00    -0.273 OA
HETATM   11  C14 UNL     1      -2.216   2.290  -3.443  1.00  0.00     0.022 C 
HETATM   12  C15 UNL     1      -3.031   1.190  -2.866  1.00  0.00     0.037 C 
BRANCH   8  13
HETATM   13  C11 UNL     1       1.647   0.331  -3.492  1.00  0.00     0.103 C 
BRANCH  13  14
HETATM   14  C10 UNL     1       2.813  -0.587  -3.552  1.00  0.00     0.009 C 
BRANCH  14  15
HETATM   15  C9  UNL     1       3.180  -1.100  -2.187  1.00  0.00     0.000 C 
BRANCH  15  16
HETATM   16  C8  UNL     1       3.504   0.037  -1.249  1.00  0.00     0.000 C 
BRANCH  16  17
HETATM   17  C7  UNL     1       3.902  -0.451   0.127  1.00  0.00     0.000 C 
BRANCH  17  18
HETATM   18  C6  UNL     1       4.168   0.785   0.972  1.00  0.00     0.000 C 
BRANCH  18  19
HETATM   19  C5  UNL     1       4.594   0.417   2.370  1.00  0.00     0.000 C 
BRANCH  19  20
HETATM   20  C4  UNL     1       5.884  -0.381   2.390  1.00  0.00     0.000 C 
BRANCH  20  21
HETATM   21  C3  UNL     1       7.024   0.411   1.780  1.00  0.00    -0.000 C 
BRANCH  21  22
HETATM   22  C2  UNL     1       8.266  -0.455   1.850  1.00  0.00    -0.005 C 
HETATM   23  C1  UNL     1       9.445   0.312   1.248  1.00  0.00     0.005 C 
ENDBRANCH  21  22
ENDBRANCH  20  21
ENDBRANCH  19  20
ENDBRANCH  18  19
ENDBRANCH  17  18
ENDBRANCH  16  17
ENDBRANCH  15  16
ENDBRANCH  14  15
ENDBRANCH  13  14
ENDBRANCH   8  13
ENDBRANCH   1   6
BRANCH   5  24
HETATM   24  C19 UNL     1      -3.224  -1.920   0.692  1.00  0.00     0.190 C 
HETATM   25  C20 UNL     1      -3.923  -2.982   1.468  1.00  0.00     0.100 C 
HETATM   26  O3  UNL     1      -2.100  -2.150   0.221  1.00  0.00    -0.290 OA
ENDBRANCH   5  24
BRANCH   5  27
HETATM   27  N3  UNL     1      -5.218  -0.417   1.083  1.00  0.00    -0.249 N 
HETATM   28  C21 UNL     1      -6.387  -0.648   0.266  1.00  0.00     0.187 C 
HETATM   29  C22 UNL     1      -7.610  -0.351   1.055  1.00  0.00     0.168 C 
HETATM   30  C23 UNL     1      -7.581   0.932   1.840  1.00  0.00     0.170 C 
HETATM   31  C24 UNL     1      -6.384   1.012   2.758  1.00  0.00     0.211 C 
HETATM   32  N4  UNL     1      -5.365   0.047   2.370  1.00  0.00    -0.195 N 
BRANCH  29  33
HETATM   33  O4  UNL     1      -7.896  -1.451   1.874  1.00  0.00    -0.391 OA
ATOM     34  H4  UNL     1      -8.678  -1.261   2.379  1.00  0.00     0.210 HD
ENDBRANCH  29  33
BRANCH  30  35
HETATM   35  O5  UNL     1      -8.746   0.955   2.616  1.00  0.00    -0.391 OA
ATOM     36  H5  UNL     1      -8.728   1.765   3.112  1.00  0.00     0.210 HD
ENDBRANCH  30  35
BRANCH  32  37
HETATM   37  O6  UNL     1      -4.597  -0.356   3.260  1.00  0.00    -0.272 OA
ATOM     38  H6  UNL     1      -4.698  -0.036   4.149  1.00  0.00     0.246 HD
ENDBRANCH  32  37
ENDBRANCH   5  27
TORSDOF 16
