REMARK  14 active torsions:
REMARK  status: ('A' for Active; 'I' for Inactive)
REMARK    1  A    between atoms: C2_2  and  O1_3 
REMARK    2  A    between atoms: O1_3  and  C3_4 
REMARK       I    between atoms: C3_4  and  N1_6 
REMARK       I    between atoms: N2_9  and  C6_10 
REMARK    3  A    between atoms: C6_10  and  C7_12 
REMARK    4  A    between atoms: C7_12  and  C8_13 
REMARK    5  A    between atoms: C7_12  and  N3_16 
REMARK    6  A    between atoms: C8_13  and  C9_14 
REMARK       I    between atoms: N3_16  and  C10_18 
REMARK    7  A    between atoms: C10_18  and  C11_20 
REMARK    8  A    between atoms: C11_20  and  C12_21 
REMARK    9  A    between atoms: C11_20  and  C18_32 
REMARK   10  A    between atoms: C12_21  and  C13_22 
REMARK   11  A    between atoms: C13_22  and  C14_23 
REMARK   12  A    between atoms: C14_23  and  C15_24 
REMARK   13  A    between atoms: C15_24  and  N4_25 
REMARK       I    between atoms: N4_25  and  C16_27 
REMARK   14  A    between atoms: C18_32  and  C19_33 
ROOT
HETATM    1  N3  UNL     1      -0.170  -1.479  -0.730  1.00  0.00    -0.347 N 
ATOM      2  H3  UNL     1      -0.220  -2.329  -0.169  1.00  0.00     0.163 HD
HETATM    3  C10 UNL     1       1.116  -1.051  -1.178  1.00  0.00     0.222 C 
HETATM    4  O5  UNL     1       1.122   0.005  -1.859  1.00  0.00    -0.273 OA
ENDROOT
BRANCH   1   5
HETATM    5  C7  UNL     1      -1.409  -0.785  -1.020  1.00  0.00     0.183 C 
BRANCH   5   6
HETATM    6  C6  UNL     1      -1.878  -0.197   0.265  1.00  0.00     0.243 C 
HETATM    7  N2  UNL     1      -2.986   0.661   0.419  1.00  0.00    -0.347 N 
HETATM    8  C5  UNL     1      -3.339   1.144   1.727  1.00  0.00     0.146 C 
HETATM    9  C22 UNL     1      -3.761   1.089  -0.734  1.00  0.00     0.146 C 
HETATM   10  C4  UNL     1      -4.769   1.430   1.974  1.00  0.00     0.148 C 
HETATM   11  N1  UNL     1      -5.431   1.874   0.778  1.00  0.00    -0.325 N 
HETATM   12  C3  UNL     1      -6.835   1.858   0.711  1.00  0.00     0.362 C 
HETATM   13  C23 UNL     1      -4.593   2.324  -0.328  1.00  0.00     0.148 C 
HETATM   14  O2  UNL     1      -7.498   2.223  -0.293  1.00  0.00    -0.238 OA
HETATM   15  O3  UNL     1      -1.232  -0.478   1.341  1.00  0.00    -0.271 OA
BRANCH  12  16
HETATM   16  O1  UNL     1      -7.560   1.415   1.805  1.00  0.00    -0.304 OA
BRANCH  16  17
HETATM   17  C2  UNL     1      -8.975   1.365   1.814  1.00  0.00     0.176 C 
HETATM   18  C1  UNL     1      -9.635   2.686   1.592  1.00  0.00     0.034 C 
ENDBRANCH  16  17
ENDBRANCH  12  16
ENDBRANCH   5   6
BRANCH   5  19
HETATM   19  C8  UNL     1      -2.352  -1.842  -1.528  1.00  0.00     0.104 C 
BRANCH  19  20
HETATM   20  C9  UNL     1      -1.907  -2.447  -2.810  1.00  0.00     0.233 C 
HETATM   21  O4  UNL     1      -0.905  -2.146  -3.419  1.00  0.00    -0.307 OA
ENDBRANCH  19  20
ENDBRANCH   5  19
ENDBRANCH   1   5
BRANCH   3  22
HETATM   22  C11 UNL     1       2.348  -1.778  -0.879  1.00  0.00     0.078 C 
BRANCH  22  23
HETATM   23  C12 UNL     1       3.539  -1.035  -1.359  1.00  0.00     0.014 C 
BRANCH  23  24
HETATM   24  C13 UNL     1       3.772   0.312  -0.778  1.00  0.00     0.002 C 
BRANCH  24  25
HETATM   25  C14 UNL     1       3.948   0.283   0.724  1.00  0.00     0.020 C 
BRANCH  25  26
HETATM   26  C15 UNL     1       4.179   1.652   1.298  1.00  0.00     0.122 C 
BRANCH  26  27
HETATM   27  N4  UNL     1       5.376   2.225   0.744  1.00  0.00    -0.365 N 
HETATM   28  C16 UNL     1       5.848   3.523   1.070  1.00  0.00     0.183 C 
HETATM   29  N5  UNL     1       4.989   4.634   0.855  1.00  0.00    -0.064 NA
HETATM   30  N6  UNL     1       7.011   3.714   1.545  1.00  0.00    -0.369 N 
HETATM   31  C17 UNL     1       7.975   2.689   1.811  1.00  0.00     0.148 C 
ATOM     32  H6  UNL     1       7.280   4.676   1.754  1.00  0.00     0.161 HD
ATOM     33  H4  UNL     1       5.915   1.668   0.081  1.00  0.00     0.162 HD
ENDBRANCH  26  27
ENDBRANCH  25  26
ENDBRANCH  24  25
ENDBRANCH  23  24
ENDBRANCH  22  23
BRANCH  22  34
HETATM   34  C18 UNL     1       2.238  -3.164  -1.481  1.00  0.00     0.018 C 
BRANCH  34  35
HETATM   35  C19 UNL     1       3.440  -4.018  -1.246  1.00  0.00    -0.022 C 
HETATM   36  C20 UNL     1       3.157  -5.364  -1.915  1.00  0.00     0.009 C 
HETATM   37  C21 UNL     1       3.688  -4.266   0.213  1.00  0.00     0.009 C 
ENDBRANCH  34  35
ENDBRANCH  22  34
ENDBRANCH   3  22
TORSDOF 14
