REMARK  12 active torsions:
REMARK  status: ('A' for Active; 'I' for Inactive)
REMARK    1  A    between atoms: O1_2  and  C2_3 
REMARK    2  A    between atoms: N2_12  and  C8_13 
REMARK    3  A    between atoms: C8_13  and  C9_14 
REMARK    4  A    between atoms: C9_14  and  C10_15 
REMARK    5  A    between atoms: C10_15  and  C11_16 
REMARK    6  A    between atoms: C11_16  and  C12_17 
REMARK    7  A    between atoms: C12_17  and  C13_18 
REMARK    8  A    between atoms: C13_18  and  C14_19 
REMARK    9  A    between atoms: C17_24  and  N4_25 
REMARK   10  A    between atoms: N4_25  and  C18_28 
REMARK   11  A    between atoms: C18_28  and  C19_29 
REMARK   12  A    between atoms: C19_29  and  N5_30 
ROOT
HETATM    1  C2  UNL     1       0.516  -2.297  -0.763  1.00  0.00     0.045 C 
HETATM    2  C3  UNL     1       1.377  -1.775  -1.610  1.00  0.00     0.032 C 
HETATM    3  C4  UNL     1       1.155  -0.646  -2.490  1.00  0.00     0.009 C 
HETATM    4  C5  UNL     1       0.847   0.598  -2.109  1.00  0.00    -0.039 C 
HETATM    5  C6  UNL     1       0.661   1.604  -3.206  1.00  0.00     0.160 C 
HETATM    6  N1  UNL     1       0.936   2.930  -2.792  1.00  0.00    -0.339 N 
ATOM      7  H1  UNL     1       0.769   3.707  -3.432  1.00  0.00     0.164 HD
HETATM    8  C7  UNL     1       1.442   3.183  -1.493  1.00  0.00     0.322 C 
HETATM    9  O2  UNL     1       1.888   4.293  -1.205  1.00  0.00    -0.247 OA
HETATM   10  N2  UNL     1       1.464   2.197  -0.477  1.00  0.00    -0.305 N 
HETATM   11  C15 UNL     1       0.694   0.983  -0.678  1.00  0.00     0.126 C 
HETATM   12  C16 UNL     1      -0.758   1.294  -0.439  1.00  0.00     0.063 C 
HETATM   13  C17 UNL     1      -1.462   0.405   0.504  1.00  0.00     0.188 C 
HETATM   14  C24 UNL     1      -0.932  -0.968   0.683  1.00  0.00     0.039 C 
HETATM   15  C25 UNL     1      -0.861  -1.755  -0.607  1.00  0.00     0.066 C 
ENDROOT
BRANCH  13  16
HETATM   16  N4  UNL     1      -2.855   0.273   0.042  1.00  0.00    -0.069 N 
ATOM     17  H42 UNL     1      -2.909  -0.162  -0.879  1.00  0.00     0.277 HD
ATOM     18  H41 UNL     1      -3.365  -0.432   0.574  1.00  0.00     0.277 HD
BRANCH  16  19
HETATM   19  C18 UNL     1      -3.526   1.556   0.070  1.00  0.00     0.252 C 
BRANCH  19  20
HETATM   20  C19 UNL     1      -4.935   1.333  -0.432  1.00  0.00     0.144 C 
BRANCH  20  21
HETATM   21  N5  UNL     1      -5.580   0.391   0.424  1.00  0.00    -0.407 N 
HETATM   22  C20 UNL     1      -5.853   0.824   1.741  1.00  0.00     0.143 C 
HETATM   23  C21 UNL     1      -7.311   1.281   1.800  1.00  0.00     0.187 C 
HETATM   24  O4  UNL     1      -8.057   0.111   1.623  1.00  0.00    -0.388 OA
HETATM   25  C22 UNL     1      -7.926  -0.410   0.357  1.00  0.00     0.187 C 
HETATM   26  C23 UNL     1      -6.570  -0.413  -0.209  1.00  0.00     0.143 C 
ENDBRANCH  20  21
ENDBRANCH  19  20
ENDBRANCH  16  19
ENDBRANCH  13  16
BRANCH  10  27
HETATM   27  C8  UNL     1       2.184   2.381   0.703  1.00  0.00     0.069 C 
BRANCH  27  28
HETATM   28  C9  UNL     1       3.575   2.011   0.871  1.00  0.00     0.045 C 
BRANCH  28  29
HETATM   29  C10 UNL     1       3.803   0.535   0.644  1.00  0.00     0.005 C 
BRANCH  29  30
HETATM   30  C11 UNL     1       5.270   0.169   0.837  1.00  0.00     0.001 C 
BRANCH  30  31
HETATM   31  C12 UNL     1       5.362  -1.315   0.584  1.00  0.00     0.009 C 
BRANCH  31  32
HETATM   32  C13 UNL     1       6.731  -1.892   0.711  1.00  0.00     0.099 C 
BRANCH  32  33
HETATM   33  C14 UNL     1       7.336  -1.760   2.033  1.00  0.00     0.231 C 
HETATM   34  N3  UNL     1       8.709  -2.177   2.219  1.00  0.00    -0.062 NA
HETATM   35  O3  UNL     1       6.774  -1.313   3.050  1.00  0.00    -0.277 OA
ENDBRANCH  32  33
ENDBRANCH  31  32
ENDBRANCH  30  31
ENDBRANCH  29  30
ENDBRANCH  28  29
ENDBRANCH  27  28
ENDBRANCH  10  27
BRANCH   1  36
HETATM   36  O1  UNL     1       0.888  -3.385   0.014  1.00  0.00    -0.360 OA
HETATM   37  C1  UNL     1       0.147  -4.579  -0.135  1.00  0.00     0.209 C 
ENDBRANCH   1  36
TORSDOF 12
