REMARK  4 active torsions:
REMARK  status: ('A' for Active; 'I' for Inactive)
REMARK    1  A    between atoms: N1_2  and  N2_3 
REMARK    2  A    between atoms: N1_2  and  C2_6 
REMARK    3  A    between atoms: C3_9  and  N4_10 
REMARK    4  A    between atoms: C4_15  and  N6_16 
ROOT
HETATM    1  C2  UNL     1      -0.173  -0.228   0.087  1.00  0.00     0.727 A 
HETATM    2  N3  UNL     1       0.556  -1.324   0.327  1.00  0.00    -0.020 N 
ATOM      3  H3  UNL     1       0.089  -2.173   0.645  1.00  0.00     0.203 HD
HETATM    4  C3  UNL     1       1.890  -1.332   0.159  1.00  0.00     0.705 A 
HETATM    5  N5  UNL     1       2.525  -0.221  -0.260  1.00  0.00    -0.022 N 
ATOM      6  H5  UNL     1       3.537  -0.221  -0.389  1.00  0.00     0.203 HD
HETATM    7  C4  UNL     1       1.808   0.887  -0.505  1.00  0.00     0.705 A 
HETATM    8  N7  UNL     1       0.476   0.869  -0.330  1.00  0.00    -0.020 N 
ATOM      9  H7  UNL     1      -0.059   1.717  -0.520  1.00  0.00     0.203 HD
ENDROOT
BRANCH   1  10
HETATM   10  N1  UNL     1      -1.590  -0.188   0.256  1.00  0.00    -0.134 N 
HETATM   11  C1  UNL     1      -2.321   1.017  -0.017  1.00  0.00     0.197 C 
BRANCH  10  12
HETATM   12  N2  UNL     1      -2.224  -1.370   0.697  1.00  0.00    -0.329 N 
ATOM     13  H22 UNL     1      -3.236  -1.341   0.818  1.00  0.00     0.177 HD
ATOM     14  H21 UNL     1      -1.705  -2.226   0.891  1.00  0.00     0.177 HD
ENDBRANCH  10  12
ENDBRANCH   1  10
BRANCH   4  15
HETATM   15  N4  UNL     1       2.565  -2.375   0.390  1.00  0.00    -0.234 N 
ATOM     16  H42 UNL     1       2.084  -3.217   0.707  1.00  0.00     0.174 HD
ATOM     17  H41 UNL     1       3.577  -2.381   0.263  1.00  0.00     0.174 HD
ENDBRANCH   4  15
BRANCH   7  18
HETATM   18  N6  UNL     1       2.374   1.988  -0.913  1.00  0.00    -0.234 N 
ATOM     19  H62 UNL     1       3.385   2.002  -1.046  1.00  0.00     0.174 HD
ATOM     20  H61 UNL     1       1.829   2.830  -1.099  1.00  0.00     0.174 HD
ENDBRANCH   7  18
TORSDOF 4
