REMARK  3 active torsions:
REMARK  status: ('A' for Active; 'I' for Inactive)
REMARK    1  A    between atoms: O1_2  and  C2_3 
REMARK    2  A    between atoms: C3_6  and  N2_7 
REMARK    3  A    between atoms: C4_12  and  N4_13 
ROOT
HETATM    1  C2  UNL     1       0.580  -0.340  -0.118  1.00  0.00     0.252 A 
HETATM    2  N1  UNL     1       0.213   0.953  -0.185  1.00  0.00    -0.154 N 
ATOM      3  H1  UNL     1       0.934   1.672  -0.245  1.00  0.00     0.188 HD
HETATM    4  C3  UNL     1      -1.092   1.325  -0.175  1.00  0.00     0.693 A 
HETATM    5  N3  UNL     1      -2.068   0.403  -0.096  1.00  0.00    -0.023 N 
ATOM      6  H3  UNL     1      -3.050   0.679  -0.088  1.00  0.00     0.203 HD
HETATM    7  C4  UNL     1      -1.714  -0.893  -0.028  1.00  0.00     0.693 A 
HETATM    8  N5  UNL     1      -0.412  -1.245  -0.039  1.00  0.00    -0.154 N 
ATOM      9  H5  UNL     1      -0.171  -2.235   0.015  1.00  0.00     0.188 HD
ENDROOT
BRANCH   4  10
HETATM   10  N2  UNL     1      -1.462   2.558  -0.239  1.00  0.00    -0.234 N 
ATOM     11  H22 UNL     1      -0.722   3.257  -0.299  1.00  0.00     0.174 HD
ATOM     12  H21 UNL     1      -2.443   2.838  -0.231  1.00  0.00     0.174 HD
ENDBRANCH   4  10
BRANCH   1  13
HETATM   13  O1  UNL     1       1.904  -0.763  -0.126  1.00  0.00    -0.326 OA
HETATM   14  C1  UNL     1       3.001   0.090  -0.203  1.00  0.00     0.213 C 
ENDBRANCH   1  13
BRANCH   7  15
HETATM   15  N4  UNL     1      -2.645  -1.807   0.049  1.00  0.00    -0.234 N 
ATOM     16  H42 UNL     1      -3.630  -1.541   0.057  1.00  0.00     0.174 HD
ATOM     17  H41 UNL     1      -2.377  -2.790   0.101  1.00  0.00     0.174 HD
ENDBRANCH   7  15
TORSDOF 3
