REMARK  4 active torsions:
REMARK  status: ('A' for Active; 'I' for Inactive)
REMARK    1  A    between atoms: N1_1  and  C1_4 
REMARK    2  A    between atoms: C2_9  and  S1_10 
REMARK    3  A    between atoms: S1_10  and  N4_11 
REMARK    4  A    between atoms: C3_14  and  N5_15 
ROOT
HETATM    1  C1  UNL     1       1.904  -0.319   0.425  1.00  0.00     0.692 A 
HETATM    2  N2  UNL     1       1.072  -1.233  -0.108  1.00  0.00    -0.131 N 
ATOM      3  H2  UNL     1       1.438  -2.155  -0.344  1.00  0.00     0.205 HD
HETATM    4  N3  UNL     1      -0.212  -0.972  -0.337  1.00  0.00    -0.275 N 
ATOM      5  H3  UNL     1      -0.832  -1.673  -0.742  1.00  0.00     0.188 HD
HETATM    6  C2  UNL     1      -0.667   0.274  -0.008  1.00  0.00     0.149 A 
HETATM    7  C3  UNL     1       0.184   1.210   0.537  1.00  0.00     0.151 A 
HETATM    8  N6  UNL     1       1.483   0.923   0.761  1.00  0.00    -0.173 N 
ATOM      9  H6  UNL     1       2.119   1.610   1.165  1.00  0.00     0.186 HD
ENDROOT
BRANCH   6  10
HETATM   10  S1  UNL     1      -2.372   0.732  -0.273  1.00  0.00     0.002 SA
BRANCH  10  11
HETATM   11  N4  UNL     1      -3.270  -0.615  -0.976  1.00  0.00    -0.368 N 
ATOM     12  H42 UNL     1      -2.858  -1.522  -1.195  1.00  0.00     0.164 HD
ATOM     13  H41 UNL     1      -4.244  -0.353  -1.127  1.00  0.00     0.164 HD
ENDBRANCH  10  11
ENDBRANCH   6  10
BRANCH   7  14
HETATM   14  N5  UNL     1      -0.295   2.383   0.833  1.00  0.00    -0.383 N 
ATOM     15  H52 UNL     1      -1.277   2.600   0.664  1.00  0.00     0.157 HD
ATOM     16  H51 UNL     1       0.335   3.076   1.237  1.00  0.00     0.157 HD
ENDBRANCH   7  14
BRANCH   1  17
HETATM   17  N1  UNL     1       3.139  -0.624   0.626  1.00  0.00    -0.233 N 
ATOM     18  H12 UNL     1       3.456  -1.560   0.373  1.00  0.00     0.174 HD
ATOM     19  H11 UNL     1       3.769   0.069   1.030  1.00  0.00     0.174 HD
ENDBRANCH   1  17
TORSDOF 4
