REMARK  5 active torsions:
REMARK  status: ('A' for Active; 'I' for Inactive)
REMARK    1  A    between atoms: N1_1  and  C1_4 
REMARK    2  A    between atoms: C3_11  and  N4_12 
REMARK    3  A    between atoms: N4_12  and  O1_14 
REMARK    4  A    between atoms: O1_14  and  C4_15 
REMARK    5  A    between atoms: C4_15  and  N5_16 
ROOT
HETATM    1  C1  UNL     1      -2.591  -0.011  -0.630  1.00  0.00     0.692 A 
HETATM    2  N2  UNL     1      -3.166   0.466   0.491  1.00  0.00    -0.165 N 
ATOM      3  H2  UNL     1      -4.183   0.466   0.568  1.00  0.00     0.186 HD
HETATM    4  C2  UNL     1      -2.424   0.945   1.518  1.00  0.00     0.208 A 
HETATM    5 CL1  UNL     1      -3.211   1.558   2.959  1.00  0.00    -0.044 Cl
HETATM    6  N3  UNL     1      -1.087   0.961   1.456  1.00  0.00    -0.163 N 
ATOM      7  H3  UNL     1      -0.531   1.322   2.231  1.00  0.00     0.187 HD
HETATM    8  C3  UNL     1      -0.496   0.488   0.344  1.00  0.00     0.718 A 
HETATM    9  N6  UNL     1      -1.237   0.010  -0.681  1.00  0.00    -0.021 N 
ATOM     10  H6  UNL     1      -0.765  -0.344  -1.513  1.00  0.00     0.203 HD
ENDROOT
BRANCH   8  11
HETATM   11  N4  UNL     1       0.805   0.499   0.273  1.00  0.00    -0.094 N 
ATOM     12  H4  UNL     1       1.337   0.866   1.062  1.00  0.00     0.213 HD
BRANCH  11  13
HETATM   13  O1  UNL     1       1.480   0.039  -0.815  1.00  0.00    -0.239 OA
BRANCH  13  14
HETATM   14  C4  UNL     1       2.775  -0.532  -0.742  1.00  0.00     0.430 C 
BRANCH  14  15
HETATM   15  N5  UNL     1       3.641   0.515  -0.180  1.00  0.00    -0.056 N 
ATOM     16  H53 UNL     1       3.610   1.393  -0.699  1.00  0.00     0.276 HD
ATOM     17  H52 UNL     1       3.308   0.887   0.709  1.00  0.00     0.276 HD
ATOM     18  H51 UNL     1       4.573   0.104  -0.127  1.00  0.00     0.276 HD
ENDBRANCH  14  15
ENDBRANCH  13  14
ENDBRANCH  11  13
ENDBRANCH   8  11
BRANCH   1  19
HETATM   19  N1  UNL     1      -3.277  -0.476  -1.628  1.00  0.00    -0.234 N 
ATOM     20  H12 UNL     1      -4.296  -0.492  -1.590  1.00  0.00     0.174 HD
ATOM     21  H11 UNL     1      -2.842  -0.837  -2.477  1.00  0.00     0.174 HD
ENDBRANCH   1  19
TORSDOF 5
