REMARK  6 active torsions:
REMARK  status: ('A' for Active; 'I' for Inactive)
REMARK       I    between atoms: C1_2  and  N1_3 
REMARK    1  A    between atoms: C1_2  and  C9_13 
REMARK    2  A    between atoms: N1_3  and  C2_5 
REMARK    3  A    between atoms: C2_5  and  C3_6 
REMARK    4  A    between atoms: C3_6  and  N2_7 
REMARK    5  A    between atoms: C12_16  and  C13_17 
REMARK    6  A    between atoms: C13_17  and  N3_18 
ROOT
HETATM    1  C9  UNL     1      -1.483   0.270  -0.938  1.00  0.00     0.078 C 
HETATM    2  C10 UNL     1      -1.504   1.784  -0.919  1.00  0.00     0.014 C 
HETATM    3  C11 UNL     1      -2.876   2.183  -0.455  1.00  0.00     0.007 C 
HETATM    4  C12 UNL     1      -3.551   0.939   0.095  1.00  0.00     0.006 C 
HETATM    5  C16 UNL     1      -2.545  -0.157   0.050  1.00  0.00     0.020 C 
ENDROOT
BRANCH   1   6
HETATM    6  C1  UNL     1      -0.149  -0.128  -0.366  1.00  0.00     0.221 C 
HETATM    7  O1  UNL     1      -0.102  -0.874   0.619  1.00  0.00    -0.273 OA
HETATM    8  N1  UNL     1       0.998   0.387  -1.007  1.00  0.00    -0.359 N 
ATOM      9  H1  UNL     1       0.884   0.995  -1.818  1.00  0.00     0.162 HD
BRANCH   8  10
HETATM   10  C2  UNL     1       2.322   0.076  -0.546  1.00  0.00     0.142 C 
BRANCH  10  11
HETATM   11  C3  UNL     1       2.519   0.564   0.857  1.00  0.00     0.136 C 
BRANCH  11  12
HETATM   12  N2  UNL     1       3.844   0.256   1.272  1.00  0.00    -0.411 N 
HETATM   13  C4  UNL     1       4.886   0.970   0.630  1.00  0.00     0.117 C 
HETATM   14  C5  UNL     1       6.228   0.588   1.274  1.00  0.00     0.019 C 
HETATM   15  C6  UNL     1       6.485  -0.896   1.094  1.00  0.00     0.003 C 
HETATM   16  C7  UNL     1       5.208  -1.607   0.647  1.00  0.00     0.019 C 
HETATM   17  C8  UNL     1       4.106  -1.102   1.590  1.00  0.00     0.117 C 
ENDBRANCH  11  12
ENDBRANCH  10  11
ENDBRANCH   8  10
ENDBRANCH   1   6
BRANCH   4  18
HETATM   18  C13 UNL     1      -4.719   0.646  -0.777  1.00  0.00     0.156 C 
BRANCH  18  19
HETATM   19  N3  UNL     1      -5.486  -0.521  -0.386  1.00  0.00    -0.263 N 
HETATM   20  N4  UNL     1      -5.401  -1.765  -0.751  1.00  0.00    -0.247 N 
HETATM   21  C14 UNL     1      -6.343  -2.485  -0.120  1.00  0.00     0.341 A 
ATOM     22  H4  UNL     1      -4.723  -2.138  -1.415  1.00  0.00     0.192 HD
HETATM   23  O2  UNL     1      -6.525  -3.733  -0.259  1.00  0.00    -0.245 OA
HETATM   24  N5  UNL     1      -7.038  -1.637   0.669  1.00  0.00    -0.283 N 
HETATM   25  C15 UNL     1      -6.499  -0.420   0.498  1.00  0.00     0.197 A 
ATOM     26  H5  UNL     1      -7.821  -1.876   1.277  1.00  0.00     0.173 HD
HETATM   27  S1  UNL     1      -7.026   0.944   1.269  1.00  0.00    -0.039 SA
ENDBRANCH  18  19
ENDBRANCH   4  18
TORSDOF 6
