REMARK  7 active torsions:
REMARK  status: ('A' for Active; 'I' for Inactive)
REMARK    1  A    between atoms: O1_1  and  C1_3 
REMARK    2  A    between atoms: C1_3  and  C2_4 
REMARK    3  A    between atoms: C1_3  and  C11_22 
REMARK    4  A    between atoms: C2_4  and  N1_5 
REMARK    5  A    between atoms: C4_12  and  N4_13 
REMARK    6  A    between atoms: N4_13  and  C5_15 
REMARK    7  A    between atoms: C11_22  and  N5_23 
ROOT
HETATM    1  N1  UNL     1      -0.683  -0.861  -0.981  1.00  0.00    -0.367 N 
ATOM      2  H1  UNL     1      -1.100  -0.585  -1.870  1.00  0.00     0.161 HD
HETATM    3  C3  UNL     1       0.540  -0.522  -0.764  1.00  0.00     0.162 A 
HETATM    4  N2  UNL     1       1.362  -0.721   0.266  1.00  0.00    -0.278 N 
ATOM      5  H2  UNL     1       1.047  -1.249   1.080  1.00  0.00     0.189 HD
HETATM    6  N3  UNL     1       2.544  -0.247   0.228  1.00  0.00    -0.278 N 
ATOM      7  H3  UNL     1       3.181  -0.394   1.011  1.00  0.00     0.189 HD
HETATM    8  C4  UNL     1       2.942   0.441  -0.839  1.00  0.00     0.163 A 
HETATM    9  S1  UNL     1       1.552   0.399  -1.829  1.00  0.00    -0.016 SA
ENDROOT
BRANCH   1  10
HETATM   10  C2  UNL     1      -1.490  -1.589  -0.076  1.00  0.00     0.159 C 
BRANCH  10  11
HETATM   11  C1  UNL     1      -2.004  -0.776   1.048  1.00  0.00     0.174 C 
BRANCH  11  12
HETATM   12  O1  UNL     1      -2.775  -1.581   1.915  1.00  0.00    -0.389 OA
ATOM     13  H1  UNL     1      -3.105  -1.059   2.637  1.00  0.00     0.210 HD
ENDBRANCH  11  12
BRANCH  11  14
HETATM   14  C11 UNL     1      -2.712   0.495   0.727  1.00  0.00     0.091 C 
BRANCH  14  15
HETATM   15  N5  UNL     1      -3.985   0.324   0.191  1.00  0.00    -0.391 N 
HETATM   16  C12 UNL     1      -4.261  -0.166  -1.078  1.00  0.00     0.122 C 
HETATM   17  C13 UNL     1      -5.439   0.557  -1.756  1.00  0.00     0.020 C 
HETATM   18  C14 UNL     1      -6.738  -0.178  -1.516  1.00  0.00     0.002 C 
HETATM   19  C15 UNL     1      -7.180  -0.033  -0.074  1.00  0.00     0.002 C 
HETATM   20  C16 UNL     1      -6.131  -0.609   0.870  1.00  0.00     0.020 C 
HETATM   21  C17 UNL     1      -5.046   0.373   1.146  1.00  0.00     0.122 C 
ENDBRANCH  14  15
ENDBRANCH  11  14
ENDBRANCH  10  11
ENDBRANCH   1  10
BRANCH   8  22
HETATM   22  N4  UNL     1       4.105   1.022  -1.062  1.00  0.00    -0.365 N 
ATOM     23  H4  UNL     1       4.273   1.518  -1.937  1.00  0.00     0.162 HD
BRANCH  22  24
HETATM   24  C5  UNL     1       5.156   0.948  -0.038  1.00  0.00     0.083 C 
HETATM   25  C6  UNL     1       6.096   2.084  -0.214  1.00  0.00     0.025 C 
HETATM   26  C7  UNL     1       7.449   1.630   0.358  1.00  0.00     0.002 C 
HETATM   27  C8  UNL     1       7.947   0.619  -0.689  1.00  0.00     0.000 C 
HETATM   28  C9  UNL     1       7.102  -0.595  -0.567  1.00  0.00     0.002 C 
HETATM   29  C10 UNL     1       5.726  -0.416  -0.053  1.00  0.00     0.025 C 
ENDBRANCH  22  24
ENDBRANCH   8  22
TORSDOF 7
