REMARK  8 active torsions:
REMARK  status: ('A' for Active; 'I' for Inactive)
REMARK    1  A    between atoms: C2_2  and  C5_5 
REMARK    2  A    between atoms: C6_10  and  C7_11 
REMARK    3  A    between atoms: C7_11  and  C8_12 
REMARK    4  A    between atoms: C8_12  and  O2_14 
REMARK    5  A    between atoms: O2_14  and  C9_15 
REMARK    6  A    between atoms: C9_15  and  C10_16 
REMARK    7  A    between atoms: C10_16  and  N4_20 
REMARK    8  A    between atoms: N4_20  and  C11_22 
ROOT
HETATM    1  O2  UNL     1       0.052   0.617   0.845  1.00  0.00    -0.314 OA
ENDROOT
BRANCH   1   2
HETATM    2  C8  UNL     1       0.994   0.072   0.017  1.00  0.00     0.266 C 
HETATM    3  O1  UNL     1       1.221   0.551  -1.103  1.00  0.00    -0.265 OA
BRANCH   2   4
HETATM    4  C7  UNL     1       1.752  -1.110   0.481  1.00  0.00     0.189 C 
BRANCH   4   5
HETATM    5  C6  UNL     1       3.168  -0.679   0.703  1.00  0.00     0.106 A 
HETATM    6  N2  UNL     1       3.650  -0.123   1.833  1.00  0.00    -0.287 N 
HETATM    7  N1  UNL     1       4.923   0.115   1.667  1.00  0.00    -0.287 N 
ATOM      8  H2  UNL     1       3.111   0.078   2.675  1.00  0.00     0.188 HD
HETATM    9  C5  UNL     1       5.310  -0.280   0.422  1.00  0.00     0.105 A 
ATOM     10  H1  UNL     1       5.537   0.534   2.366  1.00  0.00     0.188 HD
HETATM   11  N5  UNL     1       4.198  -0.767  -0.150  1.00  0.00    -0.332 N 
ATOM     12  H5  UNL     1       4.145  -1.148  -1.095  1.00  0.00     0.168 HD
BRANCH   9  13
HETATM   13  C2  UNL     1       6.692  -0.168  -0.129  1.00  0.00     0.009 C 
HETATM   14  C1  UNL     1       7.593  -0.967   0.802  1.00  0.00     0.023 C 
HETATM   15  C3  UNL     1       6.748  -0.814  -1.493  1.00  0.00     0.023 C 
HETATM   16  C4  UNL     1       7.142   1.284  -0.170  1.00  0.00     0.023 C 
ENDBRANCH   9  13
ENDBRANCH   4   5
ENDBRANCH   2   4
ENDBRANCH   1   2
BRANCH   1  17
HETATM   17  C9  UNL     1      -0.758   1.722   0.559  1.00  0.00     0.254 C 
BRANCH  17  18
HETATM   18  C10 UNL     1      -1.654   1.429  -0.614  1.00  0.00     0.096 C 
HETATM   19  N3  UNL     1      -1.722   2.233  -1.579  1.00  0.00    -0.387 N 
ATOM     20  H32 UNL     1      -1.196   3.106  -1.621  1.00  0.00     0.157 HD
ATOM     21  H31 UNL     1      -2.329   2.034  -2.374  1.00  0.00     0.157 HD
BRANCH  18  22
HETATM   22  N4  UNL     1      -2.371   0.238  -0.557  1.00  0.00    -0.369 N 
ATOM     23  H4  UNL     1      -1.816  -0.607  -0.696  1.00  0.00     0.161 HD
BRANCH  22  24
HETATM   24  C11 UNL     1      -3.748   0.018  -0.336  1.00  0.00     0.035 C 
HETATM   25  C12 UNL     1      -4.001  -1.490  -0.184  1.00  0.00     0.036 C 
HETATM   26  C13 UNL     1      -5.254  -1.465   0.663  1.00  0.00    -0.011 C 
HETATM   27  C14 UNL     1      -6.352  -0.932  -0.230  1.00  0.00     0.009 C 
HETATM   28  C18 UNL     1      -4.855  -0.445   1.733  1.00  0.00     0.012 C 
HETATM   29  C15 UNL     1      -5.997   0.396  -0.815  1.00  0.00    -0.011 C 
HETATM   30  C16 UNL     1      -5.666   1.356   0.342  1.00  0.00     0.012 C 
HETATM   31  C19 UNL     1      -4.648   0.408  -1.519  1.00  0.00     0.036 C 
HETATM   32  C17 UNL     1      -4.368   0.696   0.835  1.00  0.00     0.014 C 
ENDBRANCH  22  24
ENDBRANCH  18  22
ENDBRANCH  17  18
ENDBRANCH   1  17
TORSDOF 8
