REMARK  6 active torsions:
REMARK  status: ('A' for Active; 'I' for Inactive)
REMARK    1  A    between atoms: C2_2  and  C3_3 
REMARK    2  A    between atoms: C3_3  and  C5_5 
REMARK    3  A    between atoms: N1_7  and  N2_9 
REMARK    4  A    between atoms: C11_18  and  C12_19 
REMARK    5  A    between atoms: C12_19  and  O1_21 
REMARK    6  A    between atoms: C14_23  and  O2_24 
ROOT
HETATM    1  N2  UNL     1      -0.284  -0.751  -0.355  1.00  0.00    -0.298 N 
ATOM      2  H2  UNL     1      -0.215   0.198  -0.722  1.00  0.00     0.187 HD
HETATM    3  C7  UNL     1       0.825  -1.370  -0.195  1.00  0.00     0.086 A 
HETATM    4  C8  UNL     1       0.896  -2.745   0.301  1.00  0.00     0.035 A 
HETATM    5  C9  UNL     1      -0.169  -3.754   0.496  1.00  0.00     0.070 C 
HETATM    6  N3  UNL     1       2.138  -2.988   0.554  1.00  0.00    -0.351 N 
ATOM      7  H3  UNL     1       2.498  -3.871   0.916  1.00  0.00     0.166 HD
HETATM    8  C10 UNL     1       2.934  -1.844   0.255  1.00  0.00     0.090 A 
HETATM    9  S1  UNL     1       4.535  -1.165   0.294  1.00  0.00    -0.070 SA
HETATM   10  C11 UNL     1       4.149   0.416  -0.316  1.00  0.00     0.047 A 
HETATM   11  C14 UNL     1       2.820   0.332  -0.509  1.00  0.00     0.096 A 
HETATM   12  C15 UNL     1       2.170  -0.792  -0.229  1.00  0.00     0.062 A 
ENDROOT
BRANCH   1  13
HETATM   13  N1  UNL     1      -1.511  -1.188  -0.104  1.00  0.00    -0.308 N 
HETATM   14  C5  UNL     1      -2.653  -0.717   0.188  1.00  0.00     0.003 C 
HETATM   15  C6  UNL     1      -3.665  -1.785   0.563  1.00  0.00     0.065 C 
ATOM     16  H1  UNL     1      -1.548  -2.206  -0.163  1.00  0.00     0.186 HD
BRANCH  14  17
HETATM   17  C3  UNL     1      -3.064   0.661   0.365  1.00  0.00     0.028 C 
HETATM   18  C4  UNL     1      -2.444   1.577  -0.721  1.00  0.00     0.016 C 
BRANCH  17  19
HETATM   19  C2  UNL     1      -4.578   0.868   0.189  1.00  0.00     0.005 C 
HETATM   20  C1  UNL     1      -4.974   2.320   0.334  1.00  0.00     0.006 C 
ENDBRANCH  17  19
ENDBRANCH  14  17
ENDBRANCH   1  13
BRANCH  11  21
HETATM   21  O2  UNL     1       2.237   1.534  -1.020  1.00  0.00    -0.358 OA
ATOM     22  H2  UNL     1       1.299   1.475  -1.156  1.00  0.00     0.217 HD
ENDBRANCH  11  21
BRANCH  10  23
HETATM   23  C12 UNL     1       5.186   1.418  -0.647  1.00  0.00     0.157 C 
HETATM   24  C13 UNL     1       5.907   1.896   0.642  1.00  0.00     0.045 C 
BRANCH  23  25
HETATM   25  O1  UNL     1       6.306   0.690  -1.269  1.00  0.00    -0.391 OA
ATOM     26  H1  UNL     1       6.972   1.333  -1.482  1.00  0.00     0.210 HD
ENDBRANCH  23  25
ENDBRANCH  10  23
TORSDOF 6
