REMARK  6 active torsions:
REMARK  status: ('A' for Active; 'I' for Inactive)
REMARK    1  A    between atoms: S1_2  and  C2_3 
REMARK    2  A    between atoms: C4_6  and  C5_7 
REMARK    3  A    between atoms: C7_11  and  C8_12 
REMARK    4  A    between atoms: C8_12  and  C9_13 
REMARK    5  A    between atoms: C9_13  and  C10_14 
REMARK    6  A    between atoms: C12_17  and  O2_18 
ROOT
HETATM    1  C2  UNL     1       3.368   0.544  -0.862  1.00  0.00     0.082 C 
HETATM    2  C3  UNL     1       2.670   0.996  -2.040  1.00  0.00     0.106 C 
HETATM    3  N1  UNL     1       2.128   1.357  -3.018  1.00  0.00    -0.191 NA
HETATM    4  C4  UNL     1       2.842  -0.253   0.010  1.00  0.00     0.051 C 
ENDROOT
BRANCH   1   5
HETATM    5  S1  UNL     1       5.084   1.058  -0.612  1.00  0.00    -0.123 SA
HETATM    6  C1  UNL     1       5.663   0.367   0.934  1.00  0.00     0.096 C 
ENDBRANCH   1   5
BRANCH   4   7
HETATM    7  C5  UNL     1       1.457  -0.780  -0.015  1.00  0.00     0.042 A 
HETATM    8  S2  UNL     1       0.954  -2.407   0.024  1.00  0.00    -0.079 SA
HETATM    9  C6  UNL     1      -0.746  -2.159   0.025  1.00  0.00     0.066 A 
HETATM   10  S3  UNL     1      -1.935  -3.501   0.057  1.00  0.00    -0.044 SA
HETATM   11  C7  UNL     1      -0.868  -0.809  -0.005  1.00  0.00     0.023 A 
HETATM   12  C12 UNL     1       0.282  -0.084  -0.025  1.00  0.00     0.095 A 
BRANCH  11  13
HETATM   13  C8  UNL     1      -2.174  -0.121  -0.012  1.00  0.00     0.020 C 
BRANCH  13  14
HETATM   14  C9  UNL     1      -3.351  -0.674   0.017  1.00  0.00     0.051 C 
BRANCH  14  15
HETATM   15  C10 UNL     1      -4.577   0.171   0.004  1.00  0.00     0.145 C 
HETATM   16  C11 UNL     1      -4.447   1.648  -0.041  1.00  0.00     0.096 C 
HETATM   17  O1  UNL     1      -5.713  -0.341   0.031  1.00  0.00    -0.294 OA
ENDBRANCH  14  15
ENDBRANCH  13  14
ENDBRANCH  11  13
BRANCH  12  18
HETATM   18  O2  UNL     1       0.373   1.338  -0.050  1.00  0.00    -0.358 OA
ATOM     19  H2  UNL     1      -0.444   1.822  -0.057  1.00  0.00     0.217 HD
ENDBRANCH  12  18
ENDBRANCH   4   7
TORSDOF 6
