REMARK  5 active torsions:
REMARK  status: ('A' for Active; 'I' for Inactive)
REMARK    1  A    between atoms: C4_4  and  C5_5 
REMARK    2  A    between atoms: C8_8  and  S1_9 
REMARK    3  A    between atoms: S1_9  and  S2_10 
REMARK    4  A    between atoms: S2_10  and  C9_11 
REMARK    5  A    between atoms: C11_17  and  O2_18 
ROOT
HETATM    1  S1  UNL     1       0.535  -0.238   1.583  1.00  0.00    -0.025 SA
ENDROOT
BRANCH   1   2
HETATM    2  C8  UNL     1      -0.723   0.376   0.464  1.00  0.00     0.133 A 
HETATM    3  C4  UNL     1      -2.030  -0.121   0.291  1.00  0.00     0.009 A 
HETATM    4  C3  UNL     1      -2.606   0.708  -0.658  1.00  0.00     0.047 A 
HETATM    5  C2  UNL     1      -1.640   1.652  -1.016  1.00  0.00     0.051 A 
HETATM    6  C1  UNL     1      -1.843   2.742  -2.022  1.00  0.00     0.077 C 
HETATM    7  O3  UNL     1      -0.580   1.388  -0.320  1.00  0.00    -0.307 OA
BRANCH   3   8
HETATM    8  C5  UNL     1      -2.554  -1.370   0.820  1.00  0.00    -0.074 C 
HETATM    9  C6  UNL     1      -3.906  -1.362   1.510  1.00  0.00     0.044 C 
HETATM   10  C7  UNL     1      -1.577  -2.403   1.223  1.00  0.00     0.044 C 
ENDBRANCH   3   8
ENDBRANCH   1   2
BRANCH   1  11
HETATM   11  S2  UNL     1       2.208   1.037   1.480  1.00  0.00    -0.038 SA
BRANCH  11  12
HETATM   12  C9  UNL     1       3.388   0.331   0.329  1.00  0.00     0.108 A 
HETATM   13  S3  UNL     1       3.303  -1.081  -0.634  1.00  0.00    -0.017 SA
HETATM   14  C10 UNL     1       4.881  -1.054  -1.278  1.00  0.00     0.291 A 
HETATM   15  O1  UNL     1       5.508  -1.823  -2.090  1.00  0.00    -0.260 OA
HETATM   16  N1  UNL     1       5.428   0.045  -0.731  1.00  0.00    -0.296 N 
HETATM   17  C11 UNL     1       4.680   0.754   0.086  1.00  0.00     0.168 A 
ATOM     18  H1  UNL     1       6.388   0.319  -0.942  1.00  0.00     0.171 HD
BRANCH  17  19
HETATM   19  O2  UNL     1       5.172   1.945   0.709  1.00  0.00    -0.345 OA
ATOM     20  H2  UNL     1       6.061   2.236   0.542  1.00  0.00     0.219 HD
ENDBRANCH  17  19
ENDBRANCH  11  12
ENDBRANCH   1  11
TORSDOF 5
