REMARK  5 active torsions:
REMARK  status: ('A' for Active; 'I' for Inactive)
REMARK    1  A    between atoms: C2_2  and  O1_3 
REMARK    2  A    between atoms: O1_3  and  C3_4 
REMARK    3  A    between atoms: C8_9  and  O2_10 
REMARK    4  A    between atoms: C9_12  and  N1_13 
REMARK       I    between atoms: N2_15  and  C10_17 
REMARK    5  A    between atoms: C10_17  and  C11_19 
ROOT
HETATM    1  C3  UNL     1      -2.725  -0.067  -0.173  1.00  0.00     0.100 A 
HETATM    2  C4  UNL     1      -2.152   0.739   0.783  1.00  0.00    -0.026 A 
HETATM    3  C5  UNL     1      -3.063   1.488   1.728  1.00  0.00     0.051 C 
HETATM    4  C6  UNL     1      -0.791   0.876   0.917  1.00  0.00     0.025 A 
HETATM    5  C7  UNL     1       0.097   0.189   0.072  1.00  0.00     0.020 A 
HETATM    6  C8  UNL     1       1.448   0.242   0.105  1.00  0.00     0.112 A 
HETATM    7  C9  UNL     1       2.127  -0.514  -0.815  1.00  0.00     0.124 A 
HETATM    8  S1  UNL     1       0.882  -1.267  -1.688  1.00  0.00    -0.066 SA
HETATM    9  C13 UNL     1      -0.470  -0.615  -0.878  1.00  0.00     0.047 A 
HETATM   10  C14 UNL     1      -1.863  -0.744  -1.002  1.00  0.00     0.098 A 
HETATM   11  N3  UNL     1      -2.348  -1.605  -2.014  1.00  0.00    -0.098 NA
ENDROOT
BRANCH   7  12
HETATM   12  N1  UNL     1       3.569  -0.627  -0.964  1.00  0.00    -0.289 N 
HETATM   13  N2  UNL     1       4.165  -1.034   0.071  1.00  0.00    -0.269 N 
HETATM   14  C10 UNL     1       5.568  -1.186   0.055  1.00  0.00     0.235 C 
ATOM     15  H2  UNL     1       3.635  -1.252   0.915  1.00  0.00     0.190 HD
HETATM   16  O3  UNL     1       6.110  -2.350   0.031  1.00  0.00    -0.272 OA
ATOM     17  H1  UNL     1       4.056  -0.397  -1.830  1.00  0.00     0.188 HD
BRANCH  14  18
HETATM   18  C11 UNL     1       6.471  -0.010   0.069  1.00  0.00     0.100 C 
HETATM   19  C12 UNL     1       6.363   0.725   1.397  1.00  0.00     0.014 C 
ENDBRANCH  14  18
ENDBRANCH   7  12
BRANCH   6  20
HETATM   20  O2  UNL     1       2.227   1.019   1.015  1.00  0.00    -0.357 OA
ATOM     21  H2  UNL     1       3.176   1.056   1.038  1.00  0.00     0.217 HD
ENDBRANCH   6  20
BRANCH   1  22
HETATM   22  O1  UNL     1      -4.099  -0.158  -0.258  1.00  0.00    -0.349 OA
BRANCH  22  23
HETATM   23  C2  UNL     1      -4.878   0.686  -1.074  1.00  0.00     0.171 C 
HETATM   24  C1  UNL     1      -6.328   0.275  -0.901  1.00  0.00     0.034 C 
ENDBRANCH  22  23
ENDBRANCH   1  22
TORSDOF 5
