REMARK  7 active torsions:
REMARK  status: ('A' for Active; 'I' for Inactive)
REMARK    1  A    between atoms: C2_2  and  C3_3 
REMARK    2  A    between atoms: C5_6  and  O2_7 
REMARK    3  A    between atoms: O2_7  and  C6_8 
REMARK    4  A    between atoms: C10_13  and  O4_14 
REMARK    5  A    between atoms: C13_17  and  O5_18 
REMARK    6  A    between atoms: C16_21  and  O6_22 
REMARK    7  A    between atoms: C18_25  and  O7_26 
ROOT
HETATM    1  C3  UNL     1      -3.615  -0.428  -0.565  1.00  0.00     0.087 A 
HETATM    2  O1  UNL     1      -2.636  -1.293  -0.595  1.00  0.00    -0.308 OA
HETATM    3  C4  UNL     1      -1.482  -0.662  -0.456  1.00  0.00     0.126 A 
HETATM    4  C5  UNL     1      -0.205  -1.163  -0.429  1.00  0.00     0.125 A 
HETATM    5  C8  UNL     1       0.905  -0.336  -0.273  1.00  0.00     0.019 A 
HETATM    6  C9  UNL     1       2.180  -0.899  -0.253  1.00  0.00     0.052 A 
HETATM    7  C10 UNL     1       3.274  -0.099  -0.102  1.00  0.00     0.071 A 
HETATM    8  C12 UNL     1       3.074   1.252   0.026  1.00  0.00     0.074 A 
HETATM    9  C13 UNL     1       1.819   1.845   0.011  1.00  0.00     0.084 A 
HETATM   10  C15 UNL     1       0.715   1.030  -0.142  1.00  0.00     0.045 A 
HETATM   11  C16 UNL     1      -0.588   1.546  -0.169  1.00  0.00     0.095 A 
HETATM   12  C17 UNL     1      -1.696   0.682  -0.329  1.00  0.00     0.070 A 
HETATM   13  C18 UNL     1      -3.052   0.848  -0.396  1.00  0.00     0.111 A 
ENDROOT
BRANCH   4  14
HETATM   14  O2  UNL     1       0.024  -2.522  -0.557  1.00  0.00    -0.275 OA
BRANCH  14  15
HETATM   15  C6  UNL     1       0.064  -3.385   0.516  1.00  0.00     0.260 C 
HETATM   16  C7  UNL     1       0.317  -4.819   0.247  1.00  0.00     0.126 C 
HETATM   17  O3  UNL     1      -0.114  -2.919   1.667  1.00  0.00    -0.265 OA
ENDBRANCH  14  15
ENDBRANCH   4  14
BRANCH   1  18
HETATM   18  C2  UNL     1      -5.044  -0.730  -0.686  1.00  0.00     0.064 C 
HETATM   19  C1  UNL     1      -5.803  -0.684   0.601  1.00  0.00     0.012 C 
ENDBRANCH   1  18
BRANCH  11  20
HETATM   20  O6  UNL     1      -0.863   2.838  -0.051  1.00  0.00    -0.359 OA
ATOM     21  H6  UNL     1      -1.746   3.188  -0.069  1.00  0.00     0.217 HD
ENDBRANCH  11  20
BRANCH  13  22
HETATM   22  O7  UNL     1      -3.733   2.036  -0.314  1.00  0.00    -0.357 OA
ATOM     23  H7  UNL     1      -3.352   2.899  -0.200  1.00  0.00     0.217 HD
ENDBRANCH  13  22
BRANCH   7  24
HETATM   24  O4  UNL     1       4.529  -0.693  -0.087  1.00  0.00    -0.356 OA
HETATM   25  C11 UNL     1       5.692   0.072   0.065  1.00  0.00     0.210 C 
ENDBRANCH   7  24
BRANCH   9  26
HETATM   26  O5  UNL     1       1.668   3.202   0.143  1.00  0.00    -0.355 OA
HETATM   27  C14 UNL     1       2.716   4.112   0.302  1.00  0.00     0.210 C 
ENDBRANCH   9  26
TORSDOF 7
