REMARK  8 active torsions:
REMARK  status: ('A' for Active; 'I' for Inactive)
REMARK    1  A    between atoms: C2_2  and  C3_3 
REMARK    2  A    between atoms: C7_7  and  N1_8 
REMARK    3  A    between atoms: C8_10  and  C9_11 
REMARK    4  A    between atoms: C10_12  and  O1_13 
REMARK    5  A    between atoms: C11_15  and  O2_16 
REMARK    6  A    between atoms: C13_20  and  C14_21 
REMARK    7  A    between atoms: C14_21  and  O4_23 
REMARK    8  A    between atoms: O4_23  and  C15_24 
ROOT
HETATM    1  C9  UNL     1      -0.885  -1.656  -1.321  1.00  0.00     0.050 A 
HETATM    2  C10 UNL     1      -0.711  -2.710  -2.198  1.00  0.00     0.131 A 
HETATM    3  C11 UNL     1      -1.948  -3.077  -2.683  1.00  0.00     0.177 A 
HETATM    4  N2  UNL     1      -2.845  -2.278  -2.122  1.00  0.00    -0.324 N 
HETATM    5  C12 UNL     1      -4.269  -2.357  -2.386  1.00  0.00     0.159 C 
HETATM    6  C13 UNL     1      -2.240  -1.391  -1.281  1.00  0.00     0.126 A 
ENDROOT
BRANCH   1   7
HETATM    7  C8  UNL     1       0.136  -0.944  -0.572  1.00  0.00     0.105 C 
HETATM    8  N1  UNL     1       1.375  -1.242  -0.657  1.00  0.00    -0.359 N 
ATOM      9  H1  UNL     1       1.665  -2.004  -1.270  1.00  0.00     0.166 HD
BRANCH   8  10
HETATM   10  C7  UNL     1       2.376  -0.519   0.100  1.00  0.00     0.080 A 
HETATM   11  C5  UNL     1       3.208   0.468  -0.361  1.00  0.00    -0.027 A 
HETATM   12  C4  UNL     1       4.067   1.006   0.526  1.00  0.00     0.024 A 
HETATM   13  C6  UNL     1       3.147   0.922  -1.814  1.00  0.00     0.051 C 
HETATM   14  C3  UNL     1       4.033   0.521   1.804  1.00  0.00    -0.015 A 
HETATM   15  S1  UNL     1       2.813  -0.665   1.739  1.00  0.00    -0.076 SA
BRANCH  14  16
HETATM   16  C2  UNL     1       4.884   0.949   2.978  1.00  0.00     0.041 C 
HETATM   17  C1  UNL     1       4.117   2.069   3.648  1.00  0.00     0.010 C 
ENDBRANCH  14  16
ENDBRANCH   8  10
ENDBRANCH   1   7
BRANCH   2  18
HETATM   18  O1  UNL     1       0.469  -3.325  -2.562  1.00  0.00    -0.356 OA
ATOM     19  H1  UNL     1       0.589  -4.049  -3.165  1.00  0.00     0.218 HD
ENDBRANCH   2  18
BRANCH   6  20
HETATM   20  C14 UNL     1      -2.978  -0.379  -0.517  1.00  0.00     0.311 C 
HETATM   21  O3  UNL     1      -4.230  -0.324  -0.642  1.00  0.00    -0.258 OA
BRANCH  20  22
HETATM   22  O4  UNL     1      -2.382   0.507   0.323  1.00  0.00    -0.312 OA
BRANCH  22  23
HETATM   23  C15 UNL     1      -3.010   1.495   1.081  1.00  0.00     0.124 C 
HETATM   24  C16 UNL     1      -2.583   2.898   0.696  1.00  0.00     0.040 C 
HETATM   25  C17 UNL     1      -2.826   1.313   2.572  1.00  0.00     0.040 C 
ENDBRANCH  22  23
ENDBRANCH  20  22
ENDBRANCH   6  20
BRANCH   3  26
HETATM   26  O2  UNL     1      -2.206  -4.112  -3.603  1.00  0.00    -0.344 OA
ATOM     27  H2  UNL     1      -3.059  -4.365  -3.937  1.00  0.00     0.219 HD
ENDBRANCH   3  26
TORSDOF 8
