REMARK  8 active torsions:
REMARK  status: ('A' for Active; 'I' for Inactive)
REMARK    1  A    between atoms: C2_2  and  C3_3 
REMARK    2  A    between atoms: C3_3  and  C4_4 
REMARK    3  A    between atoms: C4_4  and  C5_5 
REMARK    4  A    between atoms: C5_5  and  C6_6 
REMARK    5  A    between atoms: C11_12  and  O2_13 
REMARK    6  A    between atoms: C12_15  and  O3_16 
REMARK    7  A    between atoms: C13_18  and  O4_19 
REMARK    8  A    between atoms: O4_19  and  C14_20 
ROOT
HETATM    1  C6  UNL     1       1.108  -1.269   0.916  1.00  0.00     0.119 C 
HETATM    2  C7  UNL     1       1.175  -2.509   1.782  1.00  0.00     0.059 C 
HETATM    3  O1  UNL     1       0.304  -1.475  -0.197  1.00  0.00    -0.328 OA
HETATM    4  C8  UNL     1      -0.894  -0.947  -0.540  1.00  0.00     0.097 A 
HETATM    5  C9  UNL     1      -1.647  -1.577  -1.510  1.00  0.00     0.009 A 
HETATM    6  C10 UNL     1      -1.157  -2.818  -2.176  1.00  0.00     0.054 C 
HETATM    7  C11 UNL     1      -2.893  -1.101  -1.923  1.00  0.00     0.110 A 
HETATM    8  C12 UNL     1      -3.404   0.043  -1.348  1.00  0.00     0.135 A 
HETATM    9  C13 UNL     1      -2.678   0.700  -0.374  1.00  0.00     0.132 A 
HETATM   10  C16 UNL     1      -1.448   0.207   0.016  1.00  0.00     0.092 A 
HETATM   11  C17 UNL     1      -0.719   0.937   1.049  1.00  0.00     0.227 C 
HETATM   12  O6  UNL     1      -0.989   2.113   1.282  1.00  0.00    -0.280 OA
HETATM   13  S1  UNL     1       0.553   0.104   1.955  1.00  0.00    -0.049 SA
ENDROOT
BRANCH   1  14
HETATM   14  C5  UNL     1       2.515  -0.984   0.434  1.00  0.00     0.050 C 
BRANCH  14  15
HETATM   15  C4  UNL     1       2.551   0.248  -0.448  1.00  0.00     0.004 C 
BRANCH  15  16
HETATM   16  C3  UNL     1       3.940   0.543  -0.933  1.00  0.00    -0.000 C 
BRANCH  16  17
HETATM   17  C2  UNL     1       4.905   0.791   0.206  1.00  0.00    -0.005 C 
HETATM   18  C1  UNL     1       4.485   1.963   1.055  1.00  0.00     0.005 C 
ENDBRANCH  16  17
ENDBRANCH  15  16
ENDBRANCH  14  15
ENDBRANCH   1  14
BRANCH   7  19
HETATM   19  O2  UNL     1      -3.595  -1.803  -2.918  1.00  0.00    -0.357 OA
ATOM     20  H2  UNL     1      -4.443  -1.479  -3.199  1.00  0.00     0.217 HD
ENDBRANCH   7  19
BRANCH   9  21
HETATM   21  O4  UNL     1      -3.222   1.867   0.200  1.00  0.00    -0.275 OA
BRANCH  21  22
HETATM   22  C14 UNL     1      -4.062   1.777   1.311  1.00  0.00     0.260 C 
HETATM   23  C15 UNL     1      -4.674   2.945   1.976  1.00  0.00     0.126 C 
HETATM   24  O5  UNL     1      -4.302   0.630   1.761  1.00  0.00    -0.265 OA
ENDBRANCH  21  22
ENDBRANCH   9  21
BRANCH   8  25
HETATM   25  O3  UNL     1      -4.652   0.535  -1.750  1.00  0.00    -0.356 OA
ATOM     26  H3  UNL     1      -5.004   1.323  -1.354  1.00  0.00     0.218 HD
ENDBRANCH   8  25
TORSDOF 8
