REMARK  7 active torsions:
REMARK  status: ('A' for Active; 'I' for Inactive)
REMARK    1  A    between atoms: C2_2  and  C3_4 
REMARK    2  A    between atoms: C3_4  and  O5_15 
REMARK    3  A    between atoms: C4_5  and  C5_6 
REMARK    4  A    between atoms: C7_9  and  O3_10 
REMARK    5  A    between atoms: C8_12  and  O4_13 
REMARK    6  A    between atoms: O5_15  and  C9_16 
REMARK    7  A    between atoms: C9_16  and  C11_18 
ROOT
HETATM    1  C3  UNL     1       1.962   0.222  -0.792  1.00  0.00     0.116 C 
HETATM    2  C4  UNL     1       2.541   0.713   0.279  1.00  0.00     0.057 C 
ENDROOT
BRANCH   1   3
HETATM    3  C2  UNL     1       2.656  -0.539  -1.773  1.00  0.00     0.178 C 
HETATM    4  C1  UNL     1       1.985  -1.070  -3.008  1.00  0.00     0.099 C 
HETATM    5  O1  UNL     1       3.895  -0.859  -1.735  1.00  0.00    -0.291 OA
ENDBRANCH   1   3
BRANCH   1   6
HETATM    6  O5  UNL     1       0.577   0.468  -0.973  1.00  0.00    -0.338 OA
BRANCH   6   7
HETATM    7  C9  UNL     1      -0.332  -0.563  -0.907  1.00  0.00     0.159 C 
HETATM    8  C10 UNL     1      -0.130  -1.256   0.453  1.00  0.00     0.045 C 
BRANCH   7   9
HETATM    9  C11 UNL     1      -1.734  -0.011  -0.879  1.00  0.00    -0.007 A 
HETATM   10  C12 UNL     1      -2.616  -0.457   0.076  1.00  0.00     0.023 A 
HETATM   11  C13 UNL     1      -3.934   0.005   0.157  1.00  0.00    -0.000 A 
HETATM   12  C14 UNL     1      -4.384   0.938  -0.739  1.00  0.00     0.081 A 
HETATM   13  C18 UNL     1      -4.853  -0.509   1.184  1.00  0.00     0.212 C 
HETATM   14  C15 UNL     1      -3.513   1.381  -1.687  1.00  0.00     0.061 A 
HETATM   15  O6  UNL     1      -5.710   1.352  -0.593  1.00  0.00    -0.326 OA
HETATM   16  C16 UNL     1      -2.197   0.926  -1.775  1.00  0.00     0.045 A 
HETATM   17 CL1  UNL     1      -1.153   1.557  -3.003  1.00  0.00    -0.084 Cl
HETATM   18  C17 UNL     1      -6.181   1.365   0.767  1.00  0.00     0.345 C 
HETATM   19  O7  UNL     1      -6.078   0.083   1.227  1.00  0.00    -0.362 OA
ENDBRANCH   7   9
ENDBRANCH   6   7
ENDBRANCH   1   6
BRANCH   2  20
HETATM   20  C5  UNL     1       3.895   0.650   0.732  1.00  0.00     0.027 A 
HETATM   21  C6  UNL     1       5.066   1.067   0.113  1.00  0.00     0.159 A 
HETATM   22  O2  UNL     1       6.107   0.816   0.855  1.00  0.00    -0.297 OA
HETATM   23  C7  UNL     1       5.712   0.244   1.963  1.00  0.00     0.218 A 
HETATM   24  C8  UNL     1       4.358   0.112   1.949  1.00  0.00     0.136 A 
BRANCH  23  25
HETATM   25  O3  UNL     1       6.568  -0.164   2.995  1.00  0.00    -0.339 OA
ATOM     26  H3  UNL     1       6.281  -0.579   3.800  1.00  0.00     0.220 HD
ENDBRANCH  23  25
BRANCH  24  27
HETATM   27  O4  UNL     1       3.537  -0.429   2.904  1.00  0.00    -0.356 OA
ATOM     28  H4  UNL     1       3.849  -0.792   3.725  1.00  0.00     0.218 HD
ENDBRANCH  24  27
ENDBRANCH   2  20
TORSDOF 7
