REMARK  7 active torsions:
REMARK  status: ('A' for Active; 'I' for Inactive)
REMARK    1  A    between atoms: C2_2  and  S1_3 
REMARK    2  A    between atoms: S1_3  and  C3_6 
REMARK    3  A    between atoms: C3_6  and  C4_7 
REMARK    4  A    between atoms: C5_9  and  C6_10 
REMARK    5  A    between atoms: C11_18  and  N2_19 
REMARK    6  A    between atoms: N2_19  and  N3_21 
REMARK    7  A    between atoms: C15_29  and  O5_30 
ROOT
HETATM    1  C6  UNL     1      -1.861  -1.289   0.125  1.00  0.00     0.059 A 
HETATM    2  C7  UNL     1      -2.593  -2.481   0.357  1.00  0.00     0.171 A 
HETATM    3  N1  UNL     1      -1.957  -3.755   0.439  1.00  0.00    -0.073 NA
HETATM    4  O4  UNL     1      -3.843  -2.192   0.482  1.00  0.00    -0.291 OA
HETATM    5  C8  UNL     1      -4.041  -0.896   0.361  1.00  0.00     0.127 A 
HETATM    6  C9  UNL     1      -5.173  -0.143   0.419  1.00  0.00     0.153 A 
HETATM    7  F1  UNL     1      -6.397  -0.661   0.634  1.00  0.00    -0.203 F 
HETATM    8  C10 UNL     1      -5.025   1.233   0.238  1.00  0.00     0.076 A 
HETATM    9  C11 UNL     1      -3.836   1.843   0.006  1.00  0.00     0.053 A 
HETATM   10  C12 UNL     1      -2.710   1.059  -0.047  1.00  0.00     0.046 A 
HETATM   11  C13 UNL     1      -2.788  -0.317   0.134  1.00  0.00     0.020 A 
ENDROOT
BRANCH   1  12
HETATM   12  C5  UNL     1      -0.422  -1.309  -0.126  1.00  0.00     0.093 A 
HETATM   13  O3  UNL     1       0.520  -0.417   0.182  1.00  0.00    -0.310 OA
HETATM   14  C4  UNL     1       1.692  -0.816  -0.181  1.00  0.00     0.100 A 
HETATM   15  C15 UNL     1       1.571  -2.053  -0.802  1.00  0.00     0.099 A 
HETATM   16  C14 UNL     1       0.241  -2.351  -0.764  1.00  0.00     0.077 A 
BRANCH  14  17
HETATM   17  C3  UNL     1       3.045  -0.227   0.006  1.00  0.00     0.208 C 
BRANCH  17  18
HETATM   18  S1  UNL     1       3.523   1.133  -0.958  1.00  0.00     0.150 S 
HETATM   19  O1  UNL     1       2.550   2.240  -1.024  1.00  0.00    -0.228 OA
HETATM   20  O2  UNL     1       3.881   0.698  -2.395  1.00  0.00    -0.228 OA
BRANCH  18  21
HETATM   21  C2  UNL     1       5.123   1.697  -0.305  1.00  0.00     0.136 C 
HETATM   22  C1  UNL     1       4.865   2.183   1.081  1.00  0.00     0.021 C 
ENDBRANCH  18  21
ENDBRANCH  17  18
ENDBRANCH  14  17
BRANCH  15  23
HETATM   23  O5  UNL     1       2.563  -2.859  -1.370  1.00  0.00    -0.358 OA
ATOM     24  H5  UNL     1       2.480  -3.705  -1.795  1.00  0.00     0.217 HD
ENDBRANCH  15  23
ENDBRANCH   1  12
BRANCH   9  25
HETATM   25  N2  UNL     1      -3.726   3.263  -0.188  1.00  0.00    -0.287 N 
ATOM     26  H2  UNL     1      -3.193   3.639  -0.972  1.00  0.00     0.188 HD
BRANCH  25  27
HETATM   27  N3  UNL     1      -4.294   4.028   0.619  1.00  0.00    -0.249 N 
HETATM   28  N4  UNL     1      -4.519   5.226   0.947  1.00  0.00    -0.331 N 
ATOM     29  H42 UNL     1      -4.024   5.788   0.255  1.00  0.00     0.178 HD
ATOM     30  H41 UNL     1      -4.983   5.851   1.606  1.00  0.00     0.178 HD
ATOM     31  H3  UNL     1      -4.779   3.439   1.296  1.00  0.00     0.207 HD
ENDBRANCH  25  27
ENDBRANCH   9  25
TORSDOF 7
