REMARK  9 active torsions:
REMARK  status: ('A' for Active; 'I' for Inactive)
REMARK    1  A    between atoms: C2_2  and  O2_4 
REMARK    2  A    between atoms: O2_4  and  C3_5 
REMARK    3  A    between atoms: C4_6  and  O3_7 
REMARK    4  A    between atoms: C6_10  and  O4_11 
REMARK    5  A    between atoms: C7_13  and  O5_14 
REMARK    6  A    between atoms: O5_14  and  C8_15 
REMARK    7  A    between atoms: C12_19  and  C13_20 
REMARK    8  A    between atoms: C13_20  and  O6_21 
REMARK    9  A    between atoms: O6_21  and  C14_22 
REMARK       I    between atoms: C14_22  and  N1_24 
ROOT
HETATM    1  C3  UNL     1      -0.239   2.144   0.169  1.00  0.00     0.169 C 
HETATM    2  C4  UNL     1      -0.684   1.981   1.589  1.00  0.00     0.150 C 
HETATM    3  C5  UNL     1      -2.215   1.849   1.551  1.00  0.00     0.068 C 
HETATM    4  C6  UNL     1      -2.680   1.127   0.343  1.00  0.00     0.150 C 
HETATM    5  C7  UNL     1      -1.593   0.050  -0.021  1.00  0.00     0.160 C 
HETATM    6  C12 UNL     1      -0.561   0.906  -0.685  1.00  0.00     0.074 C 
ENDROOT
BRANCH   6   7
HETATM    7  C13 UNL     1       0.681   0.225  -1.134  1.00  0.00     0.190 C 
BRANCH   7   8
HETATM    8  O6  UNL     1       1.504  -0.240  -0.112  1.00  0.00    -0.303 OA
BRANCH   8   9
HETATM    9  C14 UNL     1       2.686  -0.889  -0.428  1.00  0.00     0.362 C 
HETATM   10  O7  UNL     1       2.929  -1.011  -1.680  1.00  0.00    -0.238 OA
HETATM   11  N1  UNL     1       3.586  -1.397   0.535  1.00  0.00    -0.337 N 
HETATM   12  C15 UNL     1       4.783  -2.053   0.094  1.00  0.00     0.154 C 
HETATM   13  C16 UNL     1       3.310  -1.259   1.935  1.00  0.00     0.154 C 
ENDBRANCH   8   9
ENDBRANCH   7   8
ENDBRANCH   6   7
BRANCH   1  14
HETATM   14  O2  UNL     1       1.073   2.526  -0.017  1.00  0.00    -0.313 OA
BRANCH  14  15
HETATM   15  C2  UNL     1       1.532   3.681  -0.601  1.00  0.00     0.255 C 
HETATM   16  C1  UNL     1       2.994   3.889  -0.699  1.00  0.00     0.126 C 
HETATM   17  O1  UNL     1       0.664   4.465  -1.005  1.00  0.00    -0.266 OA
ENDBRANCH  14  15
ENDBRANCH   1  14
BRANCH   5  18
HETATM   18  O5  UNL     1      -2.115  -0.845  -0.867  1.00  0.00    -0.373 OA
BRANCH  18  19
HETATM   19  C8  UNL     1      -2.283  -2.133  -0.621  1.00  0.00     0.051 C 
HETATM   20  C9  UNL     1      -1.000  -2.844  -0.290  1.00  0.00     0.045 C 
HETATM   21  C10 UNL     1      -3.289  -2.548   0.405  1.00  0.00     0.045 C 
HETATM   22  C11 UNL     1      -2.770  -2.781  -1.935  1.00  0.00     0.045 C 
ENDBRANCH  18  19
ENDBRANCH   5  18
BRANCH   2  23
HETATM   23  O3  UNL     1      -0.454   3.187   2.240  1.00  0.00    -0.393 OA
ATOM     24  H3  UNL     1      -0.736   3.084   3.141  1.00  0.00     0.210 HD
ENDBRANCH   2  23
BRANCH   4  25
HETATM   25  O4  UNL     1      -3.897   0.535   0.521  1.00  0.00    -0.393 OA
ATOM     26  H4  UNL     1      -4.195   0.072  -0.253  1.00  0.00     0.210 HD
ENDBRANCH   4  25
TORSDOF 9
