REMARK  6 active torsions:
REMARK  status: ('A' for Active; 'I' for Inactive)
REMARK    1  A    between atoms: C3_3  and  C4_4 
REMARK    2  A    between atoms: C4_4  and  N1_5 
REMARK       I    between atoms: N1_5  and  C5_7 
REMARK    3  A    between atoms: C5_7  and  C6_9 
REMARK       I    between atoms: C6_9  and  N2_11 
REMARK       I    between atoms: N2_11  and  C7_13 
REMARK    4  A    between atoms: C7_13  and  O4_15 
REMARK    5  A    between atoms: O4_15  and  C8_16 
REMARK    6  A    between atoms: N3_23  and  N4_24 
ROOT
HETATM    1  N1  UNL     1      -1.603   1.268   0.680  1.00  0.00    -0.350 N 
ATOM      2  H1  UNL     1      -1.313   0.780   1.527  1.00  0.00     0.163 HD
HETATM    3  C5  UNL     1      -0.686   1.459  -0.393  1.00  0.00     0.309 C 
HETATM    4  O1  UNL     1      -0.961   2.049  -1.450  1.00  0.00    -0.262 OA
ENDROOT
BRANCH   1   5
HETATM    5  C4  UNL     1      -2.943   1.773   0.552  1.00  0.00     0.157 C 
BRANCH   5   6
HETATM    6  C3  UNL     1      -3.661   1.108  -0.573  1.00  0.00     0.176 C 
HETATM    7  C2  UNL     1      -4.007  -0.325  -0.374  1.00  0.00     0.147 C 
HETATM    8  C1  UNL     1      -3.070  -1.111   0.499  1.00  0.00     0.037 C 
HETATM    9  N3  UNL     1      -5.331  -0.371   0.191  1.00  0.00    -0.169 N 
HETATM   10  C12 UNL     1      -5.894   0.898  -0.046  1.00  0.00     0.387 C 
HETATM   11  O5  UNL     1      -4.956   1.736  -0.621  1.00  0.00    -0.293 OA
HETATM   12  O6  UNL     1      -7.077   1.287   0.204  1.00  0.00    -0.236 OA
BRANCH   9  13
HETATM   13  N4  UNL     1      -5.917  -1.447   0.832  1.00  0.00    -0.032 N 
HETATM   14  O7  UNL     1      -5.946  -2.558   0.269  1.00  0.00    -0.516 OA
HETATM   15  O8  UNL     1      -6.463  -1.298   2.074  1.00  0.00    -0.516 OA
ENDBRANCH   9  13
ENDBRANCH   5   6
ENDBRANCH   1   5
BRANCH   3  16
HETATM   16  C6  UNL     1       0.670   0.901  -0.189  1.00  0.00     0.317 C 
HETATM   17  O2  UNL     1       0.987   0.304   0.869  1.00  0.00    -0.262 OA
HETATM   18  N2  UNL     1       1.603   1.064  -1.232  1.00  0.00    -0.265 N 
HETATM   19  C7  UNL     1       2.904   0.548  -1.084  1.00  0.00     0.368 C 
ATOM     20  H2  UNL     1       1.338   1.552  -2.087  1.00  0.00     0.174 HD
HETATM   21  O3  UNL     1       3.730   0.694  -2.018  1.00  0.00    -0.238 OA
BRANCH  19  22
HETATM   22  O4  UNL     1       3.323  -0.118   0.051  1.00  0.00    -0.294 OA
BRANCH  22  23
HETATM   23  C8  UNL     1       4.645  -0.628   0.167  1.00  0.00     0.061 C 
HETATM   24  C9  UNL     1       5.670   0.489   0.049  1.00  0.00     0.046 C 
HETATM   25  C10 UNL     1       4.917  -1.720  -0.846  1.00  0.00     0.046 C 
HETATM   26  C11 UNL     1       4.810  -1.224   1.545  1.00  0.00     0.046 C 
ENDBRANCH  22  23
ENDBRANCH  19  22
ENDBRANCH   3  16
TORSDOF 6
