REMARK  7 active torsions:
REMARK  status: ('A' for Active; 'I' for Inactive)
REMARK    1  A    between atoms: C2_2  and  C3_3 
REMARK    2  A    between atoms: C3_3  and  C4_4 
REMARK    3  A    between atoms: C4_4  and  C5_5 
REMARK    4  A    between atoms: C5_5  and  O1_6 
REMARK    5  A    between atoms: C6_8  and  O2_9 
REMARK    6  A    between atoms: C7_11  and  O3_12 
REMARK    7  A    between atoms: O3_12  and  C8_13 
ROOT
HETATM    1  C5  UNL     1       0.891  -0.062   0.067  1.00  0.00     0.095 C 
HETATM    2  C6  UNL     1       0.520   1.378  -0.138  1.00  0.00     0.188 C 
HETATM    3  C7  UNL     1      -0.888   1.338  -0.553  1.00  0.00     0.226 C 
HETATM    4  C10 UNL     1      -1.443   0.047   0.021  1.00  0.00     0.203 C 
HETATM    5  O5  UNL     1      -2.641  -0.174  -0.640  1.00  0.00    -0.342 OA
HETATM    6  C11 UNL     1      -3.274  -1.112   0.197  1.00  0.00     0.181 C 
HETATM    7  C12 UNL     1      -2.706  -2.451  -0.178  1.00  0.00     0.051 C 
HETATM    8  C13 UNL     1      -1.542  -2.864   0.675  1.00  0.00     0.089 C 
HETATM    9  C14 UNL     1      -0.270  -2.171   0.374  1.00  0.00     0.028 C 
HETATM   10  C15 UNL     1      -0.350  -0.880  -0.326  1.00  0.00     0.089 C 
HETATM   11  C16 UNL     1      -1.863  -2.720   2.137  1.00  0.00     0.265 C 
HETATM   12  O6  UNL     1      -1.426  -3.487   3.010  1.00  0.00    -0.265 OA
HETATM   13  O7  UNL     1      -2.683  -1.675   2.489  1.00  0.00    -0.287 OA
HETATM   14  C17 UNL     1      -2.874  -0.635   1.552  1.00  0.00     0.302 C 
HETATM   15  O8  UNL     1      -1.665   0.068   1.358  1.00  0.00    -0.319 OA
ENDROOT
BRANCH   1  16
HETATM   16  C4  UNL     1       1.991  -0.527  -0.854  1.00  0.00     0.041 C 
BRANCH  16  17
HETATM   17  C3  UNL     1       3.302   0.173  -0.581  1.00  0.00     0.003 C 
BRANCH  17  18
HETATM   18  C2  UNL     1       4.312  -0.380  -1.564  1.00  0.00    -0.004 C 
HETATM   19  C1  UNL     1       5.674   0.249  -1.388  1.00  0.00     0.005 C 
ENDBRANCH  17  18
ENDBRANCH  16  17
ENDBRANCH   1  16
BRANCH   1  20
HETATM   20  O1  UNL     1       1.157  -0.277   1.397  1.00  0.00    -0.387 OA
ATOM     21  H1  UNL     1       0.464   0.016   1.977  1.00  0.00     0.210 HD
ENDBRANCH   1  20
BRANCH   2  22
HETATM   22  O2  UNL     1       0.820   2.138   0.967  1.00  0.00    -0.390 OA
ATOM     23  H2  UNL     1       0.585   3.049   0.837  1.00  0.00     0.210 HD
ENDBRANCH   2  22
BRANCH   3  24
HETATM   24  O3  UNL     1      -1.668   2.451  -0.390  1.00  0.00    -0.308 OA
BRANCH  24  25
HETATM   25  C8  UNL     1      -2.307   3.170  -1.365  1.00  0.00     0.255 C 
HETATM   26  C9  UNL     1      -3.126   4.361  -1.062  1.00  0.00     0.126 C 
HETATM   27  O4  UNL     1      -2.129   2.725  -2.514  1.00  0.00    -0.266 OA
ENDBRANCH  24  25
ENDBRANCH   3  24
TORSDOF 7
