REMARK  9 active torsions:
REMARK  status: ('A' for Active; 'I' for Inactive)
REMARK    1  A    between atoms: C2_2  and  S1_3 
REMARK    2  A    between atoms: S1_3  and  C3_4 
REMARK    3  A    between atoms: C4_6  and  N1_7 
REMARK    4  A    between atoms: N2_10  and  C5_11 
REMARK    5  A    between atoms: C5_11  and  O1_12 
REMARK    6  A    between atoms: C5_11  and  C6_14 
REMARK    7  A    between atoms: C6_14  and  N3_15 
REMARK    8  A    between atoms: C11_21  and  C12_22 
REMARK    9  A    between atoms: C14_24  and  O3_25 
ROOT
HETATM    1  C3  UNL     1       3.890   0.631   0.383  1.00  0.00     0.096 A 
HETATM    2  S2  UNL     1       3.807  -1.055   0.144  1.00  0.00    -0.043 SA
HETATM    3  C4  UNL     1       2.164  -1.150  -0.342  1.00  0.00     0.149 A 
HETATM    4  N2  UNL     1       1.766   0.124  -0.295  1.00  0.00    -0.278 N 
HETATM    5  C14 UNL     1       2.620   1.032   0.067  1.00  0.00     0.171 A 
ENDROOT
BRANCH   4   6
HETATM    6  C5  UNL     1       0.364   0.434  -0.660  1.00  0.00     0.247 C 
BRANCH   6   7
HETATM    7  O1  UNL     1       0.230   1.701  -1.190  1.00  0.00    -0.374 OA
ATOM      8  H1  UNL     1      -0.669   1.900  -1.424  1.00  0.00     0.212 HD
ENDBRANCH   6   7
BRANCH   6   9
HETATM    9  C6  UNL     1      -0.514   0.157   0.517  1.00  0.00     0.180 C 
BRANCH   9  10
HETATM   10  N3  UNL     1      -1.908   0.278   0.206  1.00  0.00    -0.343 N 
HETATM   11  C7  UNL     1      -2.566   1.543   0.386  1.00  0.00     0.220 C 
HETATM   12  O2  UNL     1      -2.246   2.328   1.309  1.00  0.00    -0.273 OA
HETATM   13  C8  UNL     1      -3.665   1.968  -0.529  1.00  0.00     0.103 C 
HETATM   14  C9  UNL     1      -4.535   0.727  -0.759  1.00  0.00     0.011 C 
HETATM   15  C10 UNL     1      -3.625  -0.336  -1.328  1.00  0.00     0.026 C 
HETATM   16  C11 UNL     1      -2.654  -0.865  -0.293  1.00  0.00     0.087 C 
BRANCH  16  17
HETATM   17  C12 UNL     1      -3.339  -1.578   0.835  1.00  0.00     0.021 C 
HETATM   18  C13 UNL     1      -4.127  -2.769   0.393  1.00  0.00     0.007 C 
ENDBRANCH  16  17
ENDBRANCH   9  10
ENDBRANCH   6   9
ENDBRANCH   4   6
BRANCH   3  19
HETATM   19  N1  UNL     1       1.477  -2.224  -0.678  1.00  0.00    -0.379 N 
ATOM     20  H12 UNL     1       1.781  -3.197  -0.714  1.00  0.00     0.158 HD
ATOM     21  H11 UNL     1       0.500  -2.280  -0.967  1.00  0.00     0.158 HD
ENDBRANCH   3  19
BRANCH   5  22
HETATM   22  O3  UNL     1       2.326   2.420   0.159  1.00  0.00    -0.344 OA
ATOM     23  H3  UNL     1       1.445   2.698  -0.060  1.00  0.00     0.219 HD
ENDBRANCH   5  22
BRANCH   1  24
HETATM   24  S1  UNL     1       5.307   1.602   0.916  1.00  0.00    -0.119 SA
BRANCH  24  25
HETATM   25  C2  UNL     1       6.727   0.471   1.183  1.00  0.00     0.075 C 
HETATM   26  C1  UNL     1       7.097  -0.090  -0.172  1.00  0.00     0.016 C 
ENDBRANCH  24  25
ENDBRANCH   1  24
TORSDOF 9
