REMARK  8 active torsions:
REMARK  status: ('A' for Active; 'I' for Inactive)
REMARK    1  A    between atoms: C2_2  and  C3_3 
REMARK    2  A    between atoms: C4_5  and  S1_6 
REMARK    3  A    between atoms: C6_8  and  N1_9 
REMARK    4  A    between atoms: C7_12  and  C8_13 
REMARK    5  A    between atoms: C8_13  and  S2_14 
REMARK    6  A    between atoms: S2_14  and  C9_15 
REMARK    7  A    between atoms: C9_15  and  C10_16 
REMARK       I    between atoms: C10_16  and  N2_18 
REMARK       I    between atoms: N2_18  and  C11_20 
REMARK    8  A    between atoms: N4_22  and  O5_24 
ROOT
HETATM    1  C8  UNL     1      -0.240   0.030  -0.465  1.00  0.00     0.118 C 
ENDROOT
BRANCH   1   2
HETATM    2  C7  UNL     1      -1.634  -0.112  -0.017  1.00  0.00     0.017 A 
HETATM    3  C3  UNL     1      -2.461   0.959   0.363  1.00  0.00     0.063 A 
HETATM    4  O1  UNL     1      -3.596   0.427   0.692  1.00  0.00    -0.305 OA
HETATM    5  C4  UNL     1      -3.611  -0.870   0.571  1.00  0.00     0.145 A 
HETATM    6  C6  UNL     1      -2.358  -1.273   0.111  1.00  0.00     0.152 A 
BRANCH   3   7
HETATM    7  C2  UNL     1      -2.018   2.382   0.353  1.00  0.00     0.061 C 
HETATM    8  C1  UNL     1      -1.964   2.979  -1.016  1.00  0.00     0.012 C 
ENDBRANCH   3   7
BRANCH   5   9
HETATM    9  S1  UNL     1      -4.989  -1.980   0.925  1.00  0.00    -0.107 SA
HETATM   10  C5  UNL     1      -6.400  -0.963   1.495  1.00  0.00     0.097 C 
ENDBRANCH   5   9
BRANCH   6  11
HETATM   11  N1  UNL     1      -2.033  -2.627  -0.151  1.00  0.00    -0.112 N 
HETATM   12  O2  UNL     1      -1.756  -3.387   0.800  1.00  0.00    -0.532 OA
HETATM   13  O3  UNL     1      -2.012  -3.134  -1.412  1.00  0.00    -0.532 OA
ENDBRANCH   6  11
ENDBRANCH   1   2
BRANCH   1  14
HETATM   14  S2  UNL     1       0.535  -1.519  -0.853  1.00  0.00    -0.155 SA
BRANCH  14  15
HETATM   15  C9  UNL     1       2.237  -1.347  -1.409  1.00  0.00     0.177 C 
BRANCH  15  16
HETATM   16  C10 UNL     1       3.110  -0.829  -0.307  1.00  0.00     0.233 C 
HETATM   17  O4  UNL     1       2.576  -0.593   0.806  1.00  0.00    -0.272 OA
HETATM   18  N2  UNL     1       4.485  -0.608  -0.491  1.00  0.00    -0.299 N 
HETATM   19  C11 UNL     1       5.327  -0.120   0.534  1.00  0.00     0.214 C 
ATOM     20  H2  UNL     1       4.893  -0.808  -1.404  1.00  0.00     0.171 HD
HETATM   21  N3  UNL     1       4.798   0.171   1.819  1.00  0.00    -0.061 NA
HETATM   22  N4  UNL     1       6.586   0.070   0.323  1.00  0.00    -0.241 N 
ATOM     23  H4  UNL     1       6.966  -0.139  -0.600  1.00  0.00     0.197 HD
BRANCH  22  24
HETATM   24  O5  UNL     1       7.430   0.541   1.290  1.00  0.00    -0.287 OA
ATOM     25  H5  UNL     1       8.357   0.681   1.135  1.00  0.00     0.244 HD
ENDBRANCH  22  24
ENDBRANCH  15  16
ENDBRANCH  14  15
ENDBRANCH   1  14
TORSDOF 8
