REMARK  11 active torsions:
REMARK  status: ('A' for Active; 'I' for Inactive)
REMARK    1  A    between atoms: C2_2  and  O1_3 
REMARK    2  A    between atoms: O1_3  and  C3_4 
REMARK    3  A    between atoms: C3_4  and  C4_6 
REMARK    4  A    between atoms: C5_7  and  C6_8 
REMARK    5  A    between atoms: C9_11  and  O3_12 
REMARK    6  A    between atoms: C10_14  and  O4_15 
REMARK    7  A    between atoms: C11_17  and  N1_18 
REMARK    8  A    between atoms: C12_20  and  C13_21 
REMARK    9  A    between atoms: C13_21  and  C14_22 
REMARK   10  A    between atoms: C14_22  and  O6_24 
REMARK   11  A    between atoms: C16_26  and  O7_27 
ROOT
HETATM    1  C6  UNL     1       1.091  -1.142   1.233  1.00  0.00     0.008 A 
HETATM    2  C7  UNL     1       1.058  -2.509   0.939  1.00  0.00    -0.013 A 
HETATM    3  C8  UNL     1       2.230  -3.329   1.273  1.00  0.00     0.052 C 
HETATM    4  C9  UNL     1      -0.071  -3.022   0.347  1.00  0.00     0.108 A 
HETATM    5  C10 UNL     1      -1.143  -2.195   0.054  1.00  0.00     0.129 A 
HETATM    6  C11 UNL     1      -1.139  -0.854   0.332  1.00  0.00     0.102 A 
HETATM    7  C16 UNL     1       0.008  -0.339   0.934  1.00  0.00     0.106 A 
ENDROOT
BRANCH   6   8
HETATM    8  N1  UNL     1      -2.246  -0.002   0.026  1.00  0.00    -0.365 N 
HETATM    9  C12 UNL     1      -3.436  -0.303   0.420  1.00  0.00     0.071 C 
ATOM     10  H1  UNL     1      -2.092   0.853  -0.509  1.00  0.00     0.165 HD
BRANCH   9  11
HETATM   11  C13 UNL     1      -4.619   0.533   0.137  1.00  0.00     0.155 C 
BRANCH  11  12
HETATM   12  C14 UNL     1      -4.457   1.136  -1.211  1.00  0.00     0.263 C 
HETATM   13  O5  UNL     1      -5.366   1.910  -1.668  1.00  0.00    -0.265 OA
BRANCH  12  14
HETATM   14  O6  UNL     1      -3.346   0.890  -2.004  1.00  0.00    -0.326 OA
HETATM   15  C15 UNL     1      -3.277   1.515  -3.290  1.00  0.00     0.213 C 
ENDBRANCH  12  14
ENDBRANCH  11  12
ENDBRANCH   9  11
ENDBRANCH   6   8
BRANCH   5  16
HETATM   16  O4  UNL     1      -2.285  -2.717  -0.548  1.00  0.00    -0.356 OA
ATOM     17  H4  UNL     1      -3.020  -2.150  -0.749  1.00  0.00     0.218 HD
ENDBRANCH   5  16
BRANCH   7  18
HETATM   18  O7  UNL     1      -0.017   1.021   1.224  1.00  0.00    -0.357 OA
ATOM     19  H7  UNL     1      -0.762   1.573   1.018  1.00  0.00     0.217 HD
ENDBRANCH   7  18
BRANCH   4  20
HETATM   20  O3  UNL     1      -0.122  -4.383   0.047  1.00  0.00    -0.357 OA
ATOM     21  H3  UNL     1      -0.903  -4.738  -0.362  1.00  0.00     0.217 HD
ENDBRANCH   4  20
BRANCH   1  22
HETATM   22  C5  UNL     1       2.250  -0.676   1.966  1.00  0.00     0.021 C 
HETATM   23  C4  UNL     1       3.063   0.242   1.590  1.00  0.00     0.083 C 
BRANCH  23  24
HETATM   24  C3  UNL     1       3.119   1.036   0.424  1.00  0.00     0.282 C 
HETATM   25  O2  UNL     1       2.368   0.967  -0.567  1.00  0.00    -0.260 OA
BRANCH  24  26
HETATM   26  O1  UNL     1       4.134   2.036   0.337  1.00  0.00    -0.319 OA
BRANCH  26  27
HETATM   27  C2  UNL     1       4.213   2.858  -0.838  1.00  0.00     0.174 C 
HETATM   28  C1  UNL     1       2.897   3.593  -0.954  1.00  0.00     0.034 C 
ENDBRANCH  26  27
ENDBRANCH  24  26
ENDBRANCH  23  24
ENDBRANCH   1  22
TORSDOF 11
