REMARK  10 active torsions:
REMARK  status: ('A' for Active; 'I' for Inactive)
REMARK    1  A    between atoms: C2_2  and  O1_3 
REMARK    2  A    between atoms: C2_2  and  C4_11 
REMARK    3  A    between atoms: O1_3  and  C3_4 
REMARK       I    between atoms: C3_4  and  N1_6 
REMARK    4  A    between atoms: N1_6  and  N2_8 
REMARK    5  A    between atoms: N3_13  and  C6_14 
REMARK    6  A    between atoms: C6_14  and  C7_15 
REMARK    7  A    between atoms: C6_14  and  C8_18 
REMARK    8  A    between atoms: C7_15  and  O3_16 
REMARK    9  A    between atoms: C8_18  and  O4_19 
REMARK   10  A    between atoms: O4_19  and  C9_20 
ROOT
HETATM    1  C4  UNL     1       2.217  -0.482   0.106  1.00  0.00     0.030 A 
HETATM    2  C5  UNL     1       0.852  -0.489   0.019  1.00  0.00     0.110 A 
HETATM    3  N3  UNL     1       0.205  -1.482   0.552  1.00  0.00    -0.332 N 
HETATM    4  C13 UNL     1       0.911  -2.443   1.158  1.00  0.00     0.145 A 
HETATM    5  S1  UNL     1       0.410  -3.810   1.918  1.00  0.00    -0.052 SA
HETATM    6  S2  UNL     1       2.524  -1.925   0.964  1.00  0.00    -0.061 SA
ENDROOT
BRANCH   1   7
HETATM    7  C2  UNL     1       3.207   0.522  -0.411  1.00  0.00     0.171 C 
HETATM    8  C1  UNL     1       2.467   1.794  -0.739  1.00  0.00     0.046 C 
BRANCH   7   9
HETATM    9  O1  UNL     1       4.184   0.813   0.566  1.00  0.00    -0.292 OA
BRANCH   9  10
HETATM   10  C3  UNL     1       5.531   0.591   0.286  1.00  0.00     0.379 C 
HETATM   11  O2  UNL     1       5.830   0.133  -0.844  1.00  0.00    -0.237 OA
HETATM   12  N1  UNL     1       6.554   0.867   1.231  1.00  0.00    -0.252 N 
ATOM     13  H1  UNL     1       6.311   1.240   2.149  1.00  0.00     0.191 HD
BRANCH  12  14
HETATM   14  N2  UNL     1       7.889   0.629   0.908  1.00  0.00    -0.341 N 
ATOM     15  H22 UNL     1       8.114   0.255  -0.014  1.00  0.00     0.177 HD
ATOM     16  H21 UNL     1       8.624   0.827   1.587  1.00  0.00     0.177 HD
ENDBRANCH  12  14
ENDBRANCH   9  10
ENDBRANCH   7   9
ENDBRANCH   1   7
BRANCH   3  17
HETATM   17  C6  UNL     1      -1.273  -1.605   0.525  1.00  0.00     0.138 C 
BRANCH  17  18
HETATM   18  C7  UNL     1      -1.687  -2.624  -0.514  1.00  0.00     0.192 C 
BRANCH  18  19
HETATM   19  O3  UNL     1      -1.277  -2.292  -1.781  1.00  0.00    -0.399 OA
ATOM     20  H3  UNL     1      -1.537  -2.932  -2.433  1.00  0.00     0.209 HD
ENDBRANCH  18  19
ENDBRANCH  17  18
BRANCH  17  21
HETATM   21  C8  UNL     1      -1.914  -0.288   0.156  1.00  0.00     0.196 C 
BRANCH  21  22
HETATM   22  O4  UNL     1      -3.280  -0.479   0.151  1.00  0.00    -0.379 OA
BRANCH  22  23
HETATM   23  C9  UNL     1      -4.013   0.638  -0.169  1.00  0.00     0.050 C 
HETATM   24  C10 UNL     1      -3.665   1.161  -1.567  1.00  0.00     0.045 C 
HETATM   25  C11 UNL     1      -3.815   1.791   0.780  1.00  0.00     0.045 C 
HETATM   26  C12 UNL     1      -5.479   0.242  -0.169  1.00  0.00     0.045 C 
ENDBRANCH  22  23
ENDBRANCH  21  22
ENDBRANCH  17  21
ENDBRANCH   3  17
TORSDOF 10
