REMARK  11 active torsions:
REMARK  status: ('A' for Active; 'I' for Inactive)
REMARK    1  A    between atoms: C2_2  and  C4_4 
REMARK    2  A    between atoms: C4_4  and  C5_5 
REMARK    3  A    between atoms: C5_5  and  N1_6 
REMARK    4  A    between atoms: C5_5  and  C14_18 
REMARK       I    between atoms: N1_6  and  C6_8 
REMARK    5  A    between atoms: C6_8  and  C7_10 
REMARK    6  A    between atoms: C7_10  and  C8_12 
REMARK       I    between atoms: C14_18  and  N2_20 
REMARK    7  A    between atoms: C18_24  and  C19_25 
REMARK       I    between atoms: C19_25  and  N3_27 
REMARK    8  A    between atoms: N3_27  and  C20_29 
REMARK    9  A    between atoms: C20_29  and  C21_30 
REMARK   10  A    between atoms: C21_30  and  O5_31 
REMARK   11  A    between atoms: C21_30  and  C22_33 
REMARK       I    between atoms: C22_33  and  N4_35 
ROOT
HETATM    1  C14 UNL     1       0.706  -1.163  -0.435  1.00  0.00     0.243 C 
HETATM    2  O3  UNL     1       0.900  -0.323  -1.382  1.00  0.00    -0.271 OA
HETATM    3  N2  UNL     1      -0.373  -2.067  -0.527  1.00  0.00    -0.336 N 
HETATM    4  C15 UNL     1      -0.853  -3.043   0.389  1.00  0.00     0.132 C 
HETATM    5  C16 UNL     1      -2.038  -3.719  -0.286  1.00  0.00     0.019 A 
HETATM    6  C17 UNL     1      -2.068  -3.296  -1.685  1.00  0.00     0.032 A 
HETATM    7  C18 UNL     1      -1.205  -2.094  -1.737  1.00  0.00     0.184 C 
HETATM    8  C30 UNL     1      -1.654  -4.660  -1.403  1.00  0.00    -0.036 A 
HETATM    9  C31 UNL     1      -2.638  -5.774  -1.737  1.00  0.00     0.016 C 
HETATM   10  C32 UNL     1      -0.224  -5.108  -1.412  1.00  0.00     0.016 C 
ENDROOT
BRANCH   1  11
HETATM   11  C5  UNL     1       1.655  -1.101   0.704  1.00  0.00     0.177 C 
BRANCH  11  12
HETATM   12  C4  UNL     1       2.539  -2.304   0.809  1.00  0.00     0.038 C 
BRANCH  12  13
HETATM   13  C2  UNL     1       3.289  -2.410   2.065  1.00  0.00    -0.020 C 
HETATM   14  C1  UNL     1       4.130  -3.720   2.073  1.00  0.00     0.009 C 
HETATM   15  C3  UNL     1       4.287  -1.346   2.381  1.00  0.00     0.009 C 
ENDBRANCH  12  13
ENDBRANCH  11  12
BRANCH  11  16
HETATM   16  N1  UNL     1       2.425   0.100   0.713  1.00  0.00    -0.341 N 
HETATM   17  C6  UNL     1       3.383   0.508  -0.245  1.00  0.00     0.288 C 
HETATM   18  O1  UNL     1       3.642  -0.206  -1.230  1.00  0.00    -0.264 OA
ATOM     19  H1  UNL     1       2.268   0.734   1.496  1.00  0.00     0.163 HD
BRANCH  17  20
HETATM   20  C7  UNL     1       4.099   1.766  -0.125  1.00  0.00     0.220 C 
HETATM   21  O2  UNL     1       3.851   2.488   0.879  1.00  0.00    -0.287 OA
BRANCH  20  22
HETATM   22  C8  UNL     1       5.089   2.252  -1.089  1.00  0.00     0.065 C 
HETATM   23  C9  UNL     1       6.277   1.352  -1.261  1.00  0.00     0.013 C 
HETATM   24  C10 UNL     1       7.483   1.774  -0.447  1.00  0.00     0.001 C 
HETATM   25  C11 UNL     1       7.954   3.156  -0.879  1.00  0.00     0.000 C 
HETATM   26  C12 UNL     1       6.813   3.903  -1.565  1.00  0.00     0.001 C 
HETATM   27  C13 UNL     1       5.555   3.669  -0.744  1.00  0.00     0.013 C 
ENDBRANCH  20  22
ENDBRANCH  17  20
ENDBRANCH  11  16
ENDBRANCH   1  11
BRANCH   7  28
HETATM   28  C19 UNL     1      -2.060  -0.889  -1.727  1.00  0.00     0.241 C 
HETATM   29  O4  UNL     1      -2.681  -0.627  -2.786  1.00  0.00    -0.271 OA
HETATM   30  N3  UNL     1      -2.193  -0.062  -0.613  1.00  0.00    -0.347 N 
ATOM     31  H3  UNL     1      -1.672  -0.308   0.228  1.00  0.00     0.163 HD
BRANCH  30  32
HETATM   32  C20 UNL     1      -3.048   1.158  -0.572  1.00  0.00     0.071 A 
HETATM   33  C27 UNL     1      -2.683   2.022   0.645  1.00  0.00     0.041 A 
HETATM   34  C28 UNL     1      -2.338   2.381  -0.819  1.00  0.00     0.015 A 
HETATM   35  C29 UNL     1      -2.824   3.728  -1.189  1.00  0.00     0.012 C 
BRANCH  32  36
HETATM   36  C21 UNL     1      -4.471   0.796  -0.736  1.00  0.00     0.238 C 
BRANCH  36  37
HETATM   37  O5  UNL     1      -4.753  -0.062   0.380  1.00  0.00    -0.384 OA
ATOM     38  H5  UNL     1      -5.668  -0.295   0.275  1.00  0.00     0.210 HD
ENDBRANCH  36  37
BRANCH  36  39
HETATM   39  C22 UNL     1      -5.483   1.829  -0.745  1.00  0.00     0.251 C 
HETATM   40  O6  UNL     1      -5.555   2.540  -1.809  1.00  0.00    -0.270 OA
HETATM   41  N4  UNL     1      -6.397   2.149   0.271  1.00  0.00    -0.350 N 
HETATM   42  C23 UNL     1      -7.389   3.192   0.199  1.00  0.00     0.126 C 
HETATM   43  C26 UNL     1      -6.511   1.512   1.547  1.00  0.00     0.126 C 
HETATM   44  C24 UNL     1      -7.918   3.415   1.575  1.00  0.00     0.021 C 
HETATM   45  C25 UNL     1      -7.554   2.200   2.363  1.00  0.00     0.021 C 
ENDBRANCH  36  39
ENDBRANCH  32  36
ENDBRANCH  30  32
ENDBRANCH   7  28
TORSDOF 11
