REMARK  12 active torsions:
REMARK  status: ('A' for Active; 'I' for Inactive)
REMARK    1  A    between atoms: C2_2  and  C4_4 
REMARK    2  A    between atoms: C4_4  and  C5_5 
REMARK    3  A    between atoms: C5_5  and  N1_6 
REMARK    4  A    between atoms: C5_5  and  C24_34 
REMARK       I    between atoms: N1_6  and  C6_7 
REMARK       I    between atoms: C6_7  and  N2_9 
REMARK    5  A    between atoms: C10_13  and  C11_14 
REMARK    6  A    between atoms: C11_14  and  N3_15 
REMARK    7  A    between atoms: C11_14  and  C12_19 
REMARK    8  A    between atoms: C12_19  and  C13_20 
REMARK       I    between atoms: C13_20  and  N4_22 
REMARK    9  A    between atoms: C16_25  and  N5_26 
REMARK   10  A    between atoms: C24_34  and  O3_35 
REMARK   11  A    between atoms: C24_34  and  N6_37 
REMARK   12  A    between atoms: C30_43  and  C31_44 
ROOT
HETATM    1  N1  UNL     1      -2.741   0.504  -0.020  1.00  0.00    -0.348 NA
HETATM    2  C6  UNL     1      -1.576   1.117   0.310  1.00  0.00     0.397 C 
HETATM    3  O1  UNL     1      -1.186   2.239  -0.113  1.00  0.00    -0.230 OA
HETATM    4  N2  UNL     1      -0.664   0.431   1.184  1.00  0.00    -0.315 N 
HETATM    5  C7  UNL     1      -0.970  -0.542   2.239  1.00  0.00     0.129 C 
HETATM    6  C8  UNL     1      -0.326  -1.793   1.707  1.00  0.00     0.022 C 
HETATM    7  C9  UNL     1       0.938  -1.222   1.090  1.00  0.00     0.029 C 
HETATM    8  C10 UNL     1       0.761   0.244   1.004  1.00  0.00     0.120 C 
ENDROOT
BRANCH   8   9
HETATM    9  C11 UNL     1       1.302   0.887  -0.253  1.00  0.00     0.215 C 
BRANCH   9  10
HETATM   10  N3  UNL     1       0.408   0.352  -1.345  1.00  0.00    -0.073 N 
ATOM     11  H33 UNL     1       0.354  -0.666  -1.383  1.00  0.00     0.274 HD
ATOM     12  H32 UNL     1      -0.588   0.508  -1.188  1.00  0.00     0.274 HD
ATOM     13  H31 UNL     1       0.773   0.786  -2.193  1.00  0.00     0.274 HD
ENDBRANCH   9  10
BRANCH   9  14
HETATM   14  C12 UNL     1       2.594   0.145  -0.618  1.00  0.00     0.137 C 
BRANCH  14  15
HETATM   15  C13 UNL     1       3.505   0.058   0.527  1.00  0.00     0.221 C 
HETATM   16  O2  UNL     1       3.434   0.754   1.540  1.00  0.00    -0.273 OA
HETATM   17  N4  UNL     1       4.575  -0.961   0.471  1.00  0.00    -0.352 N 
HETATM   18  C14 UNL     1       4.985  -1.595  -0.713  1.00  0.00     0.128 C 
HETATM   19  C23 UNL     1       5.100  -1.460   1.757  1.00  0.00     0.128 C 
HETATM   20  C15 UNL     1       6.478  -1.120  -0.960  1.00  0.00     0.055 C 
HETATM   21  C16 UNL     1       7.007  -0.795   0.404  1.00  0.00     0.226 C 
HETATM   22  C22 UNL     1       6.575  -1.722   1.403  1.00  0.00     0.055 C 
BRANCH  21  23
HETATM   23  N5  UNL     1       8.350  -0.401   0.477  1.00  0.00     0.093 N 
HETATM   24  C17 UNL     1       8.589   1.001   0.643  1.00  0.00     0.273 C 
HETATM   25  C18 UNL     1       8.837   1.785  -0.581  1.00  0.00     0.030 C 
HETATM   26  C19 UNL     1      10.062   1.313  -1.321  1.00  0.00     0.003 C 
HETATM   27  C20 UNL     1      10.350  -0.122  -0.836  1.00  0.00     0.030 C 
HETATM   28  C21 UNL     1       9.086  -0.868  -0.745  1.00  0.00     0.273 C 
ENDBRANCH  21  23
ENDBRANCH  14  15
ENDBRANCH   9  14
ENDBRANCH   8   9
BRANCH   1  29
HETATM   29  C5  UNL     1      -3.904  -0.091  -0.360  1.00  0.00     0.160 C 
BRANCH  29  30
HETATM   30  C4  UNL     1      -4.389  -0.255  -1.772  1.00  0.00     0.026 C 
BRANCH  30  31
HETATM   31  C2  UNL     1      -4.491   0.842  -2.728  1.00  0.00     0.003 C 
HETATM   32  C1  UNL     1      -3.115   1.343  -3.150  1.00  0.00     0.013 C 
HETATM   33  C3  UNL     1      -5.253   0.441  -3.956  1.00  0.00     0.013 C 
ENDBRANCH  30  31
ENDBRANCH  29  30
BRANCH  29  34
HETATM   34  C24 UNL     1      -4.913  -0.579   0.613  1.00  0.00     0.180 C 
BRANCH  34  35
HETATM   35  O3  UNL     1      -4.539  -1.360   1.592  1.00  0.00    -0.344 OA
ATOM     36  H3  UNL     1      -5.185  -1.672   2.215  1.00  0.00     0.219 HD
ENDBRANCH  34  35
BRANCH  34  37
HETATM   37  N6  UNL     1      -6.273  -0.278   0.592  1.00  0.00    -0.344 N 
HETATM   38  C25 UNL     1      -7.013   0.746  -0.072  1.00  0.00     0.135 C 
HETATM   39  C26 UNL     1      -7.944   1.235   1.087  1.00  0.00    -0.029 C 
HETATM   40  C27 UNL     1      -9.183   1.769   0.498  1.00  0.00     0.016 C 
HETATM   41  C28 UNL     1      -7.185   2.255   1.869  1.00  0.00     0.016 C 
HETATM   42  C29 UNL     1      -8.164  -0.059   1.859  1.00  0.00     0.046 C 
HETATM   43  C30 UNL     1      -7.289  -1.134   1.252  1.00  0.00     0.188 C 
BRANCH  43  44
HETATM   44  C31 UNL     1      -8.086  -1.850   0.217  1.00  0.00     0.196 C 
HETATM   45  O4  UNL     1      -7.791  -1.924  -0.973  1.00  0.00    -0.646 OA
HETATM   46  O5  UNL     1      -9.261  -2.461   0.690  1.00  0.00    -0.646 OA
ENDBRANCH  43  44
ENDBRANCH  34  37
ENDBRANCH  29  34
ENDBRANCH   1  29
TORSDOF 12
