REMARK  14 active torsions:
REMARK  status: ('A' for Active; 'I' for Inactive)
REMARK    1  A    between atoms: C2_2  and  C4_4 
REMARK    2  A    between atoms: C4_4  and  C5_6 
REMARK    3  A    between atoms: C5_6  and  C6_7 
REMARK    4  A    between atoms: C5_6  and  N1_12 
REMARK    5  A    between atoms: C7_8  and  C8_9 
REMARK       I    between atoms: N1_12  and  C11_14 
REMARK    6  A    between atoms: C11_14  and  C12_16 
REMARK    7  A    between atoms: N2_20  and  C16_21 
REMARK    8  A    between atoms: C16_21  and  O3_22 
REMARK    9  A    between atoms: C16_21  and  C17_24 
REMARK   10  A    between atoms: C17_24  and  N3_25 
REMARK   11  A    between atoms: C17_24  and  C29_44 
REMARK       I    between atoms: N3_25  and  C18_27 
REMARK   12  A    between atoms: C18_27  and  C19_29 
REMARK   13  A    between atoms: C19_29  and  N4_30 
REMARK   14  A    between atoms: C19_29  and  C25_40 
REMARK       I    between atoms: N4_30  and  C20_32 
REMARK       I    between atoms: C20_32  and  N5_34 
ROOT
HETATM    1  C17 UNL     1       0.883  -0.595  -0.648  1.00  0.00     0.166 C 
ENDROOT
BRANCH   1   2
HETATM    2  C16 UNL     1       0.068  -1.736  -0.221  1.00  0.00     0.138 C 
BRANCH   2   3
HETATM    3  N2  UNL     1      -1.087  -1.679   0.539  1.00  0.00    -0.350 N 
HETATM    4  C12 UNL     1      -1.807  -0.569   1.095  1.00  0.00     0.178 C 
HETATM    5  C13 UNL     1      -2.080  -1.033   2.545  1.00  0.00     0.037 C 
HETATM    6  C14 UNL     1      -2.298  -2.530   2.385  1.00  0.00     0.022 C 
HETATM    7  C15 UNL     1      -1.805  -2.889   1.024  1.00  0.00     0.126 C 
BRANCH   4   8
HETATM    8  C11 UNL     1      -3.159  -0.428   0.497  1.00  0.00     0.241 C 
HETATM    9  N1  UNL     1      -4.133   0.406   1.099  1.00  0.00    -0.344 N 
ATOM     10  H1  UNL     1      -3.918   0.914   1.957  1.00  0.00     0.163 HD
HETATM   11  O2  UNL     1      -3.421  -1.072  -0.561  1.00  0.00    -0.271 OA
BRANCH   9  12
HETATM   12  C5  UNL     1      -5.481   0.534   0.463  1.00  0.00     0.182 C 
BRANCH  12  13
HETATM   13  C4  UNL     1      -6.376  -0.392   1.240  1.00  0.00     0.180 C 
HETATM   14  O1  UNL     1      -6.320  -0.264   2.509  1.00  0.00    -0.290 OA
BRANCH  13  15
HETATM   15  C2  UNL     1      -7.241  -1.368   0.666  1.00  0.00    -0.023 C 
HETATM   16  C1  UNL     1      -7.376  -1.653  -0.598  1.00  0.00     0.022 C 
HETATM   17  C3  UNL     1      -8.124  -2.175   1.601  1.00  0.00     0.051 C 
ENDBRANCH  13  15
ENDBRANCH  12  13
BRANCH  12  18
HETATM   18  C6  UNL     1      -5.841   1.955   0.701  1.00  0.00     0.002 C 
HETATM   19  C7  UNL     1      -7.100   2.579   0.362  1.00  0.00    -0.024 C 
BRANCH  19  20
HETATM   20  C8  UNL     1      -7.471   2.895  -1.032  1.00  0.00    -0.001 C 
HETATM   21  C9  UNL     1      -8.868   3.556  -1.019  1.00  0.00     0.013 C 
HETATM   22  C10 UNL     1      -7.504   1.800  -2.020  1.00  0.00     0.013 C 
ENDBRANCH  19  20
ENDBRANCH  12  18
ENDBRANCH   9  12
ENDBRANCH   4   8
ENDBRANCH   2   3
BRANCH   2  23
HETATM   23  O3  UNL     1       0.474  -2.931  -0.580  1.00  0.00    -0.348 OA
ATOM     24  H3  UNL     1       1.267  -2.970  -1.102  1.00  0.00     0.219 HD
ENDBRANCH   2  23
ENDBRANCH   1   2
BRANCH   1  25
HETATM   25  N3  UNL     1       2.264  -0.971  -0.367  1.00  0.00    -0.347 N 
HETATM   26  C18 UNL     1       3.216  -0.137   0.217  1.00  0.00     0.241 C 
HETATM   27  O4  UNL     1       2.932   1.014   0.523  1.00  0.00    -0.271 OA
ATOM     28  H3  UNL     1       2.555  -1.916  -0.617  1.00  0.00     0.163 HD
BRANCH  26  29
HETATM   29  C19 UNL     1       4.579  -0.635   0.473  1.00  0.00     0.185 C 
BRANCH  29  30
HETATM   30  N4  UNL     1       5.609   0.393   0.240  1.00  0.00    -0.329 N 
HETATM   31  C20 UNL     1       6.693   0.109  -0.642  1.00  0.00     0.319 C 
HETATM   32  O5  UNL     1       6.700  -1.051  -1.178  1.00  0.00    -0.247 OA
HETATM   33  N5  UNL     1       7.738   0.983  -0.966  1.00  0.00    -0.330 N 
HETATM   34  C21 UNL     1       8.798   0.552  -1.869  1.00  0.00     0.153 C 
HETATM   35  C24 UNL     1       7.877   2.340  -0.472  1.00  0.00     0.153 C 
HETATM   36  C22 UNL     1      10.084   1.127  -1.263  1.00  0.00     0.187 C 
HETATM   37  O6  UNL     1      10.079   2.480  -1.486  1.00  0.00    -0.388 OA
HETATM   38  C23 UNL     1       8.875   3.112  -1.321  1.00  0.00     0.187 C 
ATOM     39  H4  UNL     1       5.547   1.299   0.705  1.00  0.00     0.165 HD
ENDBRANCH  29  30
BRANCH  29  40
HETATM   40  C25 UNL     1       4.783  -1.107   1.886  1.00  0.00    -0.022 C 
HETATM   41  C26 UNL     1       6.209  -1.591   2.012  1.00  0.00     0.017 C 
HETATM   42  C27 UNL     1       4.586   0.020   2.870  1.00  0.00     0.017 C 
HETATM   43  C28 UNL     1       3.892  -2.264   2.266  1.00  0.00     0.017 C 
ENDBRANCH  29  40
ENDBRANCH  26  29
ENDBRANCH   1  25
BRANCH   1  44
HETATM   44  C29 UNL     1       0.704  -0.305  -2.105  1.00  0.00    -0.023 C 
HETATM   45  C30 UNL     1       1.073  -1.505  -2.948  1.00  0.00     0.017 C 
HETATM   46  C31 UNL     1      -0.678   0.142  -2.404  1.00  0.00     0.017 C 
HETATM   47  C32 UNL     1       1.624   0.842  -2.547  1.00  0.00     0.017 C 
ENDBRANCH   1  44
TORSDOF 14
