REMARK  2 active torsions:
REMARK  status: ('A' for Active; 'I' for Inactive)
REMARK    1  A    between atoms: N3_4  and  N4_6 
REMARK       I    between atoms: C2_8  and  N6_10 
REMARK    2  A    between atoms: N6_10  and  C3_12 
ROOT
HETATM    1  N4  UNL     1      -0.722  -0.599   0.780  1.00  0.00    -0.271 N 
ATOM      2  H4  UNL     1      -0.523   0.097   1.498  1.00  0.00     0.189 HD
HETATM    3  C2  UNL     1       0.149  -1.506   0.511  1.00  0.00     0.221 C 
HETATM    4  N5  UNL     1      -0.027  -2.513  -0.463  1.00  0.00    -0.061 NA
HETATM    5  N6  UNL     1       1.350  -1.457   1.262  1.00  0.00    -0.159 N 
ATOM      6  H6  UNL     1       1.543  -2.126   2.007  1.00  0.00     0.187 HD
ENDROOT
BRANCH   5   7
HETATM    7  C3  UNL     1       2.200  -0.509   0.952  1.00  0.00     0.716 A 
HETATM    8  N7  UNL     1       3.386  -0.294   1.540  1.00  0.00    -0.115 N 
HETATM    9  N8  UNL     1       3.947   0.745   0.954  1.00  0.00    -0.213 N 
ATOM     10  H7  UNL     1       3.784  -0.838   2.305  1.00  0.00     0.207 HD
HETATM   11  N9  UNL     1       3.153   1.200   0.009  1.00  0.00    -0.213 N 
ATOM     12  H8  UNL     1       4.857   1.136   1.196  1.00  0.00     0.210 HD
HETATM   13  N10 UNL     1       2.086   0.436   0.005  1.00  0.00    -0.115 N 
ATOM     14  H9  UNL     1       3.333   1.995  -0.604  1.00  0.00     0.210 HD
ATOM     15  H10 UNL     1       1.290   0.544  -0.623  1.00  0.00     0.207 HD
ENDBRANCH   5   7
BRANCH   1  16
HETATM   16  N3  UNL     1      -1.930  -0.561   0.100  1.00  0.00    -0.274 N 
HETATM   17  C1  UNL     1      -2.338   0.560  -0.374  1.00  0.00     0.215 C 
HETATM   18  N1  UNL     1      -1.549   1.716  -0.190  1.00  0.00    -0.065 NA
HETATM   19  N2  UNL     1      -3.574   0.547  -1.058  1.00  0.00    -0.065 NA
ATOM     20  H3  UNL     1      -2.484  -1.409  -0.021  1.00  0.00     0.189 HD
ENDBRANCH   1  16
TORSDOF 2
