REMARK  1 active torsions:
REMARK  status: ('A' for Active; 'I' for Inactive)
REMARK    1  A    between atoms: C6_13  and  C7_14 
ROOT
HETATM    1  C1  UNL     1      -0.555   2.092   0.337  1.00  0.00     0.045 C 
HETATM    2  C2  UNL     1       0.168   1.085  -0.011  1.00  0.00     0.055 C 
HETATM    3  N1  UNL     1       1.375   1.340  -0.593  1.00  0.00    -0.319 N 
ATOM      4  H1  UNL     1       1.473   2.245  -1.053  1.00  0.00     0.169 HD
HETATM    5  C3  UNL     1       2.468   0.520  -0.630  1.00  0.00     0.302 C 
HETATM    6  O1  UNL     1       3.424   0.901  -1.315  1.00  0.00    -0.264 OA
HETATM    7  C4  UNL     1       2.628  -0.698   0.013  1.00  0.00     0.306 C 
HETATM    8  O2  UNL     1       3.752  -1.248  -0.047  1.00  0.00    -0.276 OA
HETATM    9  C5  UNL     1       1.698  -1.425   0.740  1.00  0.00     0.302 C 
HETATM   10  O3  UNL     1       2.101  -2.376   1.457  1.00  0.00    -0.264 OA
HETATM   11  N2  UNL     1       0.344  -1.204   0.757  1.00  0.00    -0.316 N 
ATOM     12  H2  UNL     1      -0.213  -1.916   1.230  1.00  0.00     0.169 HD
HETATM   13  C6  UNL     1      -0.358  -0.162   0.228  1.00  0.00     0.100 C 
ENDROOT
BRANCH  13  14
HETATM   14  C7  UNL     1      -1.614  -0.386  -0.106  1.00  0.00     0.157 C 
HETATM   15  N3  UNL     1      -2.130  -1.702   0.166  1.00  0.00    -0.084 NA
HETATM   16  N4  UNL     1      -2.501   0.495  -0.732  1.00  0.00    -0.084 NA
ENDBRANCH  13  14
TORSDOF 1
