REMARK  14 active torsions:
REMARK  status: ('A' for Active; 'I' for Inactive)
REMARK       I    between atoms: C2_2  and  N1_4 
REMARK    1  A    between atoms: C5_7  and  C6_8 
REMARK    2  A    between atoms: C6_8  and  C7_9 
REMARK    3  A    between atoms: C7_9  and  N2_10 
REMARK    4  A    between atoms: C7_9  and  C23_33 
REMARK       I    between atoms: N2_10  and  C8_12 
REMARK    5  A    between atoms: C8_12  and  C9_14 
REMARK    6  A    between atoms: C11_16  and  C12_17 
REMARK    7  A    between atoms: C12_17  and  C13_18 
REMARK    8  A    between atoms: C13_18  and  C14_19 
REMARK       I    between atoms: C14_19  and  N3_21 
REMARK    9  A    between atoms: N3_21  and  C15_23 
REMARK   10  A    between atoms: C23_33  and  O5_34 
REMARK   11  A    between atoms: C23_33  and  N5_36 
REMARK   12  A    between atoms: C28_41  and  C29_42 
REMARK       I    between atoms: C29_42  and  N6_44 
REMARK   13  A    between atoms: N6_44  and  C30_46 
REMARK   14  A    between atoms: C30_46  and  C31_47 
ROOT
HETATM    1  C7  UNL     1      -1.812   1.215  -1.743  1.00  0.00     0.082 C 
ENDROOT
BRANCH   1   2
HETATM    2  C6  UNL     1      -1.642   2.629  -1.453  1.00  0.00     0.012 C 
BRANCH   2   3
HETATM    3  C5  UNL     1      -0.950   3.150  -0.270  1.00  0.00     0.013 C 
HETATM    4  C4  UNL     1      -1.548   2.815   1.070  1.00  0.00     0.028 C 
HETATM    5  C3  UNL     1      -2.599   3.829   1.486  1.00  0.00     0.126 C 
HETATM    6  N1  UNL     1      -1.826   5.028   1.852  1.00  0.00    -0.352 N 
HETATM    7  C2  UNL     1      -2.175   5.857   2.934  1.00  0.00     0.215 C 
HETATM    8  C35 UNL     1      -0.674   5.274   0.998  1.00  0.00     0.126 C 
HETATM    9  C1  UNL     1      -3.360   5.565   3.788  1.00  0.00     0.117 C 
HETATM   10  O1  UNL     1      -1.465   6.866   3.178  1.00  0.00    -0.274 OA
HETATM   11  C34 UNL     1      -0.976   4.687  -0.351  1.00  0.00     0.028 C 
ENDBRANCH   2   3
ENDBRANCH   1   2
BRANCH   1  12
HETATM   12  N2  UNL     1      -0.601   0.463  -1.928  1.00  0.00    -0.323 N 
HETATM   13  C8  UNL     1       0.333  -0.077  -1.075  1.00  0.00     0.228 C 
HETATM   14  O2  UNL     1       0.296   0.023   0.152  1.00  0.00    -0.273 OA
ATOM     15  H2  UNL     1      -0.387   0.292  -2.910  1.00  0.00     0.169 HD
BRANCH  13  16
HETATM   16  C9  UNL     1       1.522  -0.872  -1.587  1.00  0.00     0.102 C 
HETATM   17  C10 UNL     1       2.464  -1.222  -0.517  1.00  0.00     0.030 C 
HETATM   18  C11 UNL     1       3.782  -0.514  -0.443  1.00  0.00     0.079 C 
HETATM   19  C18 UNL     1       4.248  -0.087  -1.762  1.00  0.00     0.224 C 
HETATM   20  O4  UNL     1       5.305   0.606  -1.949  1.00  0.00    -0.273 OA
HETATM   21  N4  UNL     1       3.519  -0.435  -2.931  1.00  0.00    -0.346 N 
HETATM   22  C19 UNL     1       3.905  -0.897  -4.266  1.00  0.00     0.126 C 
HETATM   23  C22 UNL     1       2.070  -0.324  -2.859  1.00  0.00     0.100 C 
HETATM   24  C20 UNL     1       2.776  -1.903  -4.516  1.00  0.00     0.022 C 
HETATM   25  C21 UNL     1       1.586  -1.083  -4.090  1.00  0.00     0.028 C 
BRANCH  18  26
HETATM   26  C12 UNL     1       4.762  -1.448   0.199  1.00  0.00     0.023 C 
BRANCH  26  27
HETATM   27  C13 UNL     1       6.160  -0.929   0.357  1.00  0.00     0.103 C 
BRANCH  27  28
HETATM   28  C14 UNL     1       7.013  -1.951   1.056  1.00  0.00     0.217 C 
HETATM   29  O3  UNL     1       6.481  -2.965   1.539  1.00  0.00    -0.274 OA
HETATM   30  N3  UNL     1       8.412  -1.771   1.166  1.00  0.00    -0.356 N 
ATOM     31  H3  UNL     1       8.839  -0.937   0.762  1.00  0.00     0.162 HD
BRANCH  30  32
HETATM   32  C15 UNL     1       9.253  -2.737   1.836  1.00  0.00     0.084 A 
HETATM   33  C16 UNL     1      10.409  -3.268   0.935  1.00  0.00     0.027 A 
HETATM   34  C17 UNL     1      10.632  -2.382   2.153  1.00  0.00     0.027 A 
ENDBRANCH  30  32
ENDBRANCH  27  28
ENDBRANCH  26  27
ENDBRANCH  18  26
ENDBRANCH  13  16
ENDBRANCH   1  12
BRANCH   1  35
HETATM   35  C23 UNL     1      -2.736   0.382  -0.956  1.00  0.00     0.166 C 
BRANCH  35  36
HETATM   36  O5  UNL     1      -2.251  -0.718  -0.453  1.00  0.00    -0.344 OA
ATOM     37  H5  UNL     1      -2.847  -1.256   0.055  1.00  0.00     0.219 HD
ENDBRANCH  35  36
BRANCH  35  38
HETATM   38  N5  UNL     1      -4.085   0.568  -0.651  1.00  0.00    -0.347 N 
HETATM   39  C24 UNL     1      -4.810   1.690  -1.235  1.00  0.00     0.126 C 
HETATM   40  C25 UNL     1      -6.235   1.165  -1.493  1.00  0.00     0.020 C 
HETATM   41  C26 UNL     1      -6.171  -0.289  -1.887  1.00  0.00     0.004 C 
HETATM   42  C27 UNL     1      -5.667  -1.182  -0.749  1.00  0.00     0.035 C 
HETATM   43  C28 UNL     1      -4.885  -0.287   0.193  1.00  0.00     0.178 C 
BRANCH  43  44
HETATM   44  C29 UNL     1      -4.258  -0.951   1.313  1.00  0.00     0.240 C 
HETATM   45  O6  UNL     1      -3.342  -0.459   1.999  1.00  0.00    -0.271 OA
HETATM   46  N6  UNL     1      -4.685  -2.279   1.702  1.00  0.00    -0.359 N 
ATOM     47  H6  UNL     1      -5.427  -2.760   1.194  1.00  0.00     0.162 HD
BRANCH  46  48
HETATM   48  C30 UNL     1      -4.031  -2.905   2.830  1.00  0.00     0.127 C 
BRANCH  48  49
HETATM   49  C31 UNL     1      -4.504  -4.278   3.155  1.00  0.00     0.003 A 
HETATM   50  C32 UNL     1      -4.307  -5.278   1.991  1.00  0.00     0.007 A 
HETATM   51  C33 UNL     1      -5.653  -4.943   2.540  1.00  0.00     0.007 A 
ENDBRANCH  48  49
ENDBRANCH  46  48
ENDBRANCH  43  44
ENDBRANCH  35  38
ENDBRANCH   1  35
TORSDOF 14
