REMARK  14 active torsions:
REMARK  status: ('A' for Active; 'I' for Inactive)
REMARK    1  A    between atoms: C3_3  and  C4_4 
REMARK    2  A    between atoms: C3_3  and  C28_43 
REMARK    3  A    between atoms: C4_4  and  N1_5 
REMARK    4  A    between atoms: C16_26  and  O4_27 
REMARK    5  A    between atoms: C17_29  and  C18_30 
REMARK    6  A    between atoms: C18_30  and  C19_31 
REMARK    7  A    between atoms: C23_38  and  C24_39 
REMARK    8  A    between atoms: C24_39  and  C25_40 
REMARK    9  A    between atoms: C28_43  and  O6_44 
REMARK   10  A    between atoms: C28_43  and  N7_46 
REMARK   11  A    between atoms: N7_46  and  C29_47 
REMARK   12  A    between atoms: N7_46  and  C32_50 
REMARK   13  A    between atoms: C29_47  and  C30_48 
REMARK   14  A    between atoms: C32_50  and  C33_51 
ROOT
HETATM    1  C1  UNL     1       2.020   2.184  -3.114  1.00  0.00     0.013 C 
HETATM    2  C2  UNL     1       2.551   1.847  -2.088  1.00  0.00    -0.103 C 
HETATM    3  C3  UNL     1       3.248   1.412  -0.824  1.00  0.00     0.153 C 
ENDROOT
BRANCH   3   4
HETATM    4  C4  UNL     1       2.696   0.069  -0.453  1.00  0.00     0.140 C 
BRANCH   4   5
HETATM    5  N1  UNL     1       1.241   0.134  -0.255  1.00  0.00    -0.213 NA
HETATM    6  N2  UNL     1       1.058   1.007   0.826  1.00  0.00    -0.287 N 
HETATM    7  C5  UNL     1       0.300   2.152   0.916  1.00  0.00     0.254 C 
ATOM      8  H2  UNL     1       1.564   0.755   1.675  1.00  0.00     0.184 HD
HETATM    9  O1  UNL     1       0.833   3.196   1.440  1.00  0.00    -0.270 OA
HETATM   10  C6  UNL     1      -1.115   2.390   0.481  1.00  0.00     0.174 C 
HETATM   11  C7  UNL     1      -0.973   3.461  -0.614  1.00  0.00     0.042 C 
HETATM   12  N3  UNL     1      -1.890   2.976   1.562  1.00  0.00    -0.346 N 
HETATM   13  C8  UNL     1      -3.284   2.966   1.750  1.00  0.00     0.240 C 
ATOM     14  H3  UNL     1      -1.351   3.459   2.281  1.00  0.00     0.163 HD
HETATM   15  O2  UNL     1      -3.668   2.461   2.875  1.00  0.00    -0.271 OA
HETATM   16  C9  UNL     1      -4.353   3.438   0.880  1.00  0.00     0.174 C 
HETATM   17  C10 UNL     1      -4.109   4.908   0.479  1.00  0.00     0.042 C 
HETATM   18  N4  UNL     1      -4.723   2.619  -0.248  1.00  0.00    -0.342 N 
HETATM   19  C11 UNL     1      -5.074   3.435  -1.448  1.00  0.00     0.153 C 
HETATM   20  C12 UNL     1      -4.793   1.216  -0.347  1.00  0.00     0.242 C 
HETATM   21  O3  UNL     1      -4.271   0.797  -1.446  1.00  0.00    -0.271 OA
HETATM   22  C13 UNL     1      -5.327   0.180   0.525  1.00  0.00     0.173 C 
HETATM   23  C14 UNL     1      -6.538   0.695   1.323  1.00  0.00     0.042 C 
HETATM   24  N5  UNL     1      -4.428  -0.604   1.323  1.00  0.00    -0.355 N 
HETATM   25  C15 UNL     1      -4.971  -0.913   2.685  1.00  0.00     0.152 C 
HETATM   26  C16 UNL     1      -3.176  -1.125   1.075  1.00  0.00     0.137 C 
HETATM   27  C17 UNL     1      -2.610  -2.053   0.068  1.00  0.00     0.159 C 
HETATM   28  N6  UNL     1      -1.628  -1.514  -0.808  1.00  0.00    -0.348 N 
HETATM   29  C22 UNL     1      -0.254  -1.548  -0.863  1.00  0.00     0.237 C 
ATOM     30  H6  UNL     1      -2.037  -0.978  -1.573  1.00  0.00     0.163 HD
HETATM   31  O5  UNL     1       0.263  -1.966  -1.975  1.00  0.00    -0.272 OA
HETATM   32  C23 UNL     1       0.769  -1.176   0.156  1.00  0.00     0.172 C 
BRANCH  26  33
HETATM   33  O4  UNL     1      -2.283  -0.709   1.924  1.00  0.00    -0.348 OA
ATOM     34  H4  UNL     1      -1.420  -1.068   1.753  1.00  0.00     0.219 HD
ENDBRANCH  26  33
BRANCH  27  35
HETATM   35  C18 UNL     1      -3.699  -2.820  -0.682  1.00  0.00     0.037 C 
BRANCH  35  36
HETATM   36  C19 UNL     1      -3.158  -3.780  -1.703  1.00  0.00    -0.020 C 
HETATM   37  C20 UNL     1      -4.405  -4.423  -2.345  1.00  0.00     0.009 C 
HETATM   38  C21 UNL     1      -2.446  -4.894  -0.991  1.00  0.00     0.009 C 
ENDBRANCH  35  36
ENDBRANCH  27  35
BRANCH  32  39
HETATM   39  C24 UNL     1       1.834  -2.261   0.046  1.00  0.00     0.035 C 
BRANCH  39  40
HETATM   40  C25 UNL     1       1.225  -3.578   0.530  1.00  0.00    -0.021 C 
HETATM   41  C26 UNL     1       0.785  -3.442   1.980  1.00  0.00     0.009 C 
HETATM   42  C27 UNL     1       2.337  -4.606   0.523  1.00  0.00     0.009 C 
ENDBRANCH  39  40
ENDBRANCH  32  39
ENDBRANCH   4   5
ENDBRANCH   3   4
BRANCH   3  43
HETATM   43  C28 UNL     1       4.667   1.337  -1.162  1.00  0.00     0.130 C 
BRANCH  43  44
HETATM   44  O6  UNL     1       4.892   1.481  -2.473  1.00  0.00    -0.348 OA
ATOM     45  H6  UNL     1       5.815   1.432  -2.693  1.00  0.00     0.219 HD
ENDBRANCH  43  44
BRANCH  43  46
HETATM   46  N7  UNL     1       5.817   1.150  -0.385  1.00  0.00    -0.364 N 
BRANCH  46  47
HETATM   47  C29 UNL     1       5.774   0.980   1.039  1.00  0.00     0.124 C 
BRANCH  47  48
HETATM   48  C30 UNL     1       5.793   2.245   1.847  1.00  0.00     0.015 C 
HETATM   49  C31 UNL     1       6.977   3.123   1.662  1.00  0.00     0.006 C 
ENDBRANCH  47  48
ENDBRANCH  46  47
BRANCH  46  50
HETATM   50  C32 UNL     1       7.111   1.123  -1.069  1.00  0.00     0.124 C 
BRANCH  50  51
HETATM   51  C33 UNL     1       7.589  -0.203  -1.499  1.00  0.00     0.015 C 
HETATM   52  C34 UNL     1       6.776  -0.967  -2.477  1.00  0.00     0.006 C 
ENDBRANCH  50  51
ENDBRANCH  46  50
ENDBRANCH  43  46
ENDBRANCH   3  43
TORSDOF 14
