REMARK  14 active torsions:
REMARK  status: ('A' for Active; 'I' for Inactive)
REMARK    1  A    between atoms: C3_3  and  N1_4 
REMARK       I    between atoms: N1_4  and  C4_6 
REMARK    2  A    between atoms: C4_6  and  C5_8 
REMARK    3  A    between atoms: C5_8  and  N2_9 
REMARK    4  A    between atoms: C5_8  and  C33_47 
REMARK       I    between atoms: N2_9  and  C6_11 
REMARK    5  A    between atoms: C6_11  and  C7_13 
REMARK       I    between atoms: N3_17  and  C11_18 
REMARK    6  A    between atoms: C11_18  and  C12_20 
REMARK       I    between atoms: N4_23  and  C15_24 
REMARK    7  A    between atoms: C15_24  and  C16_26 
REMARK    8  A    between atoms: C16_26  and  N5_27 
REMARK    9  A    between atoms: C16_26  and  C29_43 
REMARK       I    between atoms: N5_27  and  C17_29 
REMARK   10  A    between atoms: C17_29  and  C18_31 
REMARK   11  A    between atoms: C18_31  and  C19_32 
REMARK   12  A    between atoms: C19_32  and  N6_33 
REMARK   13  A    between atoms: C25_39  and  C26_40 
REMARK   14  A    between atoms: C26_40  and  C27_41 
ROOT
HETATM    1  C1  UNL     1       7.635   4.731   1.448  1.00  0.00     0.014 C 
HETATM    2  C2  UNL     1       8.150   3.718   1.816  1.00  0.00    -0.098 C 
HETATM    3  C3  UNL     1       8.800   2.474   2.247  1.00  0.00     0.216 C 
ENDROOT
BRANCH   3   4
HETATM    4  N1  UNL     1       8.925   1.587   1.088  1.00  0.00    -0.349 N 
HETATM    5  C4  UNL     1       7.791   1.131   0.372  1.00  0.00     0.241 C 
HETATM    6  O1  UNL     1       6.661   1.524   0.797  1.00  0.00    -0.271 OA
ATOM      7  H1  UNL     1       9.854   1.290   0.788  1.00  0.00     0.163 HD
BRANCH   5   8
HETATM    8  C5  UNL     1       7.928   0.252  -0.790  1.00  0.00     0.184 C 
BRANCH   8   9
HETATM    9  N2  UNL     1       6.640  -0.329  -1.200  1.00  0.00    -0.345 N 
HETATM   10  C6  UNL     1       6.464  -1.714  -1.325  1.00  0.00     0.241 C 
HETATM   11  O2  UNL     1       7.461  -2.464  -1.063  1.00  0.00    -0.271 OA
ATOM     12  H2  UNL     1       5.855   0.292  -1.398  1.00  0.00     0.163 HD
BRANCH  10  13
HETATM   13  C7  UNL     1       5.235  -2.347  -1.737  1.00  0.00     0.179 C 
HETATM   14  C8  UNL     1       4.725  -1.745  -3.060  1.00  0.00     0.037 C 
HETATM   15  C9  UNL     1       3.240  -1.976  -3.010  1.00  0.00     0.022 C 
HETATM   16  C10 UNL     1       3.015  -2.794  -1.728  1.00  0.00     0.127 C 
HETATM   17  N3  UNL     1       4.077  -2.250  -0.912  1.00  0.00    -0.338 N 
HETATM   18  C11 UNL     1       3.962  -1.801   0.397  1.00  0.00     0.226 C 
HETATM   19  O3  UNL     1       5.062  -1.435   0.966  1.00  0.00    -0.273 OA
BRANCH  18  20
HETATM   20  C12 UNL     1       2.768  -1.677   1.243  1.00  0.00     0.097 C 
HETATM   21  C13 UNL     1       2.007  -2.949   1.454  1.00  0.00     0.035 C 
HETATM   22  C14 UNL     1       0.530  -2.633   1.337  1.00  0.00     0.127 C 
HETATM   23  N4  UNL     1       0.423  -1.215   1.144  1.00  0.00    -0.350 N 
HETATM   24  C15 UNL     1      -0.755  -0.444   1.338  1.00  0.00     0.243 C 
HETATM   25  C32 UNL     1       1.736  -0.720   0.717  1.00  0.00     0.139 C 
HETATM   26  O4  UNL     1      -0.672   0.789   1.055  1.00  0.00    -0.271 OA
BRANCH  24  27
HETATM   27  C16 UNL     1      -2.045  -0.959   1.831  1.00  0.00     0.180 C 
BRANCH  27  28
HETATM   28  N5  UNL     1      -3.061   0.087   1.594  1.00  0.00    -0.347 N 
HETATM   29  C17 UNL     1      -4.258  -0.212   0.903  1.00  0.00     0.219 C 
HETATM   30  O5  UNL     1      -4.431  -1.401   0.498  1.00  0.00    -0.274 OA
ATOM     31  H5  UNL     1      -2.897   1.035   1.932  1.00  0.00     0.163 HD
BRANCH  29  32
HETATM   32  C18 UNL     1      -5.329   0.773   0.620  1.00  0.00     0.130 C 
BRANCH  32  33
HETATM   33  C19 UNL     1      -6.473   0.136  -0.129  1.00  0.00     0.246 C 
BRANCH  33  34
HETATM   34  N6  UNL     1      -7.527   1.063  -0.413  1.00  0.00    -0.066 N 
HETATM   35  C20 UNL     1      -7.951   1.846   0.730  1.00  0.00     0.273 C 
HETATM   36  C21 UNL     1      -6.934   2.053  -1.338  1.00  0.00     0.237 C 
HETATM   37  C22 UNL     1      -8.057   2.815  -2.000  1.00  0.00     0.028 C 
HETATM   38  C23 UNL     1      -8.697   1.936  -3.078  1.00  0.00     0.004 C 
HETATM   39  C24 UNL     1      -8.449   0.512  -2.629  1.00  0.00     0.034 C 
HETATM   40  C25 UNL     1      -8.630   0.507  -1.116  1.00  0.00     0.193 C 
BRANCH  40  41
HETATM   41  C26 UNL     1      -9.092  -0.847  -0.709  1.00  0.00     0.059 C 
BRANCH  41  42
HETATM   42  C27 UNL     1      -9.538  -0.947   0.690  1.00  0.00    -0.035 C 
HETATM   43  C28 UNL     1     -10.774  -1.298   0.978  1.00  0.00     0.007 C 
ENDBRANCH  41  42
ENDBRANCH  40  41
ENDBRANCH  33  34
ENDBRANCH  32  33
ENDBRANCH  29  32
ENDBRANCH  27  28
BRANCH  27  44
HETATM   44  C29 UNL     1      -1.946  -1.077   3.365  1.00  0.00     0.009 C 
HETATM   45  C30 UNL     1      -1.677   0.269   3.975  1.00  0.00     0.012 C 
HETATM   46  C31 UNL     1      -3.256  -1.593   3.949  1.00  0.00     0.012 C 
ENDBRANCH  27  44
ENDBRANCH  24  27
ENDBRANCH  18  20
ENDBRANCH  10  13
ENDBRANCH   8   9
BRANCH   8  47
HETATM   47  C33 UNL     1       8.424   1.020  -2.007  1.00  0.00    -0.022 C 
HETATM   48  C34 UNL     1       7.426   2.111  -2.297  1.00  0.00     0.017 C 
HETATM   49  C35 UNL     1       9.807   1.538  -1.805  1.00  0.00     0.017 C 
HETATM   50  C36 UNL     1       8.428   0.033  -3.179  1.00  0.00     0.017 C 
ENDBRANCH   8  47
ENDBRANCH   5   8
ENDBRANCH   3   4
TORSDOF 14
