REMARK  11 active torsions:
REMARK  status: ('A' for Active; 'I' for Inactive)
REMARK       I    between atoms: N1_2  and  C2_4 
REMARK    1  A    between atoms: C2_4  and  C3_6 
REMARK    2  A    between atoms: C4_8  and  C5_9 
REMARK    3  A    between atoms: C5_9  and  N2_10 
REMARK    4  A    between atoms: C5_9  and  N7_24 
REMARK    5  A    between atoms: N2_10  and  C6_12 
REMARK    6  A    between atoms: C9_20  and  N6_21 
REMARK    7  A    between atoms: N9_30  and  C12_31 
REMARK    8  A    between atoms: C12_31  and  O4_32 
REMARK    9  A    between atoms: C14_35  and  N10_36 
REMARK       I    between atoms: N10_36  and  C15_38 
REMARK       I    between atoms: C15_38  and  N11_39 
REMARK       I    between atoms: C15_38  and  N12_43 
REMARK   10  A    between atoms: C16_47  and  N13_48 
REMARK   11  A    between atoms: N13_48  and  O5_50 
ROOT
HETATM    1  C3  UNL     1       2.103  -0.526  -1.564  1.00  0.00     0.174 A 
HETATM    2  O2  UNL     1       0.822  -0.688  -1.303  1.00  0.00    -0.299 OA
HETATM    3  C4  UNL     1       0.276  -0.353  -0.150  1.00  0.00     0.124 A 
HETATM    4  C13 UNL     1       1.112   0.199   0.829  1.00  0.00     0.073 A 
HETATM    5  C14 UNL     1       2.453   0.389   0.608  1.00  0.00     0.065 A 
HETATM    6  C16 UNL     1       2.973   0.024  -0.610  1.00  0.00     0.120 A 
ENDROOT
BRANCH   3   7
HETATM    7  C5  UNL     1      -1.154  -0.573   0.060  1.00  0.00     0.163 C 
BRANCH   7   8
HETATM    8  N2  UNL     1      -1.985   0.517   0.404  1.00  0.00    -0.333 N 
ATOM      9  H2  UNL     1      -2.293   0.606   1.372  1.00  0.00     0.168 HD
BRANCH   8  10
HETATM   10  C6  UNL     1      -2.422   1.517  -0.555  1.00  0.00     0.119 A 
HETATM   11  C7  UNL     1      -1.876   2.747  -0.695  1.00  0.00     0.148 A 
HETATM   12  N3  UNL     1      -0.841   3.183   0.163  1.00  0.00    -0.080 NA
HETATM   13  N4  UNL     1      -2.297   3.631  -1.623  1.00  0.00    -0.339 N 
HETATM   14  C8  UNL     1      -3.283   3.292  -2.434  1.00  0.00     0.183 A 
ATOM     15  H4  UNL     1      -1.860   4.549  -1.697  1.00  0.00     0.167 HD
HETATM   16  N5  UNL     1      -3.861   2.065  -2.327  1.00  0.00    -0.337 N 
HETATM   17  C9  UNL     1      -3.468   1.171  -1.422  1.00  0.00     0.130 A 
ATOM     18  H5  UNL     1      -4.621   1.822  -2.962  1.00  0.00     0.168 HD
BRANCH  17  19
HETATM   19  N6  UNL     1      -4.015   0.028  -1.332  1.00  0.00    -0.384 N 
ATOM     20  H62 UNL     1      -3.714  -0.657  -0.639  1.00  0.00     0.157 HD
ATOM     21  H61 UNL     1      -4.776  -0.224  -1.963  1.00  0.00     0.157 HD
ENDBRANCH  17  19
ENDBRANCH   8  10
ENDBRANCH   7   8
BRANCH   7  22
HETATM   22  N7  UNL     1      -1.318  -1.804   0.765  1.00  0.00    -0.224 N 
HETATM   23  C10 UNL     1      -1.191  -3.021   0.159  1.00  0.00     0.213 A 
HETATM   24  N8  UNL     1      -1.358  -4.005   1.017  1.00  0.00    -0.302 N 
HETATM   25  C11 UNL     1      -1.597  -3.439   2.197  1.00  0.00     0.344 A 
ATOM     26  H8  UNL     1      -1.313  -5.004   0.817  1.00  0.00     0.171 HD
HETATM   27  O3  UNL     1      -1.808  -4.061   3.269  1.00  0.00    -0.245 OA
HETATM   28  N9  UNL     1      -1.567  -2.074   2.011  1.00  0.00    -0.209 N 
BRANCH  28  29
HETATM   29  C12 UNL     1      -1.774  -1.204   3.128  1.00  0.00     0.319 C 
BRANCH  29  30
HETATM   30  O4  UNL     1      -3.144  -0.944   3.381  1.00  0.00    -0.380 OA
ATOM     31  H4  UNL     1      -3.281  -0.366   4.123  1.00  0.00     0.211 HD
ENDBRANCH  29  30
ENDBRANCH  28  29
ENDBRANCH   7  22
ENDBRANCH   3   7
BRANCH   1  32
HETATM   32  C2  UNL     1       2.600  -0.931  -2.871  1.00  0.00     0.277 C 
HETATM   33  N1  UNL     1       1.726  -1.479  -3.818  1.00  0.00    -0.359 N 
HETATM   34  C1  UNL     1       2.187  -1.893  -5.130  1.00  0.00     0.149 C 
ATOM     35  H1  UNL     1       0.741  -1.590  -3.579  1.00  0.00     0.162 HD
HETATM   36  O1  UNL     1       3.818  -0.778  -3.124  1.00  0.00    -0.265 OA
ENDBRANCH   1  32
BRANCH   5  37
HETATM   37  N10 UNL     1       3.230   0.892   1.492  1.00  0.00    -0.339 N 
HETATM   38  C15 UNL     1       2.853   1.322   2.800  1.00  0.00     0.480 C 
HETATM   39  N11 UNL     1       2.541   2.749   2.847  1.00  0.00    -0.033 N 
HETATM   40  N12 UNL     1       3.989   1.127   3.683  1.00  0.00    -0.033 N 
ATOM     41 3H11 UNL     1       3.314   3.307   2.485  1.00  0.00     0.278 HD
ATOM     42 2H11 UNL     1       1.828   2.993   2.160  1.00  0.00     0.278 HD
ATOM     43 1H11 UNL     1       2.272   3.056   3.782  1.00  0.00     0.278 HD
ATOM     44 3H12 UNL     1       4.339   0.169   3.669  1.00  0.00     0.278 HD
ATOM     45 2H12 UNL     1       4.834   1.587   3.345  1.00  0.00     0.278 HD
ATOM     46 1H12 UNL     1       3.720   1.434   4.618  1.00  0.00     0.278 HD
ATOM     47  H10 UNL     1       4.212   0.995   1.238  1.00  0.00     0.163 HD
ENDBRANCH   5  37
BRANCH   6  48
HETATM   48  N13 UNL     1       4.351   0.181  -0.934  1.00  0.00    -0.264 N 
ATOM     49  H13 UNL     1       4.885  -0.609  -1.296  1.00  0.00     0.194 HD
BRANCH  48  50
HETATM   50  O5  UNL     1       4.901   1.285  -0.774  1.00  0.00    -0.289 OA
ATOM     51  H5  UNL     1       5.820   1.390  -0.990  1.00  0.00     0.244 HD
ENDBRANCH  48  50
ENDBRANCH   6  48
TORSDOF 11
