REMARK  10 active torsions:
REMARK  status: ('A' for Active; 'I' for Inactive)
REMARK    1  A    between atoms: C3_3  and  C4_4 
REMARK    2  A    between atoms: C15_18  and  C16_19 
REMARK    3  A    between atoms: C16_19  and  C17_20 
REMARK    4  A    between atoms: C17_20  and  C18_21 
REMARK    5  A    between atoms: C18_21  and  C19_22 
REMARK    6  A    between atoms: C19_22  and  N2_23 
REMARK    7  A    between atoms: C21_31  and  C22_32 
REMARK    8  A    between atoms: C22_32  and  C23_33 
REMARK    9  A    between atoms: C27_40  and  C28_41 
REMARK   10  A    between atoms: C28_41  and  C29_42 
ROOT
HETATM    1  C4  UNL     1      -3.661   0.131   0.087  1.00  0.00     0.107 C 
HETATM    2  C5  UNL     1      -3.621   1.174  -1.029  1.00  0.00     0.030 C 
HETATM    3  C6  UNL     1      -3.523   2.562  -0.486  1.00  0.00     0.010 C 
HETATM    4  C7  UNL     1      -2.897   3.455  -1.509  1.00  0.00     0.004 C 
HETATM    5  C8  UNL     1      -4.021   4.062  -2.355  1.00  0.00     0.014 C 
HETATM    6  C9  UNL     1      -2.069   4.544  -0.901  1.00  0.00    -0.020 C 
HETATM    7  C10 UNL     1      -0.837   4.349  -0.460  1.00  0.00    -0.087 C 
HETATM    8  C11 UNL     1      -0.096   5.488   0.127  1.00  0.00     0.043 C 
HETATM    9  C12 UNL     1      -0.183   3.026  -0.538  1.00  0.00     0.042 C 
HETATM   10  C13 UNL     1       1.305   3.046  -0.424  1.00  0.00     0.107 C 
HETATM   11  C14 UNL     1       1.680   2.124   0.672  1.00  0.00     0.218 C 
HETATM   12  O1  UNL     1       1.638   2.617   1.853  1.00  0.00    -0.274 OA
HETATM   13  N1  UNL     1       2.070   0.787   0.562  1.00  0.00    -0.348 N 
ATOM     14  H1  UNL     1       1.682   0.123   1.232  1.00  0.00     0.163 HD
HETATM   15  C15 UNL     1       2.996   0.272  -0.447  1.00  0.00     0.176 C 
HETATM   16  C20 UNL     1       3.177  -1.186  -0.394  1.00  0.00     0.241 C 
HETATM   17  O2  UNL     1       4.296  -1.668  -0.089  1.00  0.00    -0.271 OA
HETATM   18  N3  UNL     1       2.139  -2.121  -0.672  1.00  0.00    -0.346 N 
ATOM     19  H3  UNL     1       2.037  -2.904  -0.027  1.00  0.00     0.163 HD
HETATM   20  C21 UNL     1       1.222  -2.063  -1.778  1.00  0.00     0.177 C 
HETATM   21  C26 UNL     1      -0.050  -1.446  -1.176  1.00  0.00     0.244 C 
HETATM   22  O3  UNL     1      -0.337  -0.369  -1.752  1.00  0.00    -0.271 OA
HETATM   23  N4  UNL     1      -0.620  -2.140  -0.169  1.00  0.00    -0.324 N 
ATOM     24  H4  UNL     1       0.174  -2.490   0.367  1.00  0.00     0.169 HD
HETATM   25  C27 UNL     1      -1.599  -2.571   0.440  1.00  0.00     0.080 C 
HETATM   26  C32 UNL     1      -2.985  -2.344   0.040  1.00  0.00     0.264 C 
HETATM   27  O4  UNL     1      -3.755  -3.375   0.178  1.00  0.00    -0.266 OA
HETATM   28  N5  UNL     1      -3.575  -1.193  -0.462  1.00  0.00    -0.348 N 
ATOM     29  H5  UNL     1      -4.022  -1.306  -1.372  1.00  0.00     0.163 HD
ENDROOT
BRANCH  15  30
HETATM   30  C16 UNL     1       4.266   1.048  -0.444  1.00  0.00     0.035 C 
BRANCH  30  31
HETATM   31  C17 UNL     1       4.941   1.027   0.876  1.00  0.00     0.004 C 
BRANCH  31  32
HETATM   32  C18 UNL     1       6.246   1.845   0.855  1.00  0.00     0.027 C 
BRANCH  32  33
HETATM   33  C19 UNL     1       6.821   1.729   2.273  1.00  0.00     0.229 C 
BRANCH  33  34
HETATM   34  N2  UNL     1       8.064   2.466   2.375  1.00  0.00    -0.079 N 
ATOM     35  H23 UNL     1       8.738   2.175   1.667  1.00  0.00     0.274 HD
ATOM     36  H22 UNL     1       7.954   3.439   2.088  1.00  0.00     0.274 HD
ATOM     37  H21 UNL     1       8.446   2.389   3.318  1.00  0.00     0.274 HD
ENDBRANCH  33  34
ENDBRANCH  32  33
ENDBRANCH  31  32
ENDBRANCH  30  31
ENDBRANCH  15  30
BRANCH  20  38
HETATM   38  C22 UNL     1       0.896  -3.385  -2.375  1.00  0.00     0.038 C 
BRANCH  38  39
HETATM   39  C23 UNL     1       2.024  -4.158  -2.945  1.00  0.00    -0.020 C 
HETATM   40  C24 UNL     1       3.121  -4.545  -2.012  1.00  0.00     0.009 C 
HETATM   41  C25 UNL     1       2.650  -3.400  -4.118  1.00  0.00     0.009 C 
ENDBRANCH  38  39
ENDBRANCH  20  38
BRANCH  25  42
HETATM   42  C28 UNL     1      -1.401  -3.411   1.678  1.00  0.00     0.067 C 
BRANCH  42  43
HETATM   43  C29 UNL     1      -1.819  -2.871   2.964  1.00  0.00    -0.017 C 
HETATM   44  C30 UNL     1      -3.244  -2.538   3.210  1.00  0.00     0.010 C 
HETATM   45  C31 UNL     1      -1.464  -3.949   4.022  1.00  0.00     0.010 C 
ENDBRANCH  42  43
ENDBRANCH  25  42
BRANCH   1  46
HETATM   46  C3  UNL     1      -4.961   0.365   0.789  1.00  0.00    -0.006 C 
HETATM   47  C2  UNL     1      -6.055  -0.335   0.561  1.00  0.00    -0.033 C 
HETATM   48  C1  UNL     1      -7.292  -0.018   1.314  1.00  0.00     0.036 C 
ENDBRANCH   1  46
TORSDOF 10
