REMARK  12 active torsions:
REMARK  status: ('A' for Active; 'I' for Inactive)
REMARK    1  A    between atoms: C2_2  and  C3_3 
REMARK    2  A    between atoms: C3_3  and  C4_4 
REMARK    3  A    between atoms: C6_6  and  N1_7 
REMARK    4  A    between atoms: N1_7  and  C7_9 
REMARK    5  A    between atoms: C10_12  and  C11_13 
REMARK    6  A    between atoms: C11_13  and  C12_14 
REMARK    7  A    between atoms: N3_22  and  C16_24 
REMARK    8  A    between atoms: C19_27  and  N4_28 
REMARK       I    between atoms: N4_28  and  C20_30 
REMARK    9  A    between atoms: C20_30  and  C21_32 
REMARK   10  A    between atoms: C21_32  and  C22_33 
REMARK   11  A    between atoms: C22_33  and  C23_34 
REMARK       I    between atoms: C23_34  and  N5_36 
REMARK   12  A    between atoms: N5_36  and  C24_38 
ROOT
HETATM    1  C4  UNL     1      -3.678  -2.861   1.295  1.00  0.00     0.030 A 
HETATM    2  C5  UNL     1      -4.228  -1.801   0.619  1.00  0.00     0.074 A 
HETATM    3  C6  UNL     1      -3.404  -0.996  -0.128  1.00  0.00     0.123 A 
HETATM    4  N2  UNL     1      -2.063  -1.257  -0.199  1.00  0.00    -0.176 N 
ATOM      5  H2  UNL     1      -1.456  -0.663  -0.764  1.00  0.00     0.186 HD
HETATM    6  C15 UNL     1      -1.515  -2.360   0.518  1.00  0.00     0.684 A 
HETATM    7  N3  UNL     1      -0.295  -2.351   0.525  1.00  0.00    -0.192 N 
ATOM      8  H3  UNL     1      -0.037  -3.192   1.041  1.00  0.00     0.184 HD
HETATM    9  N7  UNL     1      -2.371  -3.077   1.207  1.00  0.00    -0.195 N 
ATOM     10  H7  UNL     1      -1.998  -3.874   1.723  1.00  0.00     0.184 HD
ENDROOT
BRANCH   7  11
HETATM   11  C16 UNL     1       0.859  -1.797   0.199  1.00  0.00     0.049 A 
HETATM   12  C17 UNL     1       1.129  -1.211  -1.004  1.00  0.00     0.032 A 
HETATM   13  C18 UNL     1       2.262  -0.397  -1.258  1.00  0.00     0.032 A 
HETATM   14  C19 UNL     1       3.114  -0.201  -0.176  1.00  0.00     0.035 A 
HETATM   15  C30 UNL     1       2.915  -0.759   1.011  1.00  0.00     0.032 A 
HETATM   16  C31 UNL     1       1.805  -1.563   1.244  1.00  0.00     0.032 A 
BRANCH  14  17
HETATM   17  N4  UNL     1       3.900   1.127  -0.309  1.00  0.00    -0.323 N 
HETATM   18  C20 UNL     1       3.817   1.954   0.721  1.00  0.00     0.253 C 
HETATM   19  O3  UNL     1       3.166   1.855   1.769  1.00  0.00    -0.268 OA
ATOM     20  H4  UNL     1       4.448   1.351  -1.140  1.00  0.00     0.169 HD
BRANCH  18  21
HETATM   21  C21 UNL     1       4.663   3.251   0.582  1.00  0.00     0.135 C 
BRANCH  21  22
HETATM   22  C22 UNL     1       5.575   3.274  -0.267  1.00  0.00    -0.050 C 
BRANCH  22  23
HETATM   23  C23 UNL     1       6.625   3.313  -1.237  1.00  0.00     0.294 C 
HETATM   24  O4  UNL     1       7.311   4.231  -1.612  1.00  0.00    -0.258 OA
HETATM   25  N5  UNL     1       6.852   1.967  -1.831  1.00  0.00    -0.303 N 
ATOM     26  H5  UNL     1       6.283   1.561  -2.574  1.00  0.00     0.171 HD
BRANCH  25  27
HETATM   27  C24 UNL     1       7.867   1.380  -1.280  1.00  0.00     0.108 A 
HETATM   28  C25 UNL     1       8.159   0.082  -1.763  1.00  0.00     0.049 A 
HETATM   29  C26 UNL     1       9.239  -0.573  -1.228  1.00  0.00     0.012 A 
HETATM   30  C27 UNL     1       9.995   0.086  -0.244  1.00  0.00    -0.046 A 
HETATM   31  C28 UNL     1      11.164  -0.640   0.325  1.00  0.00     0.049 C 
HETATM   32  C29 UNL     1       9.698   1.337   0.205  1.00  0.00     0.096 A 
HETATM   33  N6  UNL     1       8.628   1.951  -0.330  1.00  0.00    -0.352 N 
ATOM     34  H6  UNL     1       8.384   2.886  -0.003  1.00  0.00     0.166 HD
ENDBRANCH  25  27
ENDBRANCH  22  23
ENDBRANCH  21  22
ENDBRANCH  18  21
ENDBRANCH  14  17
ENDBRANCH   7  11
BRANCH   3  35
HETATM   35  N1  UNL     1      -3.796   0.116  -0.575  1.00  0.00    -0.342 N 
ATOM     36  H1  UNL     1      -3.081   0.597  -1.121  1.00  0.00     0.167 HD
BRANCH  35  37
HETATM   37  C7  UNL     1      -4.957   0.817  -0.493  1.00  0.00     0.033 A 
HETATM   38  C8  UNL     1      -5.667   0.973   0.703  1.00  0.00     0.030 A 
HETATM   39  C9  UNL     1      -6.769   1.805   0.785  1.00  0.00     0.010 A 
HETATM   40  C10 UNL     1      -7.220   2.526  -0.285  1.00  0.00    -0.048 A 
HETATM   41  C13 UNL     1      -6.523   2.380  -1.484  1.00  0.00     0.010 A 
HETATM   42  C14 UNL     1      -5.441   1.561  -1.576  1.00  0.00     0.030 A 
BRANCH  40  43
HETATM   43  C11 UNL     1      -8.329   3.489  -0.142  1.00  0.00     0.151 C 
BRANCH  43  44
HETATM   44  C12 UNL     1      -9.668   3.016  -0.382  1.00  0.00     0.176 C 
HETATM   45  O1  UNL     1     -10.017   1.955   0.425  1.00  0.00    -0.648 OA
HETATM   46  O2  UNL     1     -10.595   3.366  -1.220  1.00  0.00    -0.648 OA
ENDBRANCH  43  44
ENDBRANCH  40  43
ENDBRANCH  35  37
ENDBRANCH   3  35
BRANCH   1  47
HETATM   47  C3  UNL     1      -4.504  -3.699   2.203  1.00  0.00     0.057 C 
BRANCH  47  48
HETATM   48  C2  UNL     1      -5.149  -4.815   1.400  1.00  0.00     0.002 C 
HETATM   49  C1  UNL     1      -6.094  -4.259   0.371  1.00  0.00     0.005 C 
ENDBRANCH  47  48
ENDBRANCH   1  47
TORSDOF 12
