REMARK  13 active torsions:
REMARK  status: ('A' for Active; 'I' for Inactive)
REMARK    1  A    between atoms: N1_1  and  S1_4 
REMARK    2  A    between atoms: S1_4  and  N2_7 
REMARK    3  A    between atoms: N2_7  and  C1_9 
REMARK    4  A    between atoms: C1_9  and  C2_10 
REMARK    5  A    between atoms: C5_13  and  C6_14 
REMARK    6  A    between atoms: C6_14  and  N3_15 
REMARK    7  A    between atoms: N3_15  and  C7_17 
REMARK    8  A    between atoms: C8_20  and  N5_21 
REMARK    9  A    between atoms: N5_21  and  C9_23 
REMARK   10  A    between atoms: C9_23  and  C10_24 
REMARK   11  A    between atoms: C16_32  and  N7_33 
REMARK   12  A    between atoms: N7_33  and  C17_35 
REMARK   13  A    between atoms: C20_38  and  C21_39 
ROOT
HETATM    1  C7  UNL     1      -0.015   1.527   0.105  1.00  0.00     0.707 A 
HETATM    2  N4  UNL     1      -0.115   2.868   0.110  1.00  0.00    -0.022 N 
ATOM      3  H4  UNL     1       0.745   3.415   0.138  1.00  0.00     0.203 HD
HETATM    4  C8  UNL     1      -1.284   3.526   0.080  1.00  0.00     0.707 A 
HETATM    5  N6  UNL     1      -2.416   2.806   0.043  1.00  0.00    -0.021 N 
ATOM      6  H6  UNL     1      -3.318   3.281   0.020  1.00  0.00     0.203 HD
HETATM    7  C16 UNL     1      -2.368   1.462   0.036  1.00  0.00     0.711 A 
HETATM    8  N8  UNL     1      -1.170   0.835   0.067  1.00  0.00    -0.021 N 
ATOM      9  H8  UNL     1      -1.140  -0.185   0.061  1.00  0.00     0.203 HD
ENDROOT
BRANCH   1  10
HETATM   10  N3  UNL     1       1.116   0.926   0.135  1.00  0.00    -0.221 N 
ATOM     11  H3  UNL     1       1.973   1.478   0.164  1.00  0.00     0.178 HD
BRANCH  10  12
HETATM   12  C6  UNL     1       1.204  -0.516   0.128  1.00  0.00     0.176 C 
BRANCH  12  13
HETATM   13  C5  UNL     1       2.605  -0.956   0.308  1.00  0.00    -0.040 A 
HETATM   14  C4  UNL     1       3.584  -0.010   0.469  1.00  0.00     0.009 A 
HETATM   15  C3  UNL     1       4.911  -0.363   0.641  1.00  0.00     0.009 A 
HETATM   16  C2  UNL     1       5.217  -1.707   0.645  1.00  0.00    -0.040 A 
HETATM   17  C30 UNL     1       4.259  -2.663   0.488  1.00  0.00     0.009 A 
HETATM   18  C29 UNL     1       2.932  -2.288   0.316  1.00  0.00     0.009 A 
BRANCH  16  19
HETATM   19  C1  UNL     1       6.633  -2.084   0.829  1.00  0.00     0.172 C 
BRANCH  19  20
HETATM   20  N2  UNL     1       7.267  -2.150  -0.480  1.00  0.00    -0.299 N 
ATOM     21  H2  UNL     1       6.788  -1.962  -1.360  1.00  0.00     0.174 HD
BRANCH  20  22
HETATM   22  S1  UNL     1       8.923  -2.585  -0.355  1.00  0.00     0.313 S 
HETATM   23  O1  UNL     1       9.533  -2.045   0.917  1.00  0.00    -0.183 OA
HETATM   24  O2  UNL     1       9.690  -1.966  -1.498  1.00  0.00    -0.183 OA
BRANCH  22  25
HETATM   25  N1  UNL     1       9.163  -4.278  -0.427  1.00  0.00    -0.312 N 
ATOM     26  H12 UNL     1       9.646  -4.824   0.287  1.00  0.00     0.170 HD
ATOM     27  H11 UNL     1       8.751  -4.643  -1.286  1.00  0.00     0.170 HD
ENDBRANCH  22  25
ENDBRANCH  20  22
ENDBRANCH  19  20
ENDBRANCH  16  19
ENDBRANCH  12  13
ENDBRANCH  10  12
ENDBRANCH   1  10
BRANCH   4  28
HETATM   28  N5  UNL     1      -1.362   4.812   0.085  1.00  0.00    -0.221 N 
ATOM     29  H5  UNL     1      -0.501   5.357   0.113  1.00  0.00     0.178 HD
BRANCH  28  30
HETATM   30  C9  UNL     1      -2.618   5.503   0.053  1.00  0.00     0.176 C 
BRANCH  30  31
HETATM   31  C10 UNL     1      -2.460   6.973   0.041  1.00  0.00    -0.040 A 
HETATM   32  C11 UNL     1      -1.247   7.613   0.049  1.00  0.00     0.009 A 
HETATM   33  C12 UNL     1      -1.206   8.992   0.037  1.00  0.00     0.001 A 
HETATM   34  C13 UNL     1      -2.336   9.784   0.018  1.00  0.00     0.000 A 
HETATM   35  C14 UNL     1      -3.559   9.125   0.010  1.00  0.00     0.001 A 
HETATM   36  C15 UNL     1      -3.599   7.741   0.022  1.00  0.00     0.009 A 
ENDBRANCH  30  31
ENDBRANCH  28  30
ENDBRANCH   4  28
BRANCH   7  37
HETATM   37  N7  UNL     1      -3.466   0.820  -0.001  1.00  0.00    -0.191 N 
ATOM     38  H7  UNL     1      -4.327   1.367  -0.024  1.00  0.00     0.184 HD
BRANCH  37  39
HETATM   39  C17 UNL     1      -3.593  -0.593  -0.013  1.00  0.00     0.049 A 
HETATM   40  C18 UNL     1      -3.229  -1.309  -1.147  1.00  0.00     0.031 A 
HETATM   41  C19 UNL     1      -3.352  -2.690  -1.166  1.00  0.00     0.014 A 
HETATM   42  C20 UNL     1      -3.835  -3.379  -0.071  1.00  0.00    -0.026 A 
HETATM   43  C27 UNL     1      -4.190  -2.645   1.043  1.00  0.00     0.014 A 
HETATM   44  C28 UNL     1      -4.076  -1.271   1.085  1.00  0.00     0.031 A 
BRANCH  42  45
HETATM   45  C21 UNL     1      -3.947  -4.824  -0.135  1.00  0.00    -0.026 A 
HETATM   46  C22 UNL     1      -4.929  -5.494   0.559  1.00  0.00     0.012 A 
HETATM   47  C23 UNL     1      -5.024  -6.873   0.488  1.00  0.00     0.001 A 
HETATM   48  C24 UNL     1      -4.122  -7.594  -0.290  1.00  0.00     0.000 A 
HETATM   49  C25 UNL     1      -3.136  -6.937  -0.990  1.00  0.00     0.001 A 
HETATM   50  C26 UNL     1      -3.073  -5.576  -0.895  1.00  0.00     0.012 A 
ENDBRANCH  42  45
ENDBRANCH  37  39
ENDBRANCH   7  37
TORSDOF 13
