REMARK  4 active torsions:
REMARK  status: ('A' for Active; 'I' for Inactive)
REMARK    1  A    between atoms: C7_7  and  C8_8 
REMARK    2  A    between atoms: C9_11  and  C10_12 
REMARK    3  A    between atoms: C10_12  and  N2_13 
REMARK    4  A    between atoms: N2_13  and  C11_15 
ROOT
HETATM    1  C8  UNL     1      -1.319  -0.573   0.239  1.00  0.00     0.132 A 
HETATM    2  N1  UNL     1      -0.597  -1.304  -0.666  1.00  0.00    -0.328 N 
ATOM      3  H1  UNL     1      -0.979  -1.774  -1.487  1.00  0.00     0.169 HD
HETATM    4  C9  UNL     1       0.685  -1.303  -0.303  1.00  0.00     0.115 A 
HETATM    5  N4  UNL     1       0.746  -0.580   0.812  1.00  0.00    -0.286 N 
ATOM      6  H4  UNL     1       1.600  -0.393   1.337  1.00  0.00     0.188 HD
HETATM    7  N5  UNL     1      -0.478  -0.130   1.150  1.00  0.00    -0.283 N 
ATOM      8  H5  UNL     1      -0.710   0.446   1.960  1.00  0.00     0.188 HD
ENDROOT
BRANCH   4   9
HETATM    9  C10 UNL     1       1.817  -1.991  -1.026  1.00  0.00     0.199 C 
BRANCH   9  10
HETATM   10  N2  UNL     1       3.019  -1.716  -0.296  1.00  0.00    -0.369 N 
ATOM     11  H2  UNL     1       3.407  -2.470   0.271  1.00  0.00     0.161 HD
BRANCH  10  12
HETATM   12  C11 UNL     1       3.646  -0.596  -0.300  1.00  0.00     0.101 A 
HETATM   13  C12 UNL     1       4.795  -0.454   0.444  1.00  0.00     0.048 A 
HETATM   14  C13 UNL     1       5.513   0.733   0.478  1.00  0.00     0.005 A 
HETATM   15  C14 UNL     1       5.043   1.787  -0.264  1.00  0.00     0.017 A 
HETATM   16  C15 UNL     1       3.895   1.638  -1.006  1.00  0.00     0.089 A 
HETATM   17  N3  UNL     1       3.215   0.454  -1.014  1.00  0.00    -0.353 N 
ATOM     18  H3  UNL     1       2.366   0.367  -1.572  1.00  0.00     0.166 HD
ENDBRANCH  10  12
ENDBRANCH   9  10
ENDBRANCH   4   9
BRANCH   1  19
HETATM   19  C7  UNL     1      -2.736  -0.374   0.066  1.00  0.00     0.015 A 
HETATM   20  C2  UNL     1      -3.448   0.562   0.755  1.00  0.00    -0.048 A 
HETATM   21  C1  UNL     1      -2.843   1.564   1.669  1.00  0.00     0.049 C 
HETATM   22  C3  UNL     1      -4.846   0.666   0.596  1.00  0.00     0.007 A 
HETATM   23  C4  UNL     1      -5.507  -0.181  -0.261  1.00  0.00     0.001 A 
HETATM   24  C5  UNL     1      -4.800  -1.132  -0.966  1.00  0.00     0.001 A 
HETATM   25  C6  UNL     1      -3.446  -1.229  -0.809  1.00  0.00     0.016 A 
ENDBRANCH   1  19
TORSDOF 4
