REMARK  4 active torsions:
REMARK  status: ('A' for Active; 'I' for Inactive)
REMARK    1  A    between atoms: C10_16  and  N4_17 
REMARK    2  A    between atoms: N4_17  and  C11_18 
REMARK    3  A    between atoms: C11_18  and  C12_19 
REMARK    4  A    between atoms: C12_19  and  N5_20 
ROOT
HETATM    1  C1  UNL     1      -0.609   3.110  -0.902  1.00  0.00     0.071 C 
HETATM    2  C2  UNL     1      -1.831   2.442  -0.432  1.00  0.00     0.039 A 
HETATM    3  N1  UNL     1      -3.032   3.049  -0.189  1.00  0.00    -0.303 N 
ATOM      4  H1  UNL     1      -3.232   4.042  -0.307  1.00  0.00     0.186 HD
HETATM    5  N2  UNL     1      -3.886   2.139   0.222  1.00  0.00    -0.284 N 
ATOM      6  H2  UNL     1      -4.857   2.323   0.473  1.00  0.00     0.188 HD
HETATM    7  C3  UNL     1      -3.288   0.911   0.266  1.00  0.00     0.136 A 
HETATM    8  N3  UNL     1      -3.762  -0.294   0.622  1.00  0.00    -0.340 N 
ATOM      9  H3  UNL     1      -4.731  -0.399   0.924  1.00  0.00     0.167 HD
HETATM   10  C4  UNL     1      -2.945  -1.361   0.576  1.00  0.00     0.047 A 
HETATM   11  C5  UNL     1      -3.424  -2.621   0.947  1.00  0.00     0.030 A 
HETATM   12  C6  UNL     1      -2.600  -3.717   0.907  1.00  0.00     0.002 A 
HETATM   13  C7  UNL     1      -1.310  -3.561   0.503  1.00  0.00     0.001 A 
HETATM   14  C8  UNL     1      -0.818  -2.324   0.132  1.00  0.00     0.017 A 
HETATM   15  C9  UNL     1      -1.654  -1.206   0.171  1.00  0.00     0.032 A 
HETATM   16  C10 UNL     1      -1.113   0.038  -0.212  1.00  0.00     0.134 A 
HETATM   17  C15 UNL     1      -2.016   1.130  -0.145  1.00  0.00     0.074 A 
ENDROOT
BRANCH  16  18
HETATM   18  N4  UNL     1       0.008   0.124  -0.563  1.00  0.00    -0.418 NA
BRANCH  18  19
HETATM   19  C11 UNL     1       1.265   0.177  -0.949  1.00  0.00     0.185 C 
BRANCH  19  20
HETATM   20  C12 UNL     1       2.300   0.595   0.120  1.00  0.00     0.330 C 
BRANCH  20  21
HETATM   21  N5  UNL     1       3.632   0.635  -0.384  1.00  0.00     0.085 N 
HETATM   22  C13 UNL     1       4.483   1.102   0.721  1.00  0.00     0.309 C 
HETATM   23  C14 UNL     1       4.192  -0.609  -0.808  1.00  0.00     0.309 C 
ENDBRANCH  20  21
ENDBRANCH  19  20
ENDBRANCH  18  19
ENDBRANCH  16  18
TORSDOF 4
