REMARK  3 active torsions:
REMARK  status: ('A' for Active; 'I' for Inactive)
REMARK       I    between atoms: C2_2  and  N1_4 
REMARK    1  A    between atoms: N1_4  and  C4_6 
REMARK    2  A    between atoms: C7_9  and  N2_10 
REMARK    3  A    between atoms: C14_22  and  O2_24 
ROOT
HETATM    1  C4  UNL     1      -1.151   0.432   1.054  1.00  0.00     0.146 C 
HETATM    2  C5  UNL     1      -0.120   1.464   1.028  1.00  0.00     0.001 C 
HETATM    3  C6  UNL     1       1.181   1.389   0.901  1.00  0.00     0.027 C 
HETATM    4  C7  UNL     1       1.987   0.154   0.738  1.00  0.00     0.330 C 
HETATM    5  N4  UNL     1       1.353  -0.598  -0.315  1.00  0.00    -0.038 N 
ATOM      6  H41 UNL     1       2.051  -1.113  -0.852  1.00  0.00     0.281 HD
ATOM      7  H42 UNL     1       1.003   0.031  -1.038  1.00  0.00     0.281 HD
HETATM    8  C11 UNL     1       0.322  -1.472   0.118  1.00  0.00     0.153 C 
HETATM    9  C12 UNL     1      -0.090  -2.236  -1.161  1.00  0.00     0.049 C 
HETATM   10  C13 UNL     1       1.077  -2.583   0.889  1.00  0.00     0.049 C 
HETATM   11  C14 UNL     1      -0.799  -0.965   0.889  1.00  0.00     0.110 C 
HETATM   12  C15 UNL     1      -2.062  -1.695   0.378  1.00  0.00     0.051 C 
ENDROOT
BRANCH   4  13
HETATM   13  N2  UNL     1       3.307   0.525   0.262  1.00  0.00    -0.269 N 
HETATM   14  C8  UNL     1       3.585   1.211  -0.953  1.00  0.00     0.114 A 
HETATM   15  C9  UNL     1       4.890   1.369  -1.042  1.00  0.00     0.037 A 
HETATM   16  C10 UNL     1       5.467   0.769   0.149  1.00  0.00     0.108 A 
HETATM   17  N3  UNL     1       4.533   0.280   0.900  1.00  0.00    -0.308 N 
ATOM     18  H3  UNL     1       4.664  -0.196   1.792  1.00  0.00     0.186 HD
ENDBRANCH   4  13
BRANCH   1  19
HETATM   19  N1  UNL     1      -2.214   0.931   0.191  1.00  0.00    -0.346 N 
HETATM   20  C2  UNL     1      -3.462   1.427   0.698  1.00  0.00     0.216 C 
HETATM   21  C1  UNL     1      -4.523   1.935  -0.168  1.00  0.00     0.117 C 
HETATM   22  O1  UNL     1      -3.590   1.396   1.970  1.00  0.00    -0.274 OA
HETATM   23  C3  UNL     1      -2.075   0.973  -1.252  1.00  0.00     0.153 C 
ENDBRANCH   1  19
BRANCH  11  24
HETATM   24  O2  UNL     1      -0.692  -1.536   2.200  1.00  0.00    -0.385 OA
ATOM     25  H2  UNL     1      -0.461  -2.451   2.092  1.00  0.00     0.210 HD
ENDBRANCH  11  24
TORSDOF 3
