REMARK  7 active torsions:
REMARK  status: ('A' for Active; 'I' for Inactive)
REMARK    1  A    between atoms: O1_2  and  C2_3 
REMARK    2  A    between atoms: N1_6  and  O2_7 
REMARK    3  A    between atoms: C6_10  and  C7_11 
REMARK    4  A    between atoms: C8_12  and  C9_13 
REMARK    5  A    between atoms: C10_14  and  C11_15 
REMARK    6  A    between atoms: C11_15  and  O3_16 
REMARK    7  A    between atoms: N2_21  and  O4_22 
ROOT
HETATM    1  C2  UNL     1      -2.972  -0.786  -0.714  1.00  0.00     0.101 A 
HETATM    2  C3  UNL     1      -2.795  -1.367  -1.944  1.00  0.00     0.059 A 
HETATM    3  C4  UNL     1      -1.534  -1.355  -2.500  1.00  0.00     0.126 A 
HETATM    4  N1  UNL     1      -0.503  -0.787  -1.852  1.00  0.00    -0.232 N 
HETATM    5  C5  UNL     1      -0.646  -0.213  -0.650  1.00  0.00     0.112 A 
HETATM    6  C6  UNL     1       0.407   0.372   0.021  1.00  0.00     0.051 A 
HETATM    7  C12 UNL     1       0.200   0.959   1.275  1.00  0.00     0.050 A 
HETATM    8  C13 UNL     1      -1.053   0.952   1.839  1.00  0.00     0.038 A 
HETATM    9  C14 UNL     1      -1.298   1.575   3.180  1.00  0.00     0.071 C 
HETATM   10  N2  UNL     1      -2.041   0.371   1.143  1.00  0.00    -0.224 N 
HETATM   11  C15 UNL     1      -1.916  -0.206  -0.054  1.00  0.00     0.126 A 
ENDROOT
BRANCH   6  12
HETATM   12  C7  UNL     1       1.738   0.391  -0.553  1.00  0.00    -0.060 C 
HETATM   13  C8  UNL     1       2.879   0.426  -1.008  1.00  0.00    -0.073 C 
BRANCH  13  14
HETATM   14  C9  UNL     1       4.215   0.471  -1.517  1.00  0.00     0.063 C 
HETATM   15  C10 UNL     1       5.266   0.548  -0.726  1.00  0.00     0.008 C 
BRANCH  15  16
HETATM   16  C11 UNL     1       5.105   0.594   0.748  1.00  0.00     0.192 C 
BRANCH  16  17
HETATM   17  O3  UNL     1       5.752  -0.489   1.366  1.00  0.00    -0.397 OA
ATOM     18  H3  UNL     1       5.649  -0.460   2.310  1.00  0.00     0.209 HD
ENDBRANCH  16  17
ENDBRANCH  15  16
ENDBRANCH  13  14
ENDBRANCH   6  12
BRANCH   4  19
HETATM   19  O2  UNL     1       0.692  -0.821  -2.468  1.00  0.00    -0.283 OA
ATOM     20  H2  UNL     1       1.421  -0.419  -2.010  1.00  0.00     0.245 HD
ENDBRANCH   4  19
BRANCH   1  21
HETATM   21  O1  UNL     1      -4.208  -0.751  -0.078  1.00  0.00    -0.353 OA
HETATM   22  C1  UNL     1      -5.386  -1.290  -0.600  1.00  0.00     0.210 C 
ENDBRANCH   1  21
BRANCH  10  23
HETATM   23  O4  UNL     1      -3.290   0.368   1.712  1.00  0.00    -0.282 OA
ATOM     24  H4  UNL     1      -3.990  -0.044   1.219  1.00  0.00     0.245 HD
ENDBRANCH  10  23
TORSDOF 7
