REMARK  3 active torsions:
REMARK  status: ('A' for Active; 'I' for Inactive)
REMARK    1  A    between atoms: C3_3  and  C4_4 
REMARK       I    between atoms: C4_4  and  N1_6 
REMARK    2  A    between atoms: N1_6  and  N2_7 
REMARK    3  A    between atoms: C5_9  and  C6_10 
ROOT
HETATM    1  C1  UNL     1       7.093   1.162   0.084  1.00  0.00     0.112 C 
HETATM    2  C2  UNL     1       6.236  -0.004   0.271  1.00  0.00    -0.100 C 
HETATM    3  C3  UNL     1       5.514  -0.949   0.436  1.00  0.00     0.011 C 
ENDROOT
BRANCH   3   4
HETATM    4  C4  UNL     1       4.613  -2.103   0.663  1.00  0.00     0.390 C 
HETATM    5  O1  UNL     1       5.160  -3.146   1.089  1.00  0.00    -0.239 OA
HETATM    6  N1  UNL     1       3.278  -1.923   0.390  1.00  0.00    -0.273 NA
BRANCH   6   7
HETATM    7  N2  UNL     1       2.017  -1.752   0.132  1.00  0.00    -0.240 N 
HETATM    8  C5  UNL     1       1.260  -0.679   0.405  1.00  0.00     0.151 C 
ATOM      9  H2  UNL     1       1.545  -2.527  -0.334  1.00  0.00     0.201 HD
BRANCH   8  10
HETATM   10  C6  UNL     1      -0.092  -0.825  -0.018  1.00  0.00     0.066 A 
HETATM   11  N3  UNL     1      -0.387  -1.904  -0.835  1.00  0.00    -0.344 N 
HETATM   12  C7  UNL     1      -1.574  -2.105  -1.391  1.00  0.00     0.079 A 
ATOM     13  H3  UNL     1       0.351  -2.583  -1.020  1.00  0.00     0.167 HD
HETATM   14  C8  UNL     1      -1.834  -3.302  -2.273  1.00  0.00     0.089 C 
HETATM   15  N4  UNL     1      -2.528  -1.208  -1.139  1.00  0.00    -0.331 N 
HETATM   16  C9  UNL     1      -2.323  -0.125  -0.348  1.00  0.00     0.121 A 
ATOM     17  H4  UNL     1      -3.449  -1.341  -1.558  1.00  0.00     0.168 HD
HETATM   18  C10 UNL     1      -1.068   0.074   0.232  1.00  0.00     0.042 A 
HETATM   19  N5  UNL     1      -3.336   0.726  -0.118  1.00  0.00    -0.341 N 
HETATM   20  C11 UNL     1      -0.845   1.158   1.069  1.00  0.00    -0.044 A 
HETATM   21  C12 UNL     1       0.394   1.434   1.777  1.00  0.00     0.049 C 
HETATM   22  C13 UNL     1      -1.974   1.979   1.240  1.00  0.00     0.032 A 
HETATM   23  C14 UNL     1      -3.183   1.778   0.669  1.00  0.00     0.009 A 
HETATM   24  C15 UNL     1      -4.310   2.743   0.941  1.00  0.00     0.068 C 
HETATM   25  C16 UNL     1      -4.620   0.485  -0.743  1.00  0.00     0.158 C 
ENDBRANCH   8  10
ENDBRANCH   6   7
ENDBRANCH   3   4
TORSDOF 3
