REMARK  4 active torsions:
REMARK  status: ('A' for Active; 'I' for Inactive)
REMARK    1  A    between atoms: N1_2  and  C3_4 
REMARK    2  A    between atoms: C3_4  and  C4_5 
REMARK    3  A    between atoms: C4_5  and  O1_6 
REMARK       I    between atoms: N2_8  and  C5_10 
REMARK    4  A    between atoms: C5_10  and  C6_12 
ROOT
HETATM    1  C3  UNL     1       2.457  -0.215  -0.913  1.00  0.00     0.105 C 
HETATM    2  N2  UNL     1       1.265  -0.673  -0.820  1.00  0.00    -0.315 N 
ATOM      3  H2  UNL     1       0.808  -1.103  -1.624  1.00  0.00     0.170 HD
HETATM    4  C5  UNL     1       0.594  -0.569   0.427  1.00  0.00     0.228 C 
HETATM    5  O2  UNL     1       1.278  -0.719   1.471  1.00  0.00    -0.273 OA
ENDROOT
BRANCH   4   6
HETATM    6  C6  UNL     1      -0.843  -0.299   0.547  1.00  0.00     0.100 C 
HETATM    7  C7  UNL     1      -1.242   0.996  -0.135  1.00  0.00     0.038 C 
HETATM    8  C8  UNL     1      -2.698   1.183   0.240  1.00  0.00     0.032 C 
HETATM    9  C9  UNL     1      -2.893   1.553   1.671  1.00  0.00     0.029 C 
HETATM   10  C10 UNL     1      -3.408   2.152  -0.648  1.00  0.00     0.029 C 
HETATM   11  S1  UNL     1      -3.302  -0.479  -0.104  1.00  0.00     0.032 S 
HETATM   12  O3  UNL     1      -3.869  -0.509  -1.671  1.00  0.00    -0.256 OA
HETATM   13  C11 UNL     1      -1.726  -1.350  -0.043  1.00  0.00     0.043 C 
HETATM   14  C12 UNL     1      -1.825  -2.565   0.861  1.00  0.00     0.030 C 
HETATM   15  C13 UNL     1      -1.316  -1.824  -1.398  1.00  0.00     0.030 C 
ENDBRANCH   4   6
BRANCH   1  16
HETATM   16  N1  UNL     1       3.181   0.396   0.123  1.00  0.00    -0.378 N 
HETATM   17  C1  UNL     1       2.849   1.754   0.501  1.00  0.00     0.150 C 
HETATM   18  C2  UNL     1       4.266  -0.261   0.847  1.00  0.00     0.150 C 
ENDBRANCH   1  16
BRANCH   1  19
HETATM   19  C4  UNL     1       3.142  -0.338  -2.237  1.00  0.00     0.240 C 
BRANCH  19  20
HETATM   20  O1  UNL     1       4.289  -1.106  -2.048  1.00  0.00    -0.393 OA
ATOM     21  H1  UNL     1       4.724  -1.184  -2.889  1.00  0.00     0.209 HD
ENDBRANCH  19  20
ENDBRANCH   1  19
TORSDOF 4
