REMARK  8 active torsions:
REMARK  status: ('A' for Active; 'I' for Inactive)
REMARK    1  A    between atoms: C2_3  and  S1_4 
REMARK    2  A    between atoms: S1_4  and  C3_5 
REMARK    3  A    between atoms: C3_5  and  C4_6 
REMARK       I    between atoms: C4_6  and  N2_8 
REMARK    4  A    between atoms: C6_15  and  C7_16 
REMARK    5  A    between atoms: C7_16  and  C8_17 
REMARK    6  A    between atoms: N10_33  and  C11_35 
REMARK    7  A    between atoms: C11_35  and  O2_36 
REMARK    8  A    between atoms: C11_35  and  O3_38 
ROOT
HETATM    1  C4  UNL     1       0.173  -0.109   0.055  1.00  0.00     0.233 C 
HETATM    2  O1  UNL     1       0.009  -1.352   0.026  1.00  0.00    -0.272 OA
HETATM    3  N2  UNL     1       0.863   0.535   1.118  1.00  0.00    -0.305 N 
ATOM      4  H2  UNL     1       0.438   0.693   2.032  1.00  0.00     0.171 HD
HETATM    5  C5  UNL     1       2.091   0.911   0.834  1.00  0.00     0.167 A 
HETATM    6  N3  UNL     1       2.960   1.533   1.637  1.00  0.00    -0.279 N 
ATOM      7  H3  UNL     1       2.703   1.773   2.595  1.00  0.00     0.189 HD
HETATM    8  N4  UNL     1       4.111   1.819   1.184  1.00  0.00    -0.296 N 
ATOM      9  H4  UNL     1       4.786   2.293   1.784  1.00  0.00     0.187 HD
HETATM   10  C6  UNL     1       4.442   1.510  -0.051  1.00  0.00     0.075 A 
HETATM   11  S3  UNL     1       3.000   0.754  -0.607  1.00  0.00    -0.037 SA
ENDROOT
BRANCH   1  12
HETATM   12  C3  UNL     1      -0.361   0.729  -1.038  1.00  0.00     0.185 C 
BRANCH  12  13
HETATM   13  S1  UNL     1      -2.022   1.286  -0.619  1.00  0.00    -0.083 SA
BRANCH  13  14
HETATM   14  C2  UNL     1      -3.124  -0.108  -0.581  1.00  0.00     0.177 A 
HETATM   15  N1  UNL     1      -4.462  -0.027  -0.290  1.00  0.00    -0.164 N 
HETATM   16  C1  UNL     1      -5.133   1.219   0.025  1.00  0.00     0.177 C 
HETATM   17  C10 UNL     1      -5.004  -1.241  -0.346  1.00  0.00     0.700 A 
HETATM   18  N9  UNL     1      -3.968  -2.088  -0.681  1.00  0.00    -0.130 N 
HETATM   19  N10 UNL     1      -6.148  -1.663  -0.164  1.00  0.00    -0.174 N 
HETATM   20  N8  UNL     1      -2.867  -1.399  -0.816  1.00  0.00    -0.265 N 
ATOM     21  H9  UNL     1      -4.049  -3.097  -0.804  1.00  0.00     0.205 HD
ATOM     22  H8  UNL     1      -1.955  -1.785  -1.062  1.00  0.00     0.189 HD
ATOM     23  H10 UNL     1      -6.151  -2.673  -0.306  1.00  0.00     0.182 HD
BRANCH  19  24
HETATM   24  C11 UNL     1      -7.430  -1.255   0.164  1.00  0.00     0.381 C 
BRANCH  24  25
HETATM   25  O2  UNL     1      -8.113  -0.609  -0.887  1.00  0.00    -0.354 OA
ATOM     26  H2  UNL     1      -8.992  -0.329  -0.662  1.00  0.00     0.214 HD
ENDBRANCH  24  25
BRANCH  24  27
HETATM   27  O3  UNL     1      -7.436  -0.451   1.318  1.00  0.00    -0.354 OA
ATOM     28  H3  UNL     1      -8.315  -0.171   1.543  1.00  0.00     0.214 HD
ENDBRANCH  24  27
ENDBRANCH  19  24
ENDBRANCH  13  14
ENDBRANCH  12  13
ENDBRANCH   1  12
BRANCH  10  29
HETATM   29  C7  UNL     1       5.733   1.749  -0.795  1.00  0.00     0.132 C 
BRANCH  29  30
HETATM   30  C8  UNL     1       6.576   0.525  -0.538  1.00  0.00     0.075 A 
HETATM   31  N5  UNL     1       7.438   0.303   0.442  1.00  0.00    -0.296 N 
HETATM   32  N6  UNL     1       8.069  -0.797   0.506  1.00  0.00    -0.279 N 
ATOM     33  H5  UNL     1       7.596   1.020   1.150  1.00  0.00     0.187 HD
HETATM   34  C9  UNL     1       7.845  -1.720  -0.434  1.00  0.00     0.158 A 
ATOM     35  H6  UNL     1       8.733  -0.973   1.260  1.00  0.00     0.189 HD
HETATM   36  N7  UNL     1       8.390  -2.901  -0.539  1.00  0.00    -0.379 N 
HETATM   37  S2  UNL     1       6.685  -0.938  -1.416  1.00  0.00    -0.038 SA
ATOM     38  H72 UNL     1       9.082  -3.368   0.047  1.00  0.00     0.158 HD
ATOM     39  H71 UNL     1       8.219  -3.606  -1.257  1.00  0.00     0.158 HD
ENDBRANCH  29  30
ENDBRANCH  10  29
TORSDOF 8
