REMARK  8 active torsions:
REMARK  status: ('A' for Active; 'I' for Inactive)
REMARK    1  A    between atoms: N1_1  and  C1_4 
REMARK    2  A    between atoms: C5_10  and  C6_11 
REMARK    3  A    between atoms: C6_11  and  N3_12 
REMARK       I    between atoms: N3_12  and  C7_14 
REMARK    4  A    between atoms: C7_14  and  C8_16 
REMARK    5  A    between atoms: C8_16  and  N4_17 
REMARK    6  A    between atoms: C9_22  and  C10_23 
REMARK    7  A    between atoms: N7_25  and  C12_26 
REMARK    8  A    between atoms: C13_32  and  N10_33 
ROOT
HETATM    1  N4  UNL     1       0.622  -0.131  -1.664  1.00  0.00    -0.209 N 
HETATM    2  N5  UNL     1       0.655  -1.279  -1.018  1.00  0.00    -0.224 N 
ATOM      3  H5  UNL     1      -0.135  -1.914  -0.900  1.00  0.00     0.210 HD
HETATM    4  N6  UNL     1       1.894  -1.480  -0.539  1.00  0.00    -0.267 N 
ATOM      5  H6  UNL     1       2.204  -2.288   0.001  1.00  0.00     0.190 HD
HETATM    6  C9  UNL     1       2.645  -0.444  -0.891  1.00  0.00     0.167 A 
HETATM    7  N13 UNL     1       1.827   0.377  -1.588  1.00  0.00    -0.264 N 
ATOM      8  H13 UNL     1       2.109   1.268  -1.997  1.00  0.00     0.190 HD
ENDROOT
BRANCH   1   9
HETATM    9  C8  UNL     1      -0.493   0.488  -2.336  1.00  0.00     0.273 C 
BRANCH   9  10
HETATM   10  C7  UNL     1      -1.274   1.370  -1.453  1.00  0.00     0.239 C 
HETATM   11  N3  UNL     1      -2.401   2.056  -1.951  1.00  0.00    -0.355 N 
ATOM     12  H3  UNL     1      -2.663   1.930  -2.929  1.00  0.00     0.162 HD
HETATM   13  O1  UNL     1      -0.947   1.519  -0.257  1.00  0.00    -0.272 OA
BRANCH  11  14
HETATM   14  C6  UNL     1      -3.206   2.942  -1.111  1.00  0.00     0.161 C 
BRANCH  14  15
HETATM   15  C5  UNL     1      -4.057   2.090  -0.244  1.00  0.00    -0.038 A 
HETATM   16  C4  UNL     1      -4.778   2.705   0.782  1.00  0.00     0.011 A 
HETATM   17  C3  UNL     1      -5.588   1.947   1.614  1.00  0.00     0.033 A 
HETATM   18  C2  UNL     1      -5.703   0.583   1.452  1.00  0.00     0.076 A 
HETATM   19  N2  UNL     1      -6.417  -0.358   2.124  1.00  0.00    -0.190 N 
HETATM   20  C15 UNL     1      -4.997  -0.038   0.443  1.00  0.00     0.077 A 
HETATM   21  C1  UNL     1      -6.171  -1.558   1.553  1.00  0.00     0.676 A 
ATOM     22  H2  UNL     1      -7.031  -0.188   2.920  1.00  0.00     0.184 HD
HETATM   23  N14 UNL     1      -5.314  -1.337   0.545  1.00  0.00    -0.190 N 
ATOM     24  H14 UNL     1      -4.949  -2.066  -0.068  1.00  0.00     0.184 HD
HETATM   25  C14 UNL     1      -4.194   0.731  -0.377  1.00  0.00     0.041 A 
BRANCH  21  26
HETATM   26  N1  UNL     1      -6.669  -2.692   1.915  1.00  0.00    -0.234 N 
ATOM     27  H12 UNL     1      -7.321  -2.860   2.681  1.00  0.00     0.174 HD
ATOM     28  H11 UNL     1      -6.483  -3.598   1.484  1.00  0.00     0.174 HD
ENDBRANCH  21  26
ENDBRANCH  14  15
ENDBRANCH  11  14
ENDBRANCH   9  10
ENDBRANCH   1   9
BRANCH   6  29
HETATM   29  C10 UNL     1       4.058  -0.197  -0.609  1.00  0.00     0.110 A 
HETATM   30  C11 UNL     1       4.939  -0.989   0.092  1.00  0.00     0.150 A 
HETATM   31  N7  UNL     1       6.148  -0.394   0.121  1.00  0.00    -0.228 N 
HETATM   32  N11 UNL     1       6.019   0.748  -0.550  1.00  0.00    -0.013 NA
HETATM   33  N12 UNL     1       4.769   0.875  -0.991  1.00  0.00    -0.279 N 
ATOM     34  H12 UNL     1       4.410   1.661  -1.532  1.00  0.00     0.184 HD
BRANCH  31  35
HETATM   35  C12 UNL     1       7.331  -0.899   0.751  1.00  0.00     0.193 A 
HETATM   36  N8  UNL     1       7.982  -0.396   1.806  1.00  0.00    -0.221 N 
HETATM   37  O2  UNL     1       8.996  -1.159   2.049  1.00  0.00    -0.153 OA
ATOM     38  H8  UNL     1       7.723   0.442   2.327  1.00  0.00     0.198 HD
HETATM   39  N9  UNL     1       9.051  -2.145   1.206  1.00  0.00    -0.222 N 
HETATM   40  C13 UNL     1       8.024  -2.027   0.367  1.00  0.00     0.169 A 
ATOM     41  H9  UNL     1       9.757  -2.881   1.189  1.00  0.00     0.198 HD
BRANCH  40  42
HETATM   42  N10 UNL     1       7.707  -2.811  -0.635  1.00  0.00    -0.381 N 
ATOM     43 2H10 UNL     1       6.920  -2.721  -1.278  1.00  0.00     0.157 HD
ATOM     44 1H10 UNL     1       8.220  -3.646  -0.919  1.00  0.00     0.157 HD
ENDBRANCH  40  42
ENDBRANCH  31  35
ENDBRANCH   6  29
TORSDOF 8
