REMARK  8 active torsions:
REMARK  status: ('A' for Active; 'I' for Inactive)
REMARK    1  A    between atoms: C3_6  and  N3_7 
REMARK       I    between atoms: N3_7  and  C4_9 
REMARK    2  A    between atoms: C4_9  and  C5_11 
REMARK    3  A    between atoms: N5_14  and  C6_15 
REMARK    4  A    between atoms: C9_20  and  N7_21 
REMARK    5  A    between atoms: C10_24  and  N8_25 
REMARK    6  A    between atoms: C12_29  and  C13_30 
REMARK    7  A    between atoms: C14_33  and  C15_34 
REMARK       I    between atoms: C15_34  and  N9_36 
REMARK    8  A    between atoms: N9_36  and  N10_38 
ROOT
HETATM    1  C5  UNL     1      -0.753  -0.279   0.029  1.00  0.00     0.135 A 
HETATM    2  N4  UNL     1      -1.778   0.222   0.769  1.00  0.00    -0.288 N 
ATOM      3  H4  UNL     1      -1.709   0.446   1.762  1.00  0.00     0.188 HD
HETATM    4  N5  UNL     1      -2.858   0.381   0.058  1.00  0.00    -0.263 N 
HETATM    5  C11 UNL     1      -2.565  -0.014  -1.177  1.00  0.00     0.137 A 
HETATM    6  C12 UNL     1      -1.222  -0.444  -1.219  1.00  0.00     0.091 A 
ENDROOT
BRANCH   1   7
HETATM    7  C4  UNL     1       0.553  -0.565   0.658  1.00  0.00     0.275 C 
HETATM    8  N3  UNL     1       1.788  -0.299   0.069  1.00  0.00    -0.318 N 
ATOM      9  H3  UNL     1       1.790   0.136  -0.854  1.00  0.00     0.169 HD
HETATM   10  O1  UNL     1       0.516  -1.079   1.812  1.00  0.00    -0.266 OA
BRANCH   8  11
HETATM   11  C3  UNL     1       3.039  -0.590   0.661  1.00  0.00     0.086 A 
HETATM   12  C2  UNL     1       3.240  -1.114   1.916  1.00  0.00     0.139 A 
HETATM   13  N2  UNL     1       4.556  -1.229   2.107  1.00  0.00    -0.307 N 
HETATM   14  N1  UNL     1       5.208  -0.811   1.053  1.00  0.00    -0.290 N 
ATOM     15  H2  UNL     1       4.992  -1.592   2.955  1.00  0.00     0.186 HD
HETATM   16  C1  UNL     1       6.669  -0.815   0.958  1.00  0.00     0.178 C 
HETATM   17  C14 UNL     1       4.331  -0.399   0.111  1.00  0.00     0.148 A 
BRANCH  17  18
HETATM   18  C15 UNL     1       4.593   0.127  -1.208  1.00  0.00     0.290 C 
HETATM   19  O6  UNL     1       3.600   0.439  -1.954  1.00  0.00    -0.264 OA
HETATM   20  N9  UNL     1       5.840   0.352  -1.810  1.00  0.00    -0.271 N 
ATOM     21  H9  UNL     1       6.705   0.142  -1.312  1.00  0.00     0.189 HD
BRANCH  20  22
HETATM   22  N10 UNL     1       5.871   0.887  -3.147  1.00  0.00    -0.342 N 
ATOM     23 2H10 UNL     1       4.997   1.092  -3.631  1.00  0.00     0.176 HD
ATOM     24 1H10 UNL     1       6.778   1.051  -3.585  1.00  0.00     0.176 HD
ENDBRANCH  20  22
ENDBRANCH  17  18
ENDBRANCH   8  11
ENDBRANCH   1   7
BRANCH   6  25
HETATM   25  C13 UNL     1      -0.586  -1.024  -2.377  1.00  0.00     0.213 C 
HETATM   26  O4  UNL     1       0.534  -1.539  -2.398  1.00  0.00    -0.644 OA
HETATM   27  O5  UNL     1      -1.289  -1.006  -3.578  1.00  0.00    -0.644 OA
ENDBRANCH   6  25
BRANCH   4  28
HETATM   28  C6  UNL     1      -4.118   0.885   0.531  1.00  0.00     0.094 A 
HETATM   29  C7  UNL     1      -4.533   2.183   0.334  1.00  0.00     0.051 A 
HETATM   30  C8  UNL     1      -5.755   2.646   0.799  1.00  0.00     0.092 A 
HETATM   31  N6  UNL     1      -6.535   1.782   1.457  1.00  0.00    -0.351 N 
HETATM   32  C9  UNL     1      -6.163   0.500   1.671  1.00  0.00     0.134 A 
ATOM     33  H6  UNL     1      -7.438   2.100   1.808  1.00  0.00     0.166 HD
HETATM   34  C10 UNL     1      -4.961   0.037   1.216  1.00  0.00     0.174 A 
BRANCH  32  35
HETATM   35  N7  UNL     1      -6.954  -0.276   2.308  1.00  0.00    -0.383 N 
ATOM     36  H72 UNL     1      -7.851   0.070   2.648  1.00  0.00     0.157 HD
ATOM     37  H71 UNL     1      -6.673  -1.243   2.469  1.00  0.00     0.157 HD
ENDBRANCH  32  35
BRANCH  34  38
HETATM   38  N8  UNL     1      -4.526  -1.302   1.417  1.00  0.00    -0.109 N 
HETATM   39  O2  UNL     1      -4.495  -2.155   0.511  1.00  0.00    -0.532 OA
HETATM   40  O3  UNL     1      -4.121  -1.675   2.675  1.00  0.00    -0.532 OA
ENDBRANCH  34  38
ENDBRANCH   4  28
TORSDOF 8
