REMARK  12 active torsions:
REMARK  status: ('A' for Active; 'I' for Inactive)
REMARK    1  A    between atoms: C2_2  and  O1_4 
REMARK    2  A    between atoms: C2_2  and  C4_6 
REMARK    3  A    between atoms: C4_6  and  C5_7 
REMARK    4  A    between atoms: C5_7  and  O2_8 
REMARK    5  A    between atoms: C5_7  and  C6_10 
REMARK    6  A    between atoms: C6_10  and  N1_11 
REMARK    7  A    between atoms: C7_12  and  N2_13 
REMARK    8  A    between atoms: C16_23  and  N4_24 
REMARK    9  A    between atoms: C17_28  and  C18_29 
REMARK   10  A    between atoms: C18_29  and  N7_30 
REMARK   11  A    between atoms: C18_29  and  N8_34 
REMARK   12  A    between atoms: C19_40  and  N10_41 
ROOT
HETATM    1  N1  UNL     1      -0.451   0.469   0.115  1.00  0.00    -0.293 N 
HETATM    2  C7  UNL     1      -0.316   1.740  -0.416  1.00  0.00     0.132 A 
HETATM    3  C13 UNL     1       0.932   2.144  -0.867  1.00  0.00     0.091 A 
HETATM    4  C14 UNL     1       1.149   3.466  -1.428  1.00  0.00     0.103 C 
HETATM    5  N3  UNL     1       1.357   4.529  -1.878  1.00  0.00    -0.191 NA
HETATM    6  C15 UNL     1       2.038   1.345  -0.810  1.00  0.00     0.063 A 
HETATM    7  C16 UNL     1       1.886   0.092  -0.277  1.00  0.00     0.118 A 
HETATM    8  C19 UNL     1       0.640  -0.325   0.179  1.00  0.00     0.137 A 
ENDROOT
BRANCH   2   9
HETATM    9  N2  UNL     1      -1.310   2.730  -0.416  1.00  0.00    -0.366 N 
HETATM   10  C8  UNL     1      -1.474   3.447   0.858  1.00  0.00     0.124 C 
HETATM   11  C9  UNL     1      -1.438   4.939   0.645  1.00  0.00     0.020 C 
HETATM   12  C10 UNL     1      -2.146   5.353  -0.622  1.00  0.00     0.003 C 
HETATM   13  C11 UNL     1      -3.031   4.233  -1.108  1.00  0.00     0.020 C 
HETATM   14  C12 UNL     1      -2.081   3.101  -1.551  1.00  0.00     0.124 C 
ENDBRANCH   2   9
BRANCH   1  15
HETATM   15  C6  UNL     1      -1.743   0.037   0.504  1.00  0.00     0.105 C 
BRANCH  15  16
HETATM   16  C5  UNL     1      -2.587  -0.837  -0.330  1.00  0.00     0.160 C 
BRANCH  16  17
HETATM   17  C4  UNL     1      -2.313  -2.258  -0.602  1.00  0.00     0.074 C 
BRANCH  17  18
HETATM   18  C2  UNL     1      -2.701  -3.285   0.375  1.00  0.00     0.053 C 
HETATM   19  C1  UNL     1      -2.235  -3.327   1.752  1.00  0.00     0.045 C 
HETATM   20  C3  UNL     1      -2.323  -4.646  -0.261  1.00  0.00     0.045 C 
BRANCH  18  21
HETATM   21  O1  UNL     1      -4.140  -3.364   0.407  1.00  0.00    -0.391 OA
ATOM     22  H1  UNL     1      -4.444  -3.337  -0.492  1.00  0.00     0.210 HD
ENDBRANCH  18  21
ENDBRANCH  17  18
ENDBRANCH  16  17
BRANCH  16  23
HETATM   23  O2  UNL     1      -2.124  -0.311  -1.689  1.00  0.00    -0.390 OA
ATOM     24  H2  UNL     1      -2.301   0.606  -1.514  1.00  0.00     0.210 HD
ENDBRANCH  16  23
ENDBRANCH  15  16
ENDBRANCH   1  15
BRANCH   7  25
HETATM   25  N4  UNL     1       2.985  -0.817  -0.173  1.00  0.00    -0.175 N 
HETATM   26  N5  UNL     1       3.209  -1.761  -1.073  1.00  0.00     0.003 NA
HETATM   27  N6  UNL     1       4.285  -2.448  -0.723  1.00  0.00    -0.267 N 
HETATM   28  C17 UNL     1       4.765  -1.939   0.424  1.00  0.00     0.169 A 
ATOM     29  H6  UNL     1       4.683  -3.233  -1.238  1.00  0.00     0.185 HD
HETATM   30  N9  UNL     1       3.926  -0.926   0.730  1.00  0.00    -0.265 N 
ATOM     31  H9  UNL     1       4.014  -0.328   1.552  1.00  0.00     0.190 HD
BRANCH  28  32
HETATM   32  C18 UNL     1       5.956  -2.366   1.218  1.00  0.00     0.447 C 
BRANCH  32  33
HETATM   33  N7  UNL     1       6.747  -1.242   1.642  1.00  0.00    -0.043 N 
ATOM     34  H73 UNL     1       7.018  -0.659   0.850  1.00  0.00     0.277 HD
ATOM     35  H72 UNL     1       6.183  -0.563   2.154  1.00  0.00     0.277 HD
ATOM     36  H71 UNL     1       7.560  -1.534   2.184  1.00  0.00     0.277 HD
ENDBRANCH  32  33
BRANCH  32  37
HETATM   37  N8  UNL     1       6.760  -3.301   0.480  1.00  0.00    -0.043 N 
ATOM     38  H83 UNL     1       6.212  -4.101   0.165  1.00  0.00     0.277 HD
ATOM     39  H82 UNL     1       7.029  -2.929  -0.431  1.00  0.00     0.277 HD
ATOM     40  H81 UNL     1       7.573  -3.593   1.022  1.00  0.00     0.277 HD
ENDBRANCH  32  37
ENDBRANCH  28  32
ENDBRANCH   7  25
BRANCH   8  41
HETATM   41  N10 UNL     1       0.621  -1.482   0.716  1.00  0.00    -0.383 N 
ATOM     42 2H10 UNL     1      -0.293  -1.788   1.050  1.00  0.00     0.157 HD
ATOM     43 1H10 UNL     1       1.445  -2.082   0.764  1.00  0.00     0.157 HD
ENDBRANCH   8  41
TORSDOF 12
