REMARK  8 active torsions:
REMARK  status: ('A' for Active; 'I' for Inactive)
REMARK    1  A    between atoms: C7_14  and  C8_15 
REMARK       I    between atoms: C8_15  and  N4_17 
REMARK    2  A    between atoms: N4_17  and  N5_19 
REMARK    3  A    between atoms: C10_26  and  C11_27 
REMARK    4  A    between atoms: C11_27  and  N8_28 
REMARK    5  A    between atoms: C11_27  and  C12_32 
REMARK    6  A    between atoms: C12_32  and  C14_34 
REMARK    7  A    between atoms: C14_34  and  C15_35 
REMARK    8  A    between atoms: C15_35  and  O2_36 
ROOT
HETATM    1  C8  UNL     1      -1.998   1.016   1.191  1.00  0.00     0.276 C 
HETATM    2  O1  UNL     1      -1.372   2.111   1.421  1.00  0.00    -0.266 OA
HETATM    3  N4  UNL     1      -1.277  -0.167   1.477  1.00  0.00    -0.264 N 
ATOM      4  H4  UNL     1      -1.719  -1.071   1.307  1.00  0.00     0.190 HD
ENDROOT
BRANCH   3   5
HETATM    5  N5  UNL     1       0.037  -0.131   1.991  1.00  0.00    -0.276 N 
HETATM    6  C9  UNL     1       0.985   0.088   1.126  1.00  0.00     0.180 A 
HETATM    7  N6  UNL     1       0.899   0.285  -0.189  1.00  0.00    -0.278 N 
HETATM    8  S1  UNL     1       2.685   0.200   1.372  1.00  0.00    -0.034 SA
HETATM    9  N7  UNL     1       1.957   0.482  -0.858  1.00  0.00    -0.294 N 
ATOM     10  H6  UNL     1      -0.010   0.277  -0.653  1.00  0.00     0.189 HD
HETATM   11  C10 UNL     1       3.135   0.492  -0.251  1.00  0.00     0.100 A 
ATOM     12  H7  UNL     1       1.902   0.633  -1.865  1.00  0.00     0.187 HD
ATOM     13  H5  UNL     1       0.233  -0.269   2.983  1.00  0.00     0.189 HD
BRANCH  11  14
HETATM   14  C11 UNL     1       4.493   0.716  -0.871  1.00  0.00     0.245 C 
BRANCH  14  15
HETATM   15  N8  UNL     1       4.472  -0.050  -2.104  1.00  0.00    -0.069 N 
ATOM     16  H83 UNL     1       4.233  -1.033  -1.976  1.00  0.00     0.275 HD
ATOM     17  H82 UNL     1       3.693   0.180  -2.721  1.00  0.00     0.275 HD
ATOM     18  H81 UNL     1       5.390   0.101  -2.523  1.00  0.00     0.275 HD
ENDBRANCH  14  15
BRANCH  14  19
HETATM   19  C12 UNL     1       5.571   0.129  -0.012  1.00  0.00     0.020 C 
HETATM   20  C13 UNL     1       6.891   0.423  -0.725  1.00  0.00     0.012 C 
BRANCH  19  21
HETATM   21  C14 UNL     1       5.412  -1.371   0.092  1.00  0.00     0.033 C 
BRANCH  21  22
HETATM   22  C15 UNL     1       6.473  -1.997   0.946  1.00  0.00     0.164 C 
BRANCH  22  23
HETATM   23  O2  UNL     1       6.470  -1.515   2.246  1.00  0.00    -0.401 OA
ATOM     24  H2  UNL     1       7.142  -1.912   2.787  1.00  0.00     0.209 HD
ENDBRANCH  22  23
ENDBRANCH  21  22
ENDBRANCH  19  21
ENDBRANCH  14  19
ENDBRANCH  11  14
ENDBRANCH   3   5
BRANCH   1  25
HETATM   25  C7  UNL     1      -3.344   0.954   0.672  1.00  0.00     0.113 C 
HETATM   26  C5  UNL     1      -3.863   2.045  -0.027  1.00  0.00     0.004 C 
HETATM   27  C4  UNL     1      -5.187   2.244  -0.434  1.00  0.00     0.121 C 
HETATM   28  C6  UNL     1      -2.934   3.110  -0.408  1.00  0.00     0.053 C 
HETATM   29  N2  UNL     1      -6.068   1.257  -0.733  1.00  0.00    -0.174 N 
HETATM   30  N3  UNL     1      -5.588   3.464  -0.532  1.00  0.00    -0.385 N 
HETATM   31  C3  UNL     1      -5.967  -0.080  -0.586  1.00  0.00     0.709 A 
ATOM     32  H2  UNL     1      -6.949   1.578  -1.134  1.00  0.00     0.186 HD
HETATM   33  N1  UNL     1      -6.729  -1.010  -1.155  1.00  0.00    -0.178 N 
HETATM   34  N9  UNL     1      -5.066  -0.729   0.174  1.00  0.00    -0.045 N 
HETATM   35  C2  UNL     1      -6.311  -2.242  -0.756  1.00  0.00     0.109 A 
ATOM     36  H1  UNL     1      -7.505  -0.828  -1.791  1.00  0.00     0.185 HD
HETATM   37  C1  UNL     1      -6.889  -3.551  -1.157  1.00  0.00     0.091 C 
HETATM   38  N10 UNL     1      -5.273  -2.024   0.071  1.00  0.00    -0.265 N 
ATOM     39  H10 UNL     1      -4.732  -2.748   0.544  1.00  0.00     0.189 HD
HETATM   40  C16 UNL     1      -4.073  -0.209   0.955  1.00  0.00     0.298 C 
HETATM   41  O3  UNL     1      -3.802  -0.830   2.008  1.00  0.00    -0.264 OA
ATOM     42  H32 UNL     1      -6.553   3.609  -0.829  1.00  0.00     0.157 HD
ATOM     43  H31 UNL     1      -4.925   4.206  -0.307  1.00  0.00     0.157 HD
ENDBRANCH   1  25
TORSDOF 8
