REMARK  3 active torsions:
REMARK  status: ('A' for Active; 'I' for Inactive)
REMARK    1  A    between atoms: O1_1  and  C1_3 
REMARK    2  A    between atoms: C1_3  and  C2_4 
REMARK    3  A    between atoms: C3_5  and  C4_6 
ROOT
HETATM    1  C2  UNL     1       1.399   0.328  -0.362  1.00  0.00    -0.038 C 
HETATM    2  C3  UNL     1       0.266  -0.066  -0.206  1.00  0.00    -0.096 C 
ENDROOT
BRANCH   1   3
HETATM    3  C1  UNL     1       2.771   0.788  -0.569  1.00  0.00     0.231 C 
HETATM    4  C9  UNL     1       3.658   0.390   0.594  1.00  0.00     0.109 C 
HETATM    5  C10 UNL     1       3.624  -0.904  -0.192  1.00  0.00     0.178 C 
HETATM    6  O3  UNL     1       3.532  -0.106  -1.358  1.00  0.00    -0.345 OA
BRANCH   3   7
HETATM    7  O1  UNL     1       2.902   2.115  -0.948  1.00  0.00    -0.355 OA
ATOM      8  H1  UNL     1       3.794   2.414  -1.083  1.00  0.00     0.214 HD
ENDBRANCH   3   7
ENDBRANCH   1   3
BRANCH   2   9
HETATM    9  C4  UNL     1      -1.097  -0.547  -0.040  1.00  0.00     0.069 C 
HETATM   10  C5  UNL     1      -1.478  -0.365   1.424  1.00  0.00     0.043 C 
HETATM   11  C6  UNL     1      -3.002  -0.302   1.537  1.00  0.00     0.169 C 
HETATM   12  O2  UNL     1      -3.523  -1.060   0.481  1.00  0.00    -0.391 OA
HETATM   13  C7  UNL     1      -3.446  -0.324  -0.706  1.00  0.00     0.169 C 
HETATM   14  C8  UNL     1      -2.059   0.262  -0.888  1.00  0.00     0.043 C 
ENDBRANCH   2   9
TORSDOF 3
