REMARK  1 active torsions:
REMARK  status: ('A' for Active; 'I' for Inactive)
REMARK    1  A    between atoms: C5_7  and  O2_8 
ROOT
HETATM    1  C1  UNL     1      -1.359   2.322   0.134  1.00  0.00     0.310 C 
HETATM    2  N1  UNL     1      -1.277   0.898   0.499  1.00  0.00     0.094 N 
HETATM    3  C2  UNL     1      -2.415   0.223   0.007  1.00  0.00     0.307 C 
HETATM    4  C3  UNL     1      -2.279  -1.216  -0.278  1.00  0.00     0.182 A 
HETATM    5  O1  UNL     1      -1.638  -1.419  -1.605  1.00  0.00    -0.370 OA
HETATM    6  C4  UNL     1      -1.030  -1.818  -0.439  1.00  0.00     0.189 A 
HETATM    7  C5  UNL     1       0.151  -1.062   0.096  1.00  0.00     0.117 C 
HETATM    8  C6  UNL     1       1.450  -1.432  -0.548  1.00  0.00     0.043 C 
HETATM    9  C7  UNL     1       2.398  -0.308  -0.739  1.00  0.00     0.003 C 
HETATM   10  C8  UNL     1       2.382   0.751   0.294  1.00  0.00     0.002 C 
HETATM   11  C9  UNL     1       1.068   1.000   0.947  1.00  0.00     0.039 C 
HETATM   12  C10 UNL     1      -0.015   0.420   0.037  1.00  0.00     0.259 C 
ENDROOT
BRANCH   7  13
HETATM   13  O2  UNL     1       0.262  -1.410   1.463  1.00  0.00    -0.385 OA
ATOM     14  H2  UNL     1       1.010  -0.931   1.802  1.00  0.00     0.210 HD
ENDBRANCH   7  13
TORSDOF 1
