REMARK  1 active torsions:
REMARK  status: ('A' for Active; 'I' for Inactive)
REMARK    1  A    between atoms: C9_11  and  O2_12 
ROOT
HETATM    1  C1  UNL     1       3.655   0.549   0.033  1.00  0.00     0.154 C 
HETATM    2  N1  UNL     1       2.425  -0.107   0.239  1.00  0.00    -0.375 N 
HETATM    3  C2  UNL     1       2.191  -1.319  -0.406  1.00  0.00     0.065 C 
HETATM    4  C3  UNL     1       0.876  -1.491  -1.081  1.00  0.00     0.080 C 
HETATM    5  C4  UNL     1      -0.275  -0.891  -0.343  1.00  0.00     0.165 C 
HETATM    6  O1  UNL     1      -1.371  -0.722  -1.205  1.00  0.00    -0.382 OA
HETATM    7  C5  UNL     1      -2.560  -0.889  -0.538  1.00  0.00     0.168 C 
HETATM    8  C6  UNL     1      -3.193   0.358  -0.044  1.00  0.00     0.026 C 
HETATM    9  C7  UNL     1      -2.281   1.354   0.562  1.00  0.00     0.006 C 
HETATM   10  C8  UNL     1      -1.060   0.795   1.210  1.00  0.00     0.046 C 
HETATM   11  C9  UNL     1       0.039   0.496   0.186  1.00  0.00     0.116 C 
HETATM   12  C10 UNL     1       1.377   0.598   0.826  1.00  0.00     0.102 C 
ENDROOT
BRANCH  11  13
HETATM   13  O2  UNL     1      -0.074   1.438  -0.842  1.00  0.00    -0.382 OA
ATOM     14  H2  UNL     1       0.123   2.306  -0.511  1.00  0.00     0.211 HD
ENDBRANCH  11  13
TORSDOF 1
