REMARK  1 active torsions:
REMARK  status: ('A' for Active; 'I' for Inactive)
REMARK    1  A    between atoms: O1_1  and  C1_3 
ROOT
HETATM    1  C1  UNL     1      -2.356   0.870  -0.011  1.00  0.00     0.142 C 
HETATM    2  C2  UNL     1      -2.932  -0.519   0.106  1.00  0.00     0.199 C 
HETATM    3  O2  UNL     1      -2.166  -1.481  -0.490  1.00  0.00    -0.388 OA
HETATM    4  C3  UNL     1      -0.877  -1.558  -0.024  1.00  0.00     0.179 C 
HETATM    5  C4  UNL     1      -0.108  -0.288  -0.056  1.00  0.00     0.015 C 
HETATM    6  C5  UNL     1      -0.893   0.951   0.147  1.00  0.00     0.047 C 
HETATM    7  C6  UNL     1       0.791  -0.222  -1.297  1.00  0.00     0.284 C 
HETATM    8  N1  UNL     1       2.126  -0.585  -0.852  1.00  0.00     0.089 N 
HETATM    9  C7  UNL     1       2.777   0.588  -0.238  1.00  0.00     0.273 C 
HETATM   10  C8  UNL     1       1.780   0.928   0.868  1.00  0.00     0.037 C 
HETATM   11  C9  UNL     1       0.972  -0.323   1.025  1.00  0.00     0.028 C 
HETATM   12  C10 UNL     1       1.919  -1.348   0.396  1.00  0.00     0.278 C 
ENDROOT
BRANCH   1  13
HETATM   13  O1  UNL     1      -2.785   1.452  -1.224  1.00  0.00    -0.393 OA
ATOM     14  H1  UNL     1      -2.422   2.327  -1.298  1.00  0.00     0.210 HD
ENDBRANCH   1  13
TORSDOF 1
