REMARK  1 active torsions:
REMARK  status: ('A' for Active; 'I' for Inactive)
REMARK    1  A    between atoms: C3_4  and  O1_5 
ROOT
HETATM    1  C1  UNL     1       2.922  -0.628   0.850  1.00  0.00     0.312 C 
HETATM    2  N1  UNL     1       1.576  -0.117   0.598  1.00  0.00     0.120 N 
HETATM    3  C2  UNL     1       1.757   1.225   0.050  1.00  0.00     0.308 C 
HETATM    4  C3  UNL     1       0.407   1.798  -0.200  1.00  0.00     0.179 C 
HETATM    5  C4  UNL     1      -0.506   0.880  -0.986  1.00  0.00     0.256 C 
HETATM    6  C5  UNL     1      -1.912   1.163  -0.497  1.00  0.00     0.038 C 
HETATM    7  C6  UNL     1      -2.421   0.142   0.457  1.00  0.00     0.004 C 
HETATM    8  C7  UNL     1      -2.192  -1.273   0.015  1.00  0.00     0.036 C 
HETATM    9  C8  UNL     1      -0.951  -1.500  -0.740  1.00  0.00     0.230 C 
HETATM   10  C9  UNL     1       0.156  -2.064   0.160  1.00  0.00     0.104 C 
HETATM   11  C10 UNL     1       0.999  -0.928  -0.419  1.00  0.00     0.459 C 
HETATM   12  N2  UNL     1      -0.133  -0.441  -1.070  1.00  0.00     0.134 N 
ENDROOT
BRANCH   4  13
HETATM   13  O1  UNL     1      -0.159   2.099   1.061  1.00  0.00    -0.392 OA
ATOM     14  H1  UNL     1      -1.021   2.465   0.901  1.00  0.00     0.210 HD
ENDBRANCH   4  13
TORSDOF 1
