REMARK  1 active torsions:
REMARK  status: ('A' for Active; 'I' for Inactive)
REMARK    1  A    between atoms: C9_11  and  O2_12 
ROOT
HETATM    1  C1  UNL     1       2.907  -1.307  -0.308  1.00  0.00     0.046 C 
HETATM    2  C2  UNL     1       1.714  -0.568   0.314  1.00  0.00     0.175 C 
HETATM    3  C3  UNL     1       0.507  -1.387   0.049  1.00  0.00     0.278 C 
HETATM    4  N1  UNL     1      -0.742  -0.748   0.188  1.00  0.00     0.040 N 
HETATM    5  O1  UNL     1      -1.357  -1.015   1.374  1.00  0.00    -0.060 OA
HETATM    6  C4  UNL     1      -1.641  -1.269  -0.844  1.00  0.00     0.318 C 
HETATM    7  C5  UNL     1      -2.644  -0.193  -1.126  1.00  0.00     0.039 C 
HETATM    8  C6  UNL     1      -2.282   0.907  -0.132  1.00  0.00     0.045 C 
HETATM    9  C7  UNL     1      -0.772   0.657  -0.014  1.00  0.00     0.265 C 
HETATM   10  C8  UNL     1      -0.157   1.453   1.090  1.00  0.00     0.103 C 
HETATM   11  C9  UNL     1       1.325   1.577   0.817  1.00  0.00     0.260 C 
HETATM   12  O3  UNL     1       1.707   0.694  -0.209  1.00  0.00    -0.351 OA
ENDROOT
BRANCH  11  13
HETATM   13  O2  UNL     1       1.698   2.852   0.442  1.00  0.00    -0.371 OA
ATOM     14  H2  UNL     1       2.629   2.930   0.270  1.00  0.00     0.212 HD
ENDBRANCH  11  13
TORSDOF 1
