REMARK  1 active torsions:
REMARK  status: ('A' for Active; 'I' for Inactive)
REMARK    1  A    between atoms: O1_1  and  C1_3 
ROOT
HETATM    1  C1  UNL     1      -0.660   1.023  -0.775  1.00  0.00     0.364 C 
HETATM    2  C2  UNL     1      -1.014  -0.451  -0.804  1.00  0.00     0.055 C 
HETATM    3  C3  UNL     1      -2.463  -0.532  -0.294  1.00  0.00     0.036 C 
HETATM    4  C4  UNL     1      -2.527   0.171   1.011  1.00  0.00     0.171 C 
HETATM    5  O2  UNL     1      -1.457   0.235   1.795  1.00  0.00    -0.357 OA
HETATM    6  C5  UNL     1      -0.203   0.070   1.266  1.00  0.00     0.366 C 
HETATM    7  C6  UNL     1      -0.245  -1.092   0.327  1.00  0.00     0.053 C 
HETATM    8  C7  UNL     1       1.037  -1.696  -0.041  1.00  0.00     0.010 C 
HETATM    9  C8  UNL     1       2.143  -0.825  -0.482  1.00  0.00     0.002 C 
HETATM   10  C9  UNL     1       2.435   0.351   0.386  1.00  0.00     0.030 C 
HETATM   11  C10 UNL     1       1.472   1.484   0.249  1.00  0.00     0.279 C 
HETATM   12  N1  UNL     1       0.107   1.172   0.403  1.00  0.00     0.146 N 
ENDROOT
BRANCH   1  13
HETATM   13  O1  UNL     1      -0.046   1.451  -1.940  1.00  0.00    -0.367 OA
ATOM     14  H1  UNL     1       0.176   2.375  -1.922  1.00  0.00     0.212 HD
ENDBRANCH   1  13
TORSDOF 1
