REMARK  16 active torsions:
REMARK  status: ('A' for Active; 'I' for Inactive)
REMARK    1  A    between atoms: C2_2  and  C3_3 
REMARK    2  A    between atoms: C3_3  and  C4_4 
REMARK    3  A    between atoms: C4_4  and  C5_5 
REMARK    4  A    between atoms: C5_5  and  C6_6 
REMARK    5  A    between atoms: C6_6  and  C7_7 
REMARK    6  A    between atoms: C7_7  and  C8_8 
REMARK    7  A    between atoms: C10_12  and  C11_13 
REMARK       I    between atoms: N1_14  and  C12_16 
REMARK       I    between atoms: C12_16  and  N2_18 
REMARK    8  A    between atoms: N2_18  and  C13_20 
REMARK    9  A    between atoms: C13_20  and  C14_21 
REMARK   10  A    between atoms: C14_21  and  C15_22 
REMARK   11  A    between atoms: C15_22  and  C16_23 
REMARK   12  A    between atoms: C18_27  and  C19_28 
REMARK   13  A    between atoms: C19_28  and  C20_29 
REMARK   14  A    between atoms: C23_32  and  O6_33 
REMARK   15  A    between atoms: C24_37  and  C25_38 
REMARK   16  A    between atoms: C25_38  and  C26_39 
ROOT
HETATM    1  C8  UNL     1       2.096   0.791  -0.533  1.00  0.00     0.186 C 
HETATM    2  C9  UNL     1       1.030   1.817  -0.379  1.00  0.00     0.282 C 
HETATM    3  O1  UNL     1       1.321   2.900  -1.023  1.00  0.00    -0.263 OA
HETATM    4  O2  UNL     1      -0.059   1.584   0.346  1.00  0.00    -0.309 OA
HETATM    5  C10 UNL     1      -1.362   1.180   0.127  1.00  0.00     0.171 C 
HETATM    6  C17 UNL     1      -1.636   0.460  -1.128  1.00  0.00     0.051 C 
HETATM    7  C18 UNL     1      -2.366  -0.868  -0.999  1.00  0.00     0.063 C 
HETATM    8  C23 UNL     1      -2.390  -1.329   0.416  1.00  0.00     0.116 C 
HETATM    9  N3  UNL     1      -1.388  -2.006   1.129  1.00  0.00    -0.361 N 
ATOM     10  H3  UNL     1      -1.003  -1.454   1.896  1.00  0.00     0.162 HD
HETATM   11  C24 UNL     1      -0.795  -3.287   1.017  1.00  0.00     0.175 C 
HETATM   12  C29 UNL     1      -0.363  -3.711  -0.330  1.00  0.00     0.241 C 
HETATM   13  O7  UNL     1      -1.212  -4.354  -1.053  1.00  0.00    -0.271 OA
HETATM   14  N4  UNL     1       0.897  -3.492  -0.931  1.00  0.00    -0.346 N 
ATOM     15  H4  UNL     1       1.376  -4.320  -1.284  1.00  0.00     0.163 HD
HETATM   16  C30 UNL     1       1.587  -2.237  -1.105  1.00  0.00     0.172 C 
HETATM   17  C31 UNL     1       2.692  -2.448  -2.163  1.00  0.00     0.042 C 
HETATM   18  C32 UNL     1       2.144  -1.652   0.121  1.00  0.00     0.242 C 
HETATM   19  O8  UNL     1       2.702  -2.470   0.928  1.00  0.00    -0.271 OA
HETATM   20  N5  UNL     1       2.087  -0.263   0.426  1.00  0.00    -0.341 N 
HETATM   21  C33 UNL     1       2.035   0.093   1.830  1.00  0.00     0.153 C 
ENDROOT
BRANCH   5  22
HETATM   22  C11 UNL     1      -2.218   2.426   0.123  1.00  0.00     0.098 C 
HETATM   23  N1  UNL     1      -2.289   3.071  -0.989  1.00  0.00    -0.320 N 
HETATM   24  C12 UNL     1      -3.027   4.239  -1.187  1.00  0.00     0.319 C 
ATOM     25  H1  UNL     1      -1.768   2.701  -1.784  1.00  0.00     0.169 HD
HETATM   26  O3  UNL     1      -2.625   5.126  -1.970  1.00  0.00    -0.247 OA
HETATM   27  N2  UNL     1      -4.246   4.430  -0.496  1.00  0.00    -0.343 N 
ATOM     28  H2  UNL     1      -4.577   3.708   0.144  1.00  0.00     0.164 HD
BRANCH  27  29
HETATM   29  C13 UNL     1      -5.046   5.651  -0.684  1.00  0.00     0.125 C 
BRANCH  29  30
HETATM   30  C14 UNL     1      -6.282   5.652   0.140  1.00  0.00     0.030 C 
BRANCH  30  31
HETATM   31  C15 UNL     1      -5.963   5.559   1.596  1.00  0.00     0.114 C 
BRANCH  31  32
HETATM   32  C16 UNL     1      -5.185   6.701   2.051  1.00  0.00     0.172 C 
HETATM   33  O4  UNL     1      -4.861   7.682   1.359  1.00  0.00    -0.648 OA
HETATM   34  O5  UNL     1      -4.738   6.739   3.391  1.00  0.00    -0.648 OA
ENDBRANCH  31  32
ENDBRANCH  30  31
ENDBRANCH  29  30
ENDBRANCH  27  29
ENDBRANCH   5  22
BRANCH   7  35
HETATM   35  C19 UNL     1      -3.787  -0.683  -1.475  1.00  0.00     0.016 C 
BRANCH  35  36
HETATM   36  C20 UNL     1      -4.656  -1.884  -1.451  1.00  0.00    -0.022 C 
HETATM   37  C21 UNL     1      -6.036  -1.408  -1.963  1.00  0.00     0.009 C 
HETATM   38  C22 UNL     1      -4.211  -2.957  -2.420  1.00  0.00     0.009 C 
ENDBRANCH  35  36
ENDBRANCH   7  35
BRANCH   1  39
HETATM   39  C7  UNL     1       3.478   1.471  -0.445  1.00  0.00     0.035 C 
BRANCH  39  40
HETATM   40  C6  UNL     1       4.608   0.514  -0.584  1.00  0.00     0.002 C 
BRANCH  40  41
HETATM   41  C5  UNL     1       5.896   1.328  -0.480  1.00  0.00     0.000 C 
BRANCH  41  42
HETATM   42  C4  UNL     1       7.101   0.434  -0.609  1.00  0.00     0.000 C 
BRANCH  42  43
HETATM   43  C3  UNL     1       8.388   1.208  -0.519  1.00  0.00    -0.000 C 
BRANCH  43  44
HETATM   44  C2  UNL     1       8.522   1.937   0.800  1.00  0.00    -0.005 C 
HETATM   45  C1  UNL     1       9.834   2.706   0.856  1.00  0.00     0.005 C 
ENDBRANCH  43  44
ENDBRANCH  42  43
ENDBRANCH  41  42
ENDBRANCH  40  41
ENDBRANCH  39  40
ENDBRANCH   1  39
BRANCH   8  46
HETATM   46  O6  UNL     1      -3.508  -1.036   1.023  1.00  0.00    -0.349 OA
ATOM     47  H6  UNL     1      -3.523  -1.330   1.926  1.00  0.00     0.219 HD
ENDBRANCH   8  46
BRANCH  11  48
HETATM   48  C25 UNL     1      -1.681  -4.384   1.647  1.00  0.00     0.038 C 
BRANCH  48  49
HETATM   49  C26 UNL     1      -0.985  -5.716   1.543  1.00  0.00    -0.020 C 
HETATM   50  C27 UNL     1      -1.818  -6.827   2.152  1.00  0.00     0.009 C 
HETATM   51  C28 UNL     1       0.347  -5.679   2.310  1.00  0.00     0.009 C 
ENDBRANCH  48  49
ENDBRANCH  11  48
TORSDOF 16
