REMARK  16 active torsions:
REMARK  status: ('A' for Active; 'I' for Inactive)
REMARK    1  A    between atoms: C2_2  and  C3_3 
REMARK    2  A    between atoms: C5_5  and  C6_6 
REMARK    3  A    between atoms: C6_6  and  C7_7 
REMARK    4  A    between atoms: C6_6  and  N1_10 
REMARK    5  A    between atoms: C7_7  and  O1_8 
REMARK    6  A    between atoms: N1_10  and  C9_12 
REMARK    7  A    between atoms: C9_12  and  C10_13 
REMARK    8  A    between atoms: C9_12  and  C11_16 
REMARK    9  A    between atoms: C10_13  and  O2_14 
REMARK   10  A    between atoms: C11_16  and  C12_17 
REMARK   11  A    between atoms: C21_26  and  C22_27 
REMARK   12  A    between atoms: C22_27  and  O3_28 
REMARK   13  A    between atoms: C24_34  and  C25_35 
REMARK   14  A    between atoms: C25_35  and  N3_36 
REMARK   15  A    between atoms: N3_36  and  S1_38 
REMARK   16  A    between atoms: S1_38  and  C27_41 
ROOT
HETATM    1  C3  UNL     1      -0.267   1.240   0.209  1.00  0.00    -0.002 C 
HETATM    2  C4  UNL     1      -1.745   1.006   0.180  1.00  0.00     0.012 C 
HETATM    3  C5  UNL     1      -2.138  -0.372  -0.273  1.00  0.00     0.011 C 
HETATM    4  C18 UNL     1      -1.397  -0.655  -1.523  1.00  0.00     0.012 C 
HETATM    5  C19 UNL     1       0.052  -0.867  -1.114  1.00  0.00    -0.001 A 
HETATM    6  C20 UNL     1       1.054   0.083  -1.599  1.00  0.00     0.019 A 
HETATM    7  C21 UNL     1       0.617   0.099  -0.177  1.00  0.00     0.009 A 
ENDROOT
BRANCH   7   8
HETATM    8  C22 UNL     1       1.575  -0.354   0.914  1.00  0.00     0.170 C 
HETATM    9  C23 UNL     1       2.320  -1.590   0.645  1.00  0.00     0.283 C 
HETATM   10  N2  UNL     1       3.745  -1.466   0.330  1.00  0.00    -0.049 N 
HETATM   11  C24 UNL     1       4.408  -0.808   1.456  1.00  0.00     0.307 C 
ATOM     12  H22 UNL     1       4.173  -2.360   0.090  1.00  0.00     0.279 HD
ATOM     13  H21 UNL     1       3.911  -0.990  -0.557  1.00  0.00     0.279 HD
HETATM   14  N4  UNL     1       3.863   0.568   1.491  1.00  0.00    -0.324 N 
HETATM   15  C34 UNL     1       4.669   1.752   1.508  1.00  0.00     0.155 C 
HETATM   16  C35 UNL     1       2.417   0.694   1.491  1.00  0.00     0.258 C 
HETATM   17  O6  UNL     1       2.007   1.776   2.034  1.00  0.00    -0.270 OA
BRANCH   8  18
HETATM   18  O3  UNL     1       0.664  -0.697   1.983  1.00  0.00    -0.378 OA
ATOM     19  H3  UNL     1       1.262  -0.980   2.664  1.00  0.00     0.211 HD
ENDBRANCH   8  18
BRANCH  11  20
HETATM   20  C25 UNL     1       5.859  -0.742   1.266  1.00  0.00     0.189 C 
BRANCH  20  21
HETATM   21  N3  UNL     1       6.539  -1.977   1.086  1.00  0.00    -0.307 N 
HETATM   22  C26 UNL     1       7.396  -2.411   2.130  1.00  0.00     0.163 C 
BRANCH  21  23
HETATM   23  S1  UNL     1       7.182  -2.263  -0.464  1.00  0.00     0.260 S 
HETATM   24  O4  UNL     1       7.923  -3.578  -0.435  1.00  0.00    -0.200 OA
HETATM   25  O5  UNL     1       6.193  -2.318  -1.567  1.00  0.00    -0.200 OA
BRANCH  23  26
HETATM   26  C27 UNL     1       8.383  -0.989  -0.760  1.00  0.00     0.079 A 
HETATM   27  C28 UNL     1       8.068   0.192  -1.376  1.00  0.00     0.026 A 
HETATM   28  C29 UNL     1       9.054   1.163  -1.546  1.00  0.00     0.008 A 
HETATM   29  C30 UNL     1      10.347   0.981  -1.115  1.00  0.00    -0.062 A 
HETATM   30  C31 UNL     1      11.406   2.009  -1.276  1.00  0.00     0.048 C 
HETATM   31  C32 UNL     1      10.661  -0.212  -0.496  1.00  0.00     0.008 A 
HETATM   32  C33 UNL     1       9.684  -1.180  -0.325  1.00  0.00     0.026 A 
ENDBRANCH  23  26
ENDBRANCH  21  23
ENDBRANCH  20  21
ENDBRANCH  11  20
ENDBRANCH   7   8
BRANCH   1  33
HETATM   33  C2  UNL     1       0.101   2.496  -0.587  1.00  0.00     0.001 C 
HETATM   34  C1  UNL     1      -0.598   3.667   0.070  1.00  0.00     0.005 C 
ENDBRANCH   1  33
BRANCH   3  35
HETATM   35  C6  UNL     1      -3.673  -0.423  -0.397  1.00  0.00     0.109 C 
BRANCH  35  36
HETATM   36  C7  UNL     1      -3.993  -1.843  -0.851  1.00  0.00     0.192 C 
BRANCH  36  37
HETATM   37  O1  UNL     1      -3.512  -2.738   0.109  1.00  0.00    -0.394 OA
HETATM   38  C8  UNL     1      -3.773  -4.049  -0.213  1.00  0.00     0.201 C 
ENDBRANCH  36  37
ENDBRANCH  35  36
BRANCH  35  39
HETATM   39  N1  UNL     1      -4.229  -0.077   0.827  1.00  0.00    -0.385 N 
ATOM     40  H1  UNL     1      -3.774  -0.430   1.669  1.00  0.00     0.160 HD
BRANCH  39  41
HETATM   41  C9  UNL     1      -5.383   0.731   0.994  1.00  0.00     0.025 C 
BRANCH  41  42
HETATM   42  C10 UNL     1      -5.318   2.097   0.458  1.00  0.00     0.220 C 
BRANCH  42  43
HETATM   43  O2  UNL     1      -5.136   2.260  -0.890  1.00  0.00    -0.395 OA
ATOM     44  H2  UNL     1      -5.094   3.143  -1.237  1.00  0.00     0.209 HD
ENDBRANCH  42  43
ENDBRANCH  41  42
BRANCH  41  45
HETATM   45  C11 UNL     1      -6.665   0.012   0.947  1.00  0.00     0.005 C 
BRANCH  45  46
HETATM   46  C12 UNL     1      -7.979   0.675   1.100  1.00  0.00     0.010 C 
HETATM   47  C13 UNL     1      -9.038  -0.475   1.125  1.00  0.00     0.008 C 
HETATM   48  C14 UNL     1      -9.907  -0.525  -0.070  1.00  0.00     0.001 C 
HETATM   49  C15 UNL     1      -9.211  -0.307  -1.382  1.00  0.00     0.000 C 
HETATM   50  C16 UNL     1      -8.515   1.019  -1.357  1.00  0.00     0.001 C 
HETATM   51  C17 UNL     1      -8.478   1.577   0.036  1.00  0.00     0.008 C 
ENDBRANCH  45  46
ENDBRANCH  41  45
ENDBRANCH  39  41
ENDBRANCH  35  39
ENDBRANCH   3  35
TORSDOF 16
