REMARK  18 active torsions:
REMARK  status: ('A' for Active; 'I' for Inactive)
REMARK    1  A    between atoms: C2_2  and  C3_3 
REMARK    2  A    between atoms: C5_5  and  N1_6 
REMARK    3  A    between atoms: C5_5  and  C29_41 
REMARK       I    between atoms: N1_6  and  C6_8 
REMARK    4  A    between atoms: C6_8  and  C7_10 
REMARK    5  A    between atoms: C8_11  and  O2_12 
REMARK    6  A    between atoms: N2_17  and  C13_18 
REMARK    7  A    between atoms: C13_18  and  O3_19 
REMARK    8  A    between atoms: C13_18  and  C14_21 
REMARK    9  A    between atoms: C14_21  and  C15_22 
REMARK   10  A    between atoms: C14_21  and  N3_29 
REMARK   11  A    between atoms: C15_22  and  C16_23 
REMARK   12  A    between atoms: C16_23  and  C17_24 
REMARK   13  A    between atoms: C17_24  and  C18_25 
REMARK   14  A    between atoms: C18_25  and  C19_26 
REMARK   15  A    between atoms: C19_26  and  C20_27 
REMARK       I    between atoms: N3_29  and  C22_31 
REMARK       I    between atoms: C22_31  and  N4_33 
REMARK   16  A    between atoms: N4_33  and  C23_35 
REMARK       I    between atoms: C29_41  and  N5_43 
REMARK   17  A    between atoms: N5_43  and  S1_45 
REMARK   18  A    between atoms: S1_45  and  C30_48 
ROOT
HETATM    1  C7  UNL     1       1.127  -0.793   1.948  1.00  0.00     0.111 C 
HETATM    2  C8  UNL     1       1.756   0.513   2.419  1.00  0.00     0.176 C 
HETATM    3  C10 UNL     1       0.564   1.478   2.644  1.00  0.00     0.040 C 
HETATM    4  C11 UNL     1      -0.118   0.993   3.906  1.00  0.00     0.023 C 
HETATM    5  C12 UNL     1      -0.411  -0.479   3.744  1.00  0.00     0.131 C 
HETATM    6  N2  UNL     1      -0.258  -0.820   2.247  1.00  0.00    -0.326 N 
ENDROOT
BRANCH   6   7
HETATM    7  C13 UNL     1      -1.460  -1.002   1.619  1.00  0.00     0.141 C 
BRANCH   7   8
HETATM    8  O3  UNL     1      -2.502  -0.984   2.450  1.00  0.00    -0.348 OA
ATOM      9  H3  UNL     1      -3.337  -1.110   2.014  1.00  0.00     0.219 HD
ENDBRANCH   7   8
BRANCH   7  10
HETATM   10  C14 UNL     1      -1.905  -1.214   0.246  1.00  0.00     0.161 C 
BRANCH  10  11
HETATM   11  C15 UNL     1      -1.767   0.067  -0.589  1.00  0.00     0.034 C 
BRANCH  11  12
HETATM   12  C16 UNL     1      -2.589   1.199  -0.052  1.00  0.00     0.002 C 
BRANCH  12  13
HETATM   13  C17 UNL     1      -2.391   2.460  -0.910  1.00  0.00     0.000 C 
BRANCH  13  14
HETATM   14  C18 UNL     1      -3.236   3.581  -0.324  1.00  0.00     0.000 C 
BRANCH  14  15
HETATM   15  C19 UNL     1      -3.093   4.845  -1.110  1.00  0.00    -0.000 C 
BRANCH  15  16
HETATM   16  C20 UNL     1      -3.921   5.970  -0.541  1.00  0.00    -0.005 C 
HETATM   17  C21 UNL     1      -5.387   5.680  -0.504  1.00  0.00     0.005 C 
ENDBRANCH  15  16
ENDBRANCH  14  15
ENDBRANCH  13  14
ENDBRANCH  12  13
ENDBRANCH  11  12
ENDBRANCH  10  11
BRANCH  10  18
HETATM   18  N3  UNL     1      -3.365  -1.472   0.194  1.00  0.00    -0.331 N 
HETATM   19  C22 UNL     1      -3.903  -2.618  -0.447  1.00  0.00     0.317 C 
HETATM   20  O4  UNL     1      -3.052  -3.417  -0.968  1.00  0.00    -0.247 OA
HETATM   21  N4  UNL     1      -5.264  -2.926  -0.547  1.00  0.00    -0.339 N 
ATOM     22  H4  UNL     1      -5.958  -2.295  -0.146  1.00  0.00     0.164 HD
ATOM     23  H3  UNL     1      -4.001  -0.806   0.632  1.00  0.00     0.165 HD
BRANCH  21  24
HETATM   24  C23 UNL     1      -5.690  -4.135  -1.216  1.00  0.00     0.086 C 
HETATM   25  C24 UNL     1      -6.490  -3.871  -2.451  1.00  0.00     0.025 C 
HETATM   26  C25 UNL     1      -7.875  -3.410  -2.279  1.00  0.00     0.002 C 
HETATM   27  C26 UNL     1      -8.570  -3.747  -1.022  1.00  0.00     0.000 C 
HETATM   28  C27 UNL     1      -7.715  -4.241   0.097  1.00  0.00     0.002 C 
HETATM   29  C28 UNL     1      -6.530  -5.032  -0.332  1.00  0.00     0.025 C 
ENDBRANCH  21  24
ENDBRANCH  10  18
ENDBRANCH   7  10
ENDBRANCH   6   7
BRANCH   1  30
HETATM   30  C6  UNL     1       1.686  -1.243   0.712  1.00  0.00     0.268 C 
HETATM   31  N1  UNL     1       3.045  -0.937   0.386  1.00  0.00    -0.337 N 
ATOM     32  H1  UNL     1       3.566  -0.393   1.074  1.00  0.00     0.164 HD
HETATM   33  O1  UNL     1       1.092  -1.907  -0.159  1.00  0.00    -0.266 OA
BRANCH  31  34
HETATM   34  C5  UNL     1       3.752  -1.311  -0.800  1.00  0.00     0.122 A 
HETATM   35  C3  UNL     1       3.057  -0.816  -2.094  1.00  0.00     0.048 A 
HETATM   36  C4  UNL     1       3.253  -2.255  -1.836  1.00  0.00     0.053 A 
BRANCH  35  37
HETATM   37  C2  UNL     1       3.883  -0.093  -3.089  1.00  0.00    -0.029 C 
HETATM   38  C1  UNL     1       4.056  -0.502  -4.332  1.00  0.00     0.007 C 
ENDBRANCH  35  37
BRANCH  34  39
HETATM   39  C29 UNL     1       5.250  -1.115  -0.795  1.00  0.00     0.260 C 
HETATM   40  O5  UNL     1       5.850  -1.428  -1.850  1.00  0.00    -0.270 OA
HETATM   41  N5  UNL     1       6.002  -0.621   0.275  1.00  0.00    -0.252 N 
ATOM     42  H5  UNL     1       5.511  -0.367   1.132  1.00  0.00     0.181 HD
BRANCH  41  43
HETATM   43  S1  UNL     1       7.712  -0.417   0.226  1.00  0.00     0.240 S 
HETATM   44  O6  UNL     1       8.361  -1.291  -0.804  1.00  0.00    -0.205 OA
HETATM   45  O7  UNL     1       8.263  -0.809   1.566  1.00  0.00    -0.205 OA
BRANCH  43  46
HETATM   46  C30 UNL     1       8.195   1.248  -0.096  1.00  0.00     0.072 C 
HETATM   47  C31 UNL     1       7.679   2.206   0.962  1.00  0.00     0.033 C 
HETATM   48  C32 UNL     1       9.725   1.283   0.040  1.00  0.00     0.033 C 
HETATM   49  C33 UNL     1       7.882   1.707  -1.488  1.00  0.00     0.033 C 
ENDBRANCH  43  46
ENDBRANCH  41  43
ENDBRANCH  34  39
ENDBRANCH  31  34
ENDBRANCH   1  30
BRANCH   2  50
HETATM   50  O2  UNL     1       2.330   0.339   3.662  1.00  0.00    -0.384 OA
HETATM   51  C9  UNL     1       3.568   0.870   3.858  1.00  0.00     0.202 C 
ENDBRANCH   2  50
TORSDOF 18
