REMARK  17 active torsions:
REMARK  status: ('A' for Active; 'I' for Inactive)
REMARK    1  A    between atoms: C2_2  and  N1_5 
REMARK    2  A    between atoms: N1_5  and  C5_6 
REMARK    3  A    between atoms: N1_5  and  S1_12 
REMARK    4  A    between atoms: S1_12  and  C11_15 
REMARK    5  A    between atoms: C11_15  and  C12_16 
REMARK       I    between atoms: C12_16  and  N2_18 
REMARK    6  A    between atoms: N2_18  and  C13_20 
REMARK    7  A    between atoms: C13_20  and  C14_21 
REMARK    8  A    between atoms: C13_20  and  C16_25 
REMARK    9  A    between atoms: C14_21  and  C15_22 
REMARK       I    between atoms: C16_25  and  N3_27 
REMARK   10  A    between atoms: N3_27  and  C17_29 
REMARK   11  A    between atoms: C17_29  and  C18_30 
REMARK   12  A    between atoms: C17_29  and  C25_37 
REMARK   13  A    between atoms: C18_30  and  C19_31 
REMARK   14  A    between atoms: C25_37  and  C26_39 
REMARK   15  A    between atoms: C26_39  and  O8_40 
REMARK   16  A    between atoms: C26_39  and  C27_42 
REMARK   17  A    between atoms: C27_42  and  C28_43 
ROOT
HETATM    1  C13 UNL     1      -0.555  -1.226   0.700  1.00  0.00     0.186 C 
ENDROOT
BRANCH   1   2
HETATM    2  N2  UNL     1      -1.805  -0.966   0.041  1.00  0.00    -0.346 N 
HETATM    3  C12 UNL     1      -2.618   0.148   0.430  1.00  0.00     0.234 C 
HETATM    4  O3  UNL     1      -2.162   0.865   1.384  1.00  0.00    -0.272 OA
ATOM      5  H2  UNL     1      -2.117  -1.580  -0.711  1.00  0.00     0.163 HD
BRANCH   3   6
HETATM    6  C11 UNL     1      -3.911   0.499  -0.197  1.00  0.00     0.265 C 
BRANCH   6   7
HETATM    7  S1  UNL     1      -5.310   0.028   0.774  1.00  0.00     0.238 S 
HETATM    8  O1  UNL     1      -5.191  -1.430   1.099  1.00  0.00    -0.205 OA
HETATM    9  O2  UNL     1      -5.123   0.803   2.078  1.00  0.00    -0.205 OA
BRANCH   7  10
HETATM   10  N1  UNL     1      -6.793   0.451   0.031  1.00  0.00    -0.297 N 
BRANCH  10  11
HETATM   11  C2  UNL     1      -7.040  -0.145  -1.202  1.00  0.00     0.032 C 
HETATM   12  C1  UNL     1      -6.607  -1.603  -1.184  1.00  0.00     0.038 C 
HETATM   13  C3  UNL     1      -8.534  -0.245  -1.560  1.00  0.00     0.038 C 
HETATM   14  C4  UNL     1      -6.271   0.469  -2.377  1.00  0.00     0.038 C 
ENDBRANCH  10  11
BRANCH  10  15
HETATM   15  C5  UNL     1      -7.338   1.661   0.438  1.00  0.00     0.101 C 
HETATM   16  C6  UNL     1      -8.651   1.637   1.154  1.00  0.00     0.027 C 
HETATM   17  C7  UNL     1      -8.819   3.134   1.486  1.00  0.00     0.007 C 
HETATM   18  C8  UNL     1      -8.568   3.710   0.101  1.00  0.00    -0.008 A 
HETATM   19  C9  UNL     1      -7.210   4.222  -0.092  1.00  0.00     0.012 A 
HETATM   20  C10 UNL     1      -7.518   2.760  -0.545  1.00  0.00     0.013 A 
ENDBRANCH  10  15
ENDBRANCH   7  10
ENDBRANCH   6   7
ENDBRANCH   3   6
ENDBRANCH   1   2
BRANCH   1  21
HETATM   21  C14 UNL     1      -0.633  -2.469   1.514  1.00  0.00     0.148 C 
BRANCH  21  22
HETATM   22  C15 UNL     1      -0.970  -3.673   0.752  1.00  0.00     0.175 C 
HETATM   23  O4  UNL     1      -1.931  -3.710  -0.039  1.00  0.00    -0.648 OA
HETATM   24  O5  UNL     1      -0.237  -4.878   0.854  1.00  0.00    -0.648 OA
ENDBRANCH  21  22
ENDBRANCH   1  21
BRANCH   1  25
HETATM   25  C16 UNL     1       0.606  -1.124  -0.191  1.00  0.00     0.245 C 
HETATM   26  O6  UNL     1       0.434  -1.021  -1.412  1.00  0.00    -0.271 OA
HETATM   27  N3  UNL     1       1.959  -1.129   0.309  1.00  0.00    -0.326 N 
ATOM     28  H3  UNL     1       2.109  -1.222   1.314  1.00  0.00     0.168 HD
BRANCH  27  29
HETATM   29  C17 UNL     1       3.093  -1.010  -0.542  1.00  0.00     0.061 C 
BRANCH  29  30
HETATM   30  C18 UNL     1       4.317  -1.743  -0.266  1.00  0.00     0.065 C 
BRANCH  30  31
HETATM   31  C19 UNL     1       4.235  -3.233  -0.272  1.00  0.00    -0.009 C 
HETATM   32  C20 UNL     1       3.295  -3.748   0.772  1.00  0.00     0.005 C 
HETATM   33  C21 UNL     1       3.617  -5.229   1.025  1.00  0.00     0.000 C 
HETATM   34  C22 UNL     1       4.911  -5.314   1.760  1.00  0.00     0.000 C 
HETATM   35  C23 UNL     1       5.851  -4.187   1.315  1.00  0.00     0.000 C 
HETATM   36  C24 UNL     1       5.610  -3.868  -0.131  1.00  0.00     0.005 C 
ENDBRANCH  30  31
ENDBRANCH  29  30
BRANCH  29  37
HETATM   37  C25 UNL     1       3.328   0.434  -0.927  1.00  0.00     0.200 C 
HETATM   38  O7  UNL     1       2.334   1.127  -1.092  1.00  0.00    -0.288 OA
BRANCH  37  39
HETATM   39  C26 UNL     1       4.656   1.043  -1.116  1.00  0.00     0.194 C 
BRANCH  39  40
HETATM   40  O8  UNL     1       4.451   2.224  -1.897  1.00  0.00    -0.388 OA
ATOM     41  H8  UNL     1       5.307   2.617  -2.019  1.00  0.00     0.210 HD
ENDBRANCH  39  40
BRANCH  39  42
HETATM   42  C27 UNL     1       5.206   1.580   0.191  1.00  0.00     0.044 C 
BRANCH  42  43
HETATM   43  C28 UNL     1       6.571   2.189  -0.001  1.00  0.00    -0.012 C 
HETATM   44  C29 UNL     1       6.615   3.332  -0.972  1.00  0.00     0.005 C 
HETATM   45  C30 UNL     1       7.851   4.172  -0.578  1.00  0.00     0.000 C 
HETATM   46  C31 UNL     1       7.391   5.063   0.560  1.00  0.00     0.000 C 
HETATM   47  C32 UNL     1       6.647   4.167   1.533  1.00  0.00     0.000 C 
HETATM   48  C33 UNL     1       7.064   2.701   1.359  1.00  0.00     0.005 C 
ENDBRANCH  42  43
ENDBRANCH  39  42
ENDBRANCH  37  39
ENDBRANCH  29  37
ENDBRANCH  27  29
ENDBRANCH   1  25
TORSDOF 17
