REMARK  19 active torsions:
REMARK  status: ('A' for Active; 'I' for Inactive)
REMARK    1  A    between atoms: C2_2  and  N1_3 
REMARK    2  A    between atoms: N2_11  and  C9_12 
REMARK    3  A    between atoms: C9_12  and  O2_14 
REMARK    4  A    between atoms: C9_12  and  C11_16 
REMARK    5  A    between atoms: C11_16  and  N3_17 
REMARK    6  A    between atoms: C11_16  and  C28_42 
REMARK    7  A    between atoms: N3_17  and  C12_19 
REMARK    8  A    between atoms: C12_19  and  C13_20 
REMARK    9  A    between atoms: C13_20  and  C14_21 
REMARK   10  A    between atoms: C14_21  and  C15_22 
REMARK   11  A    between atoms: C15_22  and  C16_23 
REMARK   12  A    between atoms: C16_23  and  N4_24 
REMARK   13  A    between atoms: C16_23  and  C17_28 
REMARK   14  A    between atoms: C17_28  and  C18_29 
REMARK       I    between atoms: C18_29  and  N5_31 
REMARK   15  A    between atoms: N6_34  and  C21_35 
REMARK   16  A    between atoms: C21_35  and  C22_36 
REMARK   17  A    between atoms: C22_36  and  C23_37 
REMARK   18  A    between atoms: C31_45  and  C32_46 
REMARK   19  A    between atoms: C32_46  and  N7_47 
ROOT
HETATM    1  C11 UNL     1      -1.989  -1.031  -0.241  1.00  0.00     0.169 C 
ENDROOT
BRANCH   1   2
HETATM    2  C9  UNL     1      -2.641   0.021   0.548  1.00  0.00     0.157 C 
HETATM    3  C10 UNL     1      -1.746   1.201   0.862  1.00  0.00     0.074 C 
BRANCH   2   4
HETATM    4  N2  UNL     1      -3.991   0.408   0.268  1.00  0.00    -0.314 N 
HETATM    5  C8  UNL     1      -4.286   1.280  -0.815  1.00  0.00     0.228 C 
HETATM    6  C7  UNL     1      -5.311   2.360  -0.691  1.00  0.00     0.161 C 
HETATM    7  O1  UNL     1      -3.710   1.183  -1.907  1.00  0.00    -0.273 OA
HETATM    8  C6  UNL     1      -6.527   1.792  -0.045  1.00  0.00     0.029 A 
HETATM    9  N1  UNL     1      -7.808   2.126  -0.067  1.00  0.00    -0.353 N 
HETATM   10  C5  UNL     1      -6.385   0.694   0.748  1.00  0.00    -0.009 A 
HETATM   11  C3  UNL     1      -8.525   1.278   0.691  1.00  0.00     0.018 A 
HETATM   12  C4  UNL     1      -7.657   0.352   1.228  1.00  0.00    -0.025 A 
HETATM   13  C38 UNL     1      -9.929   0.999   1.147  1.00  0.00     0.058 C 
HETATM   14  C36 UNL     1      -8.451  -0.595   2.072  1.00  0.00     0.041 C 
HETATM   15  C37 UNL     1      -9.730   0.134   2.348  1.00  0.00     0.011 C 
HETATM   16  C35 UNL     1      -5.140  -0.019   1.064  1.00  0.00     0.170 C 
BRANCH   9  17
HETATM   17  C2  UNL     1      -8.316   3.272  -0.830  1.00  0.00     0.124 C 
HETATM   18  C1  UNL     1      -8.706   2.884  -2.227  1.00  0.00     0.027 C 
ENDBRANCH   9  17
ENDBRANCH   2   4
BRANCH   2  19
HETATM   19  O2  UNL     1      -2.760  -0.602   1.852  1.00  0.00    -0.369 OA
ATOM     20  H2  UNL     1      -1.864  -0.859   2.038  1.00  0.00     0.212 HD
ENDBRANCH   2  19
ENDBRANCH   1   2
BRANCH   1  21
HETATM   21  N3  UNL     1      -1.558  -0.864  -1.548  1.00  0.00    -0.389 N 
ATOM     22  H3  UNL     1      -2.038  -1.378  -2.287  1.00  0.00     0.159 HD
BRANCH  21  23
HETATM   23  C12 UNL     1      -0.489  -0.019  -1.904  1.00  0.00     0.056 C 
BRANCH  23  24
HETATM   24  C13 UNL     1       0.874  -0.457  -1.451  1.00  0.00     0.044 C 
BRANCH  24  25
HETATM   25  C14 UNL     1       1.979   0.448  -1.871  1.00  0.00     0.007 C 
BRANCH  25  26
HETATM   26  C15 UNL     1       2.006   1.828  -1.437  1.00  0.00     0.037 C 
BRANCH  26  27
HETATM   27  C16 UNL     1       2.127   2.260  -0.026  1.00  0.00     0.211 C 
BRANCH  27  28
HETATM   28  N4  UNL     1       2.033   3.787  -0.021  1.00  0.00    -0.072 N 
ATOM     29  H43 UNL     1       2.712   4.233  -0.638  1.00  0.00     0.275 HD
ATOM     30  H42 UNL     1       1.192   4.139  -0.478  1.00  0.00     0.275 HD
ATOM     31  H41 UNL     1       2.116   4.085   0.951  1.00  0.00     0.275 HD
ENDBRANCH  27  28
BRANCH  27  32
HETATM   32  C17 UNL     1       3.443   2.084   0.662  1.00  0.00     0.079 C 
BRANCH  32  33
HETATM   33  C18 UNL     1       4.028   0.799   0.903  1.00  0.00     0.241 C 
HETATM   34  O3  UNL     1       3.391  -0.265   0.926  1.00  0.00    -0.269 OA
HETATM   35  N5  UNL     1       5.436   0.700   1.135  1.00  0.00    -0.346 N 
HETATM   36  C19 UNL     1       6.326   1.835   1.146  1.00  0.00     0.156 C 
HETATM   37  C27 UNL     1       6.024  -0.588   1.368  1.00  0.00     0.156 C 
HETATM   38  C20 UNL     1       7.232   1.636  -0.076  1.00  0.00     0.292 C 
HETATM   39  N6  UNL     1       7.853   0.359   0.037  1.00  0.00     0.091 N 
HETATM   40  C26 UNL     1       7.521  -0.431   1.164  1.00  0.00     0.292 C 
BRANCH  39  41
HETATM   41  C21 UNL     1       9.244   0.503  -0.223  1.00  0.00     0.273 C 
BRANCH  41  42
HETATM   42  C22 UNL     1      10.004  -0.776  -0.119  1.00  0.00     0.034 C 
BRANCH  42  43
HETATM   43  C23 UNL     1      11.474  -0.530  -0.433  1.00  0.00    -0.021 C 
HETATM   44  C24 UNL     1      12.193  -1.858  -0.313  1.00  0.00     0.009 C 
HETATM   45  C25 UNL     1      12.112   0.425   0.550  1.00  0.00     0.009 C 
ENDBRANCH  42  43
ENDBRANCH  41  42
ENDBRANCH  39  41
ENDBRANCH  32  33
ENDBRANCH  27  32
ENDBRANCH  26  27
ENDBRANCH  25  26
ENDBRANCH  24  25
ENDBRANCH  23  24
ENDBRANCH  21  23
ENDBRANCH   1  21
BRANCH   1  46
HETATM   46  C28 UNL     1      -2.800  -2.307  -0.206  1.00  0.00    -0.031 A 
HETATM   47  C29 UNL     1      -2.632  -3.276   0.742  1.00  0.00     0.010 A 
HETATM   48  C30 UNL     1      -3.407  -4.412   0.682  1.00  0.00     0.009 A 
HETATM   49  C31 UNL     1      -4.358  -4.628  -0.298  1.00  0.00    -0.033 A 
HETATM   50  C33 UNL     1      -4.507  -3.637  -1.240  1.00  0.00     0.009 A 
HETATM   51  C34 UNL     1      -3.739  -2.509  -1.182  1.00  0.00     0.010 A 
BRANCH  49  52
HETATM   52  C32 UNL     1      -5.179  -5.878  -0.329  1.00  0.00     0.268 C 
BRANCH  52  53
HETATM   53  N7  UNL     1      -6.386  -5.719   0.458  1.00  0.00    -0.075 N 
ATOM     54  H73 UNL     1      -6.179  -5.427   1.413  1.00  0.00     0.274 HD
ATOM     55  H72 UNL     1      -6.925  -4.905   0.162  1.00  0.00     0.274 HD
ATOM     56  H71 UNL     1      -6.946  -6.571   0.437  1.00  0.00     0.274 HD
ENDBRANCH  52  53
ENDBRANCH  49  52
ENDBRANCH   1  46
TORSDOF 19
