REMARK  18 active torsions:
REMARK  status: ('A' for Active; 'I' for Inactive)
REMARK    1  A    between atoms: C2_2  and  C3_3 
REMARK    2  A    between atoms: C3_3  and  N1_4 
REMARK    3  A    between atoms: N1_4  and  C4_5 
REMARK    4  A    between atoms: N1_4  and  S1_42 
REMARK    5  A    between atoms: C4_5  and  C5_6 
REMARK    6  A    between atoms: C8_9  and  N2_10 
REMARK       I    between atoms: N2_10  and  C9_11 
REMARK    7  A    between atoms: C9_11  and  C10_13 
REMARK    8  A    between atoms: C10_13  and  N3_14 
REMARK    9  A    between atoms: C10_13  and  C23_36 
REMARK   10  A    between atoms: N3_14  and  C11_15 
REMARK   11  A    between atoms: C11_15  and  O2_16 
REMARK   12  A    between atoms: C11_15  and  O3_18 
REMARK   13  A    between atoms: O3_18  and  C12_19 
REMARK   14  A    between atoms: C12_19  and  C13_20 
REMARK   15  A    between atoms: C13_20  and  C14_21 
REMARK   16  A    between atoms: C17_26  and  N4_27 
REMARK       I    between atoms: N4_27  and  C18_29 
REMARK       I    between atoms: C18_29  and  N5_31 
REMARK   17  A    between atoms: S1_42  and  C29_45 
REMARK   18  A    between atoms: C29_45  and  C30_46 
ROOT
HETATM    1  C10 UNL     1       0.863  -3.013   0.440  1.00  0.00     0.281 C 
ENDROOT
BRANCH   1   2
HETATM    2  C9  UNL     1       0.130  -2.583  -0.844  1.00  0.00     0.323 C 
HETATM    3  N2  UNL     1      -1.222  -2.284  -0.712  1.00  0.00    -0.407 NA
HETATM    4  O1  UNL     1       0.760  -2.529  -1.892  1.00  0.00    -0.254 OA
BRANCH   3   5
HETATM    5  C8  UNL     1      -2.560  -1.985  -0.610  1.00  0.00     0.167 C 
HETATM    6  C7  UNL     1      -2.730  -0.561  -1.193  1.00  0.00     0.040 C 
HETATM    7  C6  UNL     1      -3.860   0.230  -0.755  1.00  0.00     0.009 C 
HETATM    8  C5  UNL     1      -4.761  -0.167   0.335  1.00  0.00    -0.000 C 
HETATM    9  C28 UNL     1      -4.456  -1.520   0.939  1.00  0.00     0.009 C 
HETATM   10  C27 UNL     1      -3.026  -1.898   0.850  1.00  0.00     0.040 C 
BRANCH   8  11
HETATM   11  C4  UNL     1      -6.210  -0.295  -0.085  1.00  0.00     0.112 C 
BRANCH  11  12
HETATM   12  N1  UNL     1      -6.816   0.859  -0.671  1.00  0.00    -0.210 NA
BRANCH  12  13
HETATM   13  C3  UNL     1      -8.043   0.308  -1.324  1.00  0.00     0.107 C 
BRANCH  13  14
HETATM   14  C2  UNL     1      -8.379   1.061  -2.579  1.00  0.00     0.011 C 
HETATM   15  C1  UNL     1      -9.614   0.356  -3.172  1.00  0.00     0.006 C 
ENDBRANCH  13  14
ENDBRANCH  12  13
BRANCH  12  16
HETATM   16  S1  UNL     1      -7.196   2.127   0.422  1.00  0.00     0.211 S 
HETATM   17  O7  UNL     1      -7.945   3.177  -0.374  1.00  0.00    -0.211 OA
HETATM   18  O8  UNL     1      -5.963   2.801   0.917  1.00  0.00    -0.211 OA
BRANCH  16  19
HETATM   19  C29 UNL     1      -8.226   1.623   1.768  1.00  0.00     0.157 C 
BRANCH  19  20
HETATM   20  C30 UNL     1      -8.543   2.768   2.713  1.00  0.00     0.012 C 
HETATM   21  C31 UNL     1      -9.262   3.922   2.098  1.00  0.00     0.006 C 
ENDBRANCH  19  20
ENDBRANCH  16  19
ENDBRANCH  12  16
ENDBRANCH  11  12
ENDBRANCH   8  11
ENDBRANCH   3   5
ENDBRANCH   1   2
BRANCH   1  22
HETATM   22  N3  UNL     1       1.938  -2.332   0.751  1.00  0.00    -0.387 NA
BRANCH  22  23
HETATM   23  C11 UNL     1       3.107  -1.589   1.102  1.00  0.00     0.336 C 
BRANCH  23  24
HETATM   24  O2  UNL     1       3.260  -1.271   2.357  1.00  0.00    -0.316 OA
ATOM     25  H2  UNL     1       4.037  -0.777   2.590  1.00  0.00     0.222 HD
ENDBRANCH  23  24
BRANCH  23  26
HETATM   26  O3  UNL     1       4.099  -1.145   0.320  1.00  0.00    -0.304 OA
BRANCH  26  27
HETATM   27  C12 UNL     1       5.232  -0.373   0.520  1.00  0.00     0.203 C 
BRANCH  27  28
HETATM   28  C13 UNL     1       4.924   1.090   0.643  1.00  0.00     0.091 A 
HETATM   29  C15 UNL     1       4.195   1.486  -0.682  1.00  0.00     0.027 A 
HETATM   30  C16 UNL     1       5.301   2.443  -0.986  1.00  0.00     0.028 A 
HETATM   31  C17 UNL     1       5.997   2.054   0.323  1.00  0.00     0.107 A 
BRANCH  28  32
HETATM   32  C14 UNL     1       4.028   1.538   1.749  1.00  0.00     0.186 C 
HETATM   33  O4  UNL     1       4.561   1.701   2.903  1.00  0.00    -0.647 OA
HETATM   34  O5  UNL     1       2.683   1.784   1.589  1.00  0.00    -0.647 OA
ENDBRANCH  28  32
BRANCH  31  35
HETATM   35  N4  UNL     1       7.365   1.703   0.094  1.00  0.00    -0.337 N 
HETATM   36  C18 UNL     1       8.334   2.570   0.647  1.00  0.00     0.318 C 
HETATM   37  O6  UNL     1       7.947   3.592   1.347  1.00  0.00    -0.247 OA
HETATM   38  N5  UNL     1       9.720   2.411   0.476  1.00  0.00    -0.334 N 
HETATM   39  C19 UNL     1      10.453   1.367  -0.184  1.00  0.00     0.127 C 
HETATM   40  C22 UNL     1      10.734   3.417   0.896  1.00  0.00     0.127 C 
HETATM   41  C20 UNL     1      11.508   2.149  -0.982  1.00  0.00     0.022 C 
HETATM   42  C21 UNL     1      11.895   3.249  -0.028  1.00  0.00     0.022 C 
ATOM     43  H4  UNL     1       7.626   0.873  -0.439  1.00  0.00     0.164 HD
ENDBRANCH  31  35
ENDBRANCH  27  28
ENDBRANCH  26  27
ENDBRANCH  23  26
ENDBRANCH  22  23
ENDBRANCH   1  22
BRANCH   1  44
HETATM   44  C23 UNL     1       1.137  -4.553   0.206  1.00  0.00    -0.009 C 
HETATM   45  C24 UNL     1       1.802  -4.996   1.469  1.00  0.00     0.018 C 
HETATM   46  C25 UNL     1      -0.204  -5.195   0.064  1.00  0.00     0.018 C 
HETATM   47  C26 UNL     1       2.032  -4.801  -0.932  1.00  0.00     0.018 C 
ENDBRANCH   1  44
TORSDOF 18
