REMARK  16 active torsions:
REMARK  status: ('A' for Active; 'I' for Inactive)
REMARK    1  A    between atoms: C2_2  and  C4_4 
REMARK    2  A    between atoms: C4_4  and  N1_5 
REMARK    3  A    between atoms: C4_4  and  C17_20 
REMARK       I    between atoms: N1_5  and  C5_7 
REMARK    4  A    between atoms: C5_7  and  C6_9 
REMARK    5  A    between atoms: C6_9  and  C7_10 
REMARK       I    between atoms: C17_20  and  N2_22 
REMARK    6  A    between atoms: N2_22  and  C18_24 
REMARK    7  A    between atoms: C18_24  and  C19_25 
REMARK    8  A    between atoms: C18_24  and  C25_35 
REMARK    9  A    between atoms: C19_25  and  O3_26 
REMARK   10  A    between atoms: C19_25  and  N3_28 
REMARK   11  A    between atoms: N3_28  and  C20_30 
REMARK       I    between atoms: C25_35  and  N4_37 
REMARK   12  A    between atoms: N4_37  and  C26_39 
REMARK   13  A    between atoms: C26_39  and  C27_40 
REMARK   14  A    between atoms: C26_39  and  C34_51 
REMARK   15  A    between atoms: C27_40  and  C28_42 
REMARK       I    between atoms: C28_42  and  N5_44 
REMARK   16  A    between atoms: N5_44  and  C29_46 
ROOT
HETATM    1  C18 UNL     1      -0.679  -1.885  -0.735  1.00  0.00     0.251 C 
ENDROOT
BRANCH   1   2
HETATM    2  N2  UNL     1       0.580  -2.206  -0.015  1.00  0.00    -0.339 N 
HETATM    3  C17 UNL     1       1.771  -1.541  -0.326  1.00  0.00     0.241 C 
HETATM    4  O2  UNL     1       1.672  -0.641  -1.248  1.00  0.00    -0.271 OA
ATOM      5  H2  UNL     1       0.576  -2.919   0.714  1.00  0.00     0.163 HD
BRANCH   3   6
HETATM    6  C4  UNL     1       3.061  -1.777   0.303  1.00  0.00     0.180 C 
BRANCH   6   7
HETATM    7  C2  UNL     1       3.212  -2.789   1.355  1.00  0.00     0.009 C 
HETATM    8  C1  UNL     1       4.722  -2.966   1.629  1.00  0.00     0.012 C 
HETATM    9  C3  UNL     1       2.639  -4.157   1.023  1.00  0.00     0.012 C 
ENDBRANCH   6   7
BRANCH   6  10
HETATM   10  N1  UNL     1       3.684  -0.511   0.685  1.00  0.00    -0.347 N 
HETATM   11  C5  UNL     1       4.738   0.108  -0.043  1.00  0.00     0.219 C 
HETATM   12  O1  UNL     1       5.132  -0.500  -1.063  1.00  0.00    -0.274 OA
ATOM     13  H1  UNL     1       3.342  -0.043   1.524  1.00  0.00     0.163 HD
BRANCH  11  14
HETATM   14  C6  UNL     1       5.336   1.372   0.354  1.00  0.00     0.112 C 
BRANCH  14  15
HETATM   15  C7  UNL     1       6.442   1.905  -0.479  1.00  0.00    -0.031 C 
HETATM   16  C8  UNL     1       6.105   2.183  -1.912  1.00  0.00     0.014 C 
HETATM   17  C9  UNL     1       7.286   2.843  -2.584  1.00  0.00    -0.013 C 
HETATM   18  C10 UNL     1       8.519   1.967  -2.535  1.00  0.00     0.009 C 
HETATM   19  C14 UNL     1       7.666   4.167  -1.962  1.00  0.00     0.009 C 
HETATM   20  C11 UNL     1       8.846   1.714  -1.081  1.00  0.00    -0.013 C 
HETATM   21  C12 UNL     1       9.147   2.981  -0.329  1.00  0.00     0.009 C 
HETATM   22  C16 UNL     1       7.665   1.013  -0.448  1.00  0.00     0.014 C 
HETATM   23  C13 UNL     1       7.979   3.907  -0.505  1.00  0.00    -0.013 C 
HETATM   24  C15 UNL     1       6.772   3.284   0.137  1.00  0.00     0.014 C 
ENDBRANCH  14  15
ENDBRANCH  11  14
ENDBRANCH   6  10
ENDBRANCH   3   6
ENDBRANCH   1   2
BRANCH   1  25
HETATM   25  C19 UNL     1      -1.500  -3.071  -0.902  1.00  0.00     0.144 C 
BRANCH  25  26
HETATM   26  O3  UNL     1      -0.846  -4.169  -1.155  1.00  0.00    -0.348 OA
ATOM     27  H3  UNL     1      -1.383  -4.945  -1.264  1.00  0.00     0.219 HD
ENDBRANCH  25  26
BRANCH  25  28
HETATM   28  N3  UNL     1      -2.913  -3.170  -0.822  1.00  0.00    -0.368 N 
ATOM     29  H3  UNL     1      -3.485  -2.349  -0.622  1.00  0.00     0.161 HD
BRANCH  28  30
HETATM   30  C20 UNL     1      -3.533  -4.489  -1.035  1.00  0.00     0.083 C 
HETATM   31  C21 UNL     1      -4.724  -4.421  -1.928  1.00  0.00     0.025 C 
HETATM   32  C22 UNL     1      -5.889  -5.076  -1.200  1.00  0.00     0.002 C 
HETATM   33  C23 UNL     1      -5.315  -5.731   0.016  1.00  0.00     0.002 C 
HETATM   34  C24 UNL     1      -4.014  -5.008   0.313  1.00  0.00     0.025 C 
ENDBRANCH  28  30
ENDBRANCH  25  28
ENDBRANCH   1  25
BRANCH   1  35
HETATM   35  C25 UNL     1      -1.303  -0.708  -0.131  1.00  0.00     0.249 C 
HETATM   36  O4  UNL     1      -0.830  -0.225   0.935  1.00  0.00    -0.271 OA
HETATM   37  N4  UNL     1      -2.419  -0.080  -0.711  1.00  0.00    -0.347 N 
ATOM     38  H4  UNL     1      -2.833  -0.465  -1.560  1.00  0.00     0.163 HD
BRANCH  37  39
HETATM   39  C26 UNL     1      -3.000   1.141  -0.094  1.00  0.00     0.167 C 
BRANCH  39  40
HETATM   40  C27 UNL     1      -4.384   0.919   0.305  1.00  0.00     0.239 C 
HETATM   41  O5  UNL     1      -5.040   0.023  -0.315  1.00  0.00    -0.285 OA
BRANCH  40  42
HETATM   42  C28 UNL     1      -5.080   1.635   1.361  1.00  0.00     0.289 C 
HETATM   43  O6  UNL     1      -4.506   2.504   2.083  1.00  0.00    -0.264 OA
HETATM   44  N5  UNL     1      -6.444   1.392   1.627  1.00  0.00    -0.350 N 
ATOM     45  H5  UNL     1      -6.958   0.698   1.084  1.00  0.00     0.163 HD
BRANCH  44  46
HETATM   46  C29 UNL     1      -7.106   2.133   2.673  1.00  0.00     0.084 C 
HETATM   47  C30 UNL     1      -8.233   2.998   2.137  1.00  0.00     0.025 C 
HETATM   48  C31 UNL     1      -9.514   2.271   2.479  1.00  0.00     0.002 C 
HETATM   49  C32 UNL     1      -9.103   0.914   2.992  1.00  0.00     0.002 C 
HETATM   50  C33 UNL     1      -7.762   1.190   3.627  1.00  0.00     0.025 C 
ENDBRANCH  44  46
ENDBRANCH  40  42
ENDBRANCH  39  40
BRANCH  39  51
HETATM   51  C34 UNL     1      -2.810   2.262  -1.099  1.00  0.00     0.008 C 
HETATM   52  C35 UNL     1      -3.501   2.001  -2.414  1.00  0.00     0.012 C 
HETATM   53  C36 UNL     1      -3.213   3.577  -0.539  1.00  0.00     0.012 C 
ENDBRANCH  39  51
ENDBRANCH  37  39
ENDBRANCH   1  35
TORSDOF 16
