REMARK  15 active torsions:
REMARK  status: ('A' for Active; 'I' for Inactive)
REMARK    1  A    between atoms: C2_2  and  C3_3 
REMARK    2  A    between atoms: C3_3  and  C4_4 
REMARK    3  A    between atoms: C4_4  and  C5_5 
REMARK    4  A    between atoms: C5_5  and  C6_6 
REMARK    5  A    between atoms: C6_6  and  C7_7 
REMARK    6  A    between atoms: C7_7  and  C8_8 
REMARK    7  A    between atoms: C8_8  and  C9_9 
REMARK    8  A    between atoms: C9_9  and  C10_10 
REMARK    9  A    between atoms: C10_10  and  C11_11 
REMARK   10  A    between atoms: C12_14  and  O1_15 
REMARK   11  A    between atoms: C22_28  and  C23_29 
REMARK   12  A    between atoms: C23_29  and  C24_30 
REMARK   13  A    between atoms: C28_37  and  C29_38 
REMARK   14  A    between atoms: C35_49  and  C36_50 
REMARK   15  A    between atoms: C36_50  and  O6_51 
ROOT
HETATM    1  C11 UNL     1       2.974  -1.721  -2.198  1.00  0.00     0.013 C 
HETATM    2  N1  UNL     1       2.042  -1.221  -1.140  1.00  0.00    -0.344 N 
ATOM      3  H1  UNL     1       2.569  -1.271  -0.268  1.00  0.00     0.167 HD
HETATM    4  C12 UNL     1       0.745  -0.701  -0.777  1.00  0.00     0.139 C 
HETATM    5  C13 UNL     1      -0.715  -1.047  -0.976  1.00  0.00     0.170 C 
HETATM    6  C14 UNL     1      -1.030  -2.320  -0.158  1.00  0.00     0.034 C 
HETATM    7  C15 UNL     1      -1.934  -2.066   0.997  1.00  0.00     0.002 C 
HETATM    8  C16 UNL     1      -1.213  -1.462   2.198  1.00  0.00     0.000 C 
HETATM    9  C17 UNL     1      -2.307  -1.305   3.270  1.00  0.00     0.000 C 
HETATM   10  C18 UNL     1      -2.882   0.071   3.190  1.00  0.00     0.009 C 
HETATM   11  C19 UNL     1      -4.355   0.175   3.370  1.00  0.00     0.103 C 
HETATM   12  C20 UNL     1      -5.159  -0.898   2.796  1.00  0.00     0.220 C 
HETATM   13  O2  UNL     1      -5.456  -1.896   3.499  1.00  0.00    -0.273 OA
HETATM   14  N2  UNL     1      -5.657  -0.906   1.443  1.00  0.00    -0.343 N 
HETATM   15  C21 UNL     1      -6.316  -2.093   0.932  1.00  0.00     0.153 C 
HETATM   16  C22 UNL     1      -5.517   0.246   0.587  1.00  0.00     0.179 C 
HETATM   17  C27 UNL     1      -5.430  -0.031  -0.852  1.00  0.00     0.241 C 
HETATM   18  O3  UNL     1      -6.245  -0.901  -1.323  1.00  0.00    -0.271 OA
HETATM   19  N3  UNL     1      -4.560   0.548  -1.787  1.00  0.00    -0.346 N 
ATOM     20  H3  UNL     1      -4.980   0.927  -2.636  1.00  0.00     0.163 HD
HETATM   21  C28 UNL     1      -3.089   0.662  -1.659  1.00  0.00     0.180 C 
HETATM   22  C32 UNL     1      -2.543  -0.405  -2.503  1.00  0.00     0.250 C 
HETATM   23  O4  UNL     1      -3.258  -0.576  -3.568  1.00  0.00    -0.271 OA
HETATM   24  N4  UNL     1      -1.372  -1.227  -2.285  1.00  0.00    -0.269 N 
HETATM   25  C33 UNL     1      -1.046  -2.099  -3.425  1.00  0.00     0.266 C 
HETATM   26  O5  UNL     1      -2.137  -2.692  -3.804  1.00  0.00    -0.266 OA
HETATM   27  C34 UNL     1       0.058  -2.555  -4.305  1.00  0.00     0.159 C 
HETATM   28  N5  UNL     1       1.490  -2.787  -4.300  1.00  0.00    -0.383 N 
ATOM     29  H5  UNL     1       1.806  -3.646  -4.750  1.00  0.00     0.159 HD
HETATM   30  C35 UNL     1       2.573  -1.910  -3.709  1.00  0.00     0.150 C 
ENDROOT
BRANCH   1  31
HETATM   31  C10 UNL     1       3.973  -2.688  -1.727  1.00  0.00     0.055 C 
BRANCH  31  32
HETATM   32  C9  UNL     1       4.932  -2.244  -0.676  1.00  0.00     0.006 C 
BRANCH  32  33
HETATM   33  C8  UNL     1       5.746  -1.084  -1.200  1.00  0.00     0.000 C 
BRANCH  33  34
HETATM   34  C7  UNL     1       6.730  -0.668  -0.101  1.00  0.00     0.000 C 
BRANCH  34  35
HETATM   35  C6  UNL     1       7.575   0.499  -0.618  1.00  0.00     0.000 C 
BRANCH  35  36
HETATM   36  C5  UNL     1       8.539   0.907   0.455  1.00  0.00     0.000 C 
BRANCH  36  37
HETATM   37  C4  UNL     1       7.843   1.357   1.726  1.00  0.00     0.000 C 
BRANCH  37  38
HETATM   38  C3  UNL     1       8.928   1.748   2.726  1.00  0.00    -0.000 C 
BRANCH  38  39
HETATM   39  C2  UNL     1       8.207   2.205   3.987  1.00  0.00    -0.005 C 
HETATM   40  C1  UNL     1       7.330   3.379   3.631  1.00  0.00     0.005 C 
ENDBRANCH  38  39
ENDBRANCH  37  38
ENDBRANCH  36  37
ENDBRANCH  35  36
ENDBRANCH  34  35
ENDBRANCH  33  34
ENDBRANCH  32  33
ENDBRANCH  31  32
ENDBRANCH   1  31
BRANCH  30  41
HETATM   41  C36 UNL     1       1.411  -1.145  -3.280  1.00  0.00     0.195 C 
BRANCH  41  42
HETATM   42  O6  UNL     1       1.384  -2.387  -2.698  1.00  0.00    -0.398 OA
ATOM     43  H6  UNL     1       0.626  -1.888  -2.418  1.00  0.00     0.209 HD
ENDBRANCH  41  42
ENDBRANCH  30  41
BRANCH   4  44
HETATM   44  O1  UNL     1       0.943   0.381  -0.074  1.00  0.00    -0.348 OA
ATOM     45  H1  UNL     1       0.090   0.723   0.165  1.00  0.00     0.219 HD
ENDBRANCH   4  44
BRANCH  21  46
HETATM   46  C29 UNL     1      -2.754   2.054  -2.168  1.00  0.00     0.009 C 
HETATM   47  C30 UNL     1      -3.129   2.296  -3.604  1.00  0.00     0.012 C 
HETATM   48  C31 UNL     1      -1.328   2.467  -1.881  1.00  0.00     0.012 C 
ENDBRANCH  21  46
BRANCH  16  49
HETATM   49  C23 UNL     1      -6.846   1.020   0.757  1.00  0.00     0.039 C 
BRANCH  49  50
HETATM   50  C24 UNL     1      -6.829   2.266  -0.091  1.00  0.00    -0.020 C 
HETATM   51  C25 UNL     1      -8.163   2.991   0.091  1.00  0.00     0.009 C 
HETATM   52  C26 UNL     1      -5.790   3.229   0.497  1.00  0.00     0.009 C 
ENDBRANCH  49  50
ENDBRANCH  16  49
TORSDOF 15
