REMARK  16 active torsions:
REMARK  status: ('A' for Active; 'I' for Inactive)
REMARK    1  A    between atoms: C2_2  and  C3_3 
REMARK    2  A    between atoms: C4_4  and  C5_5 
REMARK    3  A    between atoms: C6_6  and  C7_7 
REMARK    4  A    between atoms: C13_13  and  N1_14 
REMARK       I    between atoms: N1_14  and  C14_16 
REMARK    5  A    between atoms: C14_16  and  C15_18 
REMARK    6  A    between atoms: C15_18  and  N2_19 
REMARK    7  A    between atoms: C15_18  and  C21_27 
REMARK       I    between atoms: N2_19  and  C16_21 
REMARK    8  A    between atoms: C16_21  and  C17_23 
REMARK    9  A    between atoms: C17_23  and  C18_24 
REMARK       I    between atoms: C21_27  and  N3_29 
REMARK   10  A    between atoms: N3_29  and  C22_31 
REMARK   11  A    between atoms: C22_31  and  C23_32 
REMARK   12  A    between atoms: C23_32  and  C24_33 
REMARK   13  A    between atoms: C24_33  and  C25_34 
REMARK   14  A    between atoms: N5_44  and  C31_45 
REMARK   15  A    between atoms: C31_45  and  C32_46 
REMARK   16  A    between atoms: C32_46  and  C33_47 
ROOT
HETATM    1  N1  UNL     1       0.559   1.063   1.074  1.00  0.00    -0.353 N 
ATOM      2  H1  UNL     1       0.949   1.681   0.362  1.00  0.00     0.163 HD
HETATM    3  C14 UNL     1       1.211  -0.155   1.249  1.00  0.00     0.250 C 
HETATM    4  O1  UNL     1       0.739  -0.993   2.100  1.00  0.00    -0.271 OA
ENDROOT
BRANCH   3   5
HETATM    5  C15 UNL     1       2.432  -0.626   0.548  1.00  0.00     0.269 C 
BRANCH   5   6
HETATM    6  N2  UNL     1       2.326  -1.947  -0.001  1.00  0.00    -0.340 N 
HETATM    7  C16 UNL     1       2.896  -3.113   0.589  1.00  0.00     0.218 C 
HETATM    8  O2  UNL     1       3.515  -2.984   1.665  1.00  0.00    -0.274 OA
ATOM      9  H2  UNL     1       1.808  -2.060  -0.872  1.00  0.00     0.163 HD
BRANCH   7  10
HETATM   10  C17 UNL     1       2.781  -4.448  -0.031  1.00  0.00     0.106 C 
BRANCH  10  11
HETATM   11  C18 UNL     1       3.323  -5.541   0.886  1.00  0.00    -0.014 C 
HETATM   12  C19 UNL     1       3.196  -6.870   0.146  1.00  0.00     0.010 C 
HETATM   13  C20 UNL     1       2.461  -5.646   2.130  1.00  0.00     0.010 C 
ENDBRANCH  10  11
ENDBRANCH   7  10
ENDBRANCH   5   6
BRANCH   5  14
HETATM   14  C21 UNL     1       2.961   0.392  -0.378  1.00  0.00     0.253 C 
HETATM   15  O3  UNL     1       3.102   0.209  -1.606  1.00  0.00    -0.270 OA
HETATM   16  N3  UNL     1       3.359   1.690   0.116  1.00  0.00    -0.339 N 
ATOM     17  H3  UNL     1       3.264   1.869   1.116  1.00  0.00     0.167 HD
BRANCH  16  18
HETATM   18  C22 UNL     1       3.868   2.721  -0.690  1.00  0.00     0.064 C 
BRANCH  18  19
HETATM   19  C23 UNL     1       5.132   2.604  -1.432  1.00  0.00     0.045 C 
BRANCH  19  20
HETATM   20  C24 UNL     1       6.356   2.404  -0.632  1.00  0.00     0.010 C 
BRANCH  20  21
HETATM   21  C25 UNL     1       6.542   1.110   0.079  1.00  0.00    -0.011 C 
HETATM   22  C26 UNL     1       7.844   1.164   0.868  1.00  0.00     0.032 C 
HETATM   23  C27 UNL     1       9.019   1.133  -0.051  1.00  0.00     0.232 C 
HETATM   24  N4  UNL     1       9.106  -0.140  -0.716  1.00  0.00    -0.075 N 
HETATM   25  C28 UNL     1       7.871  -0.874  -0.747  1.00  0.00     0.232 C 
ATOM     26  H42 UNL     1       9.477  -0.025  -1.659  1.00  0.00     0.277 HD
ATOM     27  H41 UNL     1       9.848  -0.707  -0.306  1.00  0.00     0.277 HD
HETATM   28  C29 UNL     1       6.687   0.039  -0.995  1.00  0.00     0.032 C 
ENDBRANCH  20  21
ENDBRANCH  19  20
ENDBRANCH  18  19
ENDBRANCH  16  18
ENDBRANCH   5  14
ENDBRANCH   3   5
BRANCH   1  29
HETATM   29  C13 UNL     1      -0.606   1.559   1.780  1.00  0.00     0.104 A 
HETATM   30  C11 UNL     1      -1.992   1.410   1.211  1.00  0.00     0.073 A 
HETATM   31  C4  UNL     1      -2.236   0.439   0.119  1.00  0.00     0.055 C 
HETATM   32  C12 UNL     1      -1.332   2.726   1.104  1.00  0.00     0.048 A 
HETATM   33  C30 UNL     1      -3.157   1.272   2.098  1.00  0.00     0.236 C 
HETATM   34  C3  UNL     1      -3.421  -0.364   0.506  1.00  0.00     0.123 C 
HETATM   35  N5  UNL     1      -3.875   0.099   1.784  1.00  0.00    -0.319 N 
HETATM   36  O4  UNL     1      -3.492   2.079   3.020  1.00  0.00    -0.272 OA
BRANCH  31  37
HETATM   37  C5  UNL     1      -2.358   1.197  -1.160  1.00  0.00    -0.022 C 
HETATM   38  C6  UNL     1      -3.326   1.256  -1.996  1.00  0.00    -0.022 C 
BRANCH  38  39
HETATM   39  C7  UNL     1      -3.226   2.095  -3.234  1.00  0.00    -0.034 C 
HETATM   40  C8  UNL     1      -4.225   1.597  -4.281  1.00  0.00     0.018 C 
HETATM   41  C9  UNL     1      -1.835   2.113  -3.791  1.00  0.00     0.018 C 
HETATM   42  C10 UNL     1      -3.634   3.543  -2.950  1.00  0.00     0.018 C 
ENDBRANCH  38  39
ENDBRANCH  31  37
BRANCH  34  43
HETATM   43  C2  UNL     1      -2.910  -1.781   0.798  1.00  0.00    -0.011 C 
HETATM   44  C1  UNL     1      -2.812  -2.663  -0.175  1.00  0.00     0.009 C 
ENDBRANCH  34  43
BRANCH  35  45
HETATM   45  C31 UNL     1      -4.792  -0.562   2.658  1.00  0.00     0.091 C 
BRANCH  45  46
HETATM   46  C32 UNL     1      -6.181  -0.137   2.804  1.00  0.00    -0.005 C 
BRANCH  46  47
HETATM   47  C33 UNL     1      -7.140  -0.076   1.696  1.00  0.00     0.009 C 
HETATM   48  C34 UNL     1      -6.762   0.882   0.633  1.00  0.00     0.008 C 
HETATM   49  C35 UNL     1      -7.984   1.710   0.297  1.00  0.00     0.001 C 
HETATM   50  C36 UNL     1      -9.127   1.233   1.130  1.00  0.00     0.001 C 
HETATM   51  C37 UNL     1      -8.531   0.335   2.158  1.00  0.00     0.008 C 
ENDBRANCH  46  47
ENDBRANCH  45  46
ENDBRANCH  35  45
ENDBRANCH   1  29
TORSDOF 16
