REMARK  17 active torsions:
REMARK  status: ('A' for Active; 'I' for Inactive)
REMARK    1  A    between atoms: C2_2  and  C3_3 
REMARK    2  A    between atoms: C3_3  and  C4_4 
REMARK    3  A    between atoms: C4_4  and  C5_5 
REMARK    4  A    between atoms: C5_5  and  N1_6 
REMARK    5  A    between atoms: N1_6  and  C6_7 
REMARK    6  A    between atoms: N1_6  and  C18_26 
REMARK    7  A    between atoms: C6_7  and  O1_8 
REMARK    8  A    between atoms: C6_7  and  C7_10 
REMARK    9  A    between atoms: C7_10  and  C8_11 
REMARK   10  A    between atoms: C7_10  and  N3_15 
REMARK   11  A    between atoms: C8_11  and  C9_12 
REMARK       I    between atoms: N3_15  and  C10_17 
REMARK   12  A    between atoms: C10_17  and  C11_19 
REMARK   13  A    between atoms: C11_19  and  C12_20 
REMARK   14  A    between atoms: C18_26  and  C19_27 
REMARK   15  A    between atoms: C18_26  and  C25_35 
REMARK   16  A    between atoms: C19_27  and  C20_28 
REMARK       I    between atoms: C25_35  and  N5_37 
REMARK   17  A    between atoms: N5_37  and  C26_39 
ROOT
HETATM    1  N1  UNL     1       0.537   1.810  -0.672  1.00  0.00    -0.350 N 
ENDROOT
BRANCH   1   2
HETATM    2  C5  UNL     1       0.188   2.376  -1.964  1.00  0.00     0.125 C 
BRANCH   2   3
HETATM    3  C4  UNL     1       0.226   3.859  -2.045  1.00  0.00     0.020 C 
BRANCH   3   4
HETATM    4  C3  UNL     1      -0.150   4.262  -3.471  1.00  0.00     0.001 C 
BRANCH   4   5
HETATM    5  C2  UNL     1      -1.509   3.801  -3.880  1.00  0.00    -0.004 C 
HETATM    6  C1  UNL     1      -1.722   4.284  -5.321  1.00  0.00     0.005 C 
ENDBRANCH   4   5
ENDBRANCH   3   4
ENDBRANCH   2   3
ENDBRANCH   1   2
BRANCH   1   7
HETATM    7  C6  UNL     1       1.820   1.362  -0.402  1.00  0.00     0.138 C 
BRANCH   7   8
HETATM    8  O1  UNL     1       2.044   0.907   0.814  1.00  0.00    -0.348 OA
ATOM      9  H1  UNL     1       2.924   0.600   0.999  1.00  0.00     0.219 HD
ENDBRANCH   7   8
BRANCH   7  10
HETATM   10  C7  UNL     1       3.022   1.278  -1.230  1.00  0.00     0.167 C 
BRANCH  10  11
HETATM   11  C8  UNL     1       3.606   2.516  -1.795  1.00  0.00     0.133 C 
BRANCH  11  12
HETATM   12  C9  UNL     1       4.014   3.559  -0.867  1.00  0.00     0.233 C 
HETATM   13  N2  UNL     1       3.768   3.478   0.516  1.00  0.00    -0.062 NA
HETATM   14  O2  UNL     1       4.607   4.580  -1.289  1.00  0.00    -0.277 OA
ENDBRANCH  11  12
ENDBRANCH  10  11
BRANCH  10  15
HETATM   15  N3  UNL     1       4.034   0.521  -0.481  1.00  0.00    -0.349 N 
HETATM   16  C10 UNL     1       4.452  -0.792  -0.835  1.00  0.00     0.218 C 
HETATM   17  O3  UNL     1       3.893  -1.291  -1.846  1.00  0.00    -0.274 OA
ATOM     18  H3  UNL     1       4.459   0.960   0.336  1.00  0.00     0.163 HD
BRANCH  16  19
HETATM   19  C11 UNL     1       5.470  -1.424  -0.008  1.00  0.00     0.107 C 
BRANCH  19  20
HETATM   20  C12 UNL     1       5.814  -2.817  -0.318  1.00  0.00    -0.006 C 
HETATM   21  C13 UNL     1       4.614  -3.762  -0.184  1.00  0.00     0.005 C 
HETATM   22  C14 UNL     1       5.194  -5.151  -0.041  1.00  0.00     0.000 C 
HETATM   23  C15 UNL     1       6.650  -5.240  -0.354  1.00  0.00     0.000 C 
HETATM   24  C16 UNL     1       7.089  -4.464  -1.563  1.00  0.00     0.000 C 
HETATM   25  C17 UNL     1       6.397  -3.099  -1.671  1.00  0.00     0.005 C 
ENDBRANCH  19  20
ENDBRANCH  16  19
ENDBRANCH  10  15
ENDBRANCH   7  10
ENDBRANCH   1   7
BRANCH   1  26
HETATM   26  C18 UNL     1      -0.614   1.733   0.293  1.00  0.00     0.178 C 
BRANCH  26  27
HETATM   27  C19 UNL     1      -0.367   2.523   1.483  1.00  0.00     0.040 C 
BRANCH  27  28
HETATM   28  C20 UNL     1      -1.296   2.655   2.606  1.00  0.00    -0.009 C 
HETATM   29  C21 UNL     1      -1.704   1.476   3.400  1.00  0.00     0.024 C 
HETATM   30  C22 UNL     1      -2.034   2.057   4.815  1.00  0.00     0.114 C 
HETATM   31  N4  UNL     1      -3.152   2.964   4.679  1.00  0.00    -0.421 N 
HETATM   32  C23 UNL     1      -3.008   3.977   3.691  1.00  0.00     0.114 C 
ATOM     33  H4  UNL     1      -3.990   2.883   5.255  1.00  0.00     0.153 HD
HETATM   34  C24 UNL     1      -2.563   3.457   2.331  1.00  0.00     0.024 C 
ENDBRANCH  27  28
ENDBRANCH  26  27
BRANCH  26  35
HETATM   35  C25 UNL     1      -1.007   0.332   0.331  1.00  0.00     0.241 C 
HETATM   36  O4  UNL     1      -0.135  -0.546   0.143  1.00  0.00    -0.271 OA
HETATM   37  N5  UNL     1      -2.316  -0.116   0.557  1.00  0.00    -0.354 N 
ATOM     38  H5  UNL     1      -3.011   0.615   0.711  1.00  0.00     0.162 HD
BRANCH  37  39
HETATM   39  C26 UNL     1      -2.811  -1.455   0.601  1.00  0.00     0.092 C 
HETATM   40  C27 UNL     1      -3.706  -1.643  -0.602  1.00  0.00     0.009 C 
HETATM   41  C28 UNL     1      -3.640  -3.003  -1.212  1.00  0.00     0.007 C 
HETATM   42  C33 UNL     1      -5.129  -1.263  -0.368  1.00  0.00     0.011 C 
HETATM   43  C29 UNL     1      -3.626  -4.153  -0.277  1.00  0.00     0.005 C 
HETATM   44  C30 UNL     1      -4.406  -4.001   0.980  1.00  0.00    -0.014 C 
HETATM   45  C31 UNL     1      -5.732  -3.345   0.824  1.00  0.00     0.009 C 
HETATM   46  C36 UNL     1      -3.520  -3.360   2.017  1.00  0.00     0.011 C 
HETATM   47  C32 UNL     1      -5.679  -1.843   0.892  1.00  0.00    -0.013 C 
HETATM   48  C34 UNL     1      -4.862  -1.330   2.042  1.00  0.00     0.011 C 
HETATM   49  C35 UNL     1      -3.454  -1.852   1.885  1.00  0.00     0.009 C 
ENDBRANCH  37  39
ENDBRANCH  26  35
ENDBRANCH   1  26
TORSDOF 17
