REMARK  19 active torsions:
REMARK  status: ('A' for Active; 'I' for Inactive)
REMARK    1  A    between atoms: C3_3  and  C4_4 
REMARK    2  A    between atoms: C6_11  and  C7_12 
REMARK    3  A    between atoms: C7_12  and  C8_13 
REMARK    4  A    between atoms: C11_16  and  O2_17 
REMARK    5  A    between atoms: O2_17  and  C12_18 
REMARK    6  A    between atoms: C12_18  and  C13_19 
REMARK    7  A    between atoms: C13_19  and  O3_20 
REMARK    8  A    between atoms: C13_19  and  C14_22 
REMARK    9  A    between atoms: C18_26  and  C19_27 
REMARK   10  A    between atoms: C19_27  and  C20_28 
REMARK   11  A    between atoms: C20_28  and  C21_29 
REMARK   12  A    between atoms: N4_34  and  C24_36 
REMARK   13  A    between atoms: C24_36  and  C25_37 
REMARK   14  A    between atoms: C25_37  and  C26_38 
REMARK   15  A    between atoms: C26_38  and  C27_39 
REMARK   16  A    between atoms: C27_39  and  C28_40 
REMARK   17  A    between atoms: C31_43  and  N5_44 
REMARK   18  A    between atoms: N5_44  and  C33_46 
REMARK   19  A    between atoms: C33_46  and  C34_47 
ROOT
HETATM    1  C8  UNL     1      -1.492   1.511   0.890  1.00  0.00     0.019 A 
HETATM    2  C9  UNL     1      -2.685   0.828   0.956  1.00  0.00    -0.012 A 
HETATM    3  C10 UNL     1      -3.728   1.091   1.976  1.00  0.00     0.052 C 
HETATM    4  C11 UNL     1      -2.894  -0.270   0.102  1.00  0.00     0.102 A 
HETATM    5  C18 UNL     1      -1.979  -0.731  -0.784  1.00  0.00     0.064 A 
HETATM    6  N3  UNL     1      -0.779  -0.031  -0.838  1.00  0.00    -0.340 N 
ATOM      7  H3  UNL     1      -0.057  -0.329  -1.494  1.00  0.00     0.167 HD
HETATM    8  C23 UNL     1      -0.553   1.018  -0.053  1.00  0.00     0.112 A 
HETATM    9  N4  UNL     1       0.585   1.613  -0.114  1.00  0.00    -0.376 N 
ATOM     10  H4  UNL     1       0.730   2.400   0.518  1.00  0.00     0.161 HD
ENDROOT
BRANCH   1  11
HETATM   11  C7  UNL     1      -1.208   2.610   1.501  1.00  0.00     0.048 C 
BRANCH  11  12
HETATM   12  C6  UNL     1      -1.895   3.500   2.384  1.00  0.00     0.064 A 
HETATM   13  C4  UNL     1      -1.577   3.814   3.691  1.00  0.00     0.063 A 
HETATM   14  N1  UNL     1      -2.478   4.752   4.116  1.00  0.00    -0.307 N 
HETATM   15  C5  UNL     1      -3.313   5.008   3.124  1.00  0.00     0.325 A 
ATOM     16  H1  UNL     1      -2.501   5.181   5.041  1.00  0.00     0.170 HD
HETATM   17  O1  UNL     1      -4.260   5.841   3.230  1.00  0.00    -0.247 OA
HETATM   18  N2  UNL     1      -2.960   4.254   2.082  1.00  0.00    -0.306 N 
ATOM     19  H2  UNL     1      -3.435   4.252   1.180  1.00  0.00     0.170 HD
BRANCH  13  20
HETATM   20  C3  UNL     1      -0.520   3.301   4.527  1.00  0.00     0.027 C 
HETATM   21  C2  UNL     1       0.380   2.406   4.248  1.00  0.00    -0.029 C 
HETATM   22  C1  UNL     1       1.381   2.048   5.309  1.00  0.00     0.036 C 
ENDBRANCH  13  20
ENDBRANCH  11  12
ENDBRANCH   1  11
BRANCH   9  23
HETATM   23  C24 UNL     1       1.671   1.273  -0.989  1.00  0.00     0.121 C 
BRANCH  23  24
HETATM   24  C25 UNL     1       2.432   0.149  -0.272  1.00  0.00     0.020 C 
BRANCH  24  25
HETATM   25  C26 UNL     1       2.876   0.737   1.040  1.00  0.00     0.006 C 
BRANCH  25  26
HETATM   26  C27 UNL     1       3.589  -0.280   1.857  1.00  0.00     0.038 C 
BRANCH  26  27
HETATM   27  C28 UNL     1       4.807  -0.752   1.178  1.00  0.00    -0.058 A 
HETATM   28  C29 UNL     1       6.031  -0.112   1.352  1.00  0.00     0.009 A 
HETATM   29  C30 UNL     1       7.153  -0.570   0.731  1.00  0.00     0.030 A 
HETATM   30  C31 UNL     1       7.168  -1.691  -0.111  1.00  0.00     0.036 A 
HETATM   31  C35 UNL     1       5.950  -2.329  -0.286  1.00  0.00    -0.035 A 
HETATM   32  C36 UNL     1       5.884  -3.529  -1.161  1.00  0.00     0.050 C 
HETATM   33  C37 UNL     1       4.811  -1.862   0.347  1.00  0.00     0.016 A 
BRANCH  30  34
HETATM   34  N5  UNL     1       8.369  -2.098  -0.705  1.00  0.00    -0.378 N 
HETATM   35  C32 UNL     1       8.951  -3.386  -0.295  1.00  0.00     0.150 C 
BRANCH  34  36
HETATM   36  C33 UNL     1       9.067  -1.338  -1.680  1.00  0.00     0.191 C 
BRANCH  36  37
HETATM   37  C34 UNL     1       8.358  -0.130  -2.104  1.00  0.00     0.250 C 
HETATM   38  O4  UNL     1       8.874   0.663  -2.864  1.00  0.00    -0.305 OA
ENDBRANCH  36  37
ENDBRANCH  34  36
ENDBRANCH  30  34
ENDBRANCH  26  27
ENDBRANCH  25  26
ENDBRANCH  24  25
ENDBRANCH  23  24
ENDBRANCH   9  23
BRANCH   5  39
HETATM   39  C19 UNL     1      -1.958  -1.937  -1.313  1.00  0.00     0.006 C 
BRANCH  39  40
HETATM   40  C20 UNL     1      -2.873  -3.033  -1.057  1.00  0.00     0.029 C 
BRANCH  40  41
HETATM   41  C21 UNL     1      -3.229  -3.982  -2.149  1.00  0.00    -0.001 C 
HETATM   42  C22 UNL     1      -3.950  -3.374  -3.299  1.00  0.00     0.005 C 
ENDBRANCH  40  41
ENDBRANCH  39  40
ENDBRANCH   5  39
BRANCH   4  43
HETATM   43  O2  UNL     1      -4.129  -0.886   0.193  1.00  0.00    -0.346 OA
BRANCH  43  44
HETATM   44  C12 UNL     1      -5.384  -0.357  -0.027  1.00  0.00     0.208 C 
BRANCH  44  45
HETATM   45  C13 UNL     1      -5.880   0.519  -1.035  1.00  0.00     0.149 C 
BRANCH  45  46
HETATM   46  O3  UNL     1      -7.305   0.705  -0.675  1.00  0.00    -0.393 OA
ATOM     47  H3  UNL     1      -7.636   1.289  -1.347  1.00  0.00     0.210 HD
ENDBRANCH  45  46
BRANCH  45  48
HETATM   48  C14 UNL     1      -5.887   0.500  -2.481  1.00  0.00    -0.023 C 
HETATM   49  C15 UNL     1      -4.634   0.492  -3.261  1.00  0.00     0.017 C 
HETATM   50  C16 UNL     1      -6.870  -0.518  -3.079  1.00  0.00     0.017 C 
HETATM   51  C17 UNL     1      -6.612   1.870  -2.863  1.00  0.00     0.017 C 
ENDBRANCH  45  48
ENDBRANCH  44  45
ENDBRANCH  43  44
ENDBRANCH   4  43
TORSDOF 19
