REMARK  15 active torsions:
REMARK  status: ('A' for Active; 'I' for Inactive)
REMARK    1  A    between atoms: C2_2  and  C3_3 
REMARK    2  A    between atoms: C3_3  and  C4_4 
REMARK    3  A    between atoms: C4_4  and  C5_5 
REMARK    4  A    between atoms: C5_5  and  N1_6 
REMARK    5  A    between atoms: C5_5  and  C23_32 
REMARK       I    between atoms: N1_6  and  C6_8 
REMARK    6  A    between atoms: C6_8  and  C7_10 
REMARK    7  A    between atoms: C7_10  and  C8_11 
REMARK    8  A    between atoms: C7_10  and  N2_18 
REMARK    9  A    between atoms: C8_11  and  C9_12 
REMARK       I    between atoms: N2_18  and  C15_20 
REMARK   10  A    between atoms: C15_20  and  C16_22 
REMARK   11  A    between atoms: C16_22  and  C17_23 
REMARK   12  A    between atoms: C16_22  and  N3_27 
REMARK   13  A    between atoms: C17_23  and  C18_24 
REMARK       I    between atoms: N3_27  and  C21_29 
REMARK       I    between atoms: C23_32  and  N4_34 
REMARK   14  A    between atoms: N4_34  and  C24_36 
REMARK   15  A    between atoms: C24_36  and  C26_38 
REMARK       I    between atoms: C26_38  and  N5_40 
ROOT
HETATM    1  N1  UNL     1      -1.062   0.395   2.190  1.00  0.00    -0.342 N 
ATOM      2  H1  UNL     1      -1.613   1.086   2.699  1.00  0.00     0.163 HD
HETATM    3  C6  UNL     1      -1.740  -0.309   1.215  1.00  0.00     0.268 C 
HETATM    4  O1  UNL     1      -1.066  -1.152   0.506  1.00  0.00    -0.266 OA
ENDROOT
BRANCH   1   5
HETATM    5  C5  UNL     1       0.316   0.284   2.583  1.00  0.00     0.177 C 
BRANCH   5   6
HETATM    6  C4  UNL     1       0.631   0.858   3.929  1.00  0.00     0.035 C 
BRANCH   6   7
HETATM    7  C3  UNL     1      -0.190   0.138   5.001  1.00  0.00     0.002 C 
BRANCH   7   8
HETATM    8  C2  UNL     1       0.213   0.778   6.325  1.00  0.00    -0.004 C 
HETATM    9  C1  UNL     1      -0.535   0.137   7.485  1.00  0.00     0.005 C 
ENDBRANCH   7   8
ENDBRANCH   6   7
ENDBRANCH   5   6
BRANCH   5  10
HETATM   10  C23 UNL     1       1.211   0.835   1.548  1.00  0.00     0.241 C 
HETATM   11  O4  UNL     1       0.781   1.067   0.397  1.00  0.00    -0.271 OA
HETATM   12  N4  UNL     1       2.586   1.128   1.778  1.00  0.00    -0.346 N 
ATOM     13  H4  UNL     1       2.982   0.975   2.705  1.00  0.00     0.163 HD
BRANCH  12  14
HETATM   14  C24 UNL     1       3.439   1.643   0.710  1.00  0.00     0.172 C 
HETATM   15  C25 UNL     1       3.536   3.174   0.865  1.00  0.00     0.042 C 
BRANCH  14  16
HETATM   16  C26 UNL     1       4.795   1.137   0.856  1.00  0.00     0.242 C 
HETATM   17  O5  UNL     1       5.165   0.772   2.043  1.00  0.00    -0.271 OA
HETATM   18  N5  UNL     1       5.743   0.999  -0.149  1.00  0.00    -0.350 N 
HETATM   19  C27 UNL     1       7.101   0.544   0.167  1.00  0.00     0.126 C 
HETATM   20  C35 UNL     1       5.404   1.248  -1.544  1.00  0.00     0.126 C 
HETATM   21  C28 UNL     1       7.438  -0.674  -0.657  1.00  0.00     0.029 C 
HETATM   22  C29 UNL     1       7.252  -0.370  -2.128  1.00  0.00    -0.037 C 
HETATM   23  C30 UNL     1       8.278   0.596  -2.624  1.00  0.00     0.010 C 
HETATM   24  C33 UNL     1       7.472  -1.662  -2.915  1.00  0.00     0.010 C 
HETATM   25  C34 UNL     1       5.846   0.060  -2.394  1.00  0.00     0.029 C 
HETATM   26  C31 UNL     1       9.103  -0.158  -3.642  1.00  0.00     0.001 C 
HETATM   27  C32 UNL     1       8.979  -1.597  -3.145  1.00  0.00     0.001 C 
ENDBRANCH  14  16
ENDBRANCH  12  14
ENDBRANCH   5  10
ENDBRANCH   1   5
BRANCH   3  28
HETATM   28  C7  UNL     1      -3.154  -0.195   0.924  1.00  0.00     0.099 C 
BRANCH  28  29
HETATM   29  C8  UNL     1      -3.910   1.041   1.007  1.00  0.00     0.013 C 
BRANCH  29  30
HETATM   30  C9  UNL     1      -3.663   2.229   0.191  1.00  0.00     0.010 C 
HETATM   31  C10 UNL     1      -4.694   3.287   0.595  1.00  0.00     0.008 C 
HETATM   32  C11 UNL     1      -4.056   4.608   0.941  1.00  0.00     0.001 C 
HETATM   33  C12 UNL     1      -3.144   5.117  -0.141  1.00  0.00     0.000 C 
HETATM   34  C13 UNL     1      -2.382   4.023  -0.828  1.00  0.00     0.001 C 
HETATM   35  C14 UNL     1      -2.299   2.791   0.098  1.00  0.00     0.008 C 
ENDBRANCH  29  30
ENDBRANCH  28  29
BRANCH  28  36
HETATM   36  N2  UNL     1      -3.541  -0.950  -0.264  1.00  0.00    -0.321 N 
HETATM   37  C15 UNL     1      -4.135  -2.229  -0.203  1.00  0.00     0.245 C 
HETATM   38  O2  UNL     1      -4.340  -2.776   0.898  1.00  0.00    -0.271 OA
ATOM     39  H2  UNL     1      -3.374  -0.534  -1.180  1.00  0.00     0.169 HD
BRANCH  37  40
HETATM   40  C16 UNL     1      -4.534  -2.958  -1.452  1.00  0.00     0.177 C 
BRANCH  40  41
HETATM   41  C17 UNL     1      -5.502  -2.055  -2.157  1.00  0.00     0.038 C 
BRANCH  41  42
HETATM   42  C18 UNL     1      -6.046  -2.553  -3.452  1.00  0.00    -0.020 C 
HETATM   43  C19 UNL     1      -7.000  -1.478  -4.051  1.00  0.00     0.009 C 
HETATM   44  C20 UNL     1      -6.870  -3.796  -3.390  1.00  0.00     0.009 C 
ENDBRANCH  41  42
ENDBRANCH  40  41
BRANCH  40  45
HETATM   45  N3  UNL     1      -5.052  -4.226  -1.049  1.00  0.00    -0.348 N 
HETATM   46  C21 UNL     1      -4.550  -5.491  -1.430  1.00  0.00     0.214 C 
HETATM   47  C22 UNL     1      -5.170  -6.737  -0.947  1.00  0.00     0.117 C 
HETATM   48  O3  UNL     1      -3.539  -5.591  -2.206  1.00  0.00    -0.274 OA
ATOM     49  H3  UNL     1      -5.861  -4.218  -0.427  1.00  0.00     0.163 HD
ENDBRANCH  40  45
ENDBRANCH  37  40
ENDBRANCH  28  36
ENDBRANCH   3  28
TORSDOF 15
