REMARK  15 active torsions:
REMARK  status: ('A' for Active; 'I' for Inactive)
REMARK    1  A    between atoms: C3_4  and  C4_5 
REMARK       I    between atoms: C4_5  and  N2_7 
REMARK    2  A    between atoms: N2_7  and  C5_9 
REMARK    3  A    between atoms: C5_9  and  C6_10 
REMARK    4  A    between atoms: C6_10  and  C7_11 
REMARK    5  A    between atoms: C7_11  and  C8_12 
REMARK    6  A    between atoms: C8_12  and  C9_13 
REMARK    7  A    between atoms: C9_13  and  C10_14 
REMARK    8  A    between atoms: C10_14  and  C11_15 
REMARK    9  A    between atoms: C11_15  and  C12_16 
REMARK   10  A    between atoms: C12_16  and  C13_17 
REMARK   11  A    between atoms: C13_17  and  C14_18 
REMARK   12  A    between atoms: C14_18  and  N3_19 
REMARK       I    between atoms: N3_19  and  C15_21 
REMARK       I    between atoms: C15_21  and  N5_28 
REMARK   13  A    between atoms: N4_22  and  S1_24 
REMARK   14  A    between atoms: N5_28  and  C17_30 
REMARK   15  A    between atoms: C17_30  and  C18_31 
REMARK       I    between atoms: N6_45  and  C32_46 
ROOT
HETATM    1  C12 UNL     1      -0.880  -2.041   1.151  1.00  0.00     0.002 C 
ENDROOT
BRANCH   1   2
HETATM    2  C11 UNL     1      -0.050  -0.889   0.756  1.00  0.00     0.000 C 
BRANCH   2   3
HETATM    3  C10 UNL     1       0.391  -0.927  -0.697  1.00  0.00     0.000 C 
BRANCH   3   4
HETATM    4  C9  UNL     1       1.235   0.276  -1.014  1.00  0.00     0.000 C 
BRANCH   4   5
HETATM    5  C8  UNL     1       1.660   0.222  -2.462  1.00  0.00     0.000 C 
BRANCH   5   6
HETATM    6  C7  UNL     1       2.506   1.399  -2.854  1.00  0.00     0.002 C 
BRANCH   6   7
HETATM    7  C6  UNL     1       3.775   1.535  -2.080  1.00  0.00     0.020 C 
BRANCH   7   8
HETATM    8  C5  UNL     1       4.697   0.358  -2.213  1.00  0.00     0.123 C 
BRANCH   8   9
HETATM    9  N2  UNL     1       5.893   0.574  -1.436  1.00  0.00    -0.357 N 
HETATM   10  C4  UNL     1       6.949  -0.384  -1.381  1.00  0.00     0.253 C 
HETATM   11  O1  UNL     1       6.840  -1.453  -2.029  1.00  0.00    -0.268 OA
ATOM     12  H2  UNL     1       5.987   1.441  -0.908  1.00  0.00     0.162 HD
BRANCH  10  13
HETATM   13  C3  UNL     1       8.155  -0.167  -0.596  1.00  0.00     0.048 A 
HETATM   14  C2  UNL     1       9.187  -1.046  -0.695  1.00  0.00     0.109 A 
HETATM   15  N1  UNL     1      10.368  -0.956  -0.013  1.00  0.00    -0.345 N 
HETATM   16  C1  UNL     1      11.380  -1.965  -0.224  1.00  0.00     0.157 C 
HETATM   17  C33 UNL     1      10.525   0.085   0.826  1.00  0.00     0.127 A 
HETATM   18  C29 UNL     1       9.484   1.017   0.959  1.00  0.00     0.011 A 
HETATM   19  N6  UNL     1      11.572   0.437   1.630  1.00  0.00    -0.262 N 
HETATM   20  C28 UNL     1       8.311   0.893   0.256  1.00  0.00     0.033 A 
HETATM   21  C30 UNL     1       9.912   1.960   1.868  1.00  0.00     0.033 A 
HETATM   22  C31 UNL     1      11.153   1.609   2.262  1.00  0.00     0.104 A 
HETATM   23  C32 UNL     1      12.820  -0.135   1.866  1.00  0.00     0.340 C 
HETATM   24  N7  UNL     1      13.672   0.581   2.827  1.00  0.00    -0.039 NA
HETATM   25  O4  UNL     1      13.382  -1.107   1.457  1.00  0.00    -0.250 OA
ENDBRANCH  10  13
ENDBRANCH   8   9
ENDBRANCH   7   8
ENDBRANCH   6   7
ENDBRANCH   5   6
ENDBRANCH   4   5
ENDBRANCH   3   4
ENDBRANCH   2   3
ENDBRANCH   1   2
BRANCH   1  26
HETATM   26  C13 UNL     1      -2.186  -2.278   0.494  1.00  0.00     0.020 C 
BRANCH  26  27
HETATM   27  C14 UNL     1      -3.269  -1.291   0.671  1.00  0.00     0.138 C 
BRANCH  27  28
HETATM   28  N3  UNL     1      -3.119   0.037   0.196  1.00  0.00    -0.226 N 
HETATM   29  C15 UNL     1      -4.185   1.009   0.405  1.00  0.00     0.683 C 
HETATM   30  N4  UNL     1      -3.912   2.243   0.372  1.00  0.00    -0.117 N 
HETATM   31  N5  UNL     1      -5.495   0.499   0.634  1.00  0.00    -0.225 N 
ATOM     32  H4  UNL     1      -4.703   2.869   0.526  1.00  0.00     0.197 HD
ATOM     33  H5  UNL     1      -5.820   0.304   1.581  1.00  0.00     0.177 HD
ATOM     34  H3  UNL     1      -2.266   0.312  -0.291  1.00  0.00     0.177 HD
BRANCH  30  35
HETATM   35  S1  UNL     1      -2.425   3.007   0.110  1.00  0.00     0.240 S 
HETATM   36  C16 UNL     1      -2.679   4.785  -0.047  1.00  0.00     0.186 C 
HETATM   37  O2  UNL     1      -1.431   2.776   1.224  1.00  0.00    -0.206 OA
HETATM   38  O3  UNL     1      -1.809   2.584  -1.210  1.00  0.00    -0.206 OA
ENDBRANCH  30  35
BRANCH  31  39
HETATM   39  C17 UNL     1      -6.356   0.263  -0.506  1.00  0.00     0.147 C 
BRANCH  39  40
HETATM   40  C18 UNL     1      -7.705  -0.271  -0.089  1.00  0.00    -0.023 C 
HETATM   41  C19 UNL     1      -7.509  -1.568   0.640  1.00  0.00     0.015 C 
HETATM   42  C20 UNL     1      -8.863  -2.168   1.003  1.00  0.00    -0.013 C 
HETATM   43  C21 UNL     1      -9.580  -1.185   1.876  1.00  0.00     0.009 C 
HETATM   44  C25 UNL     1      -9.687  -2.430  -0.235  1.00  0.00     0.009 C 
HETATM   45  C22 UNL     1      -9.785   0.118   1.133  1.00  0.00    -0.013 C 
HETATM   46  C23 UNL     1     -10.558  -0.096  -0.145  1.00  0.00     0.009 C 
HETATM   47  C27 UNL     1      -8.442   0.716   0.756  1.00  0.00     0.015 C 
HETATM   48  C24 UNL     1      -9.841  -1.120  -0.970  1.00  0.00    -0.013 C 
HETATM   49  C26 UNL     1      -8.498  -0.558  -1.359  1.00  0.00     0.015 C 
ENDBRANCH  39  40
ENDBRANCH  31  39
ENDBRANCH  27  28
ENDBRANCH  26  27
ENDBRANCH   1  26
TORSDOF 15
