REMARK  11 active torsions:
REMARK  status: ('A' for Active; 'I' for Inactive)
REMARK    1  A    between atoms: C12_14  and  N2_15 
REMARK    2  A    between atoms: N2_15  and  C13_16 
REMARK    3  A    between atoms: C13_16  and  C14_17 
REMARK    4  A    between atoms: C14_17  and  C15_18 
REMARK    5  A    between atoms: C15_18  and  N3_19 
REMARK    6  A    between atoms: N3_19  and  C16_21 
REMARK    7  A    between atoms: N5_25  and  C18_27 
REMARK    8  A    between atoms: C18_27  and  C19_28 
REMARK    9  A    between atoms: C19_28  and  N6_29 
REMARK   10  A    between atoms: N9_37  and  C23_39 
REMARK   11  A    between atoms: C23_39  and  C24_40 
ROOT
HETATM    1  C16 UNL     1      -1.871  -0.581   0.142  1.00  0.00     0.162 A 
HETATM    2  N4  UNL     1      -2.195  -1.805  -0.250  1.00  0.00    -0.172 N 
ATOM      3  H4  UNL     1      -1.677  -2.579   0.167  1.00  0.00     0.186 HD
HETATM    4  C17 UNL     1      -3.137  -2.115  -1.140  1.00  0.00     0.694 A 
HETATM    5  N5  UNL     1      -3.447  -3.299  -1.508  1.00  0.00    -0.223 N 
ATOM      6  H5  UNL     1      -4.192  -3.376  -2.200  1.00  0.00     0.177 HD
HETATM    7  N7  UNL     1      -3.824  -1.090  -1.693  1.00  0.00    -0.131 N 
ATOM      8  H7  UNL     1      -4.555  -1.276  -2.379  1.00  0.00     0.205 HD
HETATM    9  N8  UNL     1      -3.543   0.168  -1.339  1.00  0.00    -0.268 N 
ATOM     10  H8  UNL     1      -4.072   0.927  -1.769  1.00  0.00     0.189 HD
HETATM   11  C22 UNL     1      -2.595   0.473  -0.442  1.00  0.00     0.162 A 
HETATM   12  N9  UNL     1      -2.333   1.699  -0.100  1.00  0.00    -0.368 N 
ATOM     13  H9  UNL     1      -1.605   1.891   0.588  1.00  0.00     0.161 HD
ENDROOT
BRANCH   1  14
HETATM   14  N3  UNL     1      -0.981  -0.252   1.006  1.00  0.00    -0.372 N 
ATOM     15  H3  UNL     1      -0.829   0.734   1.220  1.00  0.00     0.161 HD
BRANCH  14  16
HETATM   16  C15 UNL     1      -0.198  -1.248   1.674  1.00  0.00     0.127 C 
BRANCH  16  17
HETATM   17  C14 UNL     1       1.158  -1.459   1.044  1.00  0.00     0.079 C 
BRANCH  17  18
HETATM   18  C13 UNL     1       1.916  -0.122   1.119  1.00  0.00     0.157 C 
BRANCH  18  19
HETATM   19  N2  UNL     1       3.143  -0.092   0.639  1.00  0.00    -0.420 NA
BRANCH  19  20
HETATM   20  C12 UNL     1       4.242  -0.063   0.221  1.00  0.00     0.131 A 
HETATM   21  C11 UNL     1       4.499  -0.123  -1.161  1.00  0.00     0.032 A 
HETATM   22  C6  UNL     1       5.790  -0.088  -1.591  1.00  0.00     0.046 A 
HETATM   23  C10 UNL     1       3.421  -0.214  -2.050  1.00  0.00     0.017 A 
HETATM   24  N1  UNL     1       6.825   0.001  -0.736  1.00  0.00    -0.355 N 
HETATM   25  C7  UNL     1       6.012  -0.149  -2.972  1.00  0.00     0.030 A 
HETATM   26  C5  UNL     1       6.595   0.058   0.591  1.00  0.00     0.046 A 
ATOM     27  H1  UNL     1       7.781   0.025  -1.091  1.00  0.00     0.166 HD
HETATM   28  C4  UNL     1       7.669   0.152   1.487  1.00  0.00     0.031 A 
HETATM   29  C32 UNL     1       5.332   0.030   1.118  1.00  0.00     0.033 A 
HETATM   30  C3  UNL     1       7.496   0.216   2.854  1.00  0.00     0.009 A 
HETATM   31  C2  UNL     1       6.219   0.187   3.374  1.00  0.00    -0.061 A 
HETATM   32  C1  UNL     1       5.992   0.251   4.851  1.00  0.00     0.048 C 
HETATM   33  C33 UNL     1       5.146   0.093   2.484  1.00  0.00     0.024 A 
HETATM   34  C8  UNL     1       4.968  -0.239  -3.859  1.00  0.00     0.002 A 
HETATM   35  C9  UNL     1       3.655  -0.273  -3.404  1.00  0.00     0.001 A 
ENDBRANCH  19  20
ENDBRANCH  18  19
ENDBRANCH  17  18
ENDBRANCH  16  17
ENDBRANCH  14  16
ENDBRANCH   1  14
BRANCH  12  36
HETATM   36  C23 UNL     1      -3.072   2.792  -0.694  1.00  0.00     0.162 C 
BRANCH  36  37
HETATM   37  C24 UNL     1      -2.660   4.079  -0.088  1.00  0.00    -0.013 A 
HETATM   38  C25 UNL     1      -1.733   4.307   0.904  1.00  0.00     0.098 A 
HETATM   39  N10 UNL     1      -1.683   5.647   1.148  1.00  0.00    -0.365 N 
HETATM   40  C26 UNL     1      -2.540   6.288   0.354  1.00  0.00     0.043 A 
ATOM     41  H10 UNL     1      -1.078   6.094   1.837  1.00  0.00     0.165 HD
HETATM   42  C27 UNL     1      -2.869   7.612   0.201  1.00  0.00     0.030 A 
HETATM   43  C31 UNL     1      -3.159   5.324  -0.425  1.00  0.00    -0.000 A 
HETATM   44  C28 UNL     1      -3.812   8.002  -0.722  1.00  0.00     0.002 A 
HETATM   45  C29 UNL     1      -4.445   7.067  -1.511  1.00  0.00     0.001 A 
HETATM   46  C30 UNL     1      -4.097   5.745  -1.338  1.00  0.00     0.014 A 
ENDBRANCH  36  37
ENDBRANCH  12  36
BRANCH   5  47
HETATM   47  C18 UNL     1      -2.869  -4.527  -1.060  1.00  0.00     0.168 C 
BRANCH  47  48
HETATM   48  C19 UNL     1      -3.807  -5.115  -0.001  1.00  0.00     0.291 C 
BRANCH  48  49
HETATM   49  N6  UNL     1      -5.082  -5.336  -0.623  1.00  0.00     0.081 N 
HETATM   50  C20 UNL     1      -5.080  -6.379  -1.597  1.00  0.00     0.309 C 
HETATM   51  C21 UNL     1      -6.168  -5.437   0.320  1.00  0.00     0.309 C 
ENDBRANCH  48  49
ENDBRANCH  47  48
ENDBRANCH   5  47
TORSDOF 11
