REMARK  10 active torsions:
REMARK  status: ('A' for Active; 'I' for Inactive)
REMARK    1  A    between atoms: C7_7  and  C8_8 
REMARK    2  A    between atoms: C8_8  and  N1_9 
REMARK    3  A    between atoms: N1_9  and  C9_11 
REMARK    4  A    between atoms: N3_15  and  C11_17 
REMARK    5  A    between atoms: C11_17  and  C12_18 
REMARK    6  A    between atoms: C12_18  and  C13_19 
REMARK    7  A    between atoms: C16_22  and  N4_23 
REMARK    8  A    between atoms: N4_23  and  S1_25 
REMARK    9  A    between atoms: S1_25  and  C17_28 
REMARK   10  A    between atoms: C20_31  and  C21_32 
ROOT
HETATM    1  C1  UNL     1     -11.100  -0.315   1.264  1.00  0.00     0.103 C 
HETATM    2  C2  UNL     1     -10.063   0.330   1.259  1.00  0.00    -0.149 C 
HETATM    3  C3  UNL     1      -8.843   1.077   1.228  1.00  0.00     0.005 A 
HETATM    4  C4  UNL     1      -8.868   2.468   1.107  1.00  0.00     0.020 A 
HETATM    5  C5  UNL     1      -7.683   3.126   1.083  1.00  0.00     0.002 A 
HETATM    6  C6  UNL     1      -6.473   2.427   1.175  1.00  0.00     0.009 A 
HETATM    7  C7  UNL     1      -6.455   1.062   1.294  1.00  0.00    -0.039 A 
HETATM    8  C30 UNL     1      -7.651   0.387   1.321  1.00  0.00     0.028 A 
ENDROOT
BRANCH   7   9
HETATM    9  C8  UNL     1      -5.181   0.340   1.369  1.00  0.00     0.160 C 
BRANCH   9  10
HETATM   10  N1  UNL     1      -4.882  -0.369   0.150  1.00  0.00    -0.371 N 
ATOM     11  H1  UNL     1      -5.663  -0.478  -0.497  1.00  0.00     0.161 HD
BRANCH  10  12
HETATM   12  C9  UNL     1      -3.801  -0.869  -0.226  1.00  0.00     0.131 A 
HETATM   13  N2  UNL     1      -2.677  -0.824   0.479  1.00  0.00    -0.176 N 
HETATM   14  C10 UNL     1      -1.549  -1.413   0.016  1.00  0.00     0.681 A 
ATOM     15  H2  UNL     1      -2.663  -0.341   1.378  1.00  0.00     0.186 HD
HETATM   16  N3  UNL     1      -0.446  -1.351   0.648  1.00  0.00    -0.226 N 
HETATM   17  N5  UNL     1      -1.542  -2.066  -1.189  1.00  0.00    -0.176 N 
ATOM     18  H3  UNL     1       0.368  -1.816   0.247  1.00  0.00     0.177 HD
HETATM   19  C26 UNL     1      -2.659  -2.137  -1.938  1.00  0.00     0.135 A 
ATOM     20  H5  UNL     1      -0.682  -2.503  -1.522  1.00  0.00     0.186 HD
HETATM   21  N6  UNL     1      -2.953  -2.691  -3.132  1.00  0.00    -0.351 N 
HETATM   22  C29 UNL     1      -3.792  -1.532  -1.447  1.00  0.00     0.054 A 
HETATM   23  C27 UNL     1      -4.235  -2.461  -3.425  1.00  0.00     0.091 A 
ATOM     24  H6  UNL     1      -2.298  -3.206  -3.720  1.00  0.00     0.166 HD
HETATM   25  C28 UNL     1      -4.781  -1.741  -2.393  1.00  0.00     0.036 A 
BRANCH  16  26
HETATM   26  C11 UNL     1      -0.290  -0.665   1.887  1.00  0.00     0.142 C 
BRANCH  26  27
HETATM   27  C12 UNL     1       1.191  -0.783   2.274  1.00  0.00     0.058 C 
BRANCH  27  28
HETATM   28  C13 UNL     1       2.008  -0.214   1.146  1.00  0.00    -0.057 A 
HETATM   29  C14 UNL     1       2.446  -1.083   0.144  1.00  0.00     0.009 A 
HETATM   30  C15 UNL     1       3.173  -0.654  -0.958  1.00  0.00     0.030 A 
HETATM   31  C16 UNL     1       3.491   0.678  -1.093  1.00  0.00     0.042 A 
HETATM   32  C24 UNL     1       3.057   1.531  -0.098  1.00  0.00     0.030 A 
HETATM   33  C25 UNL     1       2.328   1.105   1.007  1.00  0.00     0.009 A 
BRANCH  31  34
HETATM   34  N4  UNL     1       4.210   1.177  -2.198  1.00  0.00    -0.281 N 
ATOM     35  H4  UNL     1       3.864   1.990  -2.708  1.00  0.00     0.179 HD
BRANCH  34  36
HETATM   36  S1  UNL     1       5.667   0.415  -2.682  1.00  0.00     0.263 S 
HETATM   37  O1  UNL     1       5.382  -0.988  -3.100  1.00  0.00    -0.200 OA
HETATM   38  O2  UNL     1       6.242   1.188  -3.881  1.00  0.00    -0.200 OA
BRANCH  36  39
HETATM   39  C17 UNL     1       6.900   0.455  -1.463  1.00  0.00     0.079 A 
HETATM   40  C18 UNL     1       6.931  -0.511  -0.500  1.00  0.00     0.026 A 
HETATM   41  C19 UNL     1       7.884  -0.539   0.497  1.00  0.00     0.020 A 
HETATM   42  C20 UNL     1       8.843   0.447   0.524  1.00  0.00     0.040 A 
HETATM   43  C22 UNL     1       8.831   1.443  -0.451  1.00  0.00     0.020 A 
HETATM   44  C23 UNL     1       7.871   1.449  -1.435  1.00  0.00     0.026 A 
BRANCH  42  45
HETATM   45  C21 UNL     1       9.864   0.472   1.561  1.00  0.00     0.209 C 
HETATM   46  O3  UNL     1      10.767   1.359   1.574  1.00  0.00    -0.644 OA
HETATM   47  O4  UNL     1       9.879  -0.477   2.577  1.00  0.00    -0.644 OA
ENDBRANCH  42  45
ENDBRANCH  36  39
ENDBRANCH  34  36
ENDBRANCH  31  34
ENDBRANCH  27  28
ENDBRANCH  26  27
ENDBRANCH  16  26
ENDBRANCH  10  12
ENDBRANCH   9  10
ENDBRANCH   7   9
TORSDOF 10
