REMARK  10 active torsions:
REMARK  status: ('A' for Active; 'I' for Inactive)
REMARK    1  A    between atoms: N1_2  and  C2_4 
REMARK    2  A    between atoms: C6_8  and  C7_9 
REMARK    3  A    between atoms: C8_10  and  C9_11 
REMARK    4  A    between atoms: C10_12  and  O1_13 
REMARK    5  A    between atoms: N4_30  and  O2_31 
REMARK    6  A    between atoms: N5_36  and  C27_37 
REMARK    7  A    between atoms: C27_37  and  C28_38 
REMARK    8  A    between atoms: C28_38  and  C29_39 
REMARK    9  A    between atoms: C29_39  and  C30_40 
REMARK   10  A    between atoms: C30_40  and  N6_41 
ROOT
HETATM    1  C9  UNL     1       2.774  -0.029  -0.625  1.00  0.00     0.010 A 
HETATM    2  C10 UNL     1       3.000   0.731  -1.728  1.00  0.00     0.081 A 
HETATM    3  C12 UNL     1       2.202   0.544  -2.805  1.00  0.00     0.068 A 
HETATM    4  C13 UNL     1       1.160  -0.342  -2.940  1.00  0.00     0.046 A 
HETATM    5  N2  UNL     1       0.235  -0.281  -3.960  1.00  0.00    -0.364 N 
ATOM      6  H2  UNL     1       0.545  -0.640  -4.863  1.00  0.00     0.165 HD
HETATM    7  C14 UNL     1      -1.067   0.207  -3.918  1.00  0.00     0.101 C 
HETATM    8  C15 UNL     1      -2.134  -0.173  -3.095  1.00  0.00    -0.003 C 
HETATM    9  C16 UNL     1      -3.266  -0.874  -3.673  1.00  0.00     0.040 C 
HETATM   10  C17 UNL     1      -3.108  -2.276  -3.758  1.00  0.00     0.047 C 
HETATM   11  N3  UNL     1      -4.228  -3.059  -4.293  1.00  0.00    -0.102 NA
HETATM   12  C18 UNL     1      -1.961  -2.915  -3.343  1.00  0.00     0.027 C 
HETATM   13  C19 UNL     1      -0.721  -2.635  -2.961  1.00  0.00     0.017 C 
HETATM   14  C20 UNL     1      -0.153  -2.024  -1.803  1.00  0.00     0.007 A 
HETATM   15  C21 UNL     1       0.926  -1.160  -1.789  1.00  0.00     0.016 A 
HETATM   16  C22 UNL     1       1.727  -0.974  -0.667  1.00  0.00     0.008 A 
HETATM   17  C23 UNL     1       1.473  -1.617   0.520  1.00  0.00     0.136 A 
HETATM   18  N4  UNL     1       0.394  -2.432   0.509  1.00  0.00    -0.234 N 
HETATM   19  C24 UNL     1      -0.368  -2.617  -0.566  1.00  0.00     0.074 A 
HETATM   20  C25 UNL     1      -1.721  -3.087  -0.363  1.00  0.00     0.050 C 
HETATM   21  C26 UNL     1      -2.810  -2.210  -0.599  1.00  0.00     0.092 C 
HETATM   22  N5  UNL     1      -2.867  -0.891  -0.816  1.00  0.00    -0.365 N 
HETATM   23  C32 UNL     1      -2.239  -0.035  -1.688  1.00  0.00     0.103 C 
ENDROOT
BRANCH   1  24
HETATM   24  C8  UNL     1       3.593   0.074   0.570  1.00  0.00     0.017 C 
HETATM   25  C7  UNL     1       4.634   0.851   0.681  1.00  0.00     0.030 C 
BRANCH  25  26
HETATM   26  C6  UNL     1       5.421   0.894   1.955  1.00  0.00     0.033 A 
HETATM   27  C5  UNL     1       5.093   0.143   3.049  1.00  0.00     0.029 A 
HETATM   28  C4  UNL     1       5.890   0.249   4.191  1.00  0.00     0.006 A 
HETATM   29  C3  UNL     1       6.988   1.073   4.264  1.00  0.00     0.048 A 
HETATM   30  C2  UNL     1       7.263   1.801   3.127  1.00  0.00     0.101 A 
HETATM   31  N9  UNL     1       6.501   1.705   2.024  1.00  0.00    -0.343 N 
ATOM     32  H9  UNL     1       6.747   2.265   1.208  1.00  0.00     0.167 HD
BRANCH  30  33
HETATM   33  N1  UNL     1       8.288   2.584   3.163  1.00  0.00    -0.381 N 
HETATM   34  C1  UNL     1       8.702   3.411   2.048  1.00  0.00     0.147 C 
ATOM     35  H1  UNL     1       8.836   2.623   4.022  1.00  0.00     0.160 HD
ENDBRANCH  30  33
ENDBRANCH  25  26
ENDBRANCH   1  24
BRANCH   2  36
HETATM   36  O1  UNL     1       4.020   1.707  -1.814  1.00  0.00    -0.355 OA
HETATM   37  C11 UNL     1       4.237   2.479  -2.956  1.00  0.00     0.210 C 
ENDBRANCH   2  36
BRANCH  18  38
HETATM   38  O2  UNL     1       0.106  -3.128   1.711  1.00  0.00    -0.283 OA
ATOM     39  H2  UNL     1      -0.652  -3.701   1.703  1.00  0.00     0.245 HD
ENDBRANCH  18  38
BRANCH  22  40
HETATM   40  C27 UNL     1      -3.861  -0.167   0.122  1.00  0.00     0.128 C 
BRANCH  40  41
HETATM   41  C28 UNL     1      -5.187  -0.136  -0.468  1.00  0.00     0.022 C 
BRANCH  41  42
HETATM   42  C29 UNL     1      -6.270   0.544   0.251  1.00  0.00     0.021 C 
BRANCH  42  43
HETATM   43  C30 UNL     1      -6.628   0.036   1.594  1.00  0.00     0.122 C 
BRANCH  43  44
HETATM   44  N6  UNL     1      -5.544   0.166   2.515  1.00  0.00    -0.367 N 
HETATM   45  C31 UNL     1      -5.462   1.046   3.453  1.00  0.00     0.196 C 
HETATM   46  N7  UNL     1      -4.276   0.994   4.266  1.00  0.00    -0.067 NA
HETATM   47  N8  UNL     1      -6.471   2.003   3.671  1.00  0.00    -0.067 NA
ATOM     48  H6  UNL     1      -4.770  -0.492   2.423  1.00  0.00     0.161 HD
ENDBRANCH  43  44
ENDBRANCH  42  43
ENDBRANCH  41  42
ENDBRANCH  40  41
ENDBRANCH  22  40
TORSDOF 10
