REMARK  10 active torsions:
REMARK  status: ('A' for Active; 'I' for Inactive)
REMARK    1  A    between atoms: C7_7  and  C8_8 
REMARK    2  A    between atoms: C8_8  and  C9_9 
REMARK    3  A    between atoms: C11_14  and  C12_15 
REMARK    4  A    between atoms: C12_15  and  C13_16 
REMARK    5  A    between atoms: C16_21  and  O2_22 
REMARK    6  A    between atoms: C17_24  and  C18_25 
REMARK    7  A    between atoms: C18_25  and  C19_26 
REMARK    8  A    between atoms: C23_33  and  C24_34 
REMARK    9  A    between atoms: C24_34  and  C25_35 
REMARK   10  A    between atoms: C29_42  and  C30_43 
ROOT
HETATM    1  C9  UNL     1      -2.023   0.417  -0.565  1.00  0.00     0.105 C 
HETATM    2  N1  UNL     1      -1.820   0.734   0.821  1.00  0.00    -0.308 N 
ATOM      3  H1  UNL     1      -2.267   0.082   1.465  1.00  0.00     0.170 HD
HETATM    4  C10 UNL     1      -1.120   1.776   1.456  1.00  0.00     0.269 C 
HETATM    5  O1  UNL     1      -1.776   2.341   2.421  1.00  0.00    -0.266 OA
HETATM    6  C11 UNL     1       0.215   2.339   1.236  1.00  0.00     0.080 C 
HETATM    7  N2  UNL     1       1.258   1.384   1.510  1.00  0.00    -0.338 N 
ATOM      8  H2  UNL     1       0.993   0.765   2.276  1.00  0.00     0.167 HD
HETATM    9  C16 UNL     1       2.493   1.073   1.039  1.00  0.00     0.139 C 
HETATM   10  C17 UNL     1       3.089   1.102  -0.303  1.00  0.00     0.159 C 
HETATM   11  N3  UNL     1       3.208  -0.204  -0.924  1.00  0.00    -0.347 N 
ATOM     12  H3  UNL     1       4.007  -0.297  -1.551  1.00  0.00     0.163 HD
HETATM   13  C22 UNL     1       2.426  -1.359  -0.819  1.00  0.00     0.241 C 
HETATM   14  O3  UNL     1       1.917  -1.719  -1.952  1.00  0.00    -0.271 OA
HETATM   15  C23 UNL     1       2.087  -2.228   0.319  1.00  0.00     0.177 C 
HETATM   16  N4  UNL     1       0.828  -2.076   0.951  1.00  0.00    -0.346 N 
ATOM     17  H4  UNL     1       0.939  -1.630   1.862  1.00  0.00     0.163 HD
HETATM   18  C28 UNL     1      -0.498  -2.347   0.710  1.00  0.00     0.241 C 
HETATM   19  O4  UNL     1      -1.075  -3.054   1.633  1.00  0.00    -0.271 OA
HETATM   20  C29 UNL     1      -1.425  -1.990  -0.406  1.00  0.00     0.178 C 
HETATM   21  N5  UNL     1      -1.345  -0.772  -1.004  1.00  0.00    -0.363 N 
ATOM     22  H5  UNL     1      -0.755  -0.695  -1.833  1.00  0.00     0.162 HD
ENDROOT
BRANCH   1  23
HETATM   23  C8  UNL     1      -3.310   0.729  -1.205  1.00  0.00     0.060 C 
BRANCH  23  24
HETATM   24  C7  UNL     1      -4.592   0.201  -0.798  1.00  0.00    -0.027 A 
HETATM   25  C2  UNL     1      -5.313   0.696   0.246  1.00  0.00    -0.052 A 
HETATM   26  C1  UNL     1      -4.926   1.881   1.053  1.00  0.00     0.049 C 
HETATM   27  C3  UNL     1      -6.531   0.106   0.573  1.00  0.00     0.007 A 
HETATM   28  C4  UNL     1      -7.069  -0.964  -0.102  1.00  0.00     0.001 A 
HETATM   29  C5  UNL     1      -6.309  -1.436  -1.157  1.00  0.00     0.001 A 
HETATM   30  C6  UNL     1      -5.118  -0.868  -1.484  1.00  0.00     0.012 A 
ENDBRANCH  23  24
ENDBRANCH   1  23
BRANCH  20  31
HETATM   31  C30 UNL     1      -1.318  -3.158  -1.377  1.00  0.00     0.009 C 
HETATM   32  C31 UNL     1      -2.146  -2.999  -2.622  1.00  0.00     0.012 C 
HETATM   33  C32 UNL     1      -1.698  -4.465  -0.655  1.00  0.00     0.012 C 
ENDBRANCH  20  31
BRANCH   6  34
HETATM   34  C12 UNL     1       0.438   3.259   0.096  1.00  0.00     0.067 C 
BRANCH  34  35
HETATM   35  C13 UNL     1      -0.329   4.549   0.076  1.00  0.00    -0.017 C 
HETATM   36  C14 UNL     1      -1.811   4.494   0.039  1.00  0.00     0.010 C 
HETATM   37  C15 UNL     1       0.097   5.389  -1.148  1.00  0.00     0.010 C 
ENDBRANCH  34  35
ENDBRANCH   6  34
BRANCH   9  38
HETATM   38  O2  UNL     1       3.352   0.658   1.928  1.00  0.00    -0.348 OA
ATOM     39  H2  UNL     1       4.216   0.440   1.598  1.00  0.00     0.219 HD
ENDBRANCH   9  38
BRANCH  15  40
HETATM   40  C24 UNL     1       2.393  -3.685  -0.107  1.00  0.00     0.038 C 
BRANCH  40  41
HETATM   41  C25 UNL     1       2.111  -4.678   0.955  1.00  0.00    -0.020 C 
HETATM   42  C26 UNL     1       2.948  -4.389   2.184  1.00  0.00     0.009 C 
HETATM   43  C27 UNL     1       2.643  -6.023   0.423  1.00  0.00     0.009 C 
ENDBRANCH  40  41
ENDBRANCH  15  40
BRANCH  10  44
HETATM   44  C18 UNL     1       4.454   1.737  -0.369  1.00  0.00     0.037 C 
BRANCH  44  45
HETATM   45  C19 UNL     1       4.601   3.139   0.029  1.00  0.00    -0.020 C 
HETATM   46  C20 UNL     1       6.101   3.490  -0.187  1.00  0.00     0.009 C 
HETATM   47  C21 UNL     1       4.332   3.520   1.440  1.00  0.00     0.009 C 
ENDBRANCH  44  45
ENDBRANCH  10  44
TORSDOF 10
