REMARK  13 active torsions:
REMARK  status: ('A' for Active; 'I' for Inactive)
REMARK    1  A    between atoms: O1_2  and  C2_3 
REMARK    2  A    between atoms: C5_6  and  C6_7 
REMARK    3  A    between atoms: C6_7  and  N1_8 
REMARK    4  A    between atoms: N1_8  and  C7_9 
REMARK    5  A    between atoms: C8_12  and  N3_13 
REMARK    6  A    between atoms: N3_13  and  C9_14 
REMARK    7  A    between atoms: C9_14  and  C10_15 
REMARK    8  A    between atoms: C13_18  and  C14_19 
REMARK    9  A    between atoms: C14_19  and  C15_20 
REMARK   10  A    between atoms: C15_20  and  C16_21 
REMARK       I    between atoms: C16_21  and  N4_23 
REMARK   11  A    between atoms: N4_23  and  C17_25 
REMARK   12  A    between atoms: C22_36  and  N8_37 
REMARK   13  A    between atoms: N8_37  and  C23_39 
ROOT
HETATM    1  C7  UNL     1      -2.600   0.395   0.821  1.00  0.00     0.276 A 
HETATM    2  N2  UNL     1      -1.417  -0.084   0.460  1.00  0.00    -0.275 N 
ATOM      3  H2  UNL     1      -0.679   0.594   0.270  1.00  0.00     0.174 HD
HETATM    4  C8  UNL     1      -1.099  -1.415   0.320  1.00  0.00     0.276 A 
HETATM    5  N7  UNL     1      -2.158  -2.263   0.598  1.00  0.00    -0.148 N 
ATOM      6  H7  UNL     1      -2.002  -3.268   0.517  1.00  0.00     0.188 HD
HETATM    7  C22 UNL     1      -3.359  -1.849   0.962  1.00  0.00     0.689 A 
HETATM    8  N9  UNL     1      -3.576  -0.542   1.072  1.00  0.00    -0.148 N 
ATOM      9  H9  UNL     1      -4.502  -0.221   1.354  1.00  0.00     0.188 HD
ENDROOT
BRANCH   4  10
HETATM   10  N3  UNL     1      -0.045  -1.801  -0.015  1.00  0.00    -0.382 NA
BRANCH  10  11
HETATM   11  C9  UNL     1       1.055  -2.457  -0.372  1.00  0.00     0.197 C 
BRANCH  11  12
HETATM   12  C10 UNL     1       2.314  -1.616  -0.489  1.00  0.00    -0.007 A 
HETATM   13  C11 UNL     1       2.714  -1.163  -1.719  1.00  0.00     0.014 A 
HETATM   14  C12 UNL     1       3.861  -0.381  -1.861  1.00  0.00     0.012 A 
HETATM   15  C13 UNL     1       4.626  -0.038  -0.778  1.00  0.00    -0.036 A 
HETATM   16  C20 UNL     1       4.201  -0.511   0.471  1.00  0.00     0.012 A 
HETATM   17  C21 UNL     1       3.067  -1.284   0.604  1.00  0.00     0.014 A 
BRANCH  15  18
HETATM   18  C14 UNL     1       5.841   0.776  -0.848  1.00  0.00     0.017 C 
BRANCH  18  19
HETATM   19  C15 UNL     1       6.315   1.242  -1.978  1.00  0.00     0.075 C 
BRANCH  19  20
HETATM   20  C16 UNL     1       7.520   2.041  -1.986  1.00  0.00     0.246 C 
HETATM   21  O2  UNL     1       7.975   2.481  -3.058  1.00  0.00    -0.268 OA
HETATM   22  N4  UNL     1       8.189   2.330  -0.778  1.00  0.00    -0.308 N 
ATOM     23  H4  UNL     1       7.673   2.883  -0.093  1.00  0.00     0.170 HD
BRANCH  22  24
HETATM   24  C17 UNL     1       9.361   1.977  -0.453  1.00  0.00     0.123 A 
HETATM   25  C18 UNL     1       9.995   2.271   0.732  1.00  0.00     0.068 A 
HETATM   26  C19 UNL     1      11.248   1.718   0.704  1.00  0.00     0.111 A 
HETATM   27  N5  UNL     1      11.354   1.099  -0.493  1.00  0.00    -0.310 N 
HETATM   28  N6  UNL     1      10.233   1.258  -1.168  1.00  0.00    -0.286 N 
ATOM     29  H5  UNL     1      12.173   0.589  -0.822  1.00  0.00     0.186 HD
ATOM     30  H6  UNL     1      10.056   0.886  -2.101  1.00  0.00     0.188 HD
ENDBRANCH  22  24
ENDBRANCH  19  20
ENDBRANCH  18  19
ENDBRANCH  15  18
ENDBRANCH  11  12
ENDBRANCH  10  11
ENDBRANCH   4  10
BRANCH   1  31
HETATM   31  N1  UNL     1      -2.868   1.560   0.942  1.00  0.00    -0.382 NA
BRANCH  31  32
HETATM   32  C6  UNL     1      -3.160   2.848   1.074  1.00  0.00     0.197 C 
BRANCH  32  33
HETATM   33  C5  UNL     1      -4.600   3.173   0.795  1.00  0.00    -0.007 A 
HETATM   34  C4  UNL     1      -5.560   3.127   1.764  1.00  0.00     0.016 A 
HETATM   35  C3  UNL     1      -6.873   3.426   1.457  1.00  0.00     0.037 A 
HETATM   36  C2  UNL     1      -7.234   3.773   0.175  1.00  0.00     0.068 A 
HETATM   37  C30 UNL     1      -6.247   3.810  -0.776  1.00  0.00     0.037 A 
HETATM   38  C29 UNL     1      -4.932   3.515  -0.487  1.00  0.00     0.016 A 
BRANCH  36  39
HETATM   39  O1  UNL     1      -8.553   4.065  -0.106  1.00  0.00    -0.356 OA
HETATM   40  C1  UNL     1      -8.872   4.418  -1.444  1.00  0.00     0.210 C 
ENDBRANCH  36  39
ENDBRANCH  32  33
ENDBRANCH  31  32
ENDBRANCH   1  31
BRANCH   7  41
HETATM   41  N8  UNL     1      -4.302  -2.716   1.202  1.00  0.00    -0.191 N 
ATOM     42  H8  UNL     1      -5.228  -2.393   1.483  1.00  0.00     0.184 HD
BRANCH  41  43
HETATM   43  C23 UNL     1      -4.046  -4.115   1.074  1.00  0.00     0.049 A 
HETATM   44  C24 UNL     1      -4.220  -4.719  -0.163  1.00  0.00     0.030 A 
HETATM   45  C25 UNL     1      -3.994  -6.067  -0.328  1.00  0.00     0.002 A 
HETATM   46  C26 UNL     1      -3.589  -6.862   0.722  1.00  0.00     0.000 A 
HETATM   47  C27 UNL     1      -3.418  -6.237   1.964  1.00  0.00     0.002 A 
HETATM   48  C28 UNL     1      -3.644  -4.894   2.122  1.00  0.00     0.030 A 
ENDBRANCH  41  43
ENDBRANCH   7  41
TORSDOF 13
