REMARK  10 active torsions:
REMARK  status: ('A' for Active; 'I' for Inactive)
REMARK       I    between atoms: N1_2  and  C2_4 
REMARK    1  A    between atoms: C2_4  and  C3_6 
REMARK    2  A    between atoms: C7_10  and  N2_11 
REMARK    3  A    between atoms: N2_11  and  C8_12 
REMARK    4  A    between atoms: C11_15  and  C12_16 
REMARK    5  A    between atoms: C12_16  and  N3_17 
REMARK       I    between atoms: N3_17  and  C13_18 
REMARK    6  A    between atoms: C13_18  and  C14_20 
REMARK    7  A    between atoms: C20_29  and  N6_30 
REMARK    8  A    between atoms: C21_32  and  C22_33 
REMARK    9  A    between atoms: C22_33  and  C23_34 
REMARK   10  A    between atoms: C23_34  and  O3_35 
ROOT
HETATM    1  C14 UNL     1       2.621  -0.703   1.703  1.00  0.00     0.049 A 
HETATM    2  C15 UNL     1       2.238   0.037   0.566  1.00  0.00     0.041 A 
HETATM    3  C16 UNL     1       3.256   0.591  -0.198  1.00  0.00     0.058 A 
HETATM    4  C17 UNL     1       3.023   1.302  -1.399  1.00  0.00     0.100 C 
HETATM    5  N4  UNL     1       2.801   1.871  -2.389  1.00  0.00    -0.191 NA
HETATM    6  C18 UNL     1       4.597   0.378   0.200  1.00  0.00     0.010 A 
HETATM    7  C19 UNL     1       5.645   0.819  -0.641  1.00  0.00     0.103 A 
HETATM    8  N5  UNL     1       6.939   0.512  -0.335  1.00  0.00    -0.351 N 
ATOM      9  H5  UNL     1       7.672   0.838  -0.964  1.00  0.00     0.166 HD
HETATM   10  C20 UNL     1       7.295  -0.182   0.727  1.00  0.00     0.105 A 
HETATM   11  C25 UNL     1       6.265  -0.620   1.592  1.00  0.00     0.060 A 
HETATM   12  C26 UNL     1       4.946  -0.327   1.298  1.00  0.00    -0.018 A 
HETATM   13  C27 UNL     1       3.909  -0.883   2.084  1.00  0.00     0.030 A 
ENDROOT
BRANCH   1  14
HETATM   14  C13 UNL     1       1.456  -1.463   2.230  1.00  0.00     0.325 C 
HETATM   15  N3  UNL     1       0.278  -0.912   2.515  1.00  0.00    -0.378 NA
HETATM   16  O2  UNL     1       1.761  -2.711   2.319  1.00  0.00    -0.251 OA
BRANCH  15  17
HETATM   17  C12 UNL     1      -0.953  -0.369   2.818  1.00  0.00     0.198 C 
BRANCH  17  18
HETATM   18  C11 UNL     1      -1.893  -0.317   1.661  1.00  0.00    -0.007 A 
HETATM   19  C10 UNL     1      -1.940   0.931   1.024  1.00  0.00     0.017 A 
HETATM   20  C9  UNL     1      -2.818   1.141  -0.004  1.00  0.00     0.045 A 
HETATM   21  C8  UNL     1      -3.692   0.146  -0.466  1.00  0.00     0.107 A 
HETATM   22  C29 UNL     1      -3.594  -1.054   0.187  1.00  0.00     0.045 A 
HETATM   23  C28 UNL     1      -2.721  -1.298   1.228  1.00  0.00     0.017 A 
BRANCH  21  24
HETATM   24  N2  UNL     1      -4.642   0.435  -1.354  1.00  0.00    -0.405 NA
BRANCH  24  25
HETATM   25  C7  UNL     1      -5.457   0.696  -2.154  1.00  0.00     0.121 A 
HETATM   26  C6  UNL     1      -6.824   0.549  -1.718  1.00  0.00     0.031 A 
HETATM   27  C5  UNL     1      -7.114   0.171  -0.454  1.00  0.00     0.018 A 
HETATM   28  C32 UNL     1      -7.871   0.840  -2.574  1.00  0.00     0.046 A 
HETATM   29  C4  UNL     1      -8.406   0.081   0.009  1.00  0.00     0.018 A 
HETATM   30  C3  UNL     1      -9.467   0.372  -0.851  1.00  0.00     0.034 A 
HETATM   31  C33 UNL     1      -9.204   0.749  -2.123  1.00  0.00     0.047 A 
HETATM   32  N7  UNL     1      -7.614   1.257  -3.806  1.00  0.00    -0.365 N 
HETATM   33  C31 UNL     1      -6.364   1.412  -4.270  1.00  0.00     0.091 A 
ATOM     34  H7  UNL     1      -8.396   1.468  -4.425  1.00  0.00     0.165 HD
HETATM   35  C30 UNL     1      -5.279   1.125  -3.415  1.00  0.00     0.062 A 
BRANCH  30  36
HETATM   36  C2  UNL     1     -10.815   0.314  -0.252  1.00  0.00     0.251 C 
HETATM   37  N1  UNL     1     -10.998  -0.591   0.796  1.00  0.00    -0.361 N 
HETATM   38  C1  UNL     1     -12.237  -0.689   1.513  1.00  0.00     0.149 C 
ATOM     39  H1  UNL     1     -10.225  -1.202   1.060  1.00  0.00     0.162 HD
HETATM   40  O1  UNL     1     -11.760   1.028  -0.640  1.00  0.00    -0.268 OA
ENDBRANCH  30  36
ENDBRANCH  24  25
ENDBRANCH  21  24
ENDBRANCH  17  18
ENDBRANCH  15  17
ENDBRANCH   1  14
BRANCH  10  41
HETATM   41  N6  UNL     1       8.459  -0.588   0.946  1.00  0.00    -0.356 N 
HETATM   42  C21 UNL     1       9.731  -0.661   0.529  1.00  0.00     0.064 C 
ATOM     43  H6  UNL     1       8.424  -1.083   1.837  1.00  0.00     0.166 HD
BRANCH  42  44
HETATM   44  C22 UNL     1      10.126   0.089  -0.742  1.00  0.00     0.071 C 
BRANCH  44  45
HETATM   45  C23 UNL     1      11.626  -0.292  -0.952  1.00  0.00     0.172 C 
BRANCH  45  46
HETATM   46  O3  UNL     1      12.340   0.100   0.128  1.00  0.00    -0.396 OA
HETATM   47  C24 UNL     1      12.309   1.419   0.393  1.00  0.00     0.201 C 
ENDBRANCH  45  46
ENDBRANCH  44  45
ENDBRANCH  42  44
ENDBRANCH  10  41
TORSDOF 10
