REMARK  10 active torsions:
REMARK  status: ('A' for Active; 'I' for Inactive)
REMARK    1  A    between atoms: C2_2  and  C3_3 
REMARK    2  A    between atoms: C3_3  and  C4_4 
REMARK    3  A    between atoms: C4_4  and  C5_5 
REMARK    4  A    between atoms: C9_15  and  C10_16 
REMARK    5  A    between atoms: C10_16  and  C12_18 
REMARK    6  A    between atoms: C15_24  and  C16_25 
REMARK    7  A    between atoms: C16_25  and  C17_26 
REMARK    8  A    between atoms: C20_31  and  O4_32 
REMARK    9  A    between atoms: C21_34  and  C22_35 
REMARK   10  A    between atoms: C22_35  and  C23_36 
ROOT
HETATM    1  C23 UNL     1      -3.282   0.265   1.741  1.00  0.00    -0.029 A 
HETATM    2  C24 UNL     1      -3.167   0.481   3.107  1.00  0.00     0.096 A 
HETATM    3  N5  UNL     1      -3.642   1.695   3.365  1.00  0.00    -0.365 N 
ATOM      4  H5  UNL     1      -3.677   2.112   4.295  1.00  0.00     0.165 HD
HETATM    5  C25 UNL     1      -4.069   2.304   2.249  1.00  0.00     0.043 A 
HETATM    6  C26 UNL     1      -4.644   3.539   1.998  1.00  0.00     0.032 A 
HETATM    7  C27 UNL     1      -4.996   3.885   0.738  1.00  0.00     0.025 A 
HETATM    8  C28 UNL     1      -4.780   2.995  -0.315  1.00  0.00     0.045 A 
HETATM    9  C29 UNL     1      -5.160   3.388  -1.626  1.00  0.00     0.099 C 
HETATM   10  N6  UNL     1      -5.461   3.684  -2.683  1.00  0.00    -0.191 NA
HETATM   11  C30 UNL     1      -4.209   1.765  -0.074  1.00  0.00     0.037 A 
HETATM   12  C31 UNL     1      -3.843   1.405   1.229  1.00  0.00    -0.000 A 
ENDROOT
BRANCH   1  13
HETATM   13  C22 UNL     1      -2.810  -0.977   1.120  1.00  0.00     0.055 C 
BRANCH  13  14
HETATM   14  C21 UNL     1      -1.405  -0.884   0.649  1.00  0.00     0.087 C 
HETATM   15  C5  UNL     1      -0.945  -2.242   0.054  1.00  0.00     0.096 C 
HETATM   16  N1  UNL     1      -0.517  -3.178   1.056  1.00  0.00    -0.354 N 
HETATM   17  C6  UNL     1       0.629  -3.956   1.213  1.00  0.00     0.235 C 
ATOM     18  H1  UNL     1      -1.193  -3.299   1.810  1.00  0.00     0.162 HD
HETATM   19  O1  UNL     1       0.573  -5.213   1.166  1.00  0.00    -0.272 OA
HETATM   20  C7  UNL     1       2.046  -3.454   1.454  1.00  0.00     0.225 C 
HETATM   21  N2  UNL     1       2.058  -2.017   1.341  1.00  0.00    -0.351 N 
HETATM   22  C8  UNL     1       2.744  -1.024   0.701  1.00  0.00     0.241 C 
ATOM     23  H2  UNL     1       1.322  -1.615   1.922  1.00  0.00     0.163 HD
HETATM   24  O2  UNL     1       2.549  -0.856  -0.543  1.00  0.00    -0.271 OA
HETATM   25  C9  UNL     1       3.740  -0.007   1.146  1.00  0.00     0.180 C 
HETATM   26  N3  UNL     1       3.089   1.262   1.468  1.00  0.00    -0.346 N 
HETATM   27  C14 UNL     1       1.753   1.674   1.308  1.00  0.00     0.241 C 
ATOM     28  H3  UNL     1       3.705   1.965   1.876  1.00  0.00     0.163 HD
HETATM   29  O3  UNL     1       1.069   1.900   2.352  1.00  0.00    -0.271 OA
HETATM   30  C15 UNL     1       0.981   1.900   0.065  1.00  0.00     0.175 C 
HETATM   31  N4  UNL     1      -0.360   1.460   0.011  1.00  0.00    -0.361 N 
HETATM   32  C20 UNL     1      -1.033   0.249  -0.214  1.00  0.00     0.118 C 
ATOM     33  H4  UNL     1      -1.013   2.225   0.180  1.00  0.00     0.162 HD
BRANCH  15  34
HETATM   34  C4  UNL     1      -2.016  -2.796  -0.829  1.00  0.00     0.026 C 
BRANCH  34  35
HETATM   35  C3  UNL     1      -1.582  -4.027  -1.593  1.00  0.00     0.002 C 
BRANCH  35  36
HETATM   36  C2  UNL     1      -2.801  -4.430  -2.439  1.00  0.00    -0.004 C 
HETATM   37  C1  UNL     1      -2.494  -5.662  -3.260  1.00  0.00     0.005 C 
ENDBRANCH  35  36
ENDBRANCH  34  35
ENDBRANCH  15  34
BRANCH  25  38
HETATM   38  C10 UNL     1       4.883   0.197   0.198  1.00  0.00     0.013 C 
HETATM   39  C11 UNL     1       4.588   0.651  -1.172  1.00  0.00     0.012 C 
BRANCH  38  40
HETATM   40  C12 UNL     1       5.718  -1.089   0.068  1.00  0.00     0.002 C 
HETATM   41  C13 UNL     1       6.297  -1.521   1.376  1.00  0.00     0.005 C 
ENDBRANCH  38  40
ENDBRANCH  25  38
BRANCH  30  42
HETATM   42  C16 UNL     1       0.946   3.474  -0.061  1.00  0.00     0.038 C 
BRANCH  42  43
HETATM   43  C17 UNL     1       0.197   3.840  -1.311  1.00  0.00    -0.020 C 
HETATM   44  C18 UNL     1       0.177   5.356  -1.412  1.00  0.00     0.009 C 
HETATM   45  C19 UNL     1       0.903   3.346  -2.561  1.00  0.00     0.009 C 
ENDBRANCH  42  43
ENDBRANCH  30  42
BRANCH  32  46
HETATM   46  O4  UNL     1      -1.453   0.003  -1.434  1.00  0.00    -0.349 OA
ATOM     47  H4  UNL     1      -1.909  -0.817  -1.586  1.00  0.00     0.219 HD
ENDBRANCH  32  46
ENDBRANCH  13  14
ENDBRANCH   1  13
TORSDOF 10
