REMARK  10 active torsions:
REMARK  status: ('A' for Active; 'I' for Inactive)
REMARK    1  A    between atoms: N1_2  and  C3_4 
REMARK    2  A    between atoms: N1_2  and  C5_10 
REMARK    3  A    between atoms: C3_4  and  C4_5 
REMARK    4  A    between atoms: C4_5  and  N2_6 
REMARK    5  A    between atoms: C5_10  and  C6_11 
REMARK    6  A    between atoms: C16_24  and  C17_25 
REMARK    7  A    between atoms: N5_27  and  O1_29 
REMARK    8  A    between atoms: C21_34  and  N6_35 
REMARK       I    between atoms: N6_35  and  C22_37 
REMARK    9  A    between atoms: C22_37  and  C23_39 
REMARK   10  A    between atoms: C23_39  and  C24_40 
ROOT
HETATM    1  C6  UNL     1      -2.090  -1.414  -1.173  1.00  0.00     0.010 C 
HETATM    2  C7  UNL     1      -0.833  -2.194  -1.702  1.00  0.00     0.244 C 
HETATM    3  N3  UNL     1      -0.118  -1.277  -2.533  1.00  0.00    -0.070 N 
ATOM      4  H31 UNL     1       0.088  -1.662  -3.455  1.00  0.00     0.277 HD
ATOM      5  H32 UNL     1       0.843  -1.135  -2.223  1.00  0.00     0.277 HD
HETATM    6  C8  UNL     1      -0.872  -0.034  -2.602  1.00  0.00     0.187 C 
HETATM    7  C9  UNL     1      -2.284  -0.615  -2.396  1.00  0.00     0.046 C 
HETATM    8  C10 UNL     1      -0.460   0.912  -1.531  1.00  0.00     0.045 C 
HETATM    9  C11 UNL     1      -1.113   0.710  -0.221  1.00  0.00    -0.013 C 
HETATM   10  C12 UNL     1      -2.466   1.474  -0.242  1.00  0.00     0.016 C 
HETATM   11  C13 UNL     1      -2.767   2.115   1.118  1.00  0.00     0.040 C 
HETATM   12  C14 UNL     1      -1.745   3.223   1.182  1.00  0.00    -0.049 A 
HETATM   13  C15 UNL     1      -2.070   4.546   1.320  1.00  0.00     0.022 A 
HETATM   14  C16 UNL     1      -1.057   5.491   1.262  1.00  0.00     0.007 A 
HETATM   15  C18 UNL     1       0.248   5.026   1.065  1.00  0.00     0.015 A 
HETATM   16  C19 UNL     1       0.552   3.666   0.928  1.00  0.00     0.011 A 
HETATM   17  C20 UNL     1      -0.470   2.763   0.993  1.00  0.00    -0.028 A 
HETATM   18  C21 UNL     1      -0.264   1.272   0.891  1.00  0.00     0.127 C 
HETATM   19  C34 UNL     1      -1.544  -0.708   0.041  1.00  0.00     0.025 C 
ENDROOT
BRANCH  18  20
HETATM   20  N6  UNL     1       1.094   1.044   1.001  1.00  0.00    -0.352 N 
HETATM   21  C22 UNL     1       2.089   0.092   0.759  1.00  0.00     0.218 C 
HETATM   22  O2  UNL     1       1.857  -1.026   0.295  1.00  0.00    -0.274 OA
ATOM     23  H6  UNL     1       1.530   1.872   1.407  1.00  0.00     0.163 HD
BRANCH  21  24
HETATM   24  C23 UNL     1       3.534   0.398   1.064  1.00  0.00     0.112 C 
BRANCH  24  25
HETATM   25  C24 UNL     1       4.466  -0.728   0.848  1.00  0.00    -0.031 C 
HETATM   26  C25 UNL     1       5.860  -0.156   1.214  1.00  0.00     0.014 C 
HETATM   27  C26 UNL     1       6.927  -1.185   1.171  1.00  0.00    -0.013 C 
HETATM   28  C27 UNL     1       6.639  -2.330   2.090  1.00  0.00     0.009 C 
HETATM   29  C31 UNL     1       7.051  -1.713  -0.245  1.00  0.00     0.009 C 
HETATM   30  C28 UNL     1       5.297  -2.905   1.653  1.00  0.00    -0.013 C 
HETATM   31  C29 UNL     1       5.332  -3.400   0.240  1.00  0.00     0.009 C 
HETATM   32  C33 UNL     1       4.272  -1.848   1.864  1.00  0.00     0.014 C 
HETATM   33  C30 UNL     1       5.712  -2.239  -0.656  1.00  0.00    -0.013 C 
HETATM   34  C32 UNL     1       4.605  -1.209  -0.556  1.00  0.00     0.014 C 
ENDBRANCH  24  25
ENDBRANCH  21  24
ENDBRANCH  18  20
BRANCH   1  35
HETATM   35  C5  UNL     1      -3.047  -2.492  -0.899  1.00  0.00     0.247 C 
BRANCH  35  36
HETATM   36  N1  UNL     1      -4.340  -2.339  -0.420  1.00  0.00    -0.072 N 
HETATM   37  C1  UNL     1      -4.906  -3.731  -0.506  1.00  0.00     0.272 C 
HETATM   38  C2  UNL     1      -4.554  -2.007   0.958  1.00  0.00     0.272 C 
BRANCH  36  39
HETATM   39  C3  UNL     1      -5.283  -1.610  -1.255  1.00  0.00     0.263 C 
BRANCH  39  40
HETATM   40  C4  UNL     1      -5.614  -2.281  -2.552  1.00  0.00     0.257 C 
BRANCH  40  41
HETATM   41  N2  UNL     1      -6.562  -1.431  -3.281  1.00  0.00    -0.078 N 
ATOM     42  H23 UNL     1      -7.392  -1.207  -2.732  1.00  0.00     0.274 HD
ATOM     43  H22 UNL     1      -6.219  -0.479  -3.408  1.00  0.00     0.274 HD
ATOM     44  H21 UNL     1      -6.787  -1.888  -4.165  1.00  0.00     0.274 HD
ENDBRANCH  40  41
ENDBRANCH  39  40
ENDBRANCH  36  39
ENDBRANCH  35  36
ENDBRANCH   1  35
BRANCH  14  45
HETATM   45  C17 UNL     1      -1.303   6.903   1.397  1.00  0.00     0.146 C 
HETATM   46  N4  UNL     1      -0.129   7.763   1.306  1.00  0.00    -0.080 NA
HETATM   47  N5  UNL     1      -2.378   7.489   1.579  1.00  0.00    -0.255 N 
ATOM     48  H5  UNL     1      -2.287   8.503   1.641  1.00  0.00     0.195 HD
BRANCH  47  49
HETATM   49  O1  UNL     1      -3.633   7.053   1.710  1.00  0.00    -0.288 OA
ATOM     50  H1  UNL     1      -4.458   7.503   1.850  1.00  0.00     0.244 HD
ENDBRANCH  47  49
ENDBRANCH  14  45
TORSDOF 10
