REMARK  9 active torsions:
REMARK  status: ('A' for Active; 'I' for Inactive)
REMARK    1  A    between atoms: C2_2  and  C3_3 
REMARK    2  A    between atoms: C6_6  and  C7_7 
REMARK    3  A    between atoms: C7_7  and  C8_8 
REMARK    4  A    between atoms: C10_13  and  C11_14 
REMARK    5  A    between atoms: C11_14  and  C12_15 
REMARK    6  A    between atoms: C15_18  and  O2_19 
REMARK    7  A    between atoms: C20_27  and  C22_29 
REMARK    8  A    between atoms: C25_35  and  C26_36 
REMARK    9  A    between atoms: C26_36  and  C28_38 
ROOT
HETATM    1  C8  UNL     1      -0.478   0.836   1.746  1.00  0.00     0.180 C 
HETATM    2  N1  UNL     1       0.136   1.011   0.491  1.00  0.00    -0.346 N 
ATOM      3  H1  UNL     1      -0.413   1.518  -0.204  1.00  0.00     0.163 HD
HETATM    4  C9  UNL     1       1.417   0.576   0.065  1.00  0.00     0.241 C 
HETATM    5  O1  UNL     1       1.878   0.978  -1.060  1.00  0.00    -0.271 OA
HETATM    6  C10 UNL     1       2.294  -0.336   0.836  1.00  0.00     0.180 C 
HETATM    7  N2  UNL     1       2.942  -1.282  -0.063  1.00  0.00    -0.345 N 
ATOM      8  H2  UNL     1       3.540  -0.886  -0.788  1.00  0.00     0.163 HD
HETATM    9  C19 UNL     1       2.829  -2.688  -0.036  1.00  0.00     0.246 C 
HETATM   10  O3  UNL     1       3.928  -3.327  -0.012  1.00  0.00    -0.271 OA
HETATM   11  C20 UNL     1       1.578  -3.478  -0.034  1.00  0.00     0.110 C 
HETATM   12  C21 UNL     1       1.988  -4.871  -0.626  1.00  0.00     0.049 C 
HETATM   13  N3  UNL     1       0.566  -2.989  -0.942  1.00  0.00    -0.342 N 
ATOM     14  H3  UNL     1       0.936  -2.804  -1.875  1.00  0.00     0.163 HD
HETATM   15  C24 UNL     1      -0.780  -2.714  -0.845  1.00  0.00     0.241 C 
HETATM   16  O4  UNL     1      -1.552  -3.586  -1.420  1.00  0.00    -0.271 OA
HETATM   17  C25 UNL     1      -1.557  -1.630  -0.224  1.00  0.00     0.180 C 
HETATM   18  N4  UNL     1      -1.467  -1.491   1.182  1.00  0.00    -0.346 N 
ATOM     19  H4  UNL     1      -1.604  -2.362   1.695  1.00  0.00     0.163 HD
HETATM   20  C30 UNL     1      -1.227  -0.392   1.992  1.00  0.00     0.241 C 
HETATM   21  O5  UNL     1      -1.747  -0.439   3.182  1.00  0.00    -0.271 OA
ENDROOT
BRANCH   1  22
HETATM   22  C7  UNL     1      -1.314   2.006   2.224  1.00  0.00     0.073 C 
BRANCH  22  23
HETATM   23  C6  UNL     1      -2.429   2.378   1.356  1.00  0.00    -0.056 A 
HETATM   24  C5  UNL     1      -3.709   1.874   1.444  1.00  0.00     0.007 A 
HETATM   25  C4  UNL     1      -4.726   2.266   0.605  1.00  0.00     0.007 A 
HETATM   26  C3  UNL     1      -4.500   3.198  -0.375  1.00  0.00    -0.059 A 
HETATM   27  C32 UNL     1      -3.249   3.728  -0.503  1.00  0.00     0.007 A 
HETATM   28  C31 UNL     1      -2.242   3.324   0.345  1.00  0.00     0.007 A 
BRANCH  26  29
HETATM   29  C2  UNL     1      -5.587   3.649  -1.307  1.00  0.00     0.034 C 
HETATM   30  C1  UNL     1      -6.261   4.842  -0.655  1.00  0.00     0.010 C 
ENDBRANCH  26  29
ENDBRANCH  22  23
ENDBRANCH   1  22
BRANCH   6  31
HETATM   31  C11 UNL     1       3.305   0.487   1.594  1.00  0.00     0.073 C 
BRANCH  31  32
HETATM   32  C12 UNL     1       4.187   1.321   0.789  1.00  0.00    -0.056 A 
HETATM   33  C13 UNL     1       5.363   0.807   0.300  1.00  0.00     0.010 A 
HETATM   34  C14 UNL     1       6.211   1.565  -0.436  1.00  0.00     0.037 A 
HETATM   35  C15 UNL     1       5.924   2.871  -0.717  1.00  0.00     0.068 A 
HETATM   36  C17 UNL     1       4.752   3.419  -0.242  1.00  0.00     0.037 A 
HETATM   37  C18 UNL     1       3.884   2.633   0.514  1.00  0.00     0.010 A 
BRANCH  35  38
HETATM   38  O2  UNL     1       6.806   3.665  -1.484  1.00  0.00    -0.356 OA
HETATM   39  C16 UNL     1       8.012   3.118  -1.977  1.00  0.00     0.210 C 
ENDBRANCH  35  38
ENDBRANCH  31  32
ENDBRANCH   6  31
BRANCH  17  40
HETATM   40  C26 UNL     1      -3.057  -1.781  -0.537  1.00  0.00     0.013 C 
HETATM   41  C27 UNL     1      -3.630  -3.063  -0.063  1.00  0.00     0.012 C 
BRANCH  40  42
HETATM   42  C28 UNL     1      -3.386  -1.404  -1.957  1.00  0.00     0.002 C 
HETATM   43  C29 UNL     1      -4.860  -1.558  -2.252  1.00  0.00     0.005 C 
ENDBRANCH  40  42
ENDBRANCH  17  40
BRANCH  11  44
HETATM   44  C22 UNL     1       1.121  -3.860   1.333  1.00  0.00     0.036 C 
HETATM   45  C23 UNL     1       2.214  -4.718   1.996  1.00  0.00     0.008 C 
ENDBRANCH  11  44
TORSDOF 9
