REMARK  12 active torsions:
REMARK  status: ('A' for Active; 'I' for Inactive)
REMARK    1  A    between atoms: C2_2  and  C3_3 
REMARK    2  A    between atoms: C3_3  and  C4_4 
REMARK    3  A    between atoms: C4_4  and  C5_5 
REMARK    4  A    between atoms: C5_5  and  C6_6 
REMARK    5  A    between atoms: C6_6  and  C7_7 
REMARK    6  A    between atoms: C8_10  and  O1_11 
REMARK    7  A    between atoms: C10_15  and  C11_16 
REMARK    8  A    between atoms: C11_16  and  C12_17 
REMARK    9  A    between atoms: C20_29  and  O3_30 
REMARK   10  A    between atoms: C21_32  and  C22_33 
REMARK   11  A    between atoms: C22_33  and  C23_34 
REMARK   12  A    between atoms: C27_41  and  C28_42 
ROOT
HETATM    1  C7  UNL     1      -2.352   0.270  -0.207  1.00  0.00     0.176 C 
HETATM    2  N1  UNL     1      -1.678   1.492   0.216  1.00  0.00    -0.355 N 
ATOM      3  H1  UNL     1      -1.755   1.750   1.200  1.00  0.00     0.162 HD
HETATM    4  C8  UNL     1      -0.927   2.350  -0.619  1.00  0.00     0.185 C 
HETATM    5  C9  UNL     1       0.213   2.052  -1.432  1.00  0.00     0.222 C 
HETATM    6  O2  UNL     1       0.107   2.191  -2.691  1.00  0.00    -0.286 OA
HETATM    7  C10 UNL     1       1.574   1.580  -0.971  1.00  0.00     0.166 C 
HETATM    8  N3  UNL     1       1.505   1.012   0.330  1.00  0.00    -0.360 N 
ATOM      9  H3  UNL     1       1.203   1.681   1.039  1.00  0.00     0.162 HD
HETATM   10  C20 UNL     1       1.756  -0.245   0.850  1.00  0.00     0.135 C 
HETATM   11  C21 UNL     1       1.596  -1.600   0.308  1.00  0.00     0.159 C 
HETATM   12  N4  UNL     1       0.772  -1.726  -0.856  1.00  0.00    -0.347 N 
ATOM     13  H4  UNL     1       1.000  -1.090  -1.620  1.00  0.00     0.163 HD
HETATM   14  C26 UNL     1      -0.298  -2.591  -1.100  1.00  0.00     0.241 C 
HETATM   15  O4  UNL     1      -0.230  -3.351  -2.141  1.00  0.00    -0.271 OA
HETATM   16  C27 UNL     1      -1.538  -2.776  -0.326  1.00  0.00     0.180 C 
HETATM   17  N5  UNL     1      -1.698  -1.967   0.828  1.00  0.00    -0.346 N 
ATOM     18  H5  UNL     1      -1.277  -2.304   1.694  1.00  0.00     0.163 HD
HETATM   19  C31 UNL     1      -2.398  -0.719   0.884  1.00  0.00     0.241 C 
HETATM   20  O5  UNL     1      -3.072  -0.467   1.908  1.00  0.00    -0.271 OA
ENDROOT
BRANCH   7  21
HETATM   21  C11 UNL     1       2.443   2.859  -0.837  1.00  0.00     0.074 C 
BRANCH  21  22
HETATM   22  C12 UNL     1       3.820   2.602  -0.450  1.00  0.00    -0.028 A 
HETATM   23  C13 UNL     1       4.596   1.453  -0.565  1.00  0.00     0.096 A 
HETATM   24  N2  UNL     1       5.842   1.676  -0.098  1.00  0.00    -0.365 N 
HETATM   25  C14 UNL     1       5.907   2.935   0.317  1.00  0.00     0.042 A 
ATOM     26  H2  UNL     1       6.601   0.996  -0.069  1.00  0.00     0.165 HD
HETATM   27  C15 UNL     1       6.968   3.657   0.870  1.00  0.00     0.030 A 
HETATM   28  C19 UNL     1       4.693   3.533   0.119  1.00  0.00    -0.002 A 
HETATM   29  C16 UNL     1       6.779   4.992   1.219  1.00  0.00     0.002 A 
HETATM   30  C17 UNL     1       5.563   5.604   1.026  1.00  0.00     0.001 A 
HETATM   31  C18 UNL     1       4.539   4.849   0.474  1.00  0.00     0.014 A 
ENDBRANCH  21  22
ENDBRANCH   7  21
BRANCH   4  32
HETATM   32  O1  UNL     1      -1.371   3.585  -0.620  1.00  0.00    -0.344 OA
ATOM     33  H1  UNL     1      -0.866   4.162  -1.181  1.00  0.00     0.219 HD
ENDBRANCH   4  32
BRANCH  10  34
HETATM   34  O3  UNL     1       2.232  -0.273   2.074  1.00  0.00    -0.348 OA
ATOM     35  H3  UNL     1       2.404  -1.136   2.431  1.00  0.00     0.219 HD
ENDBRANCH  10  34
BRANCH  11  36
HETATM   36  C22 UNL     1       2.960  -2.163  -0.095  1.00  0.00     0.037 C 
BRANCH  36  37
HETATM   37  C23 UNL     1       3.950  -2.240   1.012  1.00  0.00    -0.020 C 
HETATM   38  C24 UNL     1       3.561  -3.078   2.179  1.00  0.00     0.009 C 
HETATM   39  C25 UNL     1       5.228  -2.846   0.383  1.00  0.00     0.009 C 
ENDBRANCH  36  37
ENDBRANCH  11  36
BRANCH   1  40
HETATM   40  C6  UNL     1      -3.688   0.509  -0.840  1.00  0.00     0.035 C 
BRANCH  40  41
HETATM   41  C5  UNL     1      -4.718   1.195  -0.008  1.00  0.00     0.002 C 
BRANCH  41  42
HETATM   42  C4  UNL     1      -5.940   1.334  -0.924  1.00  0.00     0.000 C 
BRANCH  42  43
HETATM   43  C3  UNL     1      -7.035   2.034  -0.195  1.00  0.00    -0.000 C 
BRANCH  43  44
HETATM   44  C2  UNL     1      -7.450   1.236   1.010  1.00  0.00    -0.005 C 
HETATM   45  C1  UNL     1      -8.581   1.999   1.686  1.00  0.00     0.005 C 
ENDBRANCH  43  44
ENDBRANCH  42  43
ENDBRANCH  41  42
ENDBRANCH  40  41
ENDBRANCH   1  40
BRANCH  16  46
HETATM   46  C28 UNL     1      -1.751  -4.262  -0.028  1.00  0.00     0.009 C 
HETATM   47  C29 UNL     1      -0.629  -4.873   0.752  1.00  0.00     0.012 C 
HETATM   48  C30 UNL     1      -1.971  -5.068  -1.282  1.00  0.00     0.012 C 
ENDBRANCH  16  46
TORSDOF 12
