REMARK  2 active torsions:
REMARK  status: ('A' for Active; 'I' for Inactive)
REMARK    1  A    between atoms: C2_2  and  C3_3 
REMARK    2  A    between atoms: C3_3  and  N1_4 
ROOT
HETATM    1  C3  UNL     1      -0.620  -0.544   0.178  1.00  0.00     0.276 C 
HETATM    2 BR1  UNL     1      -0.508  -0.153   2.086  1.00  0.00    -0.057 Br
ENDROOT
BRANCH   1   3
HETATM    3  C2  UNL     1       0.717  -0.582  -0.390  1.00  0.00     0.007 C 
HETATM    4  C1  UNL     1       1.591   0.372  -0.141  1.00  0.00     0.010 C 
ENDBRANCH   1   3
BRANCH   1   5
HETATM    5  N1  UNL     1      -1.483   0.458  -0.408  1.00  0.00    -0.062 N 
ATOM      6  H13 UNL     1      -1.047   1.379  -0.358  1.00  0.00     0.276 HD
ATOM      7  H12 UNL     1      -1.528   0.343  -1.420  1.00  0.00     0.276 HD
ATOM      8  H11 UNL     1      -2.421   0.485  -0.009  1.00  0.00     0.276 HD
ENDBRANCH   1   5
TORSDOF 2
