REMARK  4 active torsions:
REMARK  status: ('A' for Active; 'I' for Inactive)
REMARK    1  A    between atoms: N1_1  and  C1_5 
REMARK    2  A    between atoms: C1_5  and  C2_6 
REMARK    3  A    between atoms: C2_6  and  C3_7 
REMARK    4  A    between atoms: C4_8  and  C5_9 
ROOT
HETATM    1  C5  UNL     1      -1.594  -0.036   0.008  1.00  0.00     0.088 A 
HETATM    2  C6  UNL     1      -2.613   0.717   0.563  1.00  0.00     0.056 A 
HETATM    3  C7  UNL     1      -3.935   0.554   0.206  1.00  0.00     0.091 A 
HETATM    4  N2  UNL     1      -4.233  -0.371  -0.713  1.00  0.00    -0.362 N 
ATOM      5  H2  UNL     1      -5.201  -0.517  -1.000  1.00  0.00     0.165 HD
HETATM    6  C8  UNL     1      -3.247  -1.107  -1.256  1.00  0.00     0.181 A 
HETATM    7  N3  UNL     1      -1.955  -0.953  -0.913  1.00  0.00    -0.345 N 
ATOM      8  H3  UNL     1      -1.242  -1.535  -1.353  1.00  0.00     0.167 HD
ENDROOT
BRANCH   1   9
HETATM    9  C4  UNL     1      -0.213   0.149   0.394  1.00  0.00    -0.049 C 
HETATM   10  C3  UNL     1       0.945   0.315   0.706  1.00  0.00    -0.098 C 
BRANCH  10  11
HETATM   11  C2  UNL     1       2.357   0.531   1.065  1.00  0.00     0.121 C 
BRANCH  11  12
HETATM   12  C1  UNL     1       3.159  -0.511   0.327  1.00  0.00     0.241 C 
BRANCH  12  13
HETATM   13  N1  UNL     1       2.958  -0.347  -1.081  1.00  0.00    -0.079 N 
ATOM     14  H13 UNL     1       1.971  -0.365  -1.336  1.00  0.00     0.274 HD
ATOM     15  H12 UNL     1       3.170   0.600  -1.395  1.00  0.00     0.274 HD
ATOM     16  H11 UNL     1       3.501  -1.052  -1.580  1.00  0.00     0.274 HD
ENDBRANCH  12  13
ENDBRANCH  11  12
ENDBRANCH  10  11
ENDBRANCH   1   9
TORSDOF 4
