REMARK  2 active torsions:
REMARK  status: ('A' for Active; 'I' for Inactive)
REMARK    1  A    between atoms: N1_1  and  N2_4 
REMARK    2  A    between atoms: C1_6  and  C2_7 
ROOT
HETATM    1  C2  UNL     1       0.508  -0.318   0.246  1.00  0.00    -0.019 A 
HETATM    2  C3  UNL     1       0.068   0.989   0.286  1.00  0.00     0.014 A 
HETATM    3  C4  UNL     1      -1.260   1.311   0.095  1.00  0.00     0.027 A 
HETATM    4  C5  UNL     1      -2.215   0.340  -0.144  1.00  0.00     0.046 A 
HETATM    5  N3  UNL     1      -3.583   0.676  -0.340  1.00  0.00    -0.102 NA
HETATM    6  C6  UNL     1      -1.775  -0.968  -0.183  1.00  0.00     0.027 A 
HETATM    7  C7  UNL     1      -0.445  -1.290   0.007  1.00  0.00     0.014 A 
ENDROOT
BRANCH   1   8
HETATM    8  C1  UNL     1       1.908  -0.670   0.446  1.00  0.00     0.118 C 
HETATM    9  N2  UNL     1       2.776   0.254   0.667  1.00  0.00    -0.318 N 
ATOM     10  H2  UNL     1       2.465   1.225   0.699  1.00  0.00     0.185 HD
BRANCH   9  11
HETATM   11  N1  UNL     1       4.129  -0.029   0.865  1.00  0.00    -0.345 N 
ATOM     12  H12 UNL     1       4.422  -1.005   0.830  1.00  0.00     0.176 HD
ATOM     13  H11 UNL     1       4.817   0.703   1.040  1.00  0.00     0.176 HD
ENDBRANCH   9  11
ENDBRANCH   1   8
TORSDOF 2
