REMARK  3 active torsions:
REMARK  status: ('A' for Active; 'I' for Inactive)
REMARK    1  A    between atoms: N1_2  and  C2_4 
REMARK    2  A    between atoms: C2_4  and  N2_6 
REMARK    3  A    between atoms: N2_6  and  N3_8 
ROOT
HETATM    1  N3  UNL     1       1.477  -0.985   1.223  1.00  0.00    -0.300 N 
ATOM      2  H3  UNL     1       1.048  -1.691   1.820  1.00  0.00     0.186 HD
HETATM    3  C3  UNL     1       2.730  -1.019   1.004  1.00  0.00     0.200 C 
HETATM    4  C4  UNL     1       3.329  -0.035   0.174  1.00  0.00     0.106 C 
HETATM    5  N4  UNL     1       3.837   0.767  -0.510  1.00  0.00    -0.191 NA
ENDROOT
BRANCH   1   6
HETATM    6  N2  UNL     1       0.699  -0.003   0.660  1.00  0.00    -0.276 N 
ATOM      7  H2  UNL     1       1.053   0.951   0.594  1.00  0.00     0.189 HD
BRANCH   6   8
HETATM    8  C2  UNL     1      -0.602  -0.316   0.168  1.00  0.00     0.186 C 
HETATM    9  S1  UNL     1      -1.213  -1.836   0.251  1.00  0.00    -0.040 SA
BRANCH   8  10
HETATM   10  N1  UNL     1      -1.439   0.664  -0.420  1.00  0.00    -0.370 N 
HETATM   11  C1  UNL     1      -2.744   0.367  -0.918  1.00  0.00     0.148 C 
ATOM     12  H1  UNL     1      -1.095   1.622  -0.491  1.00  0.00     0.161 HD
ENDBRANCH   8  10
ENDBRANCH   6   8
ENDBRANCH   1   6
TORSDOF 3
