REMARK  3 active torsions:
REMARK  status: ('A' for Active; 'I' for Inactive)
REMARK    1  A    between atoms: N1_1  and  C1_4 
REMARK    2  A    between atoms: C4_11  and  C5_12 
REMARK    3  A    between atoms: N4_13  and  N5_15 
ROOT
HETATM    1  C1  UNL     1       1.221   0.925   0.038  1.00  0.00     0.112 A 
HETATM    2  N2  UNL     1       2.538   0.605   0.203  1.00  0.00    -0.338 N 
ATOM      3  H2  UNL     1       3.238   1.347   0.204  1.00  0.00     0.168 HD
HETATM    4  C2  UNL     1       2.928  -0.673   0.365  1.00  0.00     0.181 A 
HETATM    5  N3  UNL     1       1.995  -1.638   0.362  1.00  0.00    -0.361 N 
ATOM      6  H3  UNL     1       2.290  -2.607   0.486  1.00  0.00     0.166 HD
HETATM    7  C3  UNL     1       0.670  -1.372   0.200  1.00  0.00     0.105 A 
HETATM    8  C4  UNL     1       0.263  -0.066   0.034  1.00  0.00     0.040 A 
ENDROOT
BRANCH   8   9
HETATM    9  C5  UNL     1      -1.144   0.294  -0.145  1.00  0.00     0.123 C 
HETATM   10  N4  UNL     1      -2.044  -0.630  -0.149  1.00  0.00    -0.317 N 
ATOM     11  H4  UNL     1      -1.755  -1.601  -0.027  1.00  0.00     0.185 HD
BRANCH  10  12
HETATM   12  N5  UNL     1      -3.385  -0.349  -0.313  1.00  0.00    -0.345 N 
ATOM     13  H52 UNL     1      -3.657   0.627  -0.434  1.00  0.00     0.176 HD
ATOM     14  H51 UNL     1      -4.097  -1.080  -0.316  1.00  0.00     0.176 HD
ENDBRANCH  10  12
ENDBRANCH   8   9
BRANCH   1  15
HETATM   15  N1  UNL     1       0.838   2.143  -0.118  1.00  0.00    -0.385 N 
ATOM     16  H12 UNL     1       1.547   2.876  -0.115  1.00  0.00     0.157 HD
ATOM     17  H11 UNL     1      -0.146   2.382  -0.241  1.00  0.00     0.157 HD
ENDBRANCH   1  15
TORSDOF 3
