REMARK  2 active torsions:
REMARK  status: ('A' for Active; 'I' for Inactive)
REMARK    1  A    between atoms: N1_1  and  N2_4 
REMARK    2  A    between atoms: C1_6  and  C2_7 
ROOT
HETATM    1  C2  UNL     1       0.696   0.501  -0.448  1.00  0.00     0.053 A 
HETATM    2  C3  UNL     1      -0.056  -0.348   0.333  1.00  0.00     0.057 A 
HETATM    3  C4  UNL     1      -1.455  -0.344   0.279  1.00  0.00     0.053 A 
HETATM    4  N3  UNL     1      -2.218  -1.217   1.084  1.00  0.00    -0.102 NA
HETATM    5  C5  UNL     1      -2.068   0.535  -0.579  1.00  0.00     0.101 A 
HETATM    6  C6  UNL     1      -1.319   1.388  -1.365  1.00  0.00     0.247 A 
HETATM    7  O1  UNL     1      -1.899   2.194  -2.153  1.00  0.00    -0.268 OA
HETATM    8  N4  UNL     1       0.009   1.353  -1.284  1.00  0.00    -0.322 N 
ATOM      9  H4  UNL     1       0.546   1.991  -1.872  1.00  0.00     0.169 HD
ENDROOT
BRANCH   1  10
HETATM   10  C1  UNL     1       2.125   0.536  -0.431  1.00  0.00     0.136 C 
HETATM   11  N2  UNL     1       2.905  -0.141   0.241  1.00  0.00    -0.316 N 
ATOM     12  H2  UNL     1       3.889   0.070   0.074  1.00  0.00     0.185 HD
BRANCH  11  13
HETATM   13  N1  UNL     1       2.699  -1.105   1.152  1.00  0.00    -0.345 N 
ATOM     14  H12 UNL     1       1.709  -1.300   1.304  1.00  0.00     0.176 HD
ATOM     15  H11 UNL     1       3.345  -1.665   1.708  1.00  0.00     0.176 HD
ENDBRANCH  11  13
ENDBRANCH   1  10
TORSDOF 2
