REMARK  5 active torsions:
REMARK  status: ('A' for Active; 'I' for Inactive)
REMARK    1  A    between atoms: N1_1  and  C1_5 
REMARK    2  A    between atoms: C1_5  and  O1_6 
REMARK    3  A    between atoms: C1_5  and  C2_8 
REMARK    4  A    between atoms: N2_12  and  O2_13 
REMARK    5  A    between atoms: C6_15  and  O3_16 
ROOT
HETATM    1  C2  UNL     1      -0.169  -0.224  -0.212  1.00  0.00     0.050 A 
HETATM    2  C3  UNL     1       0.526  -1.408  -0.406  1.00  0.00     0.017 A 
HETATM    3  C4  UNL     1       1.903  -1.472  -0.306  1.00  0.00     0.021 A 
HETATM    4  C5  UNL     1       2.576  -0.304  -0.002  1.00  0.00     0.125 A 
HETATM    5  N2  UNL     1       1.920   0.861   0.191  1.00  0.00    -0.212 N 
HETATM    6  C6  UNL     1       0.584   0.893   0.087  1.00  0.00     0.177 A 
ENDROOT
BRANCH   1   7
HETATM    7  C1  UNL     1      -1.625  -0.083  -0.303  1.00  0.00     0.355 C 
BRANCH   7   8
HETATM    8  N1  UNL     1      -2.124   0.708   0.817  1.00  0.00    -0.049 N 
ATOM      9  H13 UNL     1      -3.137   0.825   0.803  1.00  0.00     0.277 HD
ATOM     10  H12 UNL     1      -2.060   0.220   1.710  1.00  0.00     0.277 HD
ATOM     11  H11 UNL     1      -1.620   1.595   0.809  1.00  0.00     0.277 HD
ENDBRANCH   7   8
BRANCH   7  12
HETATM   12  O1  UNL     1      -2.308  -1.284  -0.292  1.00  0.00    -0.366 OA
ATOM     13  H1  UNL     1      -1.983  -1.799  -1.021  1.00  0.00     0.212 HD
ENDBRANCH   7  12
ENDBRANCH   1   7
BRANCH   6  14
HETATM   14  O3  UNL     1      -0.056   2.105   0.292  1.00  0.00    -0.344 OA
ATOM     15  H3  UNL     1       0.462   2.874   0.498  1.00  0.00     0.219 HD
ENDBRANCH   6  14
BRANCH   5  16
HETATM   16  O2  UNL     1       2.594   2.019   0.493  1.00  0.00    -0.281 OA
ATOM     17  H2  UNL     1       2.133   2.838   0.629  1.00  0.00     0.245 HD
ENDBRANCH   5  16
TORSDOF 5
