REMARK  6 active torsions:
REMARK  status: ('A' for Active; 'I' for Inactive)
REMARK    1  A    between atoms: C2_2  and  C3_3 
REMARK    2  A    between atoms: C8_10  and  N1_11 
REMARK    3  A    between atoms: N1_11  and  C9_12 
REMARK    4  A    between atoms: N3_15  and  C10_16 
REMARK    5  A    between atoms: C13_19  and  N4_20 
REMARK    6  A    between atoms: C22_32  and  C23_33 
ROOT
HETATM    1  C10 UNL     1       1.417  -0.483  -0.749  1.00  0.00     0.125 C 
HETATM    2  C11 UNL     1       1.350  -1.509   0.339  1.00  0.00     0.031 C 
HETATM    3  C12 UNL     1       2.651  -1.815   0.991  1.00  0.00     0.038 C 
HETATM    4  C13 UNL     1       3.627  -0.703   1.087  1.00  0.00     0.224 C 
HETATM    5  C18 UNL     1       2.975   0.621   0.887  1.00  0.00     0.057 C 
HETATM    6  C19 UNL     1       2.234   0.717  -0.407  1.00  0.00     0.119 C 
HETATM    7  C20 UNL     1       3.091   1.004  -1.564  1.00  0.00     0.066 C 
HETATM    8  N5  UNL     1       3.782   1.225  -2.462  1.00  0.00    -0.197 NA
ENDROOT
BRANCH   1   9
HETATM    9  N3  UNL     1       0.031  -0.051  -1.002  1.00  0.00    -0.294 N 
HETATM   10  N2  UNL     1      -0.732   0.356  -0.034  1.00  0.00    -0.271 N 
HETATM   11  C9  UNL     1      -1.989   0.706  -0.542  1.00  0.00     0.211 A 
ATOM     12  H2  UNL     1      -0.458   0.412   0.947  1.00  0.00     0.190 HD
HETATM   13  C22 UNL     1      -1.916   0.473  -1.900  1.00  0.00     0.105 A 
HETATM   14  C21 UNL     1      -0.623  -0.005  -2.151  1.00  0.00     0.132 A 
BRANCH  11  15
HETATM   15  N1  UNL     1      -2.903   1.115   0.114  1.00  0.00    -0.381 NA
BRANCH  15  16
HETATM   16  C8  UNL     1      -4.107   1.574   0.446  1.00  0.00     0.154 A 
HETATM   17  C3  UNL     1      -5.130   0.682   0.813  1.00  0.00    -0.012 A 
HETATM   18  C4  UNL     1      -6.376   1.091   1.173  1.00  0.00     0.052 A 
HETATM   19  C5  UNL     1      -6.652   2.424   1.180  1.00  0.00     0.120 A 
HETATM   20  F1  UNL     1      -7.905   2.851   1.538  1.00  0.00    -0.206 F 
HETATM   21  C6  UNL     1      -5.698   3.340   0.832  1.00  0.00     0.088 A 
HETATM   22  C7  UNL     1      -4.453   2.938   0.472  1.00  0.00     0.160 A 
HETATM   23  F2  UNL     1      -3.503   3.835   0.127  1.00  0.00    -0.202 F 
BRANCH  17  24
HETATM   24  C2  UNL     1      -4.778  -0.773   0.790  1.00  0.00     0.037 C 
HETATM   25  C1  UNL     1      -5.986  -1.579   1.210  1.00  0.00     0.010 C 
ENDBRANCH  17  24
ENDBRANCH  15  16
ENDBRANCH  11  15
BRANCH  13  26
HETATM   26  C23 UNL     1      -2.884   0.642  -2.952  1.00  0.00     0.271 C 
HETATM   27  N6  UNL     1      -4.190   1.118  -2.758  1.00  0.00    -0.057 NA
HETATM   28  O1  UNL     1      -2.577   0.350  -4.156  1.00  0.00    -0.271 OA
ENDBRANCH  13  26
ENDBRANCH   1   9
BRANCH   4  29
HETATM   29  N4  UNL     1       4.759  -0.822   0.194  1.00  0.00     0.099 N 
HETATM   30  C14 UNL     1       5.772   0.120   0.619  1.00  0.00     0.279 C 
HETATM   31  C15 UNL     1       7.118  -0.440   0.216  1.00  0.00     0.111 C 
HETATM   32  C16 UNL     1       6.783  -1.782  -0.340  1.00  0.00     0.271 C 
HETATM   33  F3  UNL     1       6.545  -1.633  -1.711  1.00  0.00    -0.204 F 
HETATM   34  F4  UNL     1       7.698  -2.756  -0.072  1.00  0.00    -0.204 F 
HETATM   35  C17 UNL     1       5.427  -2.086   0.309  1.00  0.00     0.351 C 
ENDBRANCH   4  29
TORSDOF 6
