REMARK  9 active torsions:
REMARK  status: ('A' for Active; 'I' for Inactive)
REMARK    1  A    between atoms: C4_4  and  C5_5 
REMARK    2  A    between atoms: C5_5  and  O2_7 
REMARK    3  A    between atoms: O2_7  and  C6_8 
REMARK    4  A    between atoms: C8_10  and  O3_11 
REMARK    5  A    between atoms: C8_10  and  C9_13 
REMARK    6  A    between atoms: C9_13  and  C11_15 
REMARK    7  A    between atoms: C11_15  and  C12_17 
REMARK    8  A    between atoms: C14_21  and  O4_22 
REMARK    9  A    between atoms: C17_27  and  O5_28 
ROOT
HETATM    1  C6  UNL     1       0.747   0.182  -0.571  1.00  0.00     0.149 C 
HETATM    2  C7  UNL     1      -0.412   0.868   0.065  1.00  0.00     0.079 C 
HETATM    3  C8  UNL     1      -1.642   0.009  -0.167  1.00  0.00     0.116 C 
HETATM    4  C14 UNL     1      -1.256  -0.633  -1.427  1.00  0.00     0.108 C 
HETATM    5  C15 UNL     1      -1.772  -1.882  -1.934  1.00  0.00     0.082 C 
HETATM    6  C16 UNL     1      -0.660  -2.244  -2.947  1.00  0.00     0.202 C 
HETATM    7  F2  UNL     1      -1.026  -1.805  -4.224  1.00  0.00    -0.247 F 
HETATM    8  C17 UNL     1       0.567  -1.438  -2.521  1.00  0.00     0.166 C 
HETATM    9  C18 UNL     1       0.185  -1.041  -1.132  1.00  0.00     0.046 C 
HETATM   10  C19 UNL     1       0.392  -2.230  -0.284  1.00  0.00     0.024 C 
ENDROOT
BRANCH   3  11
HETATM   11  O3  UNL     1      -1.647  -0.920   0.880  1.00  0.00    -0.382 OA
ATOM     12  H3  UNL     1      -2.417  -1.458   0.735  1.00  0.00     0.211 HD
ENDBRANCH   3  11
BRANCH   3  13
HETATM   13  C9  UNL     1      -2.946   0.703  -0.117  1.00  0.00    -0.029 C 
HETATM   14  C10 UNL     1      -4.147  -0.189  -0.371  1.00  0.00     0.048 C 
BRANCH  13  15
HETATM   15  C11 UNL     1      -3.286   1.657   0.940  1.00  0.00     0.048 C 
HETATM   16 BR1  UNL     1      -2.152   3.219   1.081  1.00  0.00    -0.051 Br
BRANCH  15  17
HETATM   17  C12 UNL     1      -3.617   1.229   2.315  1.00  0.00     0.209 C 
HETATM   18  C13 UNL     1      -3.943   2.490   3.155  1.00  0.00     0.076 C 
HETATM   19  F1  UNL     1      -2.518   0.725   2.990  1.00  0.00    -0.220 F 
HETATM   20 CL1  UNL     1      -4.946   0.149   2.561  1.00  0.00    -0.077 Cl
ENDBRANCH  15  17
ENDBRANCH  13  15
ENDBRANCH   3  13
BRANCH   4  21
HETATM   21  O4  UNL     1      -1.191   0.262  -2.498  1.00  0.00    -0.385 OA
ATOM     22  H4  UNL     1      -0.941  -0.154  -3.315  1.00  0.00     0.210 HD
ENDBRANCH   4  21
BRANCH   1  23
HETATM   23  O2  UNL     1       1.856  -0.067   0.204  1.00  0.00    -0.312 OA
BRANCH  23  24
HETATM   24  C5  UNL     1       3.136   0.332   0.050  1.00  0.00     0.283 C 
HETATM   25  O1  UNL     1       3.352   1.024  -0.932  1.00  0.00    -0.260 OA
BRANCH  24  26
HETATM   26  C4  UNL     1       4.159  -0.045   0.990  1.00  0.00     0.084 C 
HETATM   27  C2  UNL     1       5.432   0.301   0.911  1.00  0.00    -0.082 C 
HETATM   28  C1  UNL     1       6.428  -0.131   1.927  1.00  0.00     0.043 C 
HETATM   29  C3  UNL     1       5.873   1.140  -0.219  1.00  0.00     0.043 C 
ENDBRANCH  24  26
ENDBRANCH  23  24
ENDBRANCH   1  23
BRANCH   8  30
HETATM   30  O5  UNL     1       0.892  -0.435  -3.378  1.00  0.00    -0.392 OA
ATOM     31  H5  UNL     1       1.655   0.066  -3.113  1.00  0.00     0.210 HD
ENDBRANCH   8  30
TORSDOF 9
