REMARK  2 active torsions:
REMARK  status: ('A' for Active; 'I' for Inactive)
REMARK    1  A    between atoms: C2_2  and  N1_3 
REMARK    2  A    between atoms: N1_3  and  C3_5 
ROOT
HETATM    1  C3  UNL     1      -0.773   0.054  -0.415  1.00  0.00     0.013 A 
HETATM    2  C4  UNL     1      -1.594  -0.688   0.269  1.00  0.00     0.076 A 
HETATM    3  C5  UNL     1      -2.747   0.123  -0.087  1.00  0.00     0.268 A 
HETATM    4  F1  UNL     1      -3.464   0.686   0.966  1.00  0.00    -0.201 F 
HETATM    5  F2  UNL     1      -3.581  -0.627  -0.963  1.00  0.00    -0.201 F 
HETATM    6  C6  UNL     1      -1.817   0.969  -0.822  1.00  0.00     0.140 A 
ENDROOT
BRANCH   1   7
HETATM    7  N1  UNL     1       0.647   0.011  -0.662  1.00  0.00    -0.393 N 
ATOM      8  H1  UNL     1       0.985   0.029  -1.624  1.00  0.00     0.159 HD
BRANCH   7   9
HETATM    9  C2  UNL     1       1.598  -0.056   0.415  1.00  0.00     0.115 C 
HETATM   10  C1  UNL     1       2.946  -0.414  -0.258  1.00  0.00     0.026 C 
ENDBRANCH   7   9
ENDBRANCH   1   7
TORSDOF 2
