REMARK  2 active torsions:
REMARK  status: ('A' for Active; 'I' for Inactive)
REMARK    1  A    between atoms: N1_1  and  C1_5 
REMARK    2  A    between atoms: C1_5  and  C2_6 
ROOT
HETATM    1  C2  UNL     1      -0.350  -0.142  -0.218  1.00  0.00    -0.030 A 
HETATM    2  C3  UNL     1       0.354  -1.326  -0.321  1.00  0.00     0.012 A 
HETATM    3  C4  UNL     1       1.691  -1.387  -0.010  1.00  0.00     0.046 A 
HETATM    4  C5  UNL     1       2.373  -0.268   0.416  1.00  0.00     0.154 A 
HETATM    5  F1  UNL     1       3.696  -0.383   0.711  1.00  0.00    -0.203 F 
HETATM    6  C6  UNL     1       1.684   0.918   0.523  1.00  0.00     0.155 A 
HETATM    7  F2  UNL     1       2.342   2.026   0.940  1.00  0.00    -0.203 F 
HETATM    8  C7  UNL     1       0.342   0.958   0.205  1.00  0.00     0.054 A 
ENDROOT
BRANCH   1   9
HETATM    9  C1  UNL     1      -1.778  -0.162  -0.570  1.00  0.00     0.268 C 
BRANCH   9  10
HETATM   10  N1  UNL     1      -2.419   1.111  -0.432  1.00  0.00    -0.075 N 
ATOM     11  H13 UNL     1      -2.284   1.483   0.508  1.00  0.00     0.274 HD
ATOM     12  H12 UNL     1      -1.925   1.824  -0.969  1.00  0.00     0.274 HD
ATOM     13  H11 UNL     1      -3.409   1.097  -0.676  1.00  0.00     0.274 HD
ENDBRANCH   9  10
ENDBRANCH   1   9
TORSDOF 2
