REMARK  2 active torsions:
REMARK  status: ('A' for Active; 'I' for Inactive)
REMARK    1  A    between atoms: C1_2  and  C2_5 
REMARK    2  A    between atoms: C2_5  and  C3_6 
ROOT
HETATM    1  C3  UNL     1      -0.218   0.271  -0.343  1.00  0.00     0.035 A 
HETATM    2  C4  UNL     1      -0.849  -0.587   0.533  1.00  0.00     0.045 A 
HETATM    3  C5  UNL     1      -2.189  -0.539   0.245  1.00  0.00     0.109 A 
HETATM    4  N1  UNL     1      -2.354   0.324  -0.774  1.00  0.00    -0.312 N 
ATOM      5  H1  UNL     1      -3.243   0.570  -1.210  1.00  0.00     0.186 HD
HETATM    6  N2  UNL     1      -1.184   0.792  -1.109  1.00  0.00    -0.305 N 
ATOM      7  H2  UNL     1      -1.026   1.467  -1.857  1.00  0.00     0.186 HD
ENDROOT
BRANCH   1   8
HETATM    8  C2  UNL     1       1.210   0.606  -0.479  1.00  0.00     0.176 C 
BRANCH   8   9
HETATM    9  C1  UNL     1       2.078  -0.122   0.508  1.00  0.00     0.393 C 
HETATM   10  F1  UNL     1       1.769   0.139   1.807  1.00  0.00    -0.171 F 
HETATM   11  F2  UNL     1       3.388   0.305   0.303  1.00  0.00    -0.171 F 
HETATM   12  F3  UNL     1       2.058  -1.489   0.313  1.00  0.00    -0.171 F 
ENDBRANCH   8   9
ENDBRANCH   1   8
TORSDOF 2
