REMARK  11 active torsions:
REMARK  status: ('A' for Active; 'I' for Inactive)
REMARK    1  A    between atoms: N2_3  and  C2_5 
REMARK    2  A    between atoms: C3_8  and  C4_9 
REMARK    3  A    between atoms: C4_9  and  O1_10 
REMARK    4  A    between atoms: C4_9  and  O2_12 
REMARK    5  A    between atoms: C5_14  and  C6_15 
REMARK    6  A    between atoms: C6_15  and  O3_16 
REMARK    7  A    between atoms: C6_15  and  N4_18 
REMARK    8  A    between atoms: N4_18  and  O4_20 
REMARK    9  A    between atoms: O4_20  and  C7_21 
REMARK   10  A    between atoms: C7_21  and  C8_23 
REMARK   11  A    between atoms: C9_29  and  N7_30 
ROOT
HETATM    1  N1  UNL     1      -7.045   2.080  -0.056  1.00  0.00    -0.172 NA
HETATM    2  C1  UNL     1      -6.004   2.547  -0.246  1.00  0.00     0.183 C 
HETATM    3  N2  UNL     1      -4.718   3.097  -0.468  1.00  0.00    -0.273 N 
ATOM      4  H2  UNL     1      -4.587   4.080  -0.706  1.00  0.00     0.180 HD
ENDROOT
BRANCH   3   5
HETATM    5  C2  UNL     1      -3.698   2.266  -0.350  1.00  0.00     0.159 A 
HETATM    6  N3  UNL     1      -3.690   0.983  -0.055  1.00  0.00    -0.334 N 
HETATM    7  C3  UNL     1      -2.538   0.336  -0.018  1.00  0.00     0.088 A 
ATOM      8  H3  UNL     1      -4.563   0.494   0.143  1.00  0.00     0.168 HD
HETATM    9  C5  UNL     1      -1.401   1.022  -0.292  1.00  0.00     0.088 A 
HETATM   10  S1  UNL     1      -2.066   2.622  -0.592  1.00  0.00    -0.047 SA
BRANCH   7  11
HETATM   11  C4  UNL     1      -2.510  -1.128   0.437  1.00  0.00     0.306 C 
BRANCH  11  12
HETATM   12  O1  UNL     1      -3.504  -1.281   1.445  1.00  0.00    -0.366 OA
ATOM     13  H1  UNL     1      -3.487  -2.188   1.727  1.00  0.00     0.213 HD
ENDBRANCH  11  12
BRANCH  11  14
HETATM   14  O2  UNL     1      -2.760  -1.989  -0.566  1.00  0.00    -0.366 OA
ATOM     15  H2  UNL     1      -2.743  -2.896  -0.284  1.00  0.00     0.213 HD
ENDBRANCH  11  14
ENDBRANCH   7  11
BRANCH   9  16
HETATM   16  C6  UNL     1       0.018   0.686  -0.393  1.00  0.00     0.180 C 
BRANCH  16  17
HETATM   17  O3  UNL     1       0.795   1.700  -0.666  1.00  0.00    -0.344 OA
ATOM     18  H3  UNL     1       1.717   1.482  -0.732  1.00  0.00     0.219 HD
ENDBRANCH  16  17
BRANCH  16  19
HETATM   19  N4  UNL     1       0.653  -0.536  -0.250  1.00  0.00    -0.234 N 
ATOM     20  H4  UNL     1       0.094  -1.364  -0.043  1.00  0.00     0.197 HD
BRANCH  19  21
HETATM   21  O4  UNL     1       2.040  -0.667  -0.381  1.00  0.00    -0.191 OA
BRANCH  21  22
HETATM   22  C7  UNL     1       2.862  -0.041   0.513  1.00  0.00     0.337 C 
HETATM   23  O5  UNL     1       2.356   0.651   1.451  1.00  0.00    -0.255 OA
BRANCH  22  24
HETATM   24  C8  UNL     1       4.325  -0.119   0.455  1.00  0.00     0.178 A 
HETATM   25  N5  UNL     1       5.177   0.502   1.321  1.00  0.00    -0.232 N 
HETATM   26  O6  UNL     1       6.382   0.205   0.965  1.00  0.00    -0.155 OA
ATOM     27  H5  UNL     1       4.910   1.094   2.108  1.00  0.00     0.197 HD
HETATM   28  N6  UNL     1       6.402  -0.564  -0.068  1.00  0.00    -0.224 N 
HETATM   29  C9  UNL     1       5.118  -0.797  -0.427  1.00  0.00     0.156 A 
ATOM     30  H6  UNL     1       7.234  -0.931  -0.531  1.00  0.00     0.198 HD
BRANCH  29  31
HETATM   31  N7  UNL     1       4.770  -1.520  -1.413  1.00  0.00    -0.382 N 
ATOM     32  H72 UNL     1       3.802  -1.696  -1.684  1.00  0.00     0.157 HD
ATOM     33  H71 UNL     1       5.362  -2.026  -2.072  1.00  0.00     0.157 HD
ENDBRANCH  29  31
ENDBRANCH  22  24
ENDBRANCH  21  22
ENDBRANCH  19  21
ENDBRANCH  16  19
ENDBRANCH   9  16
ENDBRANCH   3   5
TORSDOF 11
