REMARK  10 active torsions:
REMARK  status: ('A' for Active; 'I' for Inactive)
REMARK    1  A    between atoms: O1_2  and  C2_3 
REMARK    2  A    between atoms: C2_3  and  C3_5 
REMARK    3  A    between atoms: C4_7  and  N1_8 
REMARK    4  A    between atoms: N2_10  and  N3_12 
REMARK    5  A    between atoms: N3_12  and  C5_14 
REMARK    6  A    between atoms: C6_17  and  N5_18 
REMARK    7  A    between atoms: C7_23  and  O4_24 
REMARK    8  A    between atoms: O4_24  and  N7_25 
REMARK    9  A    between atoms: C8_28  and  O5_29 
REMARK   10  A    between atoms: C10_35  and  O7_36 
ROOT
HETATM    1  C5  UNL     1       1.499  -0.014  -0.238  1.00  0.00     0.190 C 
HETATM    2  N4  UNL     1       1.699   0.999   0.621  1.00  0.00    -0.171 N 
ATOM      3  H4  UNL     1       0.887   1.235   1.191  1.00  0.00     0.186 HD
HETATM    4  C6  UNL     1       2.792   1.761   0.861  1.00  0.00     0.679 C 
HETATM    5  N6  UNL     1       4.040   1.544   0.419  1.00  0.00    -0.166 N 
ATOM      6  H6  UNL     1       4.744   2.189   0.778  1.00  0.00     0.186 HD
HETATM    7  C7  UNL     1       4.511   0.594  -0.436  1.00  0.00     0.221 C 
HETATM    8  C8  UNL     1       3.823  -0.384  -1.094  1.00  0.00     0.174 C 
HETATM    9  C9  UNL     1       2.465  -0.689  -0.947  1.00  0.00     0.255 C 
HETATM   10  O6  UNL     1       2.152  -1.732  -1.573  1.00  0.00    -0.281 OA
ENDROOT
BRANCH   1  11
HETATM   11  N3  UNL     1       0.303  -0.423  -0.444  1.00  0.00    -0.267 N 
ATOM     12  H3  UNL     1      -0.482   0.016   0.038  1.00  0.00     0.190 HD
BRANCH  11  13
HETATM   13  N2  UNL     1       0.084  -1.473  -1.332  1.00  0.00    -0.238 N 
HETATM   14  N1  UNL     1      -1.006  -2.119  -1.410  1.00  0.00    -0.250 N 
ATOM     15  H1  UNL     1      -1.100  -2.879  -2.083  1.00  0.00     0.192 HD
ATOM     16  H2  UNL     1       0.845  -1.739  -1.957  1.00  0.00     0.208 HD
BRANCH  14  17
HETATM   17  C4  UNL     1      -2.097  -1.784  -0.559  1.00  0.00     0.247 A 
HETATM   18  O3  UNL     1      -3.104  -0.988  -0.803  1.00  0.00    -0.267 OA
HETATM   19  C3  UNL     1      -3.921  -0.908   0.196  1.00  0.00     0.204 A 
HETATM   20  C10 UNL     1      -3.427  -1.715   1.196  1.00  0.00     0.184 A 
HETATM   21  N8  UNL     1      -2.288  -2.253   0.706  1.00  0.00    -0.299 N 
ATOM     22  H8  UNL     1      -1.675  -2.901   1.200  1.00  0.00     0.171 HD
BRANCH  19  23
HETATM   23  C2  UNL     1      -5.161  -0.122   0.306  1.00  0.00     0.321 C 
HETATM   24  O2  UNL     1      -5.858  -0.147   1.353  1.00  0.00    -0.257 OA
BRANCH  23  25
HETATM   25  O1  UNL     1      -5.608   0.675  -0.740  1.00  0.00    -0.321 OA
HETATM   26  C1  UNL     1      -6.806   1.413  -0.587  1.00  0.00     0.213 C 
ENDBRANCH  23  25
ENDBRANCH  19  23
BRANCH  20  27
HETATM   27  O7  UNL     1      -3.923  -1.980   2.464  1.00  0.00    -0.344 OA
ATOM     28  H7  UNL     1      -3.582  -2.537   3.154  1.00  0.00     0.219 HD
ENDBRANCH  20  27
ENDBRANCH  14  17
ENDBRANCH  11  13
ENDBRANCH   1  11
BRANCH   4  29
HETATM   29  N5  UNL     1       2.667   2.811   1.585  1.00  0.00    -0.234 N 
ATOM     30  H52 UNL     1       1.718   2.976   1.921  1.00  0.00     0.174 HD
ATOM     31  H51 UNL     1       3.490   3.385   1.766  1.00  0.00     0.174 HD
ENDBRANCH   4  29
BRANCH   8  32
HETATM   32  O5  UNL     1       4.542  -1.154  -1.999  1.00  0.00    -0.353 OA
ATOM     33  H5  UNL     1       4.063  -1.835  -2.457  1.00  0.00     0.218 HD
ENDBRANCH   8  32
BRANCH   7  34
HETATM   34  O4  UNL     1       5.873   0.644  -0.655  1.00  0.00    -0.223 OA
BRANCH  34  35
HETATM   35  N7  UNL     1       6.812   0.070   0.137  1.00  0.00    -0.303 N 
ATOM     36  H72 UNL     1       6.468  -0.434   0.954  1.00  0.00     0.184 HD
ATOM     37  H71 UNL     1       7.818   0.107  -0.025  1.00  0.00     0.184 HD
ENDBRANCH  34  35
ENDBRANCH   7  34
TORSDOF 10
