REMARK  7 active torsions:
REMARK  status: ('A' for Active; 'I' for Inactive)
REMARK       I    between atoms: N1_2  and  C2_4 
REMARK       I    between atoms: C2_4  and  N3_9 
REMARK    1  A    between atoms: N2_5  and  O1_7 
REMARK    2  A    between atoms: N3_9  and  O2_10 
REMARK       I    between atoms: N3_9  and  C8_31 
REMARK    3  A    between atoms: O2_10  and  C3_11 
REMARK    4  A    between atoms: C5_16  and  N6_17 
REMARK    5  A    between atoms: N7_20  and  C6_21 
REMARK    6  A    between atoms: C7_27  and  N10_28 
REMARK    7  A    between atoms: C8_31  and  O5_33 
ROOT
HETATM    1  C3  UNL     1       0.920  -0.714  -0.912  1.00  0.00     0.287 A 
HETATM    2  N4  UNL     1       1.336  -0.949  -2.167  1.00  0.00    -0.246 N 
ATOM      3  H4  UNL     1       0.907  -1.617  -2.807  1.00  0.00     0.191 HD
HETATM    4  N5  UNL     1       2.370  -0.200  -2.452  1.00  0.00    -0.125 N 
HETATM    5  C4  UNL     1       3.147  -0.113  -3.675  1.00  0.00     0.197 C 
HETATM    6  C5  UNL     1       2.628   0.529  -1.368  1.00  0.00     0.704 A 
HETATM    7  N7  UNL     1       1.740   0.220  -0.413  1.00  0.00    -0.085 N 
ENDROOT
BRANCH   1   8
HETATM    8  O2  UNL     1      -0.164  -1.333  -0.263  1.00  0.00    -0.172 OA
BRANCH   8   9
HETATM    9  N3  UNL     1      -1.429  -0.776  -0.225  1.00  0.00     0.023 N 
HETATM   10  C2  UNL     1      -2.030  -0.496   1.035  1.00  0.00     0.729 C 
HETATM   11  N1  UNL     1      -1.430  -0.769   2.291  1.00  0.00    -0.227 N 
HETATM   12  N2  UNL     1      -3.224   0.044   1.092  1.00  0.00    -0.097 N 
HETATM   13  C1  UNL     1      -1.222  -2.163   2.617  1.00  0.00     0.165 C 
ATOM     14  H1  UNL     1      -1.159  -0.022   2.931  1.00  0.00     0.177 HD
ATOM     15  H2  UNL     1      -3.699   0.261   0.216  1.00  0.00     0.213 HD
HETATM   16  C8  UNL     1      -2.154  -0.474  -1.403  1.00  0.00     0.406 C 
HETATM   17  O4  UNL     1      -1.630  -0.721  -2.511  1.00  0.00    -0.235 OA
BRANCH  12  18
HETATM   18  O1  UNL     1      -3.857   0.327   2.251  1.00  0.00    -0.276 OA
ATOM     19  H1  UNL     1      -4.722   0.718   2.292  1.00  0.00     0.245 HD
ENDBRANCH  12  18
BRANCH  16  20
HETATM   20  O5  UNL     1      -3.413   0.081  -1.367  1.00  0.00    -0.307 OA
HETATM   21  C9  UNL     1      -4.143   0.381  -2.567  1.00  0.00     0.215 C 
ENDBRANCH  16  20
ENDBRANCH   8   9
ENDBRANCH   1   8
BRANCH   7  22
HETATM   22  C6  UNL     1       1.699   0.797   0.908  1.00  0.00     0.200 A 
HETATM   23  N8  UNL     1       1.057   1.901   1.321  1.00  0.00    -0.221 N 
HETATM   24  O3  UNL     1       1.295   2.043   2.596  1.00  0.00    -0.153 OA
ATOM     25  H8  UNL     1       0.486   2.518   0.743  1.00  0.00     0.198 HD
HETATM   26  N9  UNL     1       2.054   1.100   3.046  1.00  0.00    -0.222 N 
HETATM   27  C7  UNL     1       2.336   0.283   2.003  1.00  0.00     0.168 A 
ATOM     28  H9  UNL     1       2.380   0.991   4.006  1.00  0.00     0.198 HD
BRANCH  27  29
HETATM   29  N10 UNL     1       3.057  -0.786   1.992  1.00  0.00    -0.381 N 
ATOM     30 2H10 UNL     1       3.269  -1.401   1.207  1.00  0.00     0.157 HD
ATOM     31 1H10 UNL     1       3.532  -1.169   2.809  1.00  0.00     0.157 HD
ENDBRANCH  27  29
ENDBRANCH   7  22
BRANCH   6  32
HETATM   32  N6  UNL     1       3.600   1.413  -1.255  1.00  0.00    -0.232 N 
ATOM     33  H62 UNL     1       4.276   1.648  -1.982  1.00  0.00     0.174 HD
ATOM     34  H61 UNL     1       3.798   1.971  -0.425  1.00  0.00     0.174 HD
ENDBRANCH   6  32
TORSDOF 7
