REMARK  7 active torsions:
REMARK  status: ('A' for Active; 'I' for Inactive)
REMARK    1  A    between atoms: C1_2  and  C2_4 
REMARK    2  A    between atoms: C2_4  and  N2_5 
REMARK    3  A    between atoms: C2_4  and  C3_9 
REMARK    4  A    between atoms: C5_11  and  S1_12 
REMARK    5  A    between atoms: C6_16  and  O5_17 
REMARK    6  A    between atoms: C7_19  and  N3_20 
REMARK    7  A    between atoms: N3_20  and  C8_22 
ROOT
HETATM    1  C3  UNL     1      -1.678  -0.112   0.008  1.00  0.00     0.009 A 
HETATM    2  C4  UNL     1      -1.692   1.245   0.265  1.00  0.00     0.041 A 
HETATM    3  C5  UNL     1      -0.614   2.047  -0.042  1.00  0.00     0.116 A 
HETATM    4  C6  UNL     1       0.539   1.509  -0.631  1.00  0.00     0.118 A 
HETATM    5  C7  UNL     1       0.558   0.157  -0.889  1.00  0.00     0.095 A 
HETATM    6  C11 UNL     1      -0.523  -0.612  -0.574  1.00  0.00     0.084 A 
HETATM    7  N6  UNL     1      -0.447  -2.017  -0.867  1.00  0.00    -0.099 NA
ENDROOT
BRANCH   5   8
HETATM    8  N3  UNL     1       1.724  -0.390  -1.485  1.00  0.00    -0.325 N 
ATOM      9  H3  UNL     1       1.780  -0.427  -2.503  1.00  0.00     0.169 HD
BRANCH   8  10
HETATM   10  C8  UNL     1       2.819  -0.889  -0.723  1.00  0.00     0.175 C 
HETATM   11  N4  UNL     1       3.236  -0.405   0.390  1.00  0.00    -0.361 N 
HETATM   12  C9  UNL     1       4.353  -1.104   0.936  1.00  0.00     0.142 C 
ATOM     13  H4  UNL     1       2.809   0.404   0.842  1.00  0.00     0.162 HD
HETATM   14  C10 UNL     1       4.879  -1.884  -0.250  1.00  0.00     0.142 C 
HETATM   15  N5  UNL     1       3.652  -2.010  -1.051  1.00  0.00    -0.361 N 
ATOM     16  H5  UNL     1       3.434  -2.754  -1.714  1.00  0.00     0.162 HD
ENDBRANCH   8  10
ENDBRANCH   5   8
BRANCH   4  17
HETATM   17  O5  UNL     1       1.591   2.358  -0.919  1.00  0.00    -0.357 OA
ATOM     18  H5  UNL     1       2.372   1.993  -1.318  1.00  0.00     0.218 HD
ENDBRANCH   4  17
BRANCH   3  19
HETATM   19  S1  UNL     1      -0.639   3.774   0.288  1.00  0.00     0.140 S 
HETATM   20  O2  UNL     1      -0.555   4.475  -1.049  1.00  0.00    -0.591 OA
HETATM   21  O3  UNL     1       0.540   4.105   1.153  1.00  0.00    -0.591 OA
HETATM   22  O4  UNL     1      -2.093   4.191   0.981  1.00  0.00    -0.591 OA
ENDBRANCH   3  19
BRANCH   1  23
HETATM   23  C2  UNL     1      -2.802  -1.004   0.319  1.00  0.00     0.306 C 
BRANCH  23  24
HETATM   24  C1  UNL     1      -4.115  -0.450  -0.082  1.00  0.00     0.266 C 
HETATM   25  N1  UNL     1      -5.147  -0.404   0.897  1.00  0.00    -0.060 NA
HETATM   26  O1  UNL     1      -4.382  -0.020  -1.211  1.00  0.00    -0.274 OA
ENDBRANCH  23  24
BRANCH  23  27
HETATM   27  N2  UNL     1      -2.810  -1.421   1.708  1.00  0.00    -0.063 N 
ATOM     28  H23 UNL     1      -3.101  -0.663   2.325  1.00  0.00     0.275 HD
ATOM     29  H22 UNL     1      -3.567  -2.077   1.898  1.00  0.00     0.275 HD
ATOM     30  H21 UNL     1      -1.905  -1.803   1.984  1.00  0.00     0.275 HD
ENDBRANCH  23  27
ENDBRANCH   1  23
TORSDOF 7
