REMARK  6 active torsions:
REMARK  status: ('A' for Active; 'I' for Inactive)
REMARK    1  A    between atoms: N1_1  and  C1_5 
REMARK    2  A    between atoms: C1_5  and  C2_6 
REMARK    3  A    between atoms: C2_6  and  C3_7 
REMARK    4  A    between atoms: C3_7  and  C4_9 
REMARK    5  A    between atoms: C7_17  and  C8_18 
REMARK    6  A    between atoms: N8_31  and  N9_33 
ROOT
HETATM    1  C4  UNL     1       2.185  -0.498   0.218  1.00  0.00     0.166 C 
HETATM    2  C5  UNL     1       2.662  -0.344   1.619  1.00  0.00     0.154 C 
HETATM    3  N2  UNL     1       2.402   0.946   2.212  1.00  0.00    -0.362 N 
ATOM      4  H2  UNL     1       3.171   1.420   2.685  1.00  0.00     0.162 HD
HETATM    5  C6  UNL     1       1.245   1.541   2.179  1.00  0.00     0.186 C 
HETATM    6  N3  UNL     1       1.184   2.817   2.824  1.00  0.00    -0.064 NA
HETATM    7  N4  UNL     1       0.031   1.086   1.584  1.00  0.00    -0.337 N 
ATOM      8  H4  UNL     1      -0.765   1.723   1.542  1.00  0.00     0.164 HD
HETATM    9  C7  UNL     1      -0.116  -0.272   1.027  1.00  0.00     0.249 C 
HETATM   10  N10 UNL     1       0.805  -0.472  -0.011  1.00  0.00    -0.383 N 
ATOM     11  H10 UNL     1       0.459  -0.602  -0.961  1.00  0.00     0.156 HD
ENDROOT
BRANCH   9  12
HETATM   12  C8  UNL     1      -1.502  -0.299   0.446  1.00  0.00     0.128 A 
HETATM   13  N5  UNL     1      -1.921   0.738  -0.305  1.00  0.00    -0.309 N 
HETATM   14  C9  UNL     1      -3.158   0.738  -0.836  1.00  0.00     0.263 A 
ATOM     15  H5  UNL     1      -1.297   1.528  -0.472  1.00  0.00     0.170 HD
HETATM   16  O2  UNL     1      -3.601   1.689  -1.550  1.00  0.00    -0.267 OA
HETATM   17  C10 UNL     1      -4.033  -0.319  -0.630  1.00  0.00     0.105 A 
HETATM   18  C11 UNL     1      -3.594  -1.375   0.140  1.00  0.00     0.124 A 
HETATM   19  C13 UNL     1      -5.399  -0.600  -1.062  1.00  0.00     0.082 A 
HETATM   20  N6  UNL     1      -2.342  -1.328   0.652  1.00  0.00    -0.328 N 
HETATM   21  N7  UNL     1      -4.664  -2.301   0.190  1.00  0.00    -0.349 N 
ATOM     22  H6  UNL     1      -2.020  -2.111   1.221  1.00  0.00     0.169 HD
HETATM   23  C12 UNL     1      -5.693  -1.902  -0.471  1.00  0.00     0.121 A 
ATOM     24  H7  UNL     1      -4.623  -3.187   0.694  1.00  0.00     0.167 HD
HETATM   25  N8  UNL     1      -6.139   0.158  -1.797  1.00  0.00    -0.305 N 
ATOM     26  H8  UNL     1      -5.736   1.041  -2.110  1.00  0.00     0.186 HD
BRANCH  25  27
HETATM   27  N9  UNL     1      -7.422  -0.121  -2.195  1.00  0.00    -0.345 N 
ATOM     28  H92 UNL     1      -7.808  -1.008  -1.873  1.00  0.00     0.176 HD
ATOM     29  H91 UNL     1      -8.007   0.479  -2.776  1.00  0.00     0.176 HD
ENDBRANCH  25  27
ENDBRANCH   9  12
BRANCH   1  30
HETATM   30  C3  UNL     1       2.874   0.354  -0.762  1.00  0.00     0.152 C 
HETATM   31  O1  UNL     1       2.190   0.930  -1.594  1.00  0.00    -0.296 OA
BRANCH  30  32
HETATM   32  C2  UNL     1       4.328   0.588  -0.843  1.00  0.00     0.108 C 
BRANCH  32  33
HETATM   33  C1  UNL     1       4.962  -0.252  -1.963  1.00  0.00     0.237 C 
BRANCH  33  34
HETATM   34  N1  UNL     1       6.376   0.056  -1.956  1.00  0.00    -0.079 N 
ATOM     35  H13 UNL     1       6.573   1.053  -2.038  1.00  0.00     0.274 HD
ATOM     36  H12 UNL     1       6.816  -0.085  -1.047  1.00  0.00     0.274 HD
ATOM     37  H11 UNL     1       6.797  -0.501  -2.699  1.00  0.00     0.274 HD
ENDBRANCH  33  34
ENDBRANCH  32  33
ENDBRANCH  30  32
ENDBRANCH   1  30
TORSDOF 6
