REMARK  16 active torsions:
REMARK  status: ('A' for Active; 'I' for Inactive)
REMARK    1  A    between atoms: O1_2  and  C2_3 
REMARK       I    between atoms: C2_3  and  N1_5 
REMARK    2  A    between atoms: N1_5  and  C4_7 
REMARK    3  A    between atoms: C4_7  and  C5_8 
REMARK    4  A    between atoms: C5_8  and  O3_9 
REMARK    5  A    between atoms: O3_9  and  C6_10 
REMARK    6  A    between atoms: C10_14  and  C11_15 
REMARK    7  A    between atoms: C11_15  and  C12_16 
REMARK    8  A    between atoms: C12_16  and  N2_17 
REMARK    9  A    between atoms: C12_16  and  C18_26 
REMARK       I    between atoms: N2_17  and  C13_19 
REMARK   10  A    between atoms: C13_19  and  O5_21 
REMARK   11  A    between atoms: O5_21  and  C14_22 
REMARK   12  A    between atoms: C18_26  and  N3_27 
REMARK   13  A    between atoms: C18_26  and  C25_43 
REMARK   14  A    between atoms: N3_27  and  C19_29 
REMARK   15  A    between atoms: C21_35  and  N6_36 
REMARK   16  A    between atoms: N6_36  and  C22_38 
ROOT
HETATM    1  C12 UNL     1      -1.988   0.674  -0.696  1.00  0.00     0.061 C 
ENDROOT
BRANCH   1   2
HETATM    2  C11 UNL     1      -1.169   0.062  -1.761  1.00  0.00     0.044 C 
BRANCH   2   3
HETATM    3  C10 UNL     1       0.234   0.239  -1.989  1.00  0.00    -0.009 A 
HETATM    4  C9  UNL     1       0.672   1.314  -2.777  1.00  0.00     0.013 A 
HETATM    5  C8  UNL     1       2.011   1.485  -2.947  1.00  0.00     0.004 A 
HETATM    6  C7  UNL     1       2.955   0.639  -2.373  1.00  0.00     0.038 A 
HETATM    7  C6  UNL     1       2.572  -0.424  -1.598  1.00  0.00     0.091 A 
HETATM    8  C29 UNL     1       1.176  -0.577  -1.442  1.00  0.00     0.077 A 
HETATM    9 CL1  UNL     1       0.762  -2.063  -0.557  1.00  0.00    -0.080 Cl
BRANCH   7  10
HETATM   10  O3  UNL     1       3.422  -1.313  -0.996  1.00  0.00    -0.348 OA
BRANCH  10  11
HETATM   11  C5  UNL     1       4.795  -1.273  -1.034  1.00  0.00     0.195 C 
BRANCH  11  12
HETATM   12  C4  UNL     1       5.462  -0.112  -0.353  1.00  0.00     0.154 C 
BRANCH  12  13
HETATM   13  N1  UNL     1       6.910  -0.185  -0.470  1.00  0.00    -0.330 N 
HETATM   14  C2  UNL     1       7.651  -0.879   0.523  1.00  0.00     0.362 C 
HETATM   15  O2  UNL     1       8.913  -0.943   0.443  1.00  0.00    -0.238 OA
HETATM   16  C3  UNL     1       7.603   0.441  -1.573  1.00  0.00     0.155 C 
BRANCH  14  17
HETATM   17  O1  UNL     1       7.051  -1.506   1.602  1.00  0.00    -0.309 OA
HETATM   18  C1  UNL     1       7.794  -2.188   2.574  1.00  0.00     0.215 C 
ENDBRANCH  14  17
ENDBRANCH  12  13
ENDBRANCH  11  12
ENDBRANCH  10  11
ENDBRANCH   7  10
ENDBRANCH   2   3
ENDBRANCH   1   2
BRANCH   1  19
HETATM   19  N2  UNL     1      -2.027   2.124  -0.736  1.00  0.00    -0.301 N 
HETATM   20  C13 UNL     1      -1.152   3.102  -0.335  1.00  0.00     0.366 C 
HETATM   21  O4  UNL     1      -0.044   2.870   0.193  1.00  0.00    -0.238 OA
ATOM     22  H2  UNL     1      -2.884   2.493  -1.148  1.00  0.00     0.171 HD
BRANCH  20  23
HETATM   23  O5  UNL     1      -1.443   4.468  -0.490  1.00  0.00    -0.294 OA
BRANCH  23  24
HETATM   24  C14 UNL     1      -0.516   5.447  -0.066  1.00  0.00     0.061 C 
HETATM   25  C15 UNL     1      -0.207   5.353   1.415  1.00  0.00     0.046 C 
HETATM   26  C16 UNL     1       0.746   5.465  -0.874  1.00  0.00     0.046 C 
HETATM   27  C17 UNL     1      -1.212   6.802  -0.256  1.00  0.00     0.046 C 
ENDBRANCH  23  24
ENDBRANCH  20  23
ENDBRANCH   1  19
BRANCH   1  28
HETATM   28  C18 UNL     1      -2.211   0.041   0.596  1.00  0.00     0.061 C 
BRANCH  28  29
HETATM   29  N3  UNL     1      -2.777  -1.277   0.356  1.00  0.00    -0.192 N 
ATOM     30  H3  UNL     1      -2.095  -2.035   0.329  1.00  0.00     0.184 HD
BRANCH  29  31
HETATM   31  C19 UNL     1      -3.955  -1.631   0.178  1.00  0.00     0.698 A 
HETATM   32  N4  UNL     1      -4.991  -0.787   0.177  1.00  0.00    -0.187 N 
HETATM   33  C20 UNL     1      -6.249  -1.234  -0.018  1.00  0.00     0.215 A 
ATOM     34  H4  UNL     1      -4.829   0.209   0.326  1.00  0.00     0.185 HD
HETATM   35  N5  UNL     1      -6.480  -2.548  -0.216  1.00  0.00    -0.187 N 
HETATM   36  C21 UNL     1      -5.446  -3.440  -0.221  1.00  0.00     0.693 A 
ATOM     37  H5  UNL     1      -7.434  -2.878  -0.363  1.00  0.00     0.185 HD
HETATM   38  N7  UNL     1      -4.222  -2.943  -0.024  1.00  0.00    -0.022 N 
ATOM     39  H7  UNL     1      -3.437  -3.594  -0.026  1.00  0.00     0.203 HD
BRANCH  36  40
HETATM   40  N6  UNL     1      -5.725  -4.672  -0.414  1.00  0.00    -0.222 N 
ATOM     41  H6  UNL     1      -6.715  -4.879  -0.548  1.00  0.00     0.178 HD
BRANCH  40  42
HETATM   42  C22 UNL     1      -4.858  -5.794  -0.469  1.00  0.00     0.091 C 
HETATM   43  C23 UNL     1      -3.927  -5.687  -1.658  1.00  0.00     0.032 C 
HETATM   44  C24 UNL     1      -4.116  -6.078   0.801  1.00  0.00     0.032 C 
ENDBRANCH  40  42
ENDBRANCH  36  40
ENDBRANCH  29  31
ENDBRANCH  28  29
BRANCH  28  45
HETATM   45  C25 UNL     1      -1.644   0.177   1.896  1.00  0.00    -0.006 C 
HETATM   46  C26 UNL     1      -2.390  -0.904   2.780  1.00  0.00     0.021 C 
HETATM   47  C27 UNL     1      -0.269  -0.011   2.318  1.00  0.00     0.021 C 
HETATM   48  C28 UNL     1      -2.140   1.462   2.646  1.00  0.00     0.021 C 
ENDBRANCH  28  45
ENDBRANCH   1  28
TORSDOF 16
