REMARK  11 active torsions:
REMARK  status: ('A' for Active; 'I' for Inactive)
REMARK    1  A    between atoms: C3_3  and  O1_4 
REMARK    2  A    between atoms: C8_11  and  C9_12 
REMARK    3  A    between atoms: C9_12  and  N2_13 
REMARK    4  A    between atoms: N2_13  and  C10_14 
REMARK    5  A    between atoms: N2_13  and  C11_16 
REMARK    6  A    between atoms: C11_16  and  C12_17 
REMARK    7  A    between atoms: C15_20  and  C16_21 
REMARK    8  A    between atoms: C16_21  and  C17_22 
REMARK    9  A    between atoms: C16_21  and  N3_26 
REMARK   10  A    between atoms: C17_22  and  C18_23 
REMARK       I    between atoms: N3_26  and  C21_27 
REMARK   11  A    between atoms: C21_27  and  C22_29 
ROOT
HETATM    1  C12 UNL     1       0.767  -0.441  -1.492  1.00  0.00     0.004 C 
HETATM    2  C13 UNL     1       0.318   0.245  -2.754  1.00  0.00     0.007 C 
HETATM    3  C14 UNL     1      -1.196   0.567  -2.675  1.00  0.00     0.012 C 
HETATM    4  C15 UNL     1      -1.744  -0.292  -1.617  1.00  0.00     0.046 C 
HETATM    5  C29 UNL     1      -1.246   0.123  -0.263  1.00  0.00     0.012 C 
HETATM    6  C30 UNL     1       0.269   0.344  -0.336  1.00  0.00     0.007 C 
ENDROOT
BRANCH   1   7
HETATM    7  C11 UNL     1       2.267  -0.670  -1.553  1.00  0.00     0.130 C 
BRANCH   7   8
HETATM    8  N2  UNL     1       2.746  -1.317  -0.377  1.00  0.00    -0.355 N 
BRANCH   8   9
HETATM    9  C9  UNL     1       3.337  -0.526   0.703  1.00  0.00     0.164 C 
BRANCH   9  10
HETATM   10  C8  UNL     1       4.825  -0.449   0.485  1.00  0.00    -0.030 A 
HETATM   11  C6  UNL     1       5.569   0.256   1.453  1.00  0.00    -0.026 A 
HETATM   12  C5  UNL     1       6.944   0.291   1.258  1.00  0.00     0.058 A 
HETATM   13  C7  UNL     1       4.932   0.913   2.571  1.00  0.00     0.051 C 
HETATM   14  N1  UNL     1       7.729   0.931   2.139  1.00  0.00    -0.330 N 
HETATM   15  C33 UNL     1       7.515  -0.353   0.142  1.00  0.00     0.064 A 
HETATM   16  C3  UNL     1       9.087   0.920   1.891  1.00  0.00     0.152 A 
HETATM   17  C4  UNL     1       7.216   1.578   3.284  1.00  0.00     0.158 C 
HETATM   18  C2  UNL     1       9.672   0.310   0.827  1.00  0.00     0.040 A 
HETATM   19  C1  UNL     1      11.142   0.354   0.662  1.00  0.00     0.057 C 
HETATM   20  C34 UNL     1       8.883  -0.333  -0.057  1.00  0.00     0.196 A 
HETATM   21  O4  UNL     1       9.374  -0.922  -1.074  1.00  0.00    -0.287 OA
HETATM   22  C32 UNL     1       6.727  -1.025  -0.770  1.00  0.00     0.051 A 
HETATM   23  C31 UNL     1       5.384  -1.072  -0.598  1.00  0.00     0.034 A 
HETATM   24 CL1  UNL     1       7.519  -1.804  -2.136  1.00  0.00    -0.083 Cl
BRANCH  16  25
HETATM   25  O1  UNL     1       9.881   1.608   2.841  1.00  0.00    -0.345 OA
ATOM     26  H1  UNL     1       9.472   2.034   3.585  1.00  0.00     0.219 HD
ENDBRANCH  16  25
ENDBRANCH   9  10
ENDBRANCH   8   9
BRANCH   8  27
HETATM   27  C10 UNL     1       2.668  -2.728  -0.242  1.00  0.00     0.351 C 
HETATM   28  O2  UNL     1       3.091  -3.344   0.774  1.00  0.00    -0.284 OA
ENDBRANCH   8  27
ENDBRANCH   7   8
ENDBRANCH   1   7
BRANCH   4  29
HETATM   29  C16 UNL     1      -3.244  -0.577  -1.619  1.00  0.00     0.070 C 
BRANCH  29  30
HETATM   30  C17 UNL     1      -3.544  -1.270  -2.894  1.00  0.00     0.072 C 
BRANCH  30  31
HETATM   31  C18 UNL     1      -4.921  -1.708  -3.189  1.00  0.00    -0.016 C 
HETATM   32  C19 UNL     1      -5.988  -0.691  -3.265  1.00  0.00     0.010 C 
HETATM   33  C20 UNL     1      -5.332  -2.904  -2.298  1.00  0.00     0.010 C 
ENDBRANCH  30  31
ENDBRANCH  29  30
BRANCH  29  34
HETATM   34  N3  UNL     1      -4.109   0.332  -1.069  1.00  0.00    -0.378 NA
HETATM   35  C21 UNL     1      -4.968   1.240  -0.523  1.00  0.00     0.323 C 
HETATM   36  O3  UNL     1      -4.984   2.493  -0.578  1.00  0.00    -0.255 OA
BRANCH  35  37
HETATM   37  C22 UNL     1      -6.141   0.723   0.325  1.00  0.00     0.296 C 
HETATM   38  N4  UNL     1      -7.145   1.753   0.386  1.00  0.00    -0.057 N 
HETATM   39  C23 UNL     1      -8.006   1.475   1.550  1.00  0.00     0.187 C 
ATOM     40  H42 UNL     1      -6.748   2.692   0.403  1.00  0.00     0.278 HD
ATOM     41  H41 UNL     1      -7.671   1.844  -0.483  1.00  0.00     0.278 HD
HETATM   42  C24 UNL     1      -7.311   2.189   2.704  1.00  0.00     0.033 C 
HETATM   43  C28 UNL     1      -7.982  -0.007   1.894  1.00  0.00     0.033 C 
HETATM   44  C25 UNL     1      -5.828   1.895   2.510  1.00  0.00     0.009 C 
HETATM   45  C26 UNL     1      -5.638   0.568   1.762  1.00  0.00     0.027 C 
HETATM   46  C27 UNL     1      -6.596  -0.404   2.413  1.00  0.00     0.009 C 
ENDBRANCH  35  37
ENDBRANCH  29  34
ENDBRANCH   4  29
TORSDOF 11
