REMARK  6 active torsions:
REMARK  status: ('A' for Active; 'I' for Inactive)
REMARK    1  A    between atoms: C7_7  and  C8_8 
REMARK    2  A    between atoms: C11_11  and  S1_12 
REMARK    3  A    between atoms: S1_12  and  C12_13 
REMARK    4  A    between atoms: C12_13  and  C13_14 
REMARK    5  A    between atoms: C13_14  and  N1_15 
REMARK    6  A    between atoms: C14_18  and  C15_19 
ROOT
HETATM    1  N1  UNL     1      -0.825  -1.879  -2.233  1.00  0.00    -0.276 N 
HETATM    2  N2  UNL     1      -1.402  -2.380  -1.182  1.00  0.00    -0.292 N 
ATOM      3  H2  UNL     1      -1.323  -3.277  -0.703  1.00  0.00     0.187 HD
HETATM    4  C14 UNL     1      -2.161  -1.252  -0.954  1.00  0.00     0.120 A 
HETATM    5  C28 UNL     1      -1.543  -0.742  -2.062  1.00  0.00     0.163 A 
HETATM    6  N5  UNL     1      -1.456   0.437  -2.873  1.00  0.00    -0.079 NA
ENDROOT
BRANCH   4   7
HETATM    7  C15 UNL     1      -3.055  -0.881   0.127  1.00  0.00     0.092 A 
HETATM    8  N3  UNL     1      -2.826  -1.283   1.388  1.00  0.00    -0.297 N 
HETATM    9  N4  UNL     1      -3.650  -0.734   2.143  1.00  0.00    -0.299 N 
ATOM     10  H3  UNL     1      -2.096  -1.933   1.680  1.00  0.00     0.187 HD
HETATM   11  C16 UNL     1      -4.530   0.103   1.437  1.00  0.00     0.060 A 
ATOM     12  H4  UNL     1      -3.682  -0.875   3.153  1.00  0.00     0.187 HD
HETATM   13  C17 UNL     1      -4.172   0.027   0.127  1.00  0.00     0.022 A 
HETATM   14  C27 UNL     1      -5.519   0.779   2.263  1.00  0.00     0.035 C 
HETATM   15  C18 UNL     1      -4.712   0.563  -1.121  1.00  0.00     0.017 C 
HETATM   16  C19 UNL     1      -5.794   1.125  -1.604  1.00  0.00     0.013 C 
HETATM   17  C20 UNL     1      -6.965   1.386  -0.728  1.00  0.00    -0.025 A 
HETATM   18  C21 UNL     1      -8.011   1.766  -0.024  1.00  0.00     0.024 A 
HETATM   19  C22 UNL     1      -7.441   0.471   0.182  1.00  0.00    -0.025 A 
HETATM   20  C23 UNL     1      -7.240  -0.802   0.560  1.00  0.00     0.015 C 
HETATM   21  C24 UNL     1      -8.020  -1.299   1.738  1.00  0.00     0.043 C 
HETATM   22  C25 UNL     1      -7.659  -0.540   2.848  1.00  0.00     0.116 C 
HETATM   23  F1  UNL     1      -8.288  -0.878   3.993  1.00  0.00    -0.206 F 
HETATM   24  C26 UNL     1      -6.690   0.552   2.796  1.00  0.00     0.044 C 
ENDBRANCH   4   7
BRANCH   1  25
HETATM   25  C13 UNL     1       0.190  -2.345  -3.163  1.00  0.00     0.161 C 
BRANCH  25  26
HETATM   26  C12 UNL     1       1.581  -2.056  -2.631  1.00  0.00     0.101 C 
BRANCH  26  27
HETATM   27  S1  UNL     1       1.756  -0.263  -2.398  1.00  0.00    -0.127 SA
BRANCH  27  28
HETATM   28  C11 UNL     1       3.330   0.094  -1.607  1.00  0.00     0.016 A 
HETATM   29  C10 UNL     1       4.494   0.311  -2.284  1.00  0.00     0.022 A 
HETATM   30  C9  UNL     1       5.656   0.574  -1.576  1.00  0.00     0.032 A 
HETATM   31  C8  UNL     1       5.628   0.616  -0.197  1.00  0.00     0.042 A 
HETATM   32  N6  UNL     1       4.489   0.403   0.415  1.00  0.00    -0.364 N 
HETATM   33  C29 UNL     1       3.359   0.148  -0.238  1.00  0.00     0.106 A 
ATOM     34  H6  UNL     1       4.468   0.434   1.434  1.00  0.00     0.165 HD
BRANCH  31  35
HETATM   35  C7  UNL     1       6.864   0.904   0.542  1.00  0.00    -0.004 A 
HETATM   36  C2  UNL     1       6.828   1.112   1.915  1.00  0.00    -0.050 A 
HETATM   37  C1  UNL     1       5.581   1.040   2.707  1.00  0.00     0.049 C 
HETATM   38  C3  UNL     1       8.040   1.404   2.557  1.00  0.00     0.007 A 
HETATM   39  C4  UNL     1       9.237   1.490   1.895  1.00  0.00     0.001 A 
HETATM   40  C5  UNL     1       9.269   1.286   0.557  1.00  0.00     0.001 A 
HETATM   41  C6  UNL     1       8.066   0.993  -0.103  1.00  0.00     0.014 A 
ENDBRANCH  31  35
ENDBRANCH  27  28
ENDBRANCH  26  27
ENDBRANCH  25  26
ENDBRANCH   1  25
TORSDOF 6
