REMARK  10 active torsions:
REMARK  status: ('A' for Active; 'I' for Inactive)
REMARK    1  A    between atoms: C3_5  and  C4_6 
REMARK    2  A    between atoms: C7_9  and  C8_10 
REMARK    3  A    between atoms: C10_14  and  C11_15 
REMARK    4  A    between atoms: C11_15  and  C12_16 
REMARK    5  A    between atoms: C12_16  and  C13_17 
REMARK    6  A    between atoms: C19_25  and  O1_26 
REMARK    7  A    between atoms: N4_31  and  C22_32 
REMARK    8  A    between atoms: C22_32  and  C23_33 
REMARK    9  A    between atoms: C23_33  and  O2_35 
REMARK   10  A    between atoms: C23_33  and  C25_37 
ROOT
HETATM    1  C4  UNL     1      -0.501   0.020  -0.013  1.00  0.00     0.017 A 
HETATM    2  C5  UNL     1       0.464  -0.215  -0.994  1.00  0.00     0.016 A 
HETATM    3  C6  UNL     1       1.801  -0.019  -0.794  1.00  0.00     0.017 A 
HETATM    4  C7  UNL     1       2.271   0.446   0.458  1.00  0.00     0.027 A 
HETATM    5  C19 UNL     1       1.335   0.683   1.415  1.00  0.00     0.100 A 
HETATM    6  C20 UNL     1      -0.020   0.471   1.175  1.00  0.00     0.080 A 
HETATM    7 CL1  UNL     1      -1.100   0.835   2.482  1.00  0.00    -0.080 Cl
ENDROOT
BRANCH   1   8
HETATM    8  C3  UNL     1      -1.878  -0.294  -0.327  1.00  0.00     0.061 A 
HETATM    9  N1  UNL     1      -2.290  -0.834  -1.510  1.00  0.00    -0.344 N 
HETATM   10  C2  UNL     1      -3.602  -1.077  -1.518  1.00  0.00     0.079 A 
ATOM     11  H1  UNL     1      -1.669  -1.029  -2.295  1.00  0.00     0.167 HD
HETATM   12  C1  UNL     1      -4.354  -1.719  -2.671  1.00  0.00     0.089 C 
HETATM   13  N4  UNL     1      -4.101  -0.698  -0.331  1.00  0.00    -0.342 N 
HETATM   14  C21 UNL     1      -3.037  -0.217   0.396  1.00  0.00     0.122 A 
BRANCH  13  15
HETATM   15  C22 UNL     1      -5.466  -0.815   0.093  1.00  0.00     0.172 C 
BRANCH  15  16
HETATM   16  C23 UNL     1      -6.300   0.365  -0.207  1.00  0.00     0.098 C 
HETATM   17  C24 UNL     1      -5.796   1.603   0.476  1.00  0.00     0.053 C 
BRANCH  16  18
HETATM   18  O2  UNL     1      -6.341   0.624  -1.597  1.00  0.00    -0.384 OA
ATOM     19  H2  UNL     1      -6.878   1.384  -1.790  1.00  0.00     0.211 HD
ENDBRANCH  16  18
BRANCH  16  20
HETATM   20  C25 UNL     1      -7.723   0.159   0.224  1.00  0.00    -0.023 A 
HETATM   21  C26 UNL     1      -8.090  -0.930   0.963  1.00  0.00     0.010 A 
HETATM   22  C27 UNL     1      -9.406  -1.084   1.333  1.00  0.00     0.001 A 
HETATM   23  C28 UNL     1     -10.328  -0.140   0.948  1.00  0.00     0.000 A 
HETATM   24  C29 UNL     1      -9.984   0.960   0.205  1.00  0.00     0.001 A 
HETATM   25  C30 UNL     1      -8.651   1.092  -0.152  1.00  0.00     0.010 A 
ENDBRANCH  16  20
ENDBRANCH  15  16
ENDBRANCH  13  15
ENDBRANCH   1   8
BRANCH   5  26
HETATM   26  O1  UNL     1       1.752   1.156   2.667  1.00  0.00    -0.358 OA
ATOM     27  H1  UNL     1       1.098   1.322   3.336  1.00  0.00     0.217 HD
ENDBRANCH   5  26
BRANCH   4  28
HETATM   28  C8  UNL     1       3.704   0.566   0.655  1.00  0.00     0.062 A 
HETATM   29  C9  UNL     1       4.377   0.348   1.860  1.00  0.00     0.120 A 
HETATM   30  N2  UNL     1       5.698   0.357   1.625  1.00  0.00    -0.350 N 
HETATM   31  C10 UNL     1       5.883   0.579   0.310  1.00  0.00     0.105 A 
ATOM     32  H2  UNL     1       6.432   0.220   2.320  1.00  0.00     0.166 HD
HETATM   33  N3  UNL     1       4.683   0.703  -0.244  1.00  0.00    -0.341 N 
ATOM     34  H3  UNL     1       4.527   0.881  -1.236  1.00  0.00     0.167 HD
BRANCH  31  35
HETATM   35  C11 UNL     1       7.184   0.543  -0.390  1.00  0.00     0.049 C 
BRANCH  35  36
HETATM   36  C12 UNL     1       8.239   0.077   0.233  1.00  0.00     0.015 C 
BRANCH  36  37
HETATM   37  C13 UNL     1       9.550   0.002  -0.372  1.00  0.00    -0.036 A 
HETATM   38  C14 UNL     1       9.914   0.529  -1.572  1.00  0.00     0.011 A 
HETATM   39  C15 UNL     1      11.160   0.361  -2.167  1.00  0.00     0.001 A 
HETATM   40  C16 UNL     1      12.131  -0.394  -1.514  1.00  0.00     0.000 A 
HETATM   41  C17 UNL     1      11.770  -0.927  -0.299  1.00  0.00     0.001 A 
HETATM   42  C18 UNL     1      10.549  -0.761   0.282  1.00  0.00     0.011 A 
ENDBRANCH  36  37
ENDBRANCH  35  36
ENDBRANCH  31  35
ENDBRANCH   4  28
TORSDOF 10
