REMARK  8 active torsions:
REMARK  status: ('A' for Active; 'I' for Inactive)
REMARK    1  A    between atoms: C6_11  and  C7_12 
REMARK    2  A    between atoms: C11_22  and  N6_23 
REMARK    3  A    between atoms: N6_23  and  C12_25 
REMARK    4  A    between atoms: C19_32  and  N7_33 
REMARK    5  A    between atoms: C20_35  and  C21_36 
REMARK    6  A    between atoms: C21_36  and  C22_37 
REMARK    7  A    between atoms: C22_37  and  C23_38 
REMARK    8  A    between atoms: C23_38  and  N8_39 
ROOT
HETATM    1 CL1  UNL     1       1.711   4.206   1.187  1.00  0.00    -0.082 Cl
HETATM    2  C1  UNL     1       0.108   3.766   0.637  1.00  0.00     0.061 A 
HETATM    3  C2  UNL     1      -0.698   4.733   0.082  1.00  0.00     0.028 A 
HETATM    4  C3  UNL     1      -1.968   4.430  -0.346  1.00  0.00     0.032 A 
HETATM    5  C4  UNL     1      -2.441   3.148  -0.219  1.00  0.00     0.048 A 
HETATM    6  N1  UNL     1      -3.696   2.905  -0.648  1.00  0.00    -0.340 N 
ATOM      7  H1  UNL     1      -4.246   3.663  -1.051  1.00  0.00     0.167 HD
HETATM    8  C5  UNL     1      -4.228   1.681  -0.551  1.00  0.00     0.137 A 
HETATM    9  N2  UNL     1      -5.432   1.191  -0.901  1.00  0.00    -0.326 N 
ATOM     10  H2  UNL     1      -6.188   1.724  -1.330  1.00  0.00     0.169 HD
HETATM   11  C6  UNL     1      -5.474  -0.104  -0.595  1.00  0.00     0.120 A 
HETATM   12  N5  UNL     1      -4.295  -0.420  -0.055  1.00  0.00    -0.337 N 
ATOM     13  H5  UNL     1      -4.043  -1.352   0.275  1.00  0.00     0.167 HD
HETATM   14  C10 UNL     1      -3.484   0.648  -0.003  1.00  0.00     0.106 A 
HETATM   15  C11 UNL     1      -2.199   0.859   0.446  1.00  0.00     0.078 A 
HETATM   16  C18 UNL     1      -1.663   2.126   0.338  1.00  0.00     0.048 A 
HETATM   17  C19 UNL     1      -0.397   2.463   0.755  1.00  0.00     0.068 A 
ENDROOT
BRANCH  17  18
HETATM   18  N7  UNL     1       0.452   1.494   1.299  1.00  0.00    -0.367 N 
HETATM   19  C20 UNL     1       1.396   0.860   0.687  1.00  0.00     0.061 C 
ATOM     20  H7  UNL     1       0.311   1.264   2.283  1.00  0.00     0.165 HD
BRANCH  19  21
HETATM   21  C21 UNL     1       1.783   1.017  -0.713  1.00  0.00     0.049 C 
BRANCH  21  22
HETATM   22  C22 UNL     1       2.992   0.208  -1.093  1.00  0.00     0.050 C 
BRANCH  22  23
HETATM   23  C23 UNL     1       4.226   0.578  -0.292  1.00  0.00     0.068 C 
BRANCH  23  24
HETATM   24  N8  UNL     1       5.368  -0.154  -0.623  1.00  0.00    -0.354 N 
HETATM   25  C24 UNL     1       5.482  -1.513  -0.338  1.00  0.00     0.068 C 
HETATM   26  C25 UNL     1       6.466  -1.787   0.777  1.00  0.00     0.045 C 
HETATM   27  C26 UNL     1       7.739  -1.000   0.654  1.00  0.00     0.010 C 
HETATM   28  C27 UNL     1       7.490   0.445   0.285  1.00  0.00     0.045 C 
HETATM   29  C28 UNL     1       6.575   0.487  -0.931  1.00  0.00     0.068 C 
ENDBRANCH  23  24
ENDBRANCH  22  23
ENDBRANCH  21  22
ENDBRANCH  19  21
ENDBRANCH  17  18
BRANCH  15  30
HETATM   30  N6  UNL     1      -1.508  -0.082   0.969  1.00  0.00    -0.353 N 
ATOM     31  H6  UNL     1      -0.563   0.145   1.279  1.00  0.00     0.166 HD
BRANCH  30  32
HETATM   32  C12 UNL     1      -1.954  -1.418   1.151  1.00  0.00     0.032 A 
HETATM   33  C13 UNL     1      -1.760  -2.388   0.167  1.00  0.00     0.029 A 
HETATM   34  C14 UNL     1      -2.221  -3.663   0.416  1.00  0.00     0.002 A 
HETATM   35  C15 UNL     1      -2.858  -4.016   1.582  1.00  0.00     0.000 A 
HETATM   36  C16 UNL     1      -3.050  -3.058   2.553  1.00  0.00     0.002 A 
HETATM   37  C17 UNL     1      -2.594  -1.784   2.316  1.00  0.00     0.029 A 
ENDBRANCH  30  32
ENDBRANCH  15  30
BRANCH  11  38
HETATM   38  C7  UNL     1      -6.627  -0.993  -0.828  1.00  0.00     0.042 A 
HETATM   39  C8  UNL     1      -6.731  -2.338  -0.532  1.00  0.00     0.123 A 
HETATM   40  N3  UNL     1      -7.958  -2.751  -0.914  1.00  0.00    -0.311 N 
HETATM   41  N4  UNL     1      -8.634  -1.729  -1.438  1.00  0.00    -0.311 N 
ATOM     42  H3  UNL     1      -8.314  -3.702  -0.816  1.00  0.00     0.186 HD
HETATM   43  C9  UNL     1      -7.833  -0.651  -1.391  1.00  0.00     0.123 A 
ATOM     44  H4  UNL     1      -9.584  -1.759  -1.807  1.00  0.00     0.186 HD
ENDBRANCH  11  38
TORSDOF 8
