REMARK  10 active torsions:
REMARK  status: ('A' for Active; 'I' for Inactive)
REMARK    1  A    between atoms: C2_2  and  C3_3 
REMARK    2  A    between atoms: C3_3  and  C4_4 
REMARK    3  A    between atoms: C7_7  and  N1_8 
REMARK       I    between atoms: N1_8  and  C8_10 
REMARK    4  A    between atoms: C8_10  and  C9_12 
REMARK    5  A    between atoms: C9_12  and  C10_13 
REMARK    6  A    between atoms: C9_12  and  N2_16 
REMARK    7  A    between atoms: C10_13  and  O2_14 
REMARK    8  A    between atoms: C12_18  and  C13_19 
REMARK    9  A    between atoms: C16_23  and  O3_24 
REMARK   10  A    between atoms: C21_31  and  C22_32 
ROOT
HETATM    1  N2  UNL     1      -1.660   1.462  -0.084  1.00  0.00    -0.362 N 
HETATM    2  C11 UNL     1      -1.850   1.187  -1.469  1.00  0.00     0.135 C 
HETATM    3  C12 UNL     1      -3.193   0.441  -1.608  1.00  0.00     0.053 C 
HETATM    4  C14 UNL     1      -3.442  -0.030  -0.254  1.00  0.00    -0.015 A 
HETATM    5  C15 UNL     1      -2.536   0.567   0.641  1.00  0.00     0.075 A 
HETATM    6  C16 UNL     1      -2.556   0.253   1.980  1.00  0.00     0.128 A 
HETATM    7  C17 UNL     1      -3.480  -0.668   2.488  1.00  0.00     0.121 A 
HETATM    8  O4  UNL     1      -3.709  -1.138   3.705  1.00  0.00    -0.319 OA
HETATM    9  C18 UNL     1      -4.695  -1.998   3.687  1.00  0.00     0.143 A 
HETATM   10  C19 UNL     1      -5.149  -2.108   2.385  1.00  0.00     0.039 A 
HETATM   11  C20 UNL     1      -4.358  -1.251   1.645  1.00  0.00     0.009 A 
HETATM   12  C21 UNL     1      -4.330  -0.926   0.282  1.00  0.00    -0.036 A 
ENDROOT
BRANCH   1  13
HETATM   13  C9  UNL     1      -0.758   2.404   0.517  1.00  0.00     0.200 C 
BRANCH  13  14
HETATM   14  C8  UNL     1       0.676   1.960   0.362  1.00  0.00     0.243 C 
HETATM   15  N1  UNL     1       1.052   0.653   0.051  1.00  0.00    -0.355 N 
ATOM     16  H1  UNL     1       0.300  -0.026  -0.068  1.00  0.00     0.162 HD
HETATM   17  O1  UNL     1       1.561   2.836   0.529  1.00  0.00    -0.271 OA
BRANCH  15  18
HETATM   18  C7  UNL     1       2.383   0.173  -0.117  1.00  0.00     0.084 C 
HETATM   19  C6  UNL     1       2.713  -0.730   1.083  1.00  0.00     0.025 C 
HETATM   20  C5  UNL     1       4.246  -0.861   1.032  1.00  0.00     0.006 C 
HETATM   21  C4  UNL     1       4.554  -1.648  -0.226  1.00  0.00    -0.014 C 
HETATM   22  C25 UNL     1       4.014  -1.067  -1.477  1.00  0.00     0.006 C 
HETATM   23  C24 UNL     1       2.552  -0.663  -1.343  1.00  0.00     0.025 C 
BRANCH  21  24
HETATM   24  C3  UNL     1       5.950  -2.119  -0.304  1.00  0.00     0.004 C 
BRANCH  24  25
HETATM   25  C2  UNL     1       7.047  -1.124  -0.265  1.00  0.00    -0.004 C 
HETATM   26  C1  UNL     1       7.097  -0.100  -1.342  1.00  0.00     0.005 C 
ENDBRANCH  24  25
ENDBRANCH  21  24
ENDBRANCH  15  18
ENDBRANCH  13  14
BRANCH  13  27
HETATM   27  C10 UNL     1      -0.908   3.806  -0.025  1.00  0.00     0.199 C 
BRANCH  27  28
HETATM   28  O2  UNL     1      -0.644   3.918  -1.365  1.00  0.00    -0.398 OA
ATOM     29  H2  UNL     1      -0.738   4.800  -1.706  1.00  0.00     0.209 HD
ENDBRANCH  27  28
ENDBRANCH  13  27
ENDBRANCH   1  13
BRANCH   3  30
HETATM   30  C13 UNL     1      -4.152   1.416  -2.192  1.00  0.00     0.125 C 
HETATM   31 CL1  UNL     1      -4.455   2.846  -1.203  1.00  0.00    -0.130 Cl
ENDBRANCH   3  30
BRANCH   6  32
HETATM   32  O3  UNL     1      -1.702   0.789   2.931  1.00  0.00    -0.356 OA
ATOM     33  H3  UNL     1      -1.716   0.572   3.856  1.00  0.00     0.218 HD
ENDBRANCH   6  32
BRANCH  12  34
HETATM   34  C22 UNL     1      -5.346  -1.620  -0.536  1.00  0.00     0.036 C 
HETATM   35  C23 UNL     1      -6.528  -0.722  -0.731  1.00  0.00     0.010 C 
ENDBRANCH  12  34
TORSDOF 10
