REMARK  10 active torsions:
REMARK  status: ('A' for Active; 'I' for Inactive)
REMARK    1  A    between atoms: C3_5  and  C4_6 
REMARK    2  A    between atoms: C4_6  and  C5_7 
REMARK    3  A    between atoms: C5_7  and  O1_8 
REMARK    4  A    between atoms: N2_10  and  O2_12 
REMARK    5  A    between atoms: C8_16  and  C9_17 
REMARK    6  A    between atoms: N3_20  and  C12_21 
REMARK    7  A    between atoms: C12_21  and  C13_22 
REMARK    8  A    between atoms: C13_22  and  C14_23 
REMARK    9  A    between atoms: C17_26  and  N4_27 
REMARK   10  A    between atoms: N4_27  and  C18_29 
ROOT
HETATM    1  C9  UNL     1      -3.493  -0.878  -0.164  1.00  0.00    -0.003 C 
HETATM    2  C10 UNL     1      -2.770  -0.807   1.165  1.00  0.00     0.070 C 
HETATM    3  C11 UNL     1      -2.289  -2.275   1.213  1.00  0.00     0.281 C 
HETATM    4  N3  UNL     1      -1.905  -2.531  -0.178  1.00  0.00     0.126 N 
HETATM    5  C26 UNL     1      -3.026  -2.001  -0.965  1.00  0.00     0.435 C 
HETATM    6  F1  UNL     1      -2.376  -1.608  -2.181  1.00  0.00    -0.211 F 
ENDROOT
BRANCH   1   7
HETATM    7  C8  UNL     1      -4.761  -0.218  -0.233  1.00  0.00    -0.007 A 
HETATM    8  C2  UNL     1      -5.973  -0.858  -0.184  1.00  0.00     0.016 A 
HETATM    9  C1  UNL     1      -6.043  -2.265   0.250  1.00  0.00     0.069 C 
HETATM   10  N1  UNL     1      -7.133  -0.211  -0.383  1.00  0.00    -0.362 N 
HETATM   11  C3  UNL     1      -7.175   1.133  -0.642  1.00  0.00     0.017 A 
ATOM     12  H1  UNL     1      -8.007  -0.735  -0.340  1.00  0.00     0.165 HD
HETATM   13  C6  UNL     1      -6.043   1.833  -0.712  1.00  0.00     0.026 A 
HETATM   14  C7  UNL     1      -4.845   1.164  -0.507  1.00  0.00     0.016 A 
BRANCH  11  15
HETATM   15  C4  UNL     1      -8.517   1.782  -0.782  1.00  0.00     0.142 C 
BRANCH  15  16
HETATM   16  C5  UNL     1      -8.905   2.170   0.627  1.00  0.00     0.140 C 
HETATM   17  N2  UNL     1      -9.552   3.223   0.863  1.00  0.00    -0.251 N 
ATOM     18  H2  UNL     1      -9.783   3.431   1.834  1.00  0.00     0.196 HD
BRANCH  16  19
HETATM   19  O1  UNL     1      -8.530   1.325   1.654  1.00  0.00    -0.348 OA
ATOM     20  H1  UNL     1      -8.774   1.569   2.539  1.00  0.00     0.219 HD
ENDBRANCH  16  19
BRANCH  17  21
HETATM   21  O2  UNL     1      -9.964   4.101  -0.087  1.00  0.00    -0.288 OA
ATOM     22  H2  UNL     1     -10.453   4.896   0.091  1.00  0.00     0.244 HD
ENDBRANCH  17  21
ENDBRANCH  15  16
ENDBRANCH  11  15
ENDBRANCH   1   7
BRANCH   4  23
HETATM   23  C12 UNL     1      -0.736  -1.687  -0.480  1.00  0.00     0.277 C 
BRANCH  23  24
HETATM   24  C13 UNL     1       0.452  -2.146   0.311  1.00  0.00     0.035 C 
BRANCH  24  25
HETATM   25  C14 UNL     1       1.704  -1.363   0.107  1.00  0.00    -0.012 C 
HETATM   26  C15 UNL     1       2.762  -2.007   1.014  1.00  0.00     0.010 C 
HETATM   27  C16 UNL     1       4.049  -1.247   1.000  1.00  0.00     0.052 C 
HETATM   28  C17 UNL     1       4.489  -1.046  -0.407  1.00  0.00    -0.018 C 
HETATM   29  C24 UNL     1       3.469  -0.386  -1.251  1.00  0.00     0.052 C 
HETATM   30  C25 UNL     1       2.254  -1.357  -1.284  1.00  0.00     0.010 C 
BRANCH  28  31
HETATM   31  N4  UNL     1       5.807  -0.622  -0.603  1.00  0.00    -0.392 N 
ATOM     32  H4  UNL     1       6.420  -1.172  -1.204  1.00  0.00     0.159 HD
BRANCH  31  33
HETATM   33  C18 UNL     1       6.309   0.536   0.002  1.00  0.00     0.081 C 
HETATM   34  C19 UNL     1       5.689   1.857  -0.307  1.00  0.00     0.025 C 
HETATM   35  C20 UNL     1       6.703   2.976  -0.459  1.00  0.00     0.002 C 
HETATM   36  C21 UNL     1       7.771   2.861   0.602  1.00  0.00     0.000 C 
HETATM   37  C22 UNL     1       8.476   1.543   0.507  1.00  0.00     0.002 C 
HETATM   38  C23 UNL     1       7.776   0.657  -0.482  1.00  0.00     0.025 C 
ENDBRANCH  31  33
ENDBRANCH  28  31
ENDBRANCH  24  25
ENDBRANCH  23  24
ENDBRANCH   4  23
TORSDOF 10
