REMARK  10 active torsions:
REMARK  status: ('A' for Active; 'I' for Inactive)
REMARK    1  A    between atoms: C2_2  and  C3_3 
REMARK    2  A    between atoms: C3_3  and  C4_4 
REMARK    3  A    between atoms: C4_4  and  C5_5 
REMARK    4  A    between atoms: C5_5  and  C6_6 
REMARK    5  A    between atoms: C6_6  and  C7_7 
REMARK    6  A    between atoms: C7_7  and  C8_8 
REMARK    7  A    between atoms: C8_8  and  C10_10 
REMARK    8  A    between atoms: C16_19  and  O1_20 
REMARK    9  A    between atoms: C24_31  and  C25_32 
REMARK   10  A    between atoms: C25_32  and  O3_33 
ROOT
HETATM    1  C10 UNL     1       0.911  -0.080  -0.257  1.00  0.00     0.012 A 
HETATM    2  C11 UNL     1       0.957   0.733  -1.354  1.00  0.00     0.100 A 
HETATM    3  N1  UNL     1      -0.162   1.227  -1.923  1.00  0.00    -0.363 N 
ATOM      4  H1  UNL     1      -0.096   1.832  -2.741  1.00  0.00     0.165 HD
HETATM    5  C12 UNL     1      -1.364   0.919  -1.408  1.00  0.00     0.074 A 
HETATM    6  C13 UNL     1      -2.492   1.454  -2.032  1.00  0.00     0.095 A 
HETATM    7 CL1  UNL     1      -2.329   2.486  -3.435  1.00  0.00    -0.079 Cl
HETATM    8  C14 UNL     1      -3.745   1.164  -1.538  1.00  0.00     0.106 A 
HETATM    9  C15 UNL     1      -3.824   0.357  -0.446  1.00  0.00     0.053 A 
HETATM   10  C16 UNL     1      -2.697  -0.193   0.200  1.00  0.00     0.094 A 
HETATM   11  C17 UNL     1      -1.446   0.108  -0.310  1.00  0.00     0.077 A 
HETATM   12  C18 UNL     1      -0.315  -0.406   0.285  1.00  0.00     0.195 A 
HETATM   13  O2  UNL     1      -0.319  -1.143   1.277  1.00  0.00    -0.287 OA
HETATM   14  C19 UNL     1      -5.273   0.187  -0.098  1.00  0.00     0.227 A 
HETATM   15  C20 UNL     1      -5.698  -1.196   0.149  1.00  0.00     0.052 C 
HETATM   16  C21 UNL     1      -6.213  -1.183   1.561  1.00  0.00     0.033 C 
HETATM   17  C22 UNL     1      -6.324   0.245   1.980  1.00  0.00     0.274 C 
HETATM   18  N2  UNL     1      -5.567   0.991   1.042  1.00  0.00     0.109 N 
HETATM   19  C23 UNL     1      -6.244   1.921   0.190  1.00  0.00     0.317 A 
HETATM   20  C24 UNL     1      -5.998   1.054  -1.029  1.00  0.00     0.155 A 
HETATM   21  O4  UNL     1      -5.039   1.541  -1.936  1.00  0.00    -0.331 OA
ENDROOT
BRANCH   1  22
HETATM   22  C8  UNL     1       2.189  -0.583   0.330  1.00  0.00     0.020 C 
HETATM   23  C9  UNL     1       2.328  -0.215   1.761  1.00  0.00     0.015 C 
BRANCH  22  24
HETATM   24  C7  UNL     1       3.354  -0.319  -0.518  1.00  0.00     0.009 C 
BRANCH  24  25
HETATM   25  C6  UNL     1       4.649  -0.996  -0.257  1.00  0.00     0.001 C 
BRANCH  25  26
HETATM   26  C5  UNL     1       5.298  -0.744   1.040  1.00  0.00     0.000 C 
BRANCH  26  27
HETATM   27  C4  UNL     1       6.639  -1.489   1.109  1.00  0.00     0.000 C 
BRANCH  27  28
HETATM   28  C3  UNL     1       7.577  -1.053   0.037  1.00  0.00    -0.000 C 
BRANCH  28  29
HETATM   29  C2  UNL     1       7.891   0.443   0.114  1.00  0.00    -0.005 C 
HETATM   30  C1  UNL     1       8.846   0.760  -1.018  1.00  0.00     0.005 C 
ENDBRANCH  28  29
ENDBRANCH  27  28
ENDBRANCH  26  27
ENDBRANCH  25  26
ENDBRANCH  24  25
ENDBRANCH  22  24
ENDBRANCH   1  22
BRANCH  10  31
HETATM   31  O1  UNL     1      -2.880  -0.989   1.286  1.00  0.00    -0.359 OA
ATOM     32  H1  UNL     1      -2.121  -1.359   1.721  1.00  0.00     0.217 HD
ENDBRANCH  10  31
BRANCH  20  33
HETATM   33  C25 UNL     1      -7.288   0.608  -1.623  1.00  0.00     0.207 C 
BRANCH  33  34
HETATM   34  O3  UNL     1      -8.178   0.142  -0.660  1.00  0.00    -0.398 OA
ATOM     35  H3  UNL     1      -9.001  -0.143  -1.039  1.00  0.00     0.209 HD
ENDBRANCH  33  34
ENDBRANCH  20  33
TORSDOF 10
