REMARK  8 active torsions:
REMARK  status: ('A' for Active; 'I' for Inactive)
REMARK    1  A    between atoms: C5_7  and  N2_8 
REMARK    2  A    between atoms: N2_8  and  C6_10 
REMARK    3  A    between atoms: C12_18  and  N4_19 
REMARK    4  A    between atoms: N4_19  and  C13_21 
REMARK    5  A    between atoms: C13_21  and  C14_22 
REMARK    6  A    between atoms: C14_22  and  N5_23 
REMARK    7  A    between atoms: N5_23  and  C15_26 
REMARK    8  A    between atoms: C15_26  and  C16_27 
ROOT
HETATM    1  C6  UNL     1      -2.088   1.358   0.648  1.00  0.00     0.033 A 
HETATM    2  C7  UNL     1      -2.628   2.135  -0.352  1.00  0.00     0.032 A 
HETATM    3  C8  UNL     1      -1.804   2.851  -1.182  1.00  0.00     0.033 A 
HETATM    4  C9  UNL     1      -0.433   2.815  -1.043  1.00  0.00     0.044 A 
HETATM    5  N3  UNL     1       0.355   3.525  -1.868  1.00  0.00    -0.365 N 
ATOM      6  H3  UNL     1      -0.083   4.089  -2.597  1.00  0.00     0.165 HD
HETATM    7  C10 UNL     1       1.697   3.524  -1.774  1.00  0.00     0.090 A 
HETATM    8  C11 UNL     1       2.304   2.760  -0.783  1.00  0.00     0.047 A 
HETATM    9  C12 UNL     1       1.537   2.014   0.087  1.00  0.00     0.042 A 
HETATM   10  C22 UNL     1       0.154   2.050  -0.053  1.00  0.00     0.019 A 
HETATM   11  C23 UNL     1      -0.686   1.343   0.764  1.00  0.00     0.045 A 
ENDROOT
BRANCH   9  12
HETATM   12  N4  UNL     1       2.037   1.290   1.021  1.00  0.00    -0.388 N 
ATOM     13  H4  UNL     1       1.385   0.776   1.614  1.00  0.00     0.159 HD
BRANCH  12  14
HETATM   14  C13 UNL     1       3.446   1.142   1.302  1.00  0.00     0.147 C 
BRANCH  14  15
HETATM   15  C14 UNL     1       3.998   0.076   0.384  1.00  0.00     0.252 C 
BRANCH  15  16
HETATM   16  N5  UNL     1       5.407  -0.146   0.589  1.00  0.00    -0.070 N 
ATOM     17  H52 UNL     1       5.967   0.703   0.509  1.00  0.00     0.277 HD
ATOM     18  H51 UNL     1       5.647  -0.363   1.556  1.00  0.00     0.277 HD
BRANCH  16  19
HETATM   19  C15 UNL     1       5.799  -1.198  -0.361  1.00  0.00     0.270 C 
BRANCH  19  20
HETATM   20  C16 UNL     1       7.265  -1.436  -0.157  1.00  0.00    -0.033 A 
HETATM   21  C17 UNL     1       7.707  -2.367   0.759  1.00  0.00     0.012 A 
HETATM   22  C18 UNL     1       9.059  -2.592   0.953  1.00  0.00     0.043 A 
HETATM   23  C19 UNL     1      10.021  -1.897   0.240  1.00  0.00     0.116 A 
HETATM   24  F1  UNL     1      11.330  -2.152   0.465  1.00  0.00    -0.206 F 
HETATM   25  C20 UNL     1       9.566  -0.970  -0.671  1.00  0.00     0.043 A 
HETATM   26  C21 UNL     1       8.215  -0.738  -0.872  1.00  0.00     0.012 A 
ENDBRANCH  19  20
ENDBRANCH  16  19
ENDBRANCH  15  16
ENDBRANCH  14  15
ENDBRANCH  12  14
ENDBRANCH   9  12
BRANCH   1  27
HETATM   27  N2  UNL     1      -2.832   0.565   1.542  1.00  0.00    -0.356 N 
ATOM     28  H2  UNL     1      -2.410   0.369   2.450  1.00  0.00     0.166 HD
BRANCH  27  29
HETATM   29  C5  UNL     1      -4.098   0.022   1.297  1.00  0.00     0.034 A 
HETATM   30  C4  UNL     1      -4.549  -0.259   0.030  1.00  0.00     0.061 A 
HETATM   31  C3  UNL     1      -5.828  -0.783  -0.208  1.00  0.00     0.062 A 
HETATM   32  N1  UNL     1      -6.502  -1.138  -1.316  1.00  0.00    -0.344 N 
HETATM   33  C26 UNL     1      -6.671  -1.031   0.852  1.00  0.00     0.062 A 
HETATM   34  C2  UNL     1      -7.726  -1.596  -1.001  1.00  0.00     0.080 A 
ATOM     35  H1  UNL     1      -6.135  -1.069  -2.265  1.00  0.00     0.167 HD
HETATM   36  C1  UNL     1      -8.788  -2.090  -1.939  1.00  0.00     0.089 C 
HETATM   37  N6  UNL     1      -7.819  -1.525   0.339  1.00  0.00    -0.339 N 
HETATM   38  C27 UNL     1      -8.974  -1.919   1.119  1.00  0.00     0.158 C 
HETATM   39  C25 UNL     1      -6.222  -0.752   2.118  1.00  0.00     0.034 A 
HETATM   40  C24 UNL     1      -4.975  -0.240   2.361  1.00  0.00     0.032 A 
ENDBRANCH  27  29
ENDBRANCH   1  27
TORSDOF 8
