REMARK  9 active torsions:
REMARK  status: ('A' for Active; 'I' for Inactive)
REMARK    1  A    between atoms: C2_2  and  N1_3 
REMARK    2  A    between atoms: N1_3  and  C3_4 
REMARK    3  A    between atoms: N1_3  and  C5_6 
REMARK    4  A    between atoms: C5_6  and  C6_7 
REMARK    5  A    between atoms: C6_7  and  O1_8 
REMARK    6  A    between atoms: O1_8  and  C7_9 
REMARK    7  A    between atoms: C8_10  and  C9_11 
REMARK    8  A    between atoms: C12_18  and  N4_19 
REMARK    9  A    between atoms: C17_31  and  C18_32 
ROOT
HETATM    1  C7  UNL     1      -0.343  -0.802  -1.363  1.00  0.00     0.087 A 
HETATM    2  C8  UNL     1      -1.078  -0.752  -0.206  1.00  0.00     0.010 A 
HETATM    3  C16 UNL     1      -1.595  -1.959   0.280  1.00  0.00     0.024 A 
HETATM    4  C17 UNL     1      -1.396  -3.167  -0.350  1.00  0.00    -0.027 A 
HETATM    5  C22 UNL     1      -0.655  -3.208  -1.517  1.00  0.00     0.049 A 
HETATM    6 CL1  UNL     1      -0.347  -4.690  -2.395  1.00  0.00    -0.083 Cl
HETATM    7  C23 UNL     1      -0.137  -2.035  -2.014  1.00  0.00    -0.005 A 
HETATM    8  C24 UNL     1       0.665  -2.003  -3.265  1.00  0.00     0.053 C 
ENDROOT
BRANCH   2   9
HETATM    9  C9  UNL     1      -1.379   0.491   0.494  1.00  0.00    -0.007 A 
HETATM   10  C10 UNL     1      -1.271   0.652   1.845  1.00  0.00     0.102 A 
HETATM   11  N2  UNL     1      -1.585   1.844   2.376  1.00  0.00    -0.350 N 
HETATM   12  C11 UNL     1      -2.004   2.907   1.666  1.00  0.00     0.135 A 
ATOM     13  H2  UNL     1      -1.500   1.951   3.387  1.00  0.00     0.166 HD
HETATM   14  N3  UNL     1      -2.304   4.082   2.234  1.00  0.00    -0.176 N 
HETATM   15  C14 UNL     1      -2.122   2.767   0.279  1.00  0.00     0.053 A 
HETATM   16  C12 UNL     1      -2.719   5.143   1.516  1.00  0.00     0.679 A 
ATOM     17  H3  UNL     1      -2.215   4.177   3.246  1.00  0.00     0.186 HD
HETATM   18  N5  UNL     1      -2.845   5.047   0.190  1.00  0.00    -0.176 N 
HETATM   19  C13 UNL     1      -2.551   3.871  -0.438  1.00  0.00     0.128 A 
ATOM     20  H5  UNL     1      -3.160   5.851  -0.353  1.00  0.00     0.186 HD
HETATM   21  N6  UNL     1      -2.667   3.770  -1.708  1.00  0.00    -0.384 N 
ATOM     22  H62 UNL     1      -2.983   4.583  -2.236  1.00  0.00     0.157 HD
ATOM     23  H61 UNL     1      -2.447   2.891  -2.177  1.00  0.00     0.157 HD
HETATM   24  C15 UNL     1      -1.810   1.562  -0.293  1.00  0.00     0.032 A 
BRANCH  16  25
HETATM   25  N4  UNL     1      -2.996   6.256   2.112  1.00  0.00    -0.234 N 
ATOM     26  H42 UNL     1      -2.900   6.329   3.125  1.00  0.00     0.174 HD
ATOM     27  H41 UNL     1      -3.310   7.060   1.568  1.00  0.00     0.174 HD
ENDBRANCH  16  25
ENDBRANCH   2   9
BRANCH   1  28
HETATM   28  O1  UNL     1       0.216   0.335  -1.911  1.00  0.00    -0.348 OA
BRANCH  28  29
HETATM   29  C6  UNL     1       1.588   0.605  -1.651  1.00  0.00     0.206 C 
BRANCH  29  30
HETATM   30  C5  UNL     1       1.971   0.747  -0.230  1.00  0.00     0.299 C 
BRANCH  30  31
HETATM   31  N1  UNL     1       3.381   0.992  -0.090  1.00  0.00     0.089 N 
BRANCH  31  32
HETATM   32  C2  UNL     1       3.769   1.012   1.312  1.00  0.00     0.268 C 
HETATM   33  C1  UNL     1       3.193   2.128   2.104  1.00  0.00     0.037 C 
ENDBRANCH  31  32
BRANCH  31  34
HETATM   34  C3  UNL     1       3.932   2.078  -0.826  1.00  0.00     0.268 C 
HETATM   35  C4  UNL     1       5.442   1.882  -0.886  1.00  0.00     0.037 C 
ENDBRANCH  31  34
ENDBRANCH  30  31
ENDBRANCH  29  30
ENDBRANCH  28  29
ENDBRANCH   1  28
BRANCH   4  36
HETATM   36  C18 UNL     1      -1.954  -4.415   0.208  1.00  0.00    -0.022 C 
HETATM   37  C19 UNL     1      -2.718  -4.074   1.478  1.00  0.00     0.019 C 
HETATM   38  C20 UNL     1      -2.892  -5.121  -0.716  1.00  0.00     0.019 C 
HETATM   39  C21 UNL     1      -0.842  -5.374   0.634  1.00  0.00     0.019 C 
ENDBRANCH   4  36
TORSDOF 9
