REMARK  7 active torsions:
REMARK  status: ('A' for Active; 'I' for Inactive)
REMARK    1  A    between atoms: C2_2  and  N1_3 
REMARK    2  A    between atoms: N1_3  and  C3_4 
REMARK    3  A    between atoms: N1_3  and  C5_6 
REMARK    4  A    between atoms: C10_13  and  C11_14 
REMARK    5  A    between atoms: C17_21  and  C18_22 
REMARK    6  A    between atoms: C18_22  and  N3_23 
REMARK    7  A    between atoms: N3_23  and  C19_26 
ROOT
HETATM    1  C11 UNL     1       0.768  -0.201   0.004  1.00  0.00     0.077 A 
HETATM    2  C12 UNL     1       1.072  -1.461  -0.515  1.00  0.00     0.036 A 
HETATM    3  C13 UNL     1       2.402  -1.818  -0.670  1.00  0.00     0.014 A 
HETATM    4  C14 UNL     1       2.693  -3.069  -1.181  1.00  0.00     0.046 A 
HETATM    5 CL1  UNL     1       1.393  -4.178  -1.626  1.00  0.00    -0.083 Cl
HETATM    6  C15 UNL     1       4.017  -3.409  -1.326  1.00  0.00     0.025 A 
HETATM    7  C16 UNL     1       4.989  -2.498  -0.960  1.00  0.00     0.013 A 
HETATM    8  C17 UNL     1       4.716  -1.248  -0.449  1.00  0.00    -0.005 A 
HETATM    9  C22 UNL     1       3.385  -0.915  -0.306  1.00  0.00     0.055 A 
HETATM   10  N4  UNL     1       3.096   0.281   0.186  1.00  0.00    -0.321 N 
ATOM     11  H4  UNL     1       3.844   0.925   0.445  1.00  0.00     0.169 HD
HETATM   12  C23 UNL     1       1.789   0.645   0.344  1.00  0.00     0.260 A 
HETATM   13  O1  UNL     1       1.607   1.795   0.817  1.00  0.00    -0.267 OA
ENDROOT
BRANCH   1  14
HETATM   14  C10 UNL     1      -0.617   0.213   0.178  1.00  0.00     0.122 A 
HETATM   15  N2  UNL     1      -1.151   1.325   0.659  1.00  0.00    -0.339 N 
HETATM   16  C9  UNL     1      -2.492   1.210   0.597  1.00  0.00     0.067 A 
ATOM     17  H2  UNL     1      -0.636   2.130   1.015  1.00  0.00     0.167 HD
HETATM   18  C7  UNL     1      -3.488   2.080   0.969  1.00  0.00    -0.031 A 
HETATM   19  C24 UNL     1      -2.788  -0.009   0.060  1.00  0.00     0.063 A 
HETATM   20  C6  UNL     1      -4.791   1.696   0.790  1.00  0.00     0.038 A 
HETATM   21  C8  UNL     1      -3.153   3.410   1.555  1.00  0.00     0.050 C 
HETATM   22  C5  UNL     1      -5.098   0.467   0.250  1.00  0.00     0.033 A 
HETATM   23  C25 UNL     1      -4.121  -0.397  -0.121  1.00  0.00     0.061 A 
HETATM   24  N5  UNL     1      -1.640  -0.623  -0.197  1.00  0.00    -0.340 N 
ATOM     25  H5  UNL     1      -1.536  -1.553  -0.602  1.00  0.00     0.167 HD
BRANCH  22  26
HETATM   26  N1  UNL     1      -6.464   0.110   0.085  1.00  0.00    -0.382 N 
BRANCH  26  27
HETATM   27  C2  UNL     1      -7.115  -0.638   1.123  1.00  0.00     0.118 C 
HETATM   28  C1  UNL     1      -8.174   0.211   1.830  1.00  0.00     0.026 C 
ENDBRANCH  26  27
BRANCH  26  29
HETATM   29  C3  UNL     1      -7.134   0.526  -1.124  1.00  0.00     0.118 C 
HETATM   30  C4  UNL     1      -7.500  -0.614  -2.040  1.00  0.00     0.026 C 
ENDBRANCH  26  29
ENDBRANCH  22  26
ENDBRANCH   1  14
BRANCH   8  31
HETATM   31  C18 UNL     1       5.835  -0.391  -0.117  1.00  0.00     0.273 C 
BRANCH  31  32
HETATM   32  N3  UNL     1       7.108  -1.037  -0.372  1.00  0.00    -0.068 N 
ATOM     33  H32 UNL     1       7.172  -1.926   0.124  1.00  0.00     0.277 HD
ATOM     34  H31 UNL     1       7.158  -1.378  -1.332  1.00  0.00     0.277 HD
BRANCH  32  35
HETATM   35  C19 UNL     1       8.236  -0.194  -0.065  1.00  0.00     0.178 C 
HETATM   36  C20 UNL     1       8.320   1.053  -0.898  1.00  0.00     0.039 C 
HETATM   37  C21 UNL     1       8.279   0.231   1.379  1.00  0.00     0.039 C 
ENDBRANCH  32  35
ENDBRANCH  31  32
ENDBRANCH   8  31
TORSDOF 7
