REMARK  9 active torsions:
REMARK  status: ('A' for Active; 'I' for Inactive)
REMARK    1  A    between atoms: O1_2  and  C2_3 
REMARK    2  A    between atoms: C7_8  and  N1_9 
REMARK    3  A    between atoms: N1_9  and  C8_11 
REMARK    4  A    between atoms: C10_13  and  C11_14 
REMARK    5  A    between atoms: C11_14  and  N2_15 
REMARK    6  A    between atoms: C11_14  and  C12_19 
REMARK    7  A    between atoms: C12_19  and  C13_20 
REMARK    8  A    between atoms: C16_23  and  O2_24 
REMARK    9  A    between atoms: O2_24  and  C17_25 
ROOT
HETATM    1  C11 UNL     1       0.398  -0.241   0.746  1.00  0.00     0.220 C 
ENDROOT
BRANCH   1   2
HETATM    2  C10 UNL     1       1.741  -0.533   0.154  1.00  0.00    -0.023 A 
HETATM    3  C9  UNL     1       2.887  -0.258   0.902  1.00  0.00     0.058 A 
HETATM    4  C8  UNL     1       4.136  -0.513   0.382  1.00  0.00     0.105 A 
HETATM    5  N5  UNL     1       4.263  -1.022  -0.834  1.00  0.00    -0.352 N 
HETATM    6  C27 UNL     1       3.184  -1.296  -1.576  1.00  0.00     0.090 A 
ATOM      7  H5  UNL     1       5.193  -1.207  -1.209  1.00  0.00     0.166 HD
HETATM    8  C26 UNL     1       1.907  -1.058  -1.099  1.00  0.00     0.026 A 
BRANCH   4   9
HETATM    9  N1  UNL     1       5.139  -0.226   1.149  1.00  0.00    -0.340 N 
ATOM     10  H1  UNL     1       4.935   0.163   2.070  1.00  0.00     0.167 HD
BRANCH   9  11
HETATM   11  C7  UNL     1       6.486  -0.412   0.804  1.00  0.00     0.067 A 
HETATM   12  C2  UNL     1       7.147   0.601   0.142  1.00  0.00     0.094 A 
HETATM   13  C3  UNL     1       8.471   0.500  -0.233  1.00  0.00     0.039 A 
HETATM   14  C4  UNL     1       9.178  -0.661   0.062  1.00  0.00     0.003 A 
HETATM   15  C5  UNL     1       8.538  -1.686   0.724  1.00  0.00     0.002 A 
HETATM   16  C6  UNL     1       7.214  -1.550   1.083  1.00  0.00     0.032 A 
BRANCH  12  17
HETATM   17  O1  UNL     1       6.472   1.766  -0.165  1.00  0.00    -0.354 OA
HETATM   18  C1  UNL     1       7.061   2.852  -0.838  1.00  0.00     0.210 C 
ENDBRANCH  12  17
ENDBRANCH   9  11
ENDBRANCH   4   9
ENDBRANCH   1   2
BRANCH   1  19
HETATM   19  N2  UNL     1       0.457   1.073   1.327  1.00  0.00    -0.071 N 
ATOM     20  H23 UNL     1       1.218   1.177   1.998  1.00  0.00     0.275 HD
ATOM     21  H22 UNL     1       0.763   1.787   0.666  1.00  0.00     0.275 HD
ATOM     22  H21 UNL     1      -0.458   1.272   1.731  1.00  0.00     0.275 HD
ENDBRANCH   1  19
BRANCH   1  23
HETATM   23  C12 UNL     1      -0.635  -0.390  -0.327  1.00  0.00     0.076 C 
BRANCH  23  24
HETATM   24  C13 UNL     1      -2.009  -0.112   0.174  1.00  0.00    -0.053 A 
HETATM   25  C14 UNL     1      -2.499   1.175   0.113  1.00  0.00     0.010 A 
HETATM   26  C15 UNL     1      -3.771   1.423   0.579  1.00  0.00     0.041 A 
HETATM   27  C16 UNL     1      -4.610   0.468   1.111  1.00  0.00     0.114 A 
HETATM   28  C24 UNL     1      -4.070  -0.827   1.153  1.00  0.00     0.150 A 
HETATM   29  F1  UNL     1      -4.857  -1.796   1.667  1.00  0.00    -0.203 F 
HETATM   30  C25 UNL     1      -2.802  -1.111   0.696  1.00  0.00     0.052 A 
BRANCH  27  31
HETATM   31  O2  UNL     1      -5.877   0.720   1.573  1.00  0.00    -0.307 OA
BRANCH  31  32
HETATM   32  C17 UNL     1      -7.064   0.183   1.191  1.00  0.00     0.091 A 
HETATM   33  C18 UNL     1      -7.834  -0.530   2.123  1.00  0.00     0.055 A 
HETATM   34  C19 UNL     1      -9.023  -1.059   1.711  1.00  0.00     0.092 A 
HETATM   35  N3  UNL     1      -9.486  -0.928   0.458  1.00  0.00    -0.351 N 
HETATM   36  C20 UNL     1      -8.768  -0.245  -0.466  1.00  0.00     0.118 A 
ATOM     37  H3  UNL     1     -10.381  -1.344   0.201  1.00  0.00     0.166 HD
HETATM   38  N4  UNL     1      -9.032   0.020  -1.779  1.00  0.00    -0.352 N 
HETATM   39  C23 UNL     1      -7.566   0.299  -0.080  1.00  0.00     0.043 A 
HETATM   40  C21 UNL     1      -8.020   0.732  -2.263  1.00  0.00     0.090 A 
ATOM     41  H4  UNL     1      -9.859  -0.276  -2.297  1.00  0.00     0.166 HD
HETATM   42  C22 UNL     1      -7.097   0.924  -1.244  1.00  0.00     0.035 A 
ENDBRANCH  31  32
ENDBRANCH  27  31
ENDBRANCH  23  24
ENDBRANCH   1  23
TORSDOF 9
