REMARK  8 active torsions:
REMARK  status: ('A' for Active; 'I' for Inactive)
REMARK    1  A    between atoms: C5_8  and  S1_9 
REMARK    2  A    between atoms: S1_9  and  C6_10 
REMARK    3  A    between atoms: C8_12  and  N2_13 
REMARK    4  A    between atoms: N2_13  and  C9_15 
REMARK    5  A    between atoms: C12_18  and  C13_19 
REMARK    6  A    between atoms: C13_19  and  N3_20 
REMARK    7  A    between atoms: N3_20  and  C14_23 
REMARK    8  A    between atoms: C14_23  and  C15_24 
ROOT
HETATM    1  C6  UNL     1      -3.150  -2.527   1.219  1.00  0.00     0.077 A 
HETATM    2  C7  UNL     1      -2.120  -2.336   0.328  1.00  0.00     0.066 A 
HETATM    3  C8  UNL     1      -0.975  -1.621   0.694  1.00  0.00     0.036 A 
HETATM    4  C20 UNL     1      -0.886  -1.108   1.952  1.00  0.00     0.046 A 
HETATM    5  C21 UNL     1      -1.933  -1.311   2.832  1.00  0.00     0.091 A 
HETATM    6  N6  UNL     1      -3.036  -2.013   2.446  1.00  0.00    -0.360 N 
ATOM      7  H6  UNL     1      -3.795  -2.149   3.113  1.00  0.00     0.166 HD
ENDROOT
BRANCH   3   8
HETATM    8  N2  UNL     1      -0.019  -1.452  -0.154  1.00  0.00    -0.356 N 
ATOM      9  H2  UNL     1      -0.098  -1.841  -1.093  1.00  0.00     0.166 HD
BRANCH   8  10
HETATM   10  C9  UNL     1       1.140  -0.728   0.214  1.00  0.00     0.032 A 
HETATM   11  C10 UNL     1       1.276   0.597  -0.132  1.00  0.00     0.030 A 
HETATM   12  C11 UNL     1       2.410   1.317   0.224  1.00  0.00     0.011 A 
HETATM   13  C12 UNL     1       3.402   0.685   0.934  1.00  0.00    -0.033 A 
HETATM   14  C18 UNL     1       3.290  -0.641   1.294  1.00  0.00     0.011 A 
HETATM   15  C19 UNL     1       2.144  -1.342   0.925  1.00  0.00     0.030 A 
BRANCH  13  16
HETATM   16  C13 UNL     1       4.651   1.400   1.351  1.00  0.00     0.271 C 
BRANCH  16  17
HETATM   17  N3  UNL     1       5.607   1.227   0.288  1.00  0.00    -0.065 N 
ATOM     18  H32 UNL     1       5.759   0.246   0.054  1.00  0.00     0.277 HD
ATOM     19  H31 UNL     1       5.247   1.532  -0.616  1.00  0.00     0.277 HD
BRANCH  17  20
HETATM   20  C14 UNL     1       6.841   1.913   0.661  1.00  0.00     0.308 C 
BRANCH  20  21
HETATM   21  C15 UNL     1       7.802   1.702  -0.477  1.00  0.00     0.106 A 
HETATM   22  N4  UNL     1       7.948   2.507  -1.560  1.00  0.00    -0.353 N 
HETATM   23  C16 UNL     1       8.900   1.999  -2.364  1.00  0.00     0.106 A 
ATOM     24  H4  UNL     1       7.420   3.362  -1.736  1.00  0.00     0.166 HD
HETATM   25  C17 UNL     1       9.370   0.844  -1.777  1.00  0.00     0.106 A 
HETATM   26  N5  UNL     1       8.677   0.693  -0.627  1.00  0.00    -0.353 N 
ATOM     27  H5  UNL     1       8.800  -0.076   0.032  1.00  0.00     0.166 HD
ENDBRANCH  20  21
ENDBRANCH  17  20
ENDBRANCH  16  17
ENDBRANCH  13  16
ENDBRANCH   8  10
ENDBRANCH   3   8
BRANCH   1  28
HETATM   28  S1  UNL     1      -4.579  -3.443   0.700  1.00  0.00    -0.055 SA
BRANCH  28  29
HETATM   29  C5  UNL     1      -5.767  -2.279  -0.003  1.00  0.00     0.076 A 
HETATM   30  N1  UNL     1      -5.496  -0.964  -0.067  1.00  0.00    -0.350 N 
HETATM   31  C4  UNL     1      -6.338  -0.043  -0.580  1.00  0.00     0.043 A 
ATOM     32  H1  UNL     1      -4.598  -0.642   0.295  1.00  0.00     0.166 HD
HETATM   33  C3  UNL     1      -6.023   1.297  -0.626  1.00  0.00     0.033 A 
HETATM   34  C24 UNL     1      -7.549  -0.495  -1.065  1.00  0.00    -0.006 A 
HETATM   35  C2  UNL     1      -6.880   2.240  -1.149  1.00  0.00     0.044 A 
HETATM   36  C1  UNL     1      -8.094   1.804  -1.638  1.00  0.00     0.117 A 
HETATM   37  F1  UNL     1      -8.963   2.726  -2.163  1.00  0.00    -0.206 F 
HETATM   38  C25 UNL     1      -8.405   0.462  -1.589  1.00  0.00     0.056 A 
HETATM   39  C23 UNL     1      -7.891  -1.834  -1.031  1.00  0.00     0.016 A 
HETATM   40  C22 UNL     1      -6.974  -2.710  -0.490  1.00  0.00     0.038 A 
ENDBRANCH  28  29
ENDBRANCH   1  28
TORSDOF 8
