REMARK  8 active torsions:
REMARK  status: ('A' for Active; 'I' for Inactive)
REMARK    1  A    between atoms: C6_8  and  N2_9 
REMARK    2  A    between atoms: C7_10  and  N3_11 
REMARK    3  A    between atoms: N3_11  and  C8_13 
REMARK    4  A    between atoms: C8_13  and  C9_14 
REMARK    5  A    between atoms: C9_14  and  N4_15 
REMARK    6  A    between atoms: N4_15  and  C10_17 
REMARK    7  A    between atoms: C13_20  and  C14_21 
REMARK    8  A    between atoms: C14_21  and  C15_22 
ROOT
HETATM    1  N2  UNL     1      -3.701   0.670  -0.417  1.00  0.00    -0.144 N 
HETATM    2  C7  UNL     1      -2.548   1.101   0.061  1.00  0.00     0.686 A 
HETATM    3  N5  UNL     1      -2.704   2.398   0.497  1.00  0.00    -0.189 N 
ATOM      4  H5  UNL     1      -1.990   2.995   0.915  1.00  0.00     0.184 HD
HETATM    5  C21 UNL     1      -3.982   2.717   0.262  1.00  0.00     0.077 A 
HETATM    6  C22 UNL     1      -4.702   3.888   0.496  1.00  0.00     0.032 A 
HETATM    7  C23 UNL     1      -6.035   3.988   0.166  1.00  0.00     0.002 A 
HETATM    8  C24 UNL     1      -6.674   2.915  -0.408  1.00  0.00     0.002 A 
HETATM    9  C25 UNL     1      -5.978   1.747  -0.647  1.00  0.00     0.033 A 
HETATM   10  C26 UNL     1      -4.640   1.653  -0.313  1.00  0.00     0.084 A 
ENDROOT
BRANCH   2  11
HETATM   11  N3  UNL     1      -1.445   0.500   0.142  1.00  0.00    -0.224 N 
ATOM     12  H3  UNL     1      -0.704   1.066   0.554  1.00  0.00     0.177 HD
BRANCH  11  13
HETATM   13  C8  UNL     1      -1.024  -0.797  -0.221  1.00  0.00     0.157 C 
BRANCH  13  14
HETATM   14  C9  UNL     1       0.242  -1.096   0.585  1.00  0.00     0.142 C 
BRANCH  14  15
HETATM   15  N4  UNL     1       1.274  -0.126   0.279  1.00  0.00    -0.369 N 
ATOM     16  H4  UNL     1       1.087   0.618  -0.394  1.00  0.00     0.161 HD
BRANCH  15  17
HETATM   17  C10 UNL     1       2.539  -0.204   0.908  1.00  0.00     0.143 A 
HETATM   18  C11 UNL     1       2.906  -1.161   1.832  1.00  0.00     0.058 A 
HETATM   19  C12 UNL     1       4.204  -0.907   2.213  1.00  0.00     0.037 A 
HETATM   20  C13 UNL     1       4.579   0.207   1.497  1.00  0.00     0.059 A 
HETATM   21  O1  UNL     1       3.587   0.577   0.758  1.00  0.00    -0.298 OA
BRANCH  20  22
HETATM   22  C14 UNL     1       5.946   0.817   1.626  1.00  0.00     0.103 C 
BRANCH  22  23
HETATM   23  C15 UNL     1       6.889   0.231   0.662  1.00  0.00    -0.052 A 
HETATM   24  C16 UNL     1       7.063   0.759  -0.593  1.00  0.00     0.007 A 
HETATM   25  C17 UNL     1       7.956   0.187  -1.479  1.00  0.00     0.001 A 
HETATM   26  C18 UNL     1       8.704  -0.920  -1.157  1.00  0.00     0.000 A 
HETATM   27  C19 UNL     1       8.532  -1.456   0.107  1.00  0.00     0.001 A 
HETATM   28  C20 UNL     1       7.640  -0.882   0.987  1.00  0.00     0.007 A 
ENDBRANCH  22  23
ENDBRANCH  20  22
ENDBRANCH  15  17
ENDBRANCH  14  15
ENDBRANCH  13  14
ENDBRANCH  11  13
ENDBRANCH   2  11
BRANCH   1  29
HETATM   29  C6  UNL     1      -4.074  -0.596  -0.987  1.00  0.00     0.081 A 
HETATM   30  C1  UNL     1      -4.828  -1.469  -0.233  1.00  0.00     0.075 A 
HETATM   31  N1  UNL     1      -5.211  -1.104   1.101  1.00  0.00    -0.100 NA
HETATM   32  C2  UNL     1      -5.235  -2.698  -0.718  1.00  0.00     0.052 A 
HETATM   33  C3  UNL     1      -4.845  -3.012  -2.010  1.00  0.00     0.035 A 
HETATM   34 CL1  UNL     1      -5.356  -4.572  -2.639  1.00  0.00    -0.084 Cl
HETATM   35  C4  UNL     1      -4.092  -2.156  -2.781  1.00  0.00     0.026 A 
HETATM   36  C5  UNL     1      -3.713  -0.952  -2.258  1.00  0.00     0.034 A 
ENDBRANCH   1  29
TORSDOF 8
