REMARK  8 active torsions:
REMARK  status: ('A' for Active; 'I' for Inactive)
REMARK    1  A    between atoms: O1_2  and  C2_3 
REMARK    2  A    between atoms: C7_9  and  N1_10 
REMARK    3  A    between atoms: C8_11  and  N2_12 
REMARK    4  A    between atoms: C12_20  and  O2_21 
REMARK    5  A    between atoms: O2_21  and  C13_22 
REMARK    6  A    between atoms: C18_29  and  C19_30 
REMARK    7  A    between atoms: C19_30  and  C20_31 
REMARK    8  A    between atoms: C20_31  and  N5_32 
ROOT
HETATM    1  N1  UNL     1      -4.194   1.484   0.670  1.00  0.00    -0.143 N 
HETATM    2  C8  UNL     1      -4.667   1.972   1.829  1.00  0.00     0.684 A 
HETATM    3  N3  UNL     1      -3.584   2.373   2.519  1.00  0.00    -0.189 N 
ATOM      4  H3  UNL     1      -3.606   2.794   3.448  1.00  0.00     0.184 HD
HETATM    5  C9  UNL     1      -2.468   2.138   1.806  1.00  0.00     0.077 A 
HETATM    6  C10 UNL     1      -1.116   2.340   2.012  1.00  0.00     0.035 A 
HETATM    7  C11 UNL     1      -0.168   1.988   1.068  1.00  0.00     0.039 A 
HETATM    8  C12 UNL     1      -0.543   1.415  -0.129  1.00  0.00     0.078 A 
HETATM    9  C25 UNL     1      -1.889   1.213  -0.334  1.00  0.00     0.070 A 
HETATM   10  C26 UNL     1      -2.853   1.565   0.611  1.00  0.00     0.087 A 
ENDROOT
BRANCH   8  11
HETATM   11  O2  UNL     1       0.404   1.054  -1.093  1.00  0.00    -0.311 OA
BRANCH  11  12
HETATM   12  C13 UNL     1       1.029  -0.154  -1.151  1.00  0.00     0.077 A 
HETATM   13  C14 UNL     1       0.500  -1.207  -1.853  1.00  0.00     0.039 A 
HETATM   14  C15 UNL     1       1.148  -2.437  -1.905  1.00  0.00     0.033 A 
HETATM   15  C16 UNL     1       2.347  -2.616  -1.241  1.00  0.00     0.043 A 
HETATM   16  N4  UNL     1       3.202  -3.654  -1.097  1.00  0.00    -0.365 N 
HETATM   17  C23 UNL     1       2.859  -1.555  -0.545  1.00  0.00     0.001 A 
HETATM   18  C17 UNL     1       4.248  -3.294  -0.332  1.00  0.00     0.096 A 
ATOM     19  H4  UNL     1       3.072  -4.578  -1.510  1.00  0.00     0.165 HD
HETATM   20  C18 UNL     1       4.042  -1.984   0.019  1.00  0.00    -0.029 A 
HETATM   21  C24 UNL     1       2.220  -0.335  -0.492  1.00  0.00     0.051 A 
BRANCH  20  22
HETATM   22  C19 UNL     1       4.930  -1.134   0.865  1.00  0.00     0.071 C 
BRANCH  22  23
HETATM   23  C20 UNL     1       5.711  -0.162   0.001  1.00  0.00     0.276 C 
BRANCH  23  24
HETATM   24  N5  UNL     1       6.544   0.629   0.855  1.00  0.00     0.080 N 
HETATM   25  C21 UNL     1       7.591  -0.156   1.455  1.00  0.00     0.309 C 
HETATM   26  C22 UNL     1       7.103   1.763   0.110  1.00  0.00     0.309 C 
ENDBRANCH  23  24
ENDBRANCH  22  23
ENDBRANCH  20  22
ENDBRANCH  11  12
ENDBRANCH   8  11
BRANCH   1  27
HETATM   27  C7  UNL     1      -4.994   0.952  -0.366  1.00  0.00     0.093 A 
HETATM   28  C2  UNL     1      -5.802  -0.133  -0.114  1.00  0.00     0.096 A 
HETATM   29  C3  UNL     1      -6.572  -0.631  -1.143  1.00  0.00     0.042 A 
HETATM   30  C4  UNL     1      -6.547  -0.069  -2.400  1.00  0.00     0.045 A 
HETATM   31  C5  UNL     1      -5.741   1.021  -2.671  1.00  0.00     0.118 A 
HETATM   32  F1  UNL     1      -5.689   1.604  -3.902  1.00  0.00    -0.206 F 
HETATM   33  C6  UNL     1      -4.980   1.501  -1.628  1.00  0.00     0.075 A 
BRANCH  28  34
HETATM   34  O1  UNL     1      -5.881  -0.755   1.129  1.00  0.00    -0.354 OA
HETATM   35  C1  UNL     1      -6.692  -1.852   1.402  1.00  0.00     0.210 C 
ENDBRANCH  28  34
ENDBRANCH   1  27
BRANCH   2  36
HETATM   36  N2  UNL     1      -5.909   2.052   2.221  1.00  0.00    -0.234 N 
ATOM     37  H22 UNL     1      -6.730   1.748   1.698  1.00  0.00     0.174 HD
ATOM     38  H21 UNL     1      -6.268   2.422   3.101  1.00  0.00     0.174 HD
ENDBRANCH   2  36
TORSDOF 8
