REMARK  10 active torsions:
REMARK  status: ('A' for Active; 'I' for Inactive)
REMARK    1  A    between atoms: N1_1  and  C1_4 
REMARK    2  A    between atoms: C2_7  and  N3_8 
REMARK    3  A    between atoms: N4_11  and  C5_12 
REMARK    4  A    between atoms: C5_12  and  C6_13 
REMARK    5  A    between atoms: C6_13  and  O1_14 
REMARK    6  A    between atoms: C9_20  and  N6_21 
REMARK    7  A    between atoms: C14_29  and  S1_30 
REMARK    8  A    between atoms: S1_30  and  C15_31 
REMARK    9  A    between atoms: C15_31  and  C16_32 
REMARK   10  A    between atoms: C16_32  and  N8_33 
ROOT
HETATM    1  C1  UNL     1      -0.222   1.456  -1.058  1.00  0.00     0.135 A 
HETATM    2  N2  UNL     1       0.908   0.928  -0.538  1.00  0.00    -0.176 N 
ATOM      3  H2  UNL     1       1.774   1.461  -0.613  1.00  0.00     0.186 HD
HETATM    4  C2  UNL     1       0.942  -0.281   0.080  1.00  0.00     0.683 A 
HETATM    5  N5  UNL     1      -0.223  -0.953   0.156  1.00  0.00    -0.175 N 
ATOM      6  H5  UNL     1      -0.229  -1.865   0.613  1.00  0.00     0.186 HD
HETATM    7  C9  UNL     1      -1.377  -0.478  -0.342  1.00  0.00     0.140 A 
HETATM    8  C14 UNL     1      -1.398   0.756  -0.968  1.00  0.00     0.089 A 
ENDROOT
BRANCH   4   9
HETATM    9  N3  UNL     1       2.153  -0.806   0.598  1.00  0.00    -0.211 N 
HETATM   10  C3  UNL     1       2.742  -0.259   1.793  1.00  0.00     0.186 C 
HETATM   11  C4  UNL     1       4.250  -0.418   1.759  1.00  0.00     0.083 C 
HETATM   12  N4  UNL     1       4.756  -0.481   0.454  1.00  0.00    -0.369 N 
HETATM   13  C7  UNL     1       4.196  -1.335  -0.498  1.00  0.00     0.147 C 
HETATM   14  C8  UNL     1       2.835  -1.901  -0.046  1.00  0.00     0.161 C 
BRANCH  12  15
HETATM   15  C5  UNL     1       5.588   0.578   0.048  1.00  0.00     0.089 C 
BRANCH  15  16
HETATM   16  C6  UNL     1       6.093   0.491  -1.370  1.00  0.00     0.208 C 
BRANCH  16  17
HETATM   17  O1  UNL     1       6.921   1.593  -1.649  1.00  0.00    -0.396 OA
ATOM     18  H1  UNL     1       7.239   1.538  -2.542  1.00  0.00     0.209 HD
ENDBRANCH  16  17
ENDBRANCH  15  16
ENDBRANCH  12  15
ENDBRANCH   4   9
BRANCH   1  19
HETATM   19  N1  UNL     1      -0.148   2.629  -1.646  1.00  0.00    -0.384 N 
ATOM     20  H12 UNL     1       0.727   3.150  -1.713  1.00  0.00     0.157 HD
ATOM     21  H11 UNL     1      -1.001   3.028  -2.039  1.00  0.00     0.157 HD
ENDBRANCH   1  19
BRANCH   7  22
HETATM   22  N6  UNL     1      -2.619  -1.163  -0.287  1.00  0.00    -0.362 N 
HETATM   23  C10 UNL     1      -3.321  -1.661  -1.441  1.00  0.00     0.152 C 
HETATM   24  C11 UNL     1      -3.809  -3.073  -1.126  1.00  0.00     0.252 C 
HETATM   25  N7  UNL     1      -4.751  -3.056  -0.033  1.00  0.00    -0.072 N 
HETATM   26  C12 UNL     1      -4.693  -1.829   0.739  1.00  0.00     0.252 C 
ATOM     27  H72 UNL     1      -5.699  -3.235  -0.365  1.00  0.00     0.277 HD
ATOM     28  H71 UNL     1      -4.629  -3.872   0.567  1.00  0.00     0.277 HD
HETATM   29  C13 UNL     1      -3.262  -1.413   1.010  1.00  0.00     0.152 C 
ENDBRANCH   7  22
BRANCH   8  30
HETATM   30  S1  UNL     1      -2.893   1.409  -1.620  1.00  0.00    -0.121 SA
BRANCH  30  31
HETATM   31  C15 UNL     1      -3.879   2.350  -0.468  1.00  0.00     0.107 C 
BRANCH  31  32
HETATM   32  C16 UNL     1      -3.243   3.631   0.012  1.00  0.00     0.240 C 
BRANCH  32  33
HETATM   33  N8  UNL     1      -4.119   4.322   0.955  1.00  0.00    -0.079 N 
ATOM     34  H83 UNL     1      -5.045   4.485   0.560  1.00  0.00     0.274 HD
ATOM     35  H82 UNL     1      -4.387   3.719   1.733  1.00  0.00     0.274 HD
ATOM     36  H81 UNL     1      -3.689   5.188   1.280  1.00  0.00     0.274 HD
ENDBRANCH  32  33
ENDBRANCH  31  32
ENDBRANCH  30  31
ENDBRANCH   8  30
TORSDOF 10
