REMARK  9 active torsions:
REMARK  status: ('A' for Active; 'I' for Inactive)
REMARK    1  A    between atoms: O1_2  and  N1_3 
REMARK    2  A    between atoms: N1_3  and  C2_4 
REMARK    3  A    between atoms: C2_4  and  C3_5 
REMARK    4  A    between atoms: C2_4  and  C11_24 
REMARK    5  A    between atoms: C3_5  and  N2_6 
REMARK       I    between atoms: N2_6  and  C4_8 
REMARK    6  A    between atoms: C4_8  and  C5_10 
REMARK    7  A    between atoms: C5_10  and  N3_12 
REMARK       I    between atoms: N3_12  and  C7_14 
REMARK    8  A    between atoms: C7_14  and  C8_16 
REMARK    9  A    between atoms: C13_27  and  N5_28 
ROOT
HETATM    1  N2  UNL     1      -0.896   0.224   0.006  1.00  0.00    -0.352 N 
ATOM      2  H2  UNL     1      -1.243  -0.550  -0.561  1.00  0.00     0.162 HD
HETATM    3  C4  UNL     1       0.490   0.407   0.163  1.00  0.00     0.240 C 
HETATM    4  O2  UNL     1       0.902   1.361   0.862  1.00  0.00    -0.271 OA
ENDROOT
BRANCH   1   5
HETATM    5  C3  UNL     1      -1.817   1.110   0.632  1.00  0.00     0.200 C 
BRANCH   5   6
HETATM    6  C2  UNL     1      -3.244   0.756   0.349  1.00  0.00     0.162 C 
BRANCH   6   7
HETATM    7  N1  UNL     1      -3.924   1.536  -0.264  1.00  0.00    -0.282 NA
BRANCH   7   8
HETATM    8  O1  UNL     1      -4.699   2.288  -0.894  1.00  0.00    -0.214 OA
HETATM    9  C1  UNL     1      -4.644   3.720  -0.845  1.00  0.00     0.255 C 
ENDBRANCH   7   8
ENDBRANCH   6   7
BRANCH   6  10
HETATM   10  C11 UNL     1      -3.744  -0.581   0.852  1.00  0.00     0.082 A 
HETATM   11  C12 UNL     1      -2.941  -1.434   1.554  1.00  0.00     0.086 A 
HETATM   12  S1  UNL     1      -3.987  -2.748   1.856  1.00  0.00    -0.064 SA
HETATM   13  C13 UNL     1      -5.375  -2.142   1.078  1.00  0.00     0.142 A 
HETATM   14  N6  UNL     1      -4.981  -0.961   0.619  1.00  0.00    -0.334 N 
ATOM     15  H6  UNL     1      -5.622  -0.363   0.098  1.00  0.00     0.168 HD
BRANCH  13  16
HETATM   16  N5  UNL     1      -6.545  -2.726   0.971  1.00  0.00    -0.380 N 
ATOM     17  H52 UNL     1      -6.848  -3.634   1.324  1.00  0.00     0.158 HD
ATOM     18  H51 UNL     1      -7.376  -2.363   0.505  1.00  0.00     0.158 HD
ENDBRANCH  13  16
ENDBRANCH   6  10
ENDBRANCH   5   6
ENDBRANCH   1   5
BRANCH   3  19
HETATM   19  C5  UNL     1       1.480  -0.496  -0.474  1.00  0.00     0.172 C 
HETATM   20  C6  UNL     1       1.291  -0.444  -1.978  1.00  0.00     0.042 C 
BRANCH  19  21
HETATM   21  N3  UNL     1       2.821  -0.059  -0.138  1.00  0.00    -0.346 N 
HETATM   22  C7  UNL     1       3.765  -0.898   0.493  1.00  0.00     0.257 C 
HETATM   23  O3  UNL     1       3.445  -2.073   0.782  1.00  0.00    -0.270 OA
ATOM     24  H3  UNL     1       3.094   0.896  -0.368  1.00  0.00     0.163 HD
BRANCH  22  25
HETATM   25  C8  UNL     1       5.126  -0.429   0.825  1.00  0.00     0.317 C 
HETATM   26  O4  UNL     1       5.883  -1.431   1.445  1.00  0.00    -0.279 OA
HETATM   27  C9  UNL     1       7.164  -1.490   0.867  1.00  0.00     0.368 C 
HETATM   28  O5  UNL     1       8.185  -2.090   1.279  1.00  0.00    -0.238 OA
HETATM   29  N4  UNL     1       7.157  -0.726  -0.338  1.00  0.00    -0.270 N 
HETATM   30  C10 UNL     1       5.831  -0.200  -0.473  1.00  0.00     0.265 C 
ATOM     31  H4  UNL     1       7.940  -0.583  -0.976  1.00  0.00     0.174 HD
HETATM   32  O6  UNL     1       5.333   0.349  -1.467  1.00  0.00    -0.270 OA
ENDBRANCH  22  25
ENDBRANCH  19  21
ENDBRANCH   3  19
TORSDOF 9
