REMARK  9 active torsions:
REMARK  status: ('A' for Active; 'I' for Inactive)
REMARK    1  A    between atoms: O1_2  and  N1_3 
REMARK       I    between atoms: N1_3  and  C2_5 
REMARK    2  A    between atoms: C2_5  and  C3_7 
REMARK    3  A    between atoms: C6_10  and  C7_11 
REMARK       I    between atoms: C7_11  and  N2_13 
REMARK    4  A    between atoms: N2_13  and  S1_14 
REMARK    5  A    between atoms: S1_14  and  O6_17 
REMARK    6  A    between atoms: O6_17  and  C8_18 
REMARK    7  A    between atoms: C8_18  and  C9_19 
REMARK    8  A    between atoms: C11_21  and  N3_22 
REMARK    9  A    between atoms: N3_22  and  N4_24 
ROOT
HETATM    1  S1  UNL     1       0.502  -1.001   0.838  1.00  0.00     0.434 S 
HETATM    2  O4  UNL     1       0.616  -2.119   1.823  1.00  0.00    -0.163 OA
HETATM    3  O5  UNL     1      -0.391   0.092   1.695  1.00  0.00    -0.163 OA
ENDROOT
BRANCH   1   4
HETATM    4  N2  UNL     1      -0.420  -1.266  -0.509  1.00  0.00    -0.254 NA
HETATM    5  C7  UNL     1      -1.173  -1.492  -1.633  1.00  0.00     0.362 C 
HETATM    6  O3  UNL     1      -1.545  -1.776  -2.609  1.00  0.00    -0.248 OA
BRANCH   5   7
HETATM    7  C6  UNL     1      -2.616  -0.828  -1.010  1.00  0.00     0.159 A 
HETATM    8  C5  UNL     1      -2.846  -1.130   0.298  1.00  0.00     0.047 A 
HETATM    9  C4  UNL     1      -4.046  -0.442   0.526  1.00  0.00     0.046 A 
HETATM   10  C3  UNL     1      -4.389   0.154  -0.630  1.00  0.00     0.146 A 
HETATM   11  O8  UNL     1      -3.456  -0.121  -1.566  1.00  0.00    -0.298 OA
BRANCH  10  12
HETATM   12  C2  UNL     1      -5.642   0.947  -0.696  1.00  0.00     0.298 C 
HETATM   13  N1  UNL     1      -6.635   0.463   0.149  1.00  0.00    -0.230 N 
ATOM     14  H1  UNL     1      -6.398  -0.399   0.641  1.00  0.00     0.198 HD
HETATM   15  O2  UNL     1      -5.712   1.958  -1.460  1.00  0.00    -0.263 OA
BRANCH  13  16
HETATM   16  O1  UNL     1      -7.851   0.948   0.419  1.00  0.00    -0.282 OA
HETATM   17  C1  UNL     1      -7.878   0.948   1.865  1.00  0.00     0.237 C 
ENDBRANCH  13  16
ENDBRANCH  10  12
ENDBRANCH   5   7
ENDBRANCH   1   4
BRANCH   1  18
HETATM   18  O6  UNL     1       1.879  -0.292   0.534  1.00  0.00    -0.242 OA
BRANCH  18  19
HETATM   19  C8  UNL     1       2.404   0.902   0.911  1.00  0.00     0.258 C 
BRANCH  19  20
HETATM   20  C9  UNL     1       3.686   0.745   0.061  1.00  0.00     0.085 A 
HETATM   21  C10 UNL     1       4.682   0.060   0.656  1.00  0.00     0.085 A 
HETATM   22  C11 UNL     1       5.858  -0.216  -0.064  1.00  0.00     0.124 A 
HETATM   23  N5  UNL     1       5.899   0.262  -1.329  1.00  0.00    -0.307 N 
HETATM   24  C12 UNL     1       4.827   0.962  -1.842  1.00  0.00     0.223 A 
ATOM     25  H5  UNL     1       6.726   0.104  -1.905  1.00  0.00     0.171 HD
HETATM   26  N6  UNL     1       4.984   1.351  -3.083  1.00  0.00    -0.365 N 
HETATM   27  O7  UNL     1       3.734   1.189  -1.142  1.00  0.00    -0.282 OA
ATOM     28  H62 UNL     1       5.830   1.175  -3.625  1.00  0.00     0.159 HD
ATOM     29  H61 UNL     1       4.191   1.869  -3.462  1.00  0.00     0.159 HD
BRANCH  22  30
HETATM   30  N3  UNL     1       6.669  -0.971   0.518  1.00  0.00    -0.292 N 
ATOM     31  H3  UNL     1       6.370  -1.277   1.444  1.00  0.00     0.188 HD
BRANCH  30  32
HETATM   32  N4  UNL     1       7.868  -1.449   0.133  1.00  0.00    -0.344 N 
ATOM     33  H42 UNL     1       8.148  -1.131  -0.795  1.00  0.00     0.176 HD
ATOM     34  H41 UNL     1       8.529  -2.064   0.607  1.00  0.00     0.176 HD
ENDBRANCH  30  32
ENDBRANCH  22  30
ENDBRANCH  19  20
ENDBRANCH  18  19
ENDBRANCH   1  18
TORSDOF 9
