REMARK  11 active torsions:
REMARK  status: ('A' for Active; 'I' for Inactive)
REMARK    1  A    between atoms: C2_2  and  O1_5 
REMARK    2  A    between atoms: O1_5  and  C5_6 
REMARK    3  A    between atoms: C5_6  and  C6_10 
REMARK    4  A    between atoms: C7_14  and  O2_15 
REMARK    5  A    between atoms: O2_15  and  C8_16 
REMARK    6  A    between atoms: C8_16  and  C9_17 
REMARK    7  A    between atoms: C11_22  and  C12_23 
REMARK    8  A    between atoms: C12_23  and  O3_24 
REMARK    9  A    between atoms: O3_24  and  C13_25 
REMARK   10  A    between atoms: C15_30  and  C16_31 
REMARK   11  A    between atoms: C16_31  and  O4_32 
ROOT
HETATM    1  C9  UNL     1       0.737   0.157  -0.570  1.00  0.00     0.345 C 
HETATM    2  N3  UNL     1       0.427   1.385   0.121  1.00  0.00    -0.044 N 
ATOM      3  H31 UNL     1       0.261   1.294   1.123  1.00  0.00     0.280 HD
ATOM      4  H32 UNL     1      -0.489   1.784  -0.085  1.00  0.00     0.280 HD
HETATM    5  C10 UNL     1       1.577   2.218  -0.255  1.00  0.00     0.269 C 
HETATM    6  C11 UNL     1       2.690   1.205  -0.181  1.00  0.00     0.174 C 
HETATM    7  O6  UNL     1       2.123   0.030  -0.599  1.00  0.00    -0.348 OA
ENDROOT
BRANCH   1   8
HETATM    8  C8  UNL     1       0.145   0.238  -1.953  1.00  0.00     0.234 C 
BRANCH   8   9
HETATM    9  O2  UNL     1      -1.220   0.395  -1.846  1.00  0.00    -0.335 OA
BRANCH   9  10
HETATM   10  C7  UNL     1      -1.890  -0.619  -1.211  1.00  0.00     0.475 C 
HETATM   11  N2  UNL     1      -2.795  -0.093  -0.186  1.00  0.00     0.009 N 
HETATM   12  C6  UNL     1      -3.754  -0.075  -1.291  1.00  0.00     0.405 C 
ATOM     13  H22 UNL     1      -2.580   0.730   0.377  1.00  0.00     0.286 HD
ATOM     14  H21 UNL     1      -2.973  -0.571   0.697  1.00  0.00     0.286 HD
HETATM   15  O7  UNL     1      -3.020  -1.101  -1.879  1.00  0.00    -0.298 OA
BRANCH  12  16
HETATM   16  C5  UNL     1      -5.107  -0.489  -0.809  1.00  0.00     0.170 C 
HETATM   17  N1  UNL     1      -5.717  -1.519  -1.294  1.00  0.00    -0.380 N 
ATOM     18  H12 UNL     1      -6.640  -1.802  -0.965  1.00  0.00     0.158 HD
ATOM     19  H11 UNL     1      -5.227  -2.036  -2.024  1.00  0.00     0.158 HD
BRANCH  16  20
HETATM   20  O1  UNL     1      -5.774   0.215   0.184  1.00  0.00    -0.326 OA
BRANCH  20  21
HETATM   21  C2  UNL     1      -6.973  -0.230   0.750  1.00  0.00     0.058 C 
HETATM   22  C1  UNL     1      -8.086  -0.382  -0.244  1.00  0.00     0.045 C 
HETATM   23  C3  UNL     1      -6.843  -1.497   1.537  1.00  0.00     0.045 C 
HETATM   24  C4  UNL     1      -7.416   0.856   1.740  1.00  0.00     0.045 C 
ENDBRANCH  20  21
ENDBRANCH  16  20
ENDBRANCH  12  16
ENDBRANCH   9  10
ENDBRANCH   8   9
ENDBRANCH   1   8
BRANCH   6  25
HETATM   25  C12 UNL     1       3.879   1.616  -1.020  1.00  0.00     0.206 C 
BRANCH  25  26
HETATM   26  O3  UNL     1       4.909   0.706  -1.026  1.00  0.00    -0.337 OA
BRANCH  26  27
HETATM   27  C13 UNL     1       5.482   0.426   0.184  1.00  0.00     0.469 C 
HETATM   28  N4  UNL     1       5.318  -0.990   0.489  1.00  0.00    -0.022 N 
HETATM   29  C14 UNL     1       6.650  -1.496   0.764  1.00  0.00     0.272 C 
ATOM     30  H42 UNL     1       4.651  -1.170   1.239  1.00  0.00     0.283 HD
ATOM     31  H41 UNL     1       4.828  -1.509  -0.239  1.00  0.00     0.283 HD
HETATM   32  C15 UNL     1       7.388  -0.230   1.131  1.00  0.00     0.175 C 
HETATM   33  O5  UNL     1       6.852   0.678   0.216  1.00  0.00    -0.330 OA
BRANCH  32  34
HETATM   34  C16 UNL     1       8.880  -0.368   0.926  1.00  0.00     0.197 C 
BRANCH  34  35
HETATM   35  O4  UNL     1       9.361  -1.280   1.861  1.00  0.00    -0.398 OA
ATOM     36  H4  UNL     1      10.298  -1.367   1.732  1.00  0.00     0.209 HD
ENDBRANCH  34  35
ENDBRANCH  32  34
ENDBRANCH  26  27
ENDBRANCH  25  26
ENDBRANCH   6  25
TORSDOF 11
