REMARK  14 active torsions:
REMARK  status: ('A' for Active; 'I' for Inactive)
REMARK    1  A    between atoms: O1_2  and  C2_3 
REMARK    2  A    between atoms: C4_5  and  C5_6 
REMARK    3  A    between atoms: C5_6  and  O2_7 
REMARK    4  A    between atoms: C5_6  and  N1_9 
REMARK    5  A    between atoms: N1_9  and  C7_11 
REMARK    6  A    between atoms: C7_11  and  C8_12 
REMARK    7  A    between atoms: N2_17  and  C12_18 
REMARK    8  A    between atoms: C12_18  and  C13_19 
REMARK    9  A    between atoms: C17_23  and  O4_24 
REMARK   10  A    between atoms: N4_34  and  C24_35 
REMARK   11  A    between atoms: C24_35  and  C25_36 
REMARK   12  A    between atoms: C25_36  and  O6_37 
REMARK   13  A    between atoms: C27_40  and  O7_41 
REMARK   14  A    between atoms: C29_43  and  O8_44 
ROOT
HETATM    1  C8  UNL     1      -0.788  -0.437   2.694  1.00  0.00     0.031 A 
HETATM    2  C9  UNL     1      -0.318   0.506   1.813  1.00  0.00     0.046 A 
HETATM    3  C10 UNL     1       1.053   0.594   1.933  1.00  0.00     0.068 A 
HETATM    4  C11 UNL     1       2.016   1.370   1.296  1.00  0.00     0.275 A 
HETATM    5  O3  UNL     1       1.678   2.195   0.411  1.00  0.00    -0.266 OA
HETATM    6  N2  UNL     1       3.301   1.210   1.653  1.00  0.00    -0.250 N 
HETATM    7  N3  UNL     1       3.585   0.323   2.592  1.00  0.00    -0.259 N 
ATOM      8  H3  UNL     1       4.567   0.217   2.847  1.00  0.00     0.190 HD
HETATM    9  C22 UNL     1       2.709  -0.442   3.233  1.00  0.00     0.288 A 
HETATM   10  O5  UNL     1       3.028  -1.275   4.123  1.00  0.00    -0.264 OA
HETATM   11  C23 UNL     1       1.367  -0.329   2.913  1.00  0.00     0.121 A 
HETATM   12  N4  UNL     1       0.268  -0.951   3.374  1.00  0.00    -0.342 N 
ENDROOT
BRANCH   1  13
HETATM   13  C7  UNL     1      -2.184  -0.881   2.926  1.00  0.00     0.181 C 
BRANCH  13  14
HETATM   14  N1  UNL     1      -3.085  -0.160   1.955  1.00  0.00    -0.360 N 
HETATM   15  C6  UNL     1      -3.614   1.085   2.412  1.00  0.00     0.152 C 
BRANCH  14  16
HETATM   16  C5  UNL     1      -3.299  -0.773   0.743  1.00  0.00     0.148 C 
BRANCH  16  17
HETATM   17  C4  UNL     1      -4.083  -0.378  -0.392  1.00  0.00     0.020 A 
HETATM   18  C3  UNL     1      -4.831   0.760  -0.529  1.00  0.00     0.055 A 
HETATM   19  C2  UNL     1      -5.562   1.043  -1.693  1.00  0.00     0.105 A 
HETATM   20  C29 UNL     1      -5.565   0.188  -2.761  1.00  0.00     0.135 A 
HETATM   21  C27 UNL     1      -4.817  -0.953  -2.628  1.00  0.00     0.105 A 
HETATM   22  C26 UNL     1      -4.099  -1.251  -1.510  1.00  0.00     0.055 A 
BRANCH  19  23
HETATM   23  O1  UNL     1      -6.302   2.202  -1.784  1.00  0.00    -0.353 OA
HETATM   24  C1  UNL     1      -6.389   3.164  -0.772  1.00  0.00     0.210 C 
ENDBRANCH  19  23
BRANCH  20  25
HETATM   25  O8  UNL     1      -6.291   0.492  -3.886  1.00  0.00    -0.351 OA
HETATM   26  C30 UNL     1      -7.619   0.139  -4.127  1.00  0.00     0.210 C 
ENDBRANCH  20  25
BRANCH  21  27
HETATM   27  O7  UNL     1      -4.823  -1.829  -3.728  1.00  0.00    -0.353 OA
HETATM   28  C28 UNL     1      -4.090  -3.015  -3.684  1.00  0.00     0.210 C 
ENDBRANCH  21  27
ENDBRANCH  16  17
BRANCH  16  29
HETATM   29  O2  UNL     1      -2.681  -1.929   0.583  1.00  0.00    -0.346 OA
ATOM     30  H2  UNL     1      -2.162  -2.191   1.334  1.00  0.00     0.219 HD
ENDBRANCH  16  29
ENDBRANCH  14  16
ENDBRANCH  13  14
ENDBRANCH   1  13
BRANCH  12  31
HETATM   31  C24 UNL     1       0.188  -1.990   4.412  1.00  0.00     0.155 C 
BRANCH  31  32
HETATM   32  C25 UNL     1       0.014  -1.329   5.769  1.00  0.00     0.184 C 
BRANCH  32  33
HETATM   33  O6  UNL     1      -0.067  -2.250   6.785  1.00  0.00    -0.399 OA
ATOM     34  H6  UNL     1      -0.176  -1.837   7.633  1.00  0.00     0.209 HD
ENDBRANCH  32  33
ENDBRANCH  31  32
ENDBRANCH  12  31
BRANCH   6  35
HETATM   35  C12 UNL     1       4.379   1.973   1.043  1.00  0.00     0.191 C 
BRANCH  35  36
HETATM   36  C13 UNL     1       4.959   1.317  -0.143  1.00  0.00    -0.037 A 
HETATM   37  C14 UNL     1       4.536   1.542  -1.431  1.00  0.00     0.018 A 
HETATM   38  C15 UNL     1       5.102   0.908  -2.516  1.00  0.00    -0.028 A 
HETATM   39  C16 UNL     1       4.581   1.212  -3.885  1.00  0.00     0.051 C 
HETATM   40  C17 UNL     1       6.128   0.017  -2.305  1.00  0.00     0.080 A 
HETATM   41  C19 UNL     1       6.584  -0.239  -1.030  1.00  0.00    -0.028 A 
HETATM   42  C20 UNL     1       7.694  -1.204  -0.814  1.00  0.00     0.051 C 
HETATM   43  C21 UNL     1       5.988   0.420   0.045  1.00  0.00     0.018 A 
BRANCH  40  44
HETATM   44  O4  UNL     1       6.692  -0.617  -3.404  1.00  0.00    -0.355 OA
HETATM   45  C18 UNL     1       6.216  -1.846  -3.905  1.00  0.00     0.210 C 
ENDBRANCH  40  44
ENDBRANCH  35  36
ENDBRANCH   6  35
TORSDOF 14
