REMARK  17 active torsions:
REMARK  status: ('A' for Active; 'I' for Inactive)
REMARK    1  A    between atoms: C2_2  and  C3_3 
REMARK    2  A    between atoms: C3_3  and  C4_4 
REMARK    3  A    between atoms: C4_4  and  O1_5 
REMARK    4  A    between atoms: O1_5  and  C5_6 
REMARK       I    between atoms: C5_6  and  N1_8 
REMARK    5  A    between atoms: N2_11  and  C8_12 
REMARK    6  A    between atoms: C8_12  and  O3_13 
REMARK    7  A    between atoms: C8_12  and  C9_15 
REMARK    8  A    between atoms: C9_15  and  N3_16 
REMARK    9  A    between atoms: N3_16  and  C10_17 
REMARK   10  A    between atoms: N3_16  and  N5_33 
REMARK   11  A    between atoms: C10_17  and  C11_18 
REMARK   12  A    between atoms: C11_18  and  C12_20 
REMARK   13  A    between atoms: C12_20  and  C14_22 
REMARK   14  A    between atoms: C12_20  and  N4_24 
REMARK       I    between atoms: N4_24  and  C16_26 
REMARK   15  A    between atoms: C16_26  and  O6_28 
REMARK   16  A    between atoms: O6_28  and  C17_29 
REMARK       I    between atoms: N5_33  and  C21_35 
REMARK   17  A    between atoms: C21_35  and  C22_37 
ROOT
HETATM    1  N3  UNL     1      -0.424   1.892  -0.021  1.00  0.00    -0.268 N 
ENDROOT
BRANCH   1   2
HETATM    2  C9  UNL     1      -0.054   1.990   1.316  1.00  0.00     0.171 C 
BRANCH   2   3
HETATM    3  C8  UNL     1       1.154   1.307   1.793  1.00  0.00     0.156 C 
BRANCH   3   4
HETATM    4  N2  UNL     1       2.159   0.616   1.117  1.00  0.00    -0.358 N 
HETATM    5  C7  UNL     1       3.214  -0.006   1.951  1.00  0.00     0.145 C 
HETATM    6  C6  UNL     1       4.512   0.649   1.530  1.00  0.00     0.148 C 
HETATM    7  N1  UNL     1       4.772   0.223   0.178  1.00  0.00    -0.325 N 
HETATM    8  C5  UNL     1       6.063  -0.320  -0.177  1.00  0.00     0.362 C 
HETATM    9  C27 UNL     1       3.734   0.338  -0.791  1.00  0.00     0.148 C 
HETATM   10  O2  UNL     1       6.266  -0.677  -1.369  1.00  0.00    -0.238 OA
HETATM   11  C26 UNL     1       2.345   0.457  -0.293  1.00  0.00     0.145 C 
BRANCH   8  12
HETATM   12  O1  UNL     1       7.096  -0.475   0.703  1.00  0.00    -0.304 OA
BRANCH  12  13
HETATM   13  C4  UNL     1       8.367  -0.997   0.443  1.00  0.00     0.180 C 
BRANCH  13  14
HETATM   14  C3  UNL     1       8.246  -2.432   0.019  1.00  0.00     0.026 C 
BRANCH  14  15
HETATM   15  C2  UNL     1       9.634  -3.013  -0.283  1.00  0.00    -0.002 C 
HETATM   16  C1  UNL     1      10.227  -2.199  -1.409  1.00  0.00     0.005 C 
ENDBRANCH  14  15
ENDBRANCH  13  14
ENDBRANCH  12  13
ENDBRANCH   8  12
ENDBRANCH   3   4
BRANCH   3  17
HETATM   17  O3  UNL     1       1.294   1.383   3.084  1.00  0.00    -0.345 OA
ATOM     18  H3  UNL     1       0.609   1.854   3.545  1.00  0.00     0.219 HD
ENDBRANCH   3  17
ENDBRANCH   2   3
ENDBRANCH   1   2
BRANCH   1  19
HETATM   19  C10 UNL     1      -1.069   0.755  -0.536  1.00  0.00     0.168 C 
BRANCH  19  20
HETATM   20  C11 UNL     1      -2.498   0.575  -0.331  1.00  0.00     0.194 C 
HETATM   21  O4  UNL     1      -3.294   1.455  -0.377  1.00  0.00    -0.289 OA
BRANCH  20  22
HETATM   22  C12 UNL     1      -3.040  -0.817  -0.038  1.00  0.00     0.097 C 
HETATM   23  C13 UNL     1      -2.145  -1.788  -0.745  1.00  0.00     0.047 C 
BRANCH  22  24
HETATM   24  C14 UNL     1      -2.931  -1.057   1.463  1.00  0.00     0.034 C 
HETATM   25  C15 UNL     1      -3.737  -0.044   2.231  1.00  0.00     0.008 C 
ENDBRANCH  22  24
BRANCH  22  26
HETATM   26  N4  UNL     1      -4.408  -0.875  -0.425  1.00  0.00    -0.321 N 
HETATM   27  C16 UNL     1      -5.213  -2.021  -0.284  1.00  0.00     0.362 C 
HETATM   28  O5  UNL     1      -4.781  -3.114   0.216  1.00  0.00    -0.238 OA
ATOM     29  H4  UNL     1      -4.830  -0.038  -0.828  1.00  0.00     0.166 HD
BRANCH  27  30
HETATM   30  O6  UNL     1      -6.536  -2.052  -0.676  1.00  0.00    -0.294 OA
BRANCH  30  31
HETATM   31  C17 UNL     1      -7.424  -3.095  -0.566  1.00  0.00     0.061 C 
HETATM   32  C18 UNL     1      -6.932  -4.322  -1.293  1.00  0.00     0.046 C 
HETATM   33  C19 UNL     1      -7.764  -3.469   0.859  1.00  0.00     0.046 C 
HETATM   34  C20 UNL     1      -8.772  -2.759  -1.224  1.00  0.00     0.046 C 
ENDBRANCH  30  31
ENDBRANCH  27  30
ENDBRANCH  22  26
ENDBRANCH  20  22
ENDBRANCH  19  20
ENDBRANCH   1  19
BRANCH   1  35
HETATM   35  N5  UNL     1      -0.576   3.095  -0.667  1.00  0.00    -0.258 N 
HETATM   36  C21 UNL     1      -1.311   4.195  -0.181  1.00  0.00     0.288 C 
HETATM   37  O7  UNL     1      -1.894   4.085   0.947  1.00  0.00    -0.264 OA
ATOM     38  H5  UNL     1      -0.119   3.201  -1.573  1.00  0.00     0.191 HD
BRANCH  36  39
HETATM   39  C22 UNL     1      -1.455   5.477  -0.881  1.00  0.00     0.117 A 
HETATM   40  C23 UNL     1      -0.796   5.801  -2.038  1.00  0.00     0.122 A 
HETATM   41  N6  UNL     1      -0.947   6.997  -2.677  1.00  0.00    -0.372 N 
HETATM   42  C24 UNL     1      -1.791   7.909  -2.141  1.00  0.00     0.104 A 
ATOM     43  H6  UNL     1      -0.437   7.199  -3.537  1.00  0.00     0.164 HD
HETATM   44  C25 UNL     1      -2.464   7.608  -0.983  1.00  0.00     0.105 A 
HETATM   45  N7  UNL     1      -2.285   6.426  -0.393  1.00  0.00    -0.359 N 
ATOM     46  H7  UNL     1      -2.798   6.229   0.466  1.00  0.00     0.165 HD
ENDBRANCH  36  39
ENDBRANCH   1  35
TORSDOF 17
