REMARK  14 active torsions:
REMARK  status: ('A' for Active; 'I' for Inactive)
REMARK    1  A    between atoms: C3_3  and  C4_4 
REMARK    2  A    between atoms: C5_5  and  C6_6 
REMARK    3  A    between atoms: N1_13  and  N2_14 
REMARK    4  A    between atoms: N2_14  and  C12_16 
REMARK    5  A    between atoms: C13_19  and  O2_20 
REMARK    6  A    between atoms: O2_20  and  C14_21 
REMARK    7  A    between atoms: C14_21  and  C15_22 
REMARK    8  A    between atoms: C15_22  and  C16_23 
REMARK    9  A    between atoms: C16_23  and  N4_24 
REMARK   10  A    between atoms: C22_32  and  N6_33 
REMARK   11  A    between atoms: N6_33  and  N7_35 
REMARK   12  A    between atoms: C23_37  and  C24_38 
REMARK   13  A    between atoms: C27_41  and  O3_42 
REMARK   14  A    between atoms: C29_44  and  O4_45 
ROOT
HETATM    1  C1  UNL     1      -4.908   3.775   4.797  1.00  0.00     0.112 C 
HETATM    2  C2  UNL     1      -4.384   4.884   3.998  1.00  0.00    -0.106 C 
HETATM    3  C3  UNL     1      -3.966   5.820   3.329  1.00  0.00    -0.079 C 
ENDROOT
BRANCH   3   4
HETATM    4  C4  UNL     1      -3.480   6.937   2.563  1.00  0.00     0.064 C 
HETATM    5  C5  UNL     1      -3.025   6.815   1.332  1.00  0.00     0.011 C 
BRANCH   5   6
HETATM    6  C6  UNL     1      -2.973   5.532   0.634  1.00  0.00     0.032 C 
HETATM    7  C7  UNL     1      -2.511   5.474  -0.600  1.00  0.00     0.061 A 
HETATM    8  C8  UNL     1      -2.007   6.509  -1.464  1.00  0.00     0.044 A 
HETATM    9  N1  UNL     1      -2.422   4.262  -1.373  1.00  0.00    -0.206 N 
HETATM   10  C9  UNL     1      -1.639   6.050  -2.639  1.00  0.00     0.010 A 
HETATM   11  C10 UNL     1      -1.068   6.809  -3.803  1.00  0.00     0.054 C 
HETATM   12  C11 UNL     1      -1.883   4.599  -2.642  1.00  0.00     0.273 A 
HETATM   13  O1  UNL     1      -1.647   3.809  -3.618  1.00  0.00    -0.266 OA
BRANCH   9  14
HETATM   14  N2  UNL     1      -2.782   2.987  -0.971  1.00  0.00    -0.121 N 
ATOM     15  H2  UNL     1      -3.780   2.786  -0.900  1.00  0.00     0.206 HD
BRANCH  14  16
HETATM   16  C12 UNL     1      -1.971   2.034  -0.680  1.00  0.00     0.715 A 
HETATM   17  N3  UNL     1      -2.380   0.814  -0.294  1.00  0.00    -0.152 N 
HETATM   18  C13 UNL     1      -1.504  -0.169   0.007  1.00  0.00     0.252 A 
ATOM     19  H3  UNL     1      -3.380   0.625  -0.226  1.00  0.00     0.188 HD
HETATM   20  N5  UNL     1      -0.192   0.107  -0.092  1.00  0.00    -0.152 N 
HETATM   21  C22 UNL     1       0.274   1.311  -0.473  1.00  0.00     0.714 A 
ATOM     22  H5  UNL     1       0.479  -0.628   0.131  1.00  0.00     0.188 HD
HETATM   23  N8  UNL     1      -0.656   2.257  -0.761  1.00  0.00    -0.019 N 
ATOM     24  H8  UNL     1      -0.336   3.181  -1.053  1.00  0.00     0.203 HD
BRANCH  18  25
HETATM   25  O2  UNL     1      -1.959  -1.428   0.404  1.00  0.00    -0.321 OA
BRANCH  25  26
HETATM   26  C14 UNL     1      -1.032  -2.465   0.714  1.00  0.00     0.180 C 
BRANCH  26  27
HETATM   27  C15 UNL     1      -1.762  -3.720   1.131  1.00  0.00     0.057 C 
BRANCH  27  28
HETATM   28  C16 UNL     1      -2.678  -4.238   0.063  1.00  0.00     0.275 C 
BRANCH  28  29
HETATM   29  N4  UNL     1      -2.019  -4.572  -1.166  1.00  0.00     0.092 N 
HETATM   30  C17 UNL     1      -1.138  -5.719  -1.048  1.00  0.00     0.299 C 
HETATM   31  C18 UNL     1      -2.024  -6.863  -0.640  1.00  0.00    -0.001 C 
HETATM   32  C19 UNL     1      -3.093  -7.066  -1.390  1.00  0.00    -0.027 C 
HETATM   33  C20 UNL     1      -3.324  -6.168  -2.545  1.00  0.00     0.057 C 
HETATM   34  C21 UNL     1      -2.945  -4.766  -2.236  1.00  0.00     0.276 C 
ENDBRANCH  28  29
ENDBRANCH  27  28
ENDBRANCH  26  27
ENDBRANCH  25  26
ENDBRANCH  18  25
BRANCH  21  35
HETATM   35  N6  UNL     1       1.511   1.584  -0.560  1.00  0.00    -0.132 N 
ATOM     36  H6  UNL     1       1.741   2.531  -0.862  1.00  0.00     0.205 HD
BRANCH  35  37
HETATM   37  N7  UNL     1       2.582   0.756  -0.296  1.00  0.00    -0.297 N 
HETATM   38  C23 UNL     1       3.618   1.127   0.378  1.00  0.00     0.119 C 
ATOM     39  H7  UNL     1       2.554  -0.199  -0.652  1.00  0.00     0.186 HD
BRANCH  38  40
HETATM   40  C24 UNL     1       4.699   0.194   0.610  1.00  0.00    -0.017 A 
HETATM   41  C25 UNL     1       5.815   0.593   1.328  1.00  0.00     0.016 A 
HETATM   42  C26 UNL     1       6.864  -0.284   1.565  1.00  0.00     0.040 A 
HETATM   43  C27 UNL     1       6.838  -1.587   1.096  1.00  0.00     0.101 A 
HETATM   44  C29 UNL     1       5.726  -1.982   0.382  1.00  0.00     0.102 A 
HETATM   45  C31 UNL     1       4.684  -1.106   0.148  1.00  0.00     0.052 A 
BRANCH  43  46
HETATM   46  O3  UNL     1       7.896  -2.464   1.338  1.00  0.00    -0.353 OA
HETATM   47  C28 UNL     1       8.994  -1.995   2.071  1.00  0.00     0.210 C 
ENDBRANCH  43  46
BRANCH  44  48
HETATM   48  O4  UNL     1       5.657  -3.270  -0.103  1.00  0.00    -0.353 OA
HETATM   49  C30 UNL     1       4.578  -3.771  -0.840  1.00  0.00     0.210 C 
ENDBRANCH  44  48
ENDBRANCH  38  40
ENDBRANCH  35  37
ENDBRANCH  21  35
ENDBRANCH  14  16
ENDBRANCH   9  14
ENDBRANCH   5   6
ENDBRANCH   3   4
TORSDOF 14
