REMARK  15 active torsions:
REMARK  status: ('A' for Active; 'I' for Inactive)
REMARK    1  A    between atoms: C2_2  and  C3_3 
REMARK    2  A    between atoms: N1_10  and  C7_11 
REMARK    3  A    between atoms: C8_13  and  C9_14 
REMARK    4  A    between atoms: C9_14  and  O4_15 
REMARK    5  A    between atoms: C11_17  and  O5_18 
REMARK    6  A    between atoms: C12_20  and  C13_21 
REMARK    7  A    between atoms: C13_21  and  C14_22 
REMARK    8  A    between atoms: C15_23  and  C16_24 
REMARK    9  A    between atoms: C16_24  and  C17_25 
REMARK   10  A    between atoms: C21_29  and  O6_30 
REMARK   11  A    between atoms: O6_30  and  C22_31 
REMARK   12  A    between atoms: C22_31  and  C23_33 
REMARK   13  A    between atoms: C23_33  and  N2_34 
REMARK       I    between atoms: N2_34  and  C24_36 
REMARK   14  A    between atoms: C24_36  and  O9_38 
REMARK   15  A    between atoms: O9_38  and  C25_39 
ROOT
HETATM    1  C7  UNL     1      -1.004  -0.824   0.552  1.00  0.00     0.210 A 
HETATM    2  O3  UNL     1      -1.148  -0.453   1.894  1.00  0.00    -0.333 OA
HETATM    3  C8  UNL     1      -2.249  -0.393   1.031  1.00  0.00     0.165 A 
HETATM    4  C11 UNL     1      -2.744   1.001   0.825  1.00  0.00     0.165 C 
HETATM    5  C12 UNL     1      -1.748   1.949   0.302  1.00  0.00     0.027 C 
HETATM    6  C19 UNL     1      -0.996   1.319  -0.816  1.00  0.00     0.023 C 
HETATM    7  C20 UNL     1      -1.902   0.979  -1.959  1.00  0.00     0.013 C 
HETATM    8  C21 UNL     1      -0.259   0.075  -0.365  1.00  0.00     0.196 C 
ENDROOT
BRANCH   8   9
HETATM    9  O6  UNL     1       0.995   0.486   0.158  1.00  0.00    -0.309 OA
BRANCH   9  10
HETATM   10  C22 UNL     1       2.149   0.221  -0.519  1.00  0.00     0.277 C 
HETATM   11  O7  UNL     1       2.079  -0.385  -1.606  1.00  0.00    -0.263 OA
BRANCH  10  12
HETATM   12  C23 UNL     1       3.470   0.636   0.008  1.00  0.00     0.235 C 
BRANCH  12  13
HETATM   13  N2  UNL     1       4.516   0.221  -0.916  1.00  0.00    -0.328 N 
HETATM   14  C24 UNL     1       5.885   0.517  -0.610  1.00  0.00     0.361 C 
HETATM   15  O8  UNL     1       6.215   1.123   0.432  1.00  0.00    -0.238 OA
ATOM     16  H2  UNL     1       4.277  -0.276  -1.774  1.00  0.00     0.165 HD
BRANCH  14  17
HETATM   17  O9  UNL     1       6.865   0.121  -1.489  1.00  0.00    -0.294 OA
BRANCH  17  18
HETATM   18  C25 UNL     1       8.234   0.375  -1.260  1.00  0.00     0.061 C 
HETATM   19  C26 UNL     1       8.522   1.863  -1.160  1.00  0.00     0.046 C 
HETATM   20  C27 UNL     1       9.019  -0.256  -2.384  1.00  0.00     0.046 C 
HETATM   21  C28 UNL     1       8.712  -0.251   0.035  1.00  0.00     0.046 C 
ENDBRANCH  17  18
ENDBRANCH  14  17
ENDBRANCH  12  13
ENDBRANCH  10  12
ENDBRANCH   9  10
ENDBRANCH   8   9
BRANCH   1  22
HETATM   22  N1  UNL     1      -0.564  -2.209   0.468  1.00  0.00    -0.263 N 
HETATM   23  C3  UNL     1      -0.439  -2.888   1.691  1.00  0.00     0.121 C 
HETATM   24  C4  UNL     1      -0.892  -4.317   1.755  1.00  0.00     0.031 C 
HETATM   25  C5  UNL     1      -0.414  -5.185   0.640  1.00  0.00     0.019 C 
HETATM   26  C6  UNL     1      -1.107  -4.807  -0.651  1.00  0.00     0.163 C 
HETATM   27  S1  UNL     1      -1.124  -3.045  -0.878  1.00  0.00     0.231 S 
HETATM   28  O1  UNL     1      -2.490  -2.589  -1.376  1.00  0.00    -0.206 OA
HETATM   29  O2  UNL     1      -0.209  -2.788  -2.066  1.00  0.00    -0.206 OA
BRANCH  23  30
HETATM   30  C2  UNL     1       0.952  -2.918   2.255  1.00  0.00    -0.011 C 
HETATM   31  C1  UNL     1       2.023  -3.059   1.527  1.00  0.00     0.009 C 
ENDBRANCH  23  30
ENDBRANCH   1  22
BRANCH   3  32
HETATM   32  C9  UNL     1      -3.428  -1.300   1.388  1.00  0.00     0.213 C 
BRANCH  32  33
HETATM   33  O4  UNL     1      -3.865  -0.896   2.668  1.00  0.00    -0.393 OA
HETATM   34  C10 UNL     1      -4.943  -1.711   3.014  1.00  0.00     0.201 C 
ENDBRANCH  32  33
ENDBRANCH   3  32
BRANCH   5  35
HETATM   35  C13 UNL     1      -2.235   3.336   0.064  1.00  0.00     0.034 C 
BRANCH  35  36
HETATM   36  C14 UNL     1      -3.331   3.508  -0.882  1.00  0.00    -0.030 C 
HETATM   37  C15 UNL     1      -4.508   4.050  -0.496  1.00  0.00    -0.031 C 
BRANCH  37  38
HETATM   38  C16 UNL     1      -5.647   4.248  -1.405  1.00  0.00     0.026 C 
BRANCH  38  39
HETATM   39  C17 UNL     1      -6.827   3.455  -0.872  1.00  0.00    -0.001 C 
HETATM   40  C18 UNL     1      -7.195   3.927   0.512  1.00  0.00     0.005 C 
ENDBRANCH  38  39
ENDBRANCH  37  38
ENDBRANCH  35  36
ENDBRANCH   5  35
BRANCH   4  41
HETATM   41  O5  UNL     1      -3.192   1.439   2.111  1.00  0.00    -0.392 OA
ATOM     42  H5  UNL     1      -3.507   2.326   1.980  1.00  0.00     0.210 HD
ENDBRANCH   4  41
TORSDOF 15
