REMARK  15 active torsions:
REMARK  status: ('A' for Active; 'I' for Inactive)
REMARK    1  A    between atoms: C2_2  and  C3_3 
REMARK    2  A    between atoms: C4_4  and  C5_5 
REMARK    3  A    between atoms: C8_8  and  O1_9 
REMARK    4  A    between atoms: O1_9  and  C9_10 
REMARK    5  A    between atoms: C9_10  and  C10_11 
REMARK    6  A    between atoms: C10_11  and  O2_12 
REMARK    7  A    between atoms: O2_12  and  C11_13 
REMARK    8  A    between atoms: C11_13  and  C12_14 
REMARK    9  A    between atoms: C12_14  and  N1_15 
REMARK   10  A    between atoms: N1_15  and  C13_17 
REMARK   11  A    between atoms: C14_20  and  N3_21 
REMARK   12  A    between atoms: C20_30  and  N6_31 
REMARK   13  A    between atoms: N6_31  and  C21_33 
REMARK   14  A    between atoms: C24_36  and  O3_37 
REMARK   15  A    between atoms: O3_37  and  C25_38 
ROOT
HETATM    1  C21 UNL     1       5.503  -1.630  -0.155  1.00  0.00     0.050 A 
HETATM    2  C22 UNL     1       5.144  -2.897   0.262  1.00  0.00     0.033 A 
HETATM    3  C23 UNL     1       5.238  -3.965  -0.603  1.00  0.00     0.040 A 
HETATM    4  C24 UNL     1       5.683  -3.816  -1.887  1.00  0.00     0.089 A 
HETATM    5  C27 UNL     1       6.050  -2.550  -2.328  1.00  0.00     0.080 A 
HETATM    6  C28 UNL     1       6.524  -2.374  -3.678  1.00  0.00     0.102 C 
HETATM    7  N7  UNL     1       6.915  -2.251  -4.767  1.00  0.00    -0.191 NA
HETATM    8  C29 UNL     1       5.951  -1.495  -1.456  1.00  0.00     0.055 A 
ENDROOT
BRANCH   4   9
HETATM    9  O3  UNL     1       5.799  -4.852  -2.798  1.00  0.00    -0.350 OA
BRANCH   9  10
HETATM   10  C25 UNL     1       5.480  -6.189  -2.572  1.00  0.00     0.171 C 
HETATM   11  C26 UNL     1       4.026  -6.412  -2.235  1.00  0.00     0.034 C 
ENDBRANCH   9  10
ENDBRANCH   4   9
BRANCH   1  12
HETATM   12  N6  UNL     1       5.427  -0.523   0.709  1.00  0.00    -0.191 N 
ATOM     13  H6  UNL     1       6.288  -0.162   1.119  1.00  0.00     0.184 HD
BRANCH  12  14
HETATM   14  C20 UNL     1       4.320   0.050   1.002  1.00  0.00     0.711 A 
HETATM   15  N5  UNL     1       4.295   1.126   1.849  1.00  0.00    -0.021 N 
HETATM   16  C14 UNL     1       3.139   1.727   2.166  1.00  0.00     0.709 A 
ATOM     17  H5  UNL     1       5.168   1.475   2.244  1.00  0.00     0.203 HD
HETATM   18  N2  UNL     1       2.008   1.253   1.636  1.00  0.00    -0.021 N 
HETATM   19  C13 UNL     1       1.971   0.212   0.808  1.00  0.00     0.707 A 
ATOM     20  H2  UNL     1       1.130   1.712   1.878  1.00  0.00     0.203 HD
HETATM   21  N8  UNL     1       3.159  -0.387   0.497  1.00  0.00    -0.021 N 
ATOM     22  H8  UNL     1       3.162  -1.187  -0.136  1.00  0.00     0.203 HD
BRANCH  16  23
HETATM   23  N3  UNL     1       3.107   2.828   3.035  1.00  0.00    -0.213 N 
HETATM   24  C15 UNL     1       3.002   2.595   4.470  1.00  0.00     0.171 C 
HETATM   25  C16 UNL     1       4.307   3.025   5.121  1.00  0.00     0.292 C 
HETATM   26  N4  UNL     1       4.948   4.073   4.357  1.00  0.00     0.087 N 
HETATM   27  C17 UNL     1       5.935   4.792   5.091  1.00  0.00     0.310 C 
HETATM   28  C18 UNL     1       4.015   4.926   3.659  1.00  0.00     0.292 C 
HETATM   29  C19 UNL     1       3.178   4.222   2.639  1.00  0.00     0.171 C 
ENDBRANCH  16  23
BRANCH  19  30
HETATM   30  N1  UNL     1       0.905  -0.270   0.290  1.00  0.00    -0.223 N 
ATOM     31  H1  UNL     1       0.961  -1.073  -0.337  1.00  0.00     0.177 HD
BRANCH  30  32
HETATM   32  C12 UNL     1      -0.377   0.320   0.591  1.00  0.00     0.164 C 
BRANCH  32  33
HETATM   33  C11 UNL     1      -0.898   0.966  -0.697  1.00  0.00     0.188 C 
BRANCH  33  34
HETATM   34  O2  UNL     1      -2.120   1.535  -0.445  1.00  0.00    -0.387 OA
BRANCH  34  35
HETATM   35  C10 UNL     1      -2.672   2.172  -1.544  1.00  0.00     0.194 C 
BRANCH  35  36
HETATM   36  C9  UNL     1      -2.910   1.276  -2.721  1.00  0.00     0.201 C 
BRANCH  36  37
HETATM   37  O1  UNL     1      -3.739   0.209  -2.550  1.00  0.00    -0.349 OA
BRANCH  37  38
HETATM   38  C8  UNL     1      -5.061   0.078  -2.234  1.00  0.00     0.074 A 
HETATM   39  C7  UNL     1      -5.878   1.163  -2.027  1.00  0.00     0.039 A 
HETATM   40  C6  UNL     1      -7.224   0.947  -1.708  1.00  0.00     0.023 A 
HETATM   41  C5  UNL     1      -7.776  -0.309  -1.590  1.00  0.00     0.018 A 
HETATM   42  C32 UNL     1      -6.927  -1.372  -1.805  1.00  0.00     0.030 A 
HETATM   43  C30 UNL     1      -5.601  -1.207  -2.120  1.00  0.00    -0.027 A 
HETATM   44  C31 UNL     1      -4.694  -2.360  -2.353  1.00  0.00     0.051 C 
BRANCH  41  45
HETATM   45  C4  UNL     1      -9.168  -0.485  -1.257  1.00  0.00    -0.067 C 
HETATM   46  C3  UNL     1     -10.328  -0.618  -0.963  1.00  0.00    -0.101 C 
BRANCH  46  47
HETATM   47  C2  UNL     1     -11.731  -0.790  -0.585  1.00  0.00     0.090 C 
HETATM   48  C1  UNL     1     -12.666  -0.012  -1.472  1.00  0.00     0.018 C 
ENDBRANCH  46  47
ENDBRANCH  41  45
ENDBRANCH  37  38
ENDBRANCH  36  37
ENDBRANCH  35  36
ENDBRANCH  34  35
ENDBRANCH  33  34
ENDBRANCH  32  33
ENDBRANCH  30  32
ENDBRANCH  19  30
ENDBRANCH  12  14
ENDBRANCH   1  12
TORSDOF 15
