REMARK  12 active torsions:
REMARK  status: ('A' for Active; 'I' for Inactive)
REMARK    1  A    between atoms: N1_2  and  C2_3 
REMARK    2  A    between atoms: N1_2  and  C6_7 
REMARK    3  A    between atoms: C2_3  and  C3_4 
REMARK    4  A    between atoms: C7_10  and  N3_11 
REMARK    5  A    between atoms: C10_14  and  O1_15 
REMARK    6  A    between atoms: O1_15  and  C11_16 
REMARK    7  A    between atoms: C11_16  and  C12_17 
REMARK    8  A    between atoms: C12_17  and  N4_18 
REMARK    9  A    between atoms: C18_26  and  N6_27 
REMARK   10  A    between atoms: C22_31  and  C23_32 
REMARK       I    between atoms: C23_32  and  N7_34 
REMARK   11  A    between atoms: N7_34  and  C24_35 
REMARK   12  A    between atoms: C27_38  and  N8_39 
ROOT
HETATM    1  C6  UNL     1      -0.020   3.031   0.347  1.00  0.00     0.709 A 
HETATM    2  N2  UNL     1       1.207   2.661  -0.028  1.00  0.00    -0.021 N 
ATOM      3  H2  UNL     1       1.888   3.380  -0.271  1.00  0.00     0.203 HD
HETATM    4  C7  UNL     1       1.574   1.359  -0.095  1.00  0.00     0.709 A 
HETATM    5  N5  UNL     1       0.623   0.446   0.243  1.00  0.00    -0.021 N 
ATOM      6  H5  UNL     1       0.880  -0.540   0.199  1.00  0.00     0.203 HD
HETATM    7  C18 UNL     1      -0.619   0.741   0.627  1.00  0.00     0.710 A 
HETATM    8  N9  UNL     1      -0.911   2.077   0.668  1.00  0.00    -0.021 N 
ATOM      9  H9  UNL     1      -1.847   2.362   0.955  1.00  0.00     0.203 HD
ENDROOT
BRANCH   7  10
HETATM   10  N6  UNL     1      -1.582  -0.220   0.989  1.00  0.00    -0.206 N 
HETATM   11  C19 UNL     1      -1.406  -1.648   1.038  1.00  0.00     0.102 C 
HETATM   12  C20 UNL     1      -2.292  -2.339   0.009  1.00  0.00     0.027 C 
HETATM   13  C31 UNL     1      -1.983  -1.933   2.427  1.00  0.00     0.028 C 
HETATM   14  C21 UNL     1      -3.720  -2.037   0.364  1.00  0.00     0.019 C 
HETATM   15  C22 UNL     1      -3.927  -0.557   0.408  1.00  0.00     0.116 C 
HETATM   16  C29 UNL     1      -2.932   0.015   1.399  1.00  0.00     0.116 C 
HETATM   17  C30 UNL     1      -2.962  -0.828   2.688  1.00  0.00     0.029 C 
BRANCH  15  18
HETATM   18  C23 UNL     1      -5.338  -0.255   0.911  1.00  0.00     0.293 C 
HETATM   19  O2  UNL     1      -5.402   0.637   1.789  1.00  0.00    -0.257 OA
HETATM   20  N7  UNL     1      -6.341  -1.013   0.326  1.00  0.00    -0.409 NA
BRANCH  20  21
HETATM   21  C24 UNL     1      -7.289  -1.729  -0.226  1.00  0.00     0.168 C 
HETATM   22  C25 UNL     1      -8.431  -2.302   0.674  1.00  0.00     0.041 C 
HETATM   23  C26 UNL     1      -9.164  -3.107  -0.408  1.00  0.00     0.036 C 
HETATM   24  C27 UNL     1      -9.203  -2.152  -1.570  1.00  0.00     0.186 C 
HETATM   25  C28 UNL     1      -8.201  -1.056  -1.261  1.00  0.00     0.072 C 
BRANCH  24  26
HETATM   26  N8  UNL     1      -8.903  -2.790  -2.815  1.00  0.00    -0.075 N 
ATOM     27  H83 UNL     1      -8.008  -3.278  -2.771  1.00  0.00     0.274 HD
ATOM     28  H82 UNL     1      -9.517  -3.588  -2.975  1.00  0.00     0.274 HD
ATOM     29  H81 UNL     1      -8.929  -2.143  -3.603  1.00  0.00     0.274 HD
ENDBRANCH  24  26
ENDBRANCH  20  21
ENDBRANCH  15  18
ENDBRANCH   7  10
BRANCH   4  30
HETATM   30  N3  UNL     1       2.874   0.956  -0.468  1.00  0.00    -0.214 N 
HETATM   31  C8  UNL     1       4.110   1.695  -0.514  1.00  0.00     0.144 C 
HETATM   32  C9  UNL     1       5.111   0.695   0.082  1.00  0.00     0.054 C 
HETATM   33  C10 UNL     1       4.532  -0.669  -0.138  1.00  0.00     0.142 C 
HETATM   34  C17 UNL     1       3.248  -0.392  -0.919  1.00  0.00     0.173 C 
BRANCH  33  35
HETATM   35  O1  UNL     1       5.408  -1.451  -0.852  1.00  0.00    -0.379 OA
BRANCH  35  36
HETATM   36  C11 UNL     1       5.633  -2.682  -0.233  1.00  0.00     0.212 C 
BRANCH  36  37
HETATM   37  C12 UNL     1       6.610  -3.465  -1.086  1.00  0.00     0.089 C 
BRANCH  37  38
HETATM   38  N4  UNL     1       7.863  -2.900  -1.258  1.00  0.00    -0.372 N 
HETATM   39  C13 UNL     1       8.762  -2.788  -0.172  1.00  0.00     0.127 C 
HETATM   40  C14 UNL     1      10.041  -2.191  -0.779  1.00  0.00     0.025 C 
HETATM   41  C15 UNL     1       9.713  -1.966  -2.223  1.00  0.00     0.046 C 
HETATM   42  C16 UNL     1       8.201  -2.082  -2.333  1.00  0.00     0.063 C 
ENDBRANCH  37  38
ENDBRANCH  36  37
ENDBRANCH  35  36
ENDBRANCH  33  35
ENDBRANCH   4  30
BRANCH   1  43
HETATM   43  N1  UNL     1      -0.414   4.392   0.407  1.00  0.00    -0.221 N 
HETATM   44  C1  UNL     1      -1.764   4.756   0.882  1.00  0.00     0.168 C 
BRANCH  43  45
HETATM   45  C2  UNL     1       0.424   5.491   0.020  1.00  0.00     0.145 C 
BRANCH  45  46
HETATM   46  C3  UNL     1       0.839   6.360   1.193  1.00  0.00     0.004 A 
HETATM   47  C4  UNL     1       1.724   7.525   0.762  1.00  0.00     0.007 A 
HETATM   48  C5  UNL     1       0.350   7.736   1.329  1.00  0.00     0.007 A 
ENDBRANCH  45  46
ENDBRANCH  43  45
ENDBRANCH   1  43
TORSDOF 12
