REMARK  13 active torsions:
REMARK  status: ('A' for Active; 'I' for Inactive)
REMARK    1  A    between atoms: O1_2  and  C2_3 
REMARK    2  A    between atoms: C2_3  and  C3_5 
REMARK    3  A    between atoms: C3_5  and  C4_6 
REMARK    4  A    between atoms: C4_6  and  C5_7 
REMARK    5  A    between atoms: C5_7  and  N1_8 
REMARK    6  A    between atoms: C5_7  and  C14_20 
REMARK       I    between atoms: N1_8  and  C6_10 
REMARK    7  A    between atoms: C6_10  and  C7_12 
REMARK    8  A    between atoms: C7_12  and  O4_13 
REMARK    9  A    between atoms: C14_20  and  O6_22 
REMARK   10  A    between atoms: O6_22  and  C15_23 
REMARK   11  A    between atoms: C18_26  and  N2_27 
REMARK       I    between atoms: N2_27  and  C19_28 
REMARK   12  A    between atoms: C19_28  and  C20_30 
REMARK   13  A    between atoms: C20_30  and  N3_31 
ROOT
HETATM    1  C14 UNL     1      -1.620  -0.544  -1.288  1.00  0.00     0.306 C 
HETATM    2  O5  UNL     1      -1.476  -1.223  -2.141  1.00  0.00    -0.258 OA
ENDROOT
BRANCH   1   3
HETATM    3  C5  UNL     1      -2.680   0.012  -0.379  1.00  0.00     0.088 C 
BRANCH   3   4
HETATM    4  C4  UNL     1      -2.914   1.492  -0.588  1.00  0.00     0.073 C 
BRANCH   4   5
HETATM    5  C3  UNL     1      -3.569   2.103   0.566  1.00  0.00     0.117 C 
BRANCH   5   6
HETATM    6  C2  UNL     1      -3.387   1.432   1.884  1.00  0.00     0.258 C 
HETATM    7  O2  UNL     1      -2.613   0.972   2.571  1.00  0.00    -0.265 OA
BRANCH   6   8
HETATM    8  O1  UNL     1      -4.790   1.384   2.462  1.00  0.00    -0.326 OA
HETATM    9  C1  UNL     1      -5.032   0.802   3.678  1.00  0.00     0.213 C 
ENDBRANCH   6   8
ENDBRANCH   5   6
ENDBRANCH   4   5
ENDBRANCH   3   4
BRANCH   3  10
HETATM   10  N1  UNL     1      -3.739  -0.843  -0.078  1.00  0.00    -0.323 N 
HETATM   11  C6  UNL     1      -5.079  -0.459  -0.552  1.00  0.00     0.257 C 
HETATM   12  O3  UNL     1      -5.286   0.418  -1.309  1.00  0.00    -0.270 OA
ATOM     13  H1  UNL     1      -3.591  -1.703   0.451  1.00  0.00     0.169 HD
BRANCH  11  14
HETATM   14  C7  UNL     1      -6.259  -1.236  -0.011  1.00  0.00     0.141 C 
HETATM   15  C9  UNL     1      -7.450  -0.364  -0.100  1.00  0.00     0.048 C 
HETATM   16  C10 UNL     1      -7.875  -0.146  -1.526  1.00  0.00     0.004 C 
HETATM   17  C11 UNL     1      -7.843  -1.296  -2.434  1.00  0.00     0.000 C 
HETATM   18  C12 UNL     1      -6.466  -2.016  -2.334  1.00  0.00     0.004 C 
HETATM   19  C13 UNL     1      -6.415  -2.463  -0.892  1.00  0.00     0.048 C 
BRANCH  14  20
HETATM   20  O4  UNL     1      -5.958  -1.608   1.245  1.00  0.00    -0.375 OA
HETATM   21  C8  UNL     1      -6.811  -2.308   2.003  1.00  0.00     0.203 C 
ENDBRANCH  14  20
ENDBRANCH  11  14
ENDBRANCH   3  10
ENDBRANCH   1   3
BRANCH   1  22
HETATM   22  O6  UNL     1      -0.398   0.089  -0.784  1.00  0.00    -0.310 OA
BRANCH  22  23
HETATM   23  C15 UNL     1       0.905   0.105  -1.042  1.00  0.00     0.141 C 
HETATM   24  C16 UNL     1       1.501  -1.237  -0.331  1.00  0.00     0.036 C 
HETATM   25  C17 UNL     1       2.855  -1.349  -0.879  1.00  0.00     0.042 C 
HETATM   26  C18 UNL     1       3.779  -0.206  -0.422  1.00  0.00     0.167 C 
HETATM   27  C25 UNL     1       3.091   1.116  -0.588  1.00  0.00     0.051 C 
HETATM   28  C26 UNL     1       1.630   1.192  -0.283  1.00  0.00    -0.011 C 
HETATM   29  C27 UNL     1       1.157   2.569  -0.568  1.00  0.00     0.012 C 
HETATM   30  C30 UNL     1       1.511   1.020   1.225  1.00  0.00     0.012 C 
HETATM   31  C28 UNL     1       1.475   3.398   0.658  1.00  0.00     0.001 C 
HETATM   32  C29 UNL     1       1.440   2.416   1.790  1.00  0.00     0.001 C 
BRANCH  26  33
HETATM   33  N2  UNL     1       4.962  -0.245  -0.976  1.00  0.00    -0.408 NA
HETATM   34  C19 UNL     1       6.212  -0.292  -1.572  1.00  0.00     0.315 C 
HETATM   35  O7  UNL     1       6.693  -0.615  -2.571  1.00  0.00    -0.256 OA
BRANCH  34  36
HETATM   36  C20 UNL     1       7.258   0.247  -0.477  1.00  0.00     0.390 C 
BRANCH  36  37
HETATM   37  N3  UNL     1       8.580   0.123  -0.925  1.00  0.00     0.102 N 
HETATM   38  C21 UNL     1       9.021  -1.259  -1.014  1.00  0.00     0.299 C 
HETATM   39  C22 UNL     1       9.420  -1.802   0.364  1.00  0.00     0.198 C 
HETATM   40  O8  UNL     1      10.311  -0.982   0.989  1.00  0.00    -0.388 OA
HETATM   41  C23 UNL     1       9.727   0.256   1.225  1.00  0.00     0.198 C 
HETATM   42  C24 UNL     1       9.501   0.895  -0.168  1.00  0.00     0.299 C 
ENDBRANCH  36  37
ENDBRANCH  34  36
ENDBRANCH  26  33
ENDBRANCH  22  23
ENDBRANCH   1  22
TORSDOF 13
