REMARK  14 active torsions:
REMARK  status: ('A' for Active; 'I' for Inactive)
REMARK    1  A    between atoms: C2_2  and  C3_3 
REMARK    2  A    between atoms: C5_5  and  O1_6 
REMARK    3  A    between atoms: C6_8  and  O2_9 
REMARK    4  A    between atoms: O2_9  and  C7_10 
REMARK    5  A    between atoms: C7_10  and  C8_11 
REMARK    6  A    between atoms: C8_11  and  O4_13 
REMARK    7  A    between atoms: O4_13  and  C9_14 
REMARK    8  A    between atoms: C9_14  and  C10_15 
REMARK    9  A    between atoms: C10_15  and  O5_16 
REMARK   10  A    between atoms: C25_34  and  C26_35 
REMARK   11  A    between atoms: C26_35  and  O8_36 
REMARK   12  A    between atoms: O8_36  and  C27_37 
REMARK   13  A    between atoms: C27_37  and  C28_38 
REMARK   14  A    between atoms: C28_38  and  N1_39 
ROOT
HETATM    1  C3  UNL     1       0.966  -1.494   1.373  1.00  0.00     0.029 C 
HETATM    2  C4  UNL     1       0.026  -2.686   1.163  1.00  0.00     0.025 C 
HETATM    3  C5  UNL     1       2.017  -1.647   0.283  1.00  0.00     0.169 C 
HETATM    4  C6  UNL     1       2.813  -0.436   0.004  1.00  0.00     0.222 C 
HETATM    5  C11 UNL     1       2.054   0.843   0.233  1.00  0.00     0.169 C 
HETATM    6  O6  UNL     1       2.489   1.794  -0.401  1.00  0.00    -0.294 OA
HETATM    7  C12 UNL     1       0.900   1.018   1.112  1.00  0.00     0.051 C 
HETATM    8  C13 UNL     1       1.508   1.232   2.518  1.00  0.00     0.027 C 
HETATM    9  C14 UNL     1       0.071   2.214   0.878  1.00  0.00     0.008 C 
HETATM   10  C15 UNL     1       0.851   3.472   0.576  1.00  0.00     0.007 C 
HETATM   11  C16 UNL     1      -0.089   4.614   1.009  1.00  0.00     0.018 C 
HETATM   12  C17 UNL     1      -1.148   4.643  -0.055  1.00  0.00     0.021 C 
HETATM   13  C18 UNL     1      -0.531   5.411  -1.235  1.00  0.00     0.024 C 
HETATM   14  C19 UNL     1      -2.246   5.523   0.435  1.00  0.00     0.135 C 
HETATM   15  O7  UNL     1      -2.243   6.467   1.178  1.00  0.00    -0.297 OA
HETATM   16  C20 UNL     1      -3.472   4.966  -0.229  1.00  0.00     0.079 C 
HETATM   17  C21 UNL     1      -3.177   3.485  -0.060  1.00  0.00     0.013 C 
HETATM   18  C22 UNL     1      -1.706   3.359  -0.488  1.00  0.00     0.006 C 
HETATM   19  C23 UNL     1      -1.071   2.089  -0.088  1.00  0.00    -0.002 C 
HETATM   20  C24 UNL     1      -2.042   1.122   0.585  1.00  0.00     0.039 C 
HETATM   21  C25 UNL     1      -1.859  -0.282   0.048  1.00  0.00     0.146 C 
HETATM   22  O9  UNL     1      -0.527  -0.536  -0.034  1.00  0.00    -0.376 OA
HETATM   23  C31 UNL     1       0.109  -0.263   1.172  1.00  0.00     0.152 C 
ENDROOT
BRANCH   4  24
HETATM   24  O2  UNL     1       4.010  -0.395   0.707  1.00  0.00    -0.366 OA
BRANCH  24  25
HETATM   25  C7  UNL     1       5.147  -0.205   0.022  1.00  0.00     0.279 C 
BRANCH  25  26
HETATM   26  C8  UNL     1       5.410  -1.255  -0.975  1.00  0.00     0.282 C 
HETATM   27  O3  UNL     1       4.720  -2.238  -1.244  1.00  0.00    -0.263 OA
BRANCH  26  28
HETATM   28  O4  UNL     1       6.613  -1.083  -1.697  1.00  0.00    -0.318 OA
BRANCH  28  29
HETATM   29  C9  UNL     1       7.105  -1.914  -2.682  1.00  0.00     0.204 C 
BRANCH  29  30
HETATM   30  C10 UNL     1       7.377  -3.289  -2.125  1.00  0.00     0.191 C 
BRANCH  30  31
HETATM   31  O5  UNL     1       7.877  -4.124  -3.139  1.00  0.00    -0.399 OA
ATOM     32  H5  UNL     1       8.048  -4.990  -2.788  1.00  0.00     0.209 HD
ENDBRANCH  30  31
ENDBRANCH  29  30
ENDBRANCH  28  29
ENDBRANCH  26  28
ENDBRANCH  25  26
ENDBRANCH  24  25
ENDBRANCH   4  24
BRANCH   3  33
HETATM   33  O1  UNL     1       1.379  -2.042  -0.896  1.00  0.00    -0.391 OA
ATOM     34  H1  UNL     1       2.035  -2.138  -1.576  1.00  0.00     0.210 HD
ENDBRANCH   3  33
BRANCH   1  35
HETATM   35  C2  UNL     1       1.523  -1.676   2.713  1.00  0.00    -0.022 C 
HETATM   36  C1  UNL     1       0.816  -2.192   3.689  1.00  0.00     0.008 C 
ENDBRANCH   1  35
BRANCH  21  37
HETATM   37  C26 UNL     1      -2.554  -0.325  -1.309  1.00  0.00     0.199 C 
BRANCH  37  38
HETATM   38  O8  UNL     1      -2.497  -1.537  -1.932  1.00  0.00    -0.387 OA
BRANCH  38  39
HETATM   39  C27 UNL     1      -3.123  -2.581  -1.266  1.00  0.00     0.198 C 
BRANCH  39  40
HETATM   40  C28 UNL     1      -4.612  -2.297  -1.076  1.00  0.00     0.297 C 
BRANCH  40  41
HETATM   41  N1  UNL     1      -5.148  -3.470  -0.369  1.00  0.00     0.082 N 
HETATM   42  C29 UNL     1      -6.569  -3.311  -0.127  1.00  0.00     0.309 C 
HETATM   43  C30 UNL     1      -4.869  -4.669  -1.137  1.00  0.00     0.309 C 
ENDBRANCH  40  41
ENDBRANCH  39  40
ENDBRANCH  38  39
ENDBRANCH  37  38
ENDBRANCH  21  37
TORSDOF 14
