REMARK  12 active torsions:
REMARK  status: ('A' for Active; 'I' for Inactive)
REMARK    1  A    between atoms: C2_2  and  C3_3 
REMARK    2  A    between atoms: C5_7  and  N2_8 
REMARK    3  A    between atoms: N3_11  and  C6_12 
REMARK    4  A    between atoms: C6_12  and  C7_13 
REMARK    5  A    between atoms: C7_13  and  C8_14 
REMARK       I    between atoms: C8_14  and  N4_16 
REMARK    6  A    between atoms: N5_19  and  C11_20 
REMARK    7  A    between atoms: C11_20  and  C12_21 
REMARK    8  A    between atoms: N6_28  and  C16_29 
REMARK    9  A    between atoms: C16_29  and  C17_30 
REMARK   10  A    between atoms: C27_42  and  N8_43 
REMARK   11  A    between atoms: N8_43  and  C28_44 
REMARK   12  A    between atoms: N8_43  and  C30_46 
ROOT
HETATM    1  C3  UNL     1      -2.797   3.165   0.007  1.00  0.00     0.054 A 
HETATM    2  N1  UNL     1      -1.624   2.934   0.689  1.00  0.00    -0.350 N 
ATOM      3  H1  UNL     1      -1.135   3.717   1.122  1.00  0.00     0.166 HD
HETATM    4  C4  UNL     1      -1.115   1.707   0.795  1.00  0.00     0.122 A 
HETATM    5  C5  UNL     1       0.076   1.535   1.449  1.00  0.00     0.136 A 
HETATM    6  N3  UNL     1       0.568   0.295   1.495  1.00  0.00    -0.283 N 
HETATM    7  C15 UNL     1      -0.095  -0.743   0.918  1.00  0.00     0.336 A 
HETATM    8  O4  UNL     1       0.462  -1.844   1.032  1.00  0.00    -0.246 OA
HETATM    9  N6  UNL     1      -1.254  -0.644   0.270  1.00  0.00    -0.257 N 
HETATM   10  C26 UNL     1      -1.772   0.629   0.212  1.00  0.00     0.148 A 
HETATM   11  N7  UNL     1      -2.877   0.887  -0.426  1.00  0.00    -0.325 N 
ATOM     12  H7  UNL     1      -3.356   0.095  -0.855  1.00  0.00     0.169 HD
HETATM   13  C27 UNL     1      -3.466   2.132  -0.580  1.00  0.00     0.128 A 
ENDROOT
BRANCH   6  14
HETATM   14  C6  UNL     1       1.828   0.094   2.178  1.00  0.00     0.145 C 
BRANCH  14  15
HETATM   15  C7  UNL     1       2.911   0.286   1.132  1.00  0.00     0.123 C 
BRANCH  15  16
HETATM   16  C8  UNL     1       4.271   0.103   1.741  1.00  0.00     0.221 C 
HETATM   17  O1  UNL     1       4.423  -0.182   2.949  1.00  0.00    -0.273 OA
HETATM   18  N4  UNL     1       5.422   0.257   0.933  1.00  0.00    -0.349 N 
HETATM   19  C9  UNL     1       5.274   0.581  -0.467  1.00  0.00     0.156 C 
HETATM   20  C14 UNL     1       6.745   0.097   1.474  1.00  0.00     0.156 C 
HETATM   21  C10 UNL     1       6.431  -0.110  -1.177  1.00  0.00     0.293 C 
HETATM   22  N5  UNL     1       7.646   0.544  -0.789  1.00  0.00     0.101 N 
HETATM   23  C13 UNL     1       7.779   0.810   0.606  1.00  0.00     0.293 C 
BRANCH  22  24
HETATM   24  C11 UNL     1       8.830  -0.138  -1.260  1.00  0.00     0.385 C 
BRANCH  24  25
HETATM   25  C12 UNL     1       9.028  -0.089  -2.712  1.00  0.00     0.202 C 
HETATM   26  O2  UNL     1       8.288   0.524  -3.501  1.00  0.00    -0.647 OA
HETATM   27  O3  UNL     1      10.122  -0.777  -3.251  1.00  0.00    -0.647 OA
ENDBRANCH  24  25
ENDBRANCH  22  24
ENDBRANCH  15  16
ENDBRANCH  14  15
ENDBRANCH   6  14
BRANCH   5  28
HETATM   28  N2  UNL     1       0.658   2.551   1.978  1.00  0.00    -0.383 N 
ATOM     29  H22 UNL     1       0.282   3.499   1.943  1.00  0.00     0.157 HD
ATOM     30  H21 UNL     1       1.545   2.423   2.465  1.00  0.00     0.157 HD
ENDBRANCH   5  28
BRANCH   9  31
HETATM   31  C16 UNL     1      -1.862  -1.682  -0.441  1.00  0.00     0.116 C 
BRANCH  31  32
HETATM   32  C17 UNL     1      -2.384  -2.888   0.186  1.00  0.00    -0.008 A 
HETATM   33  C18 UNL     1      -3.373  -2.928   1.119  1.00  0.00    -0.049 A 
HETATM   34  C19 UNL     1      -4.020  -1.700   1.682  1.00  0.00     0.049 C 
HETATM   35  C20 UNL     1      -3.828  -4.162   1.605  1.00  0.00     0.014 A 
HETATM   36  C21 UNL     1      -3.313  -5.359   1.178  1.00  0.00    -0.061 A 
HETATM   37  C22 UNL     1      -3.830  -6.615   1.725  1.00  0.00     0.048 C 
HETATM   38  C23 UNL     1      -2.321  -5.289   0.239  1.00  0.00     0.014 A 
HETATM   39  C24 UNL     1      -1.841  -4.115  -0.269  1.00  0.00    -0.049 A 
HETATM   40  C25 UNL     1      -0.793  -4.140  -1.354  1.00  0.00     0.049 C 
ENDBRANCH  31  32
ENDBRANCH   9  31
BRANCH   1  41
HETATM   41  C2  UNL     1      -3.285   4.573   0.010  1.00  0.00     0.056 C 
HETATM   42  C1  UNL     1      -4.224   4.890   1.130  1.00  0.00     0.011 C 
ENDBRANCH   1  41
BRANCH  13  43
HETATM   43  N8  UNL     1      -4.642   2.175  -1.337  1.00  0.00    -0.366 N 
BRANCH  43  44
HETATM   44  C28 UNL     1      -5.950   2.413  -0.848  1.00  0.00     0.120 C 
HETATM   45  C29 UNL     1      -6.551   3.649  -1.492  1.00  0.00     0.026 C 
ENDBRANCH  43  44
BRANCH  43  46
HETATM   46  C30 UNL     1      -4.555   1.865  -2.777  1.00  0.00     0.120 C 
HETATM   47  C31 UNL     1      -3.163   1.672  -3.261  1.00  0.00     0.026 C 
ENDBRANCH  43  46
ENDBRANCH  13  43
TORSDOF 12
