REMARK  12 active torsions:
REMARK  status: ('A' for Active; 'I' for Inactive)
REMARK    1  A    between atoms: O1_2  and  C2_3 
REMARK    2  A    between atoms: C5_8  and  N2_9 
REMARK    3  A    between atoms: N2_9  and  C6_11 
REMARK    4  A    between atoms: C6_11  and  C7_12 
REMARK    5  A    between atoms: N3_13  and  C9_15 
REMARK    6  A    between atoms: C9_15  and  C10_16 
REMARK    7  A    between atoms: C10_16  and  C11_17 
REMARK    8  A    between atoms: C11_17  and  N4_18 
REMARK    9  A    between atoms: C14_21  and  C15_22 
REMARK   10  A    between atoms: C21_34  and  N8_35 
REMARK   11  A    between atoms: N8_35  and  C22_36 
REMARK   12  A    between atoms: C30_45  and  O2_46 
ROOT
HETATM    1  C2  UNL     1      -6.045  -3.180  -1.108  1.00  0.00     0.103 A 
HETATM    2  C3  UNL     1      -4.690  -3.016  -1.181  1.00  0.00     0.070 A 
HETATM    3  C4  UNL     1      -4.074  -1.927  -0.551  1.00  0.00     0.067 A 
HETATM    4  N1  UNL     1      -2.722  -1.751  -0.577  1.00  0.00    -0.191 N 
ATOM      5  H1  UNL     1      -2.135  -2.416  -1.080  1.00  0.00     0.184 HD
HETATM    6  C5  UNL     1      -2.147  -0.691   0.065  1.00  0.00     0.685 A 
HETATM    7  N7  UNL     1      -2.892   0.184   0.722  1.00  0.00    -0.163 N 
ATOM      8  H7  UNL     1      -2.429   0.962   1.192  1.00  0.00     0.187 HD
HETATM    9  C21 UNL     1      -4.251   0.093   0.800  1.00  0.00     0.205 A 
HETATM   10  C28 UNL     1      -4.826  -1.013   0.140  1.00  0.00     0.053 A 
HETATM   11  C29 UNL     1      -6.210  -1.144   0.240  1.00  0.00     0.058 A 
HETATM   12  C30 UNL     1      -6.780  -2.203  -0.372  1.00  0.00     0.102 A 
ENDROOT
BRANCH   6  13
HETATM   13  N2  UNL     1      -0.848  -0.526  -0.022  1.00  0.00    -0.200 N 
ATOM     14  H2  UNL     1      -0.491   0.284   0.485  1.00  0.00     0.183 HD
BRANCH  13  15
HETATM   15  C6  UNL     1       0.120  -1.258  -0.680  1.00  0.00     0.123 C 
BRANCH  15  16
HETATM   16  C7  UNL     1       1.285  -0.454  -1.244  1.00  0.00     0.102 C 
HETATM   17  N3  UNL     1       2.072   0.240  -0.379  1.00  0.00    -0.393 N 
HETATM   18  C8  UNL     1       1.579   1.360   0.298  1.00  0.00     0.148 C 
BRANCH  17  19
HETATM   19  C9  UNL     1       3.477   0.118  -0.317  1.00  0.00     0.123 C 
BRANCH  19  20
HETATM   20  C10 UNL     1       3.991  -1.160   0.209  1.00  0.00     0.050 C 
BRANCH  20  21
HETATM   21  C11 UNL     1       5.423  -1.367   0.443  1.00  0.00     0.274 C 
BRANCH  21  22
HETATM   22  N4  UNL     1       6.370  -1.272  -0.614  1.00  0.00     0.088 N 
HETATM   23  C12 UNL     1       7.554  -2.073  -0.296  1.00  0.00     0.273 C 
HETATM   24  C13 UNL     1       8.725  -1.363   0.258  1.00  0.00     0.042 C 
HETATM   25  C14 UNL     1       9.081  -0.246  -0.757  1.00  0.00     0.057 C 
HETATM   26  C19 UNL     1       7.929   0.703  -0.645  1.00  0.00     0.042 C 
HETATM   27  C20 UNL     1       6.679  -0.009  -1.144  1.00  0.00     0.273 C 
BRANCH  25  28
HETATM   28  C15 UNL     1      10.369   0.367  -0.485  1.00  0.00     0.085 A 
HETATM   29  N5  UNL     1      11.544  -0.280  -0.816  1.00  0.00    -0.355 N 
HETATM   30  C16 UNL     1      12.704   0.369  -0.592  1.00  0.00     0.090 A 
ATOM     31  H5  UNL     1      11.534  -1.218  -1.217  1.00  0.00     0.166 HD
HETATM   32  C17 UNL     1      12.812   1.600  -0.072  1.00  0.00     0.034 A 
HETATM   33  C18 UNL     1      11.601   2.275   0.274  1.00  0.00     0.090 A 
HETATM   34  N6  UNL     1      10.479   1.585   0.030  1.00  0.00    -0.355 N 
ATOM     35  H6  UNL     1       9.604   2.052   0.269  1.00  0.00     0.166 HD
ENDBRANCH  25  28
ENDBRANCH  21  22
ENDBRANCH  20  21
ENDBRANCH  19  20
ENDBRANCH  17  19
ENDBRANCH  15  16
ENDBRANCH  13  15
ENDBRANCH   6  13
BRANCH   9  36
HETATM   36  N8  UNL     1      -5.003   0.951   1.214  1.00  0.00    -0.394 NA
BRANCH  36  37
HETATM   37  C22 UNL     1      -5.796   1.901   1.669  1.00  0.00     0.071 C 
HETATM   38  C23 UNL     1      -6.492   1.771   3.028  1.00  0.00     0.088 C 
HETATM   39  C24 UNL     1      -7.868   2.420   2.777  1.00  0.00     0.128 C 
HETATM   40  N9  UNL     1      -7.676   3.767   2.389  1.00  0.00    -0.397 N 
HETATM   41  C25 UNL     1      -8.643   4.208   1.396  1.00  0.00     0.148 C 
HETATM   42  C26 UNL     1      -6.377   4.273   2.178  1.00  0.00     0.064 C 
HETATM   43  C27 UNL     1      -5.385   3.382   1.506  1.00  0.00     0.112 C 
ENDBRANCH  36  37
ENDBRANCH   9  36
BRANCH   1  44
HETATM   44  O1  UNL     1      -6.793  -4.160  -1.647  1.00  0.00    -0.353 OA
HETATM   45  C1  UNL     1      -6.512  -5.236  -2.422  1.00  0.00     0.210 C 
ENDBRANCH   1  44
BRANCH  12  46
HETATM   46  O2  UNL     1      -8.131  -2.394  -0.284  1.00  0.00    -0.353 OA
HETATM   47  C31 UNL     1      -9.037  -1.627   0.428  1.00  0.00     0.210 C 
ENDBRANCH  12  46
TORSDOF 12
