REMARK  16 active torsions:
REMARK  status: ('A' for Active; 'I' for Inactive)
REMARK    1  A    between atoms: C2_2  and  C3_3 
REMARK    2  A    between atoms: C4_4  and  O1_5 
REMARK    3  A    between atoms: N1_7  and  C6_8 
REMARK    4  A    between atoms: C6_8  and  C7_9 
REMARK    5  A    between atoms: C7_9  and  C8_10 
REMARK    6  A    between atoms: C8_10  and  C9_11 
REMARK    7  A    between atoms: C9_11  and  N2_12 
REMARK    8  A    between atoms: N3_18  and  C11_19 
REMARK    9  A    between atoms: N4_22  and  C14_23 
REMARK   10  A    between atoms: C14_23  and  C15_24 
REMARK   11  A    between atoms: C14_23  and  C17_28 
REMARK   12  A    between atoms: C15_24  and  O4_26 
REMARK   13  A    between atoms: C19_31  and  C20_32 
REMARK   14  A    between atoms: C20_32  and  N6_33 
REMARK       I    between atoms: N6_33  and  C21_35 
REMARK   15  A    between atoms: C21_35  and  O6_37 
REMARK   16  A    between atoms: O6_37  and  C22_38 
ROOT
HETATM    1  C17 UNL     1       3.204   0.885   1.151  1.00  0.00     0.052 C 
HETATM    2  C18 UNL     1       2.721   2.272   1.494  1.00  0.00     0.097 C 
HETATM    3  N5  UNL     1       2.342   3.335   1.738  1.00  0.00    -0.192 NA
HETATM    4  C19 UNL     1       4.181   0.518   1.877  1.00  0.00     0.013 C 
ENDROOT
BRANCH   1   5
HETATM    5  C14 UNL     1       2.438   0.237   0.049  1.00  0.00     0.227 C 
BRANCH   5   6
HETATM    6  N4  UNL     1       1.016   0.273   0.389  1.00  0.00    -0.375 N 
HETATM    7  C13 UNL     1       0.271  -0.053  -0.769  1.00  0.00     0.125 C 
HETATM    8  C12 UNL     1      -1.211   0.232  -0.453  1.00  0.00     0.045 C 
HETATM    9  C11 UNL     1      -1.571  -0.754   0.619  1.00  0.00     0.095 C 
HETATM   10  C27 UNL     1      -0.834  -0.328   1.865  1.00  0.00     0.069 C 
HETATM   11  C26 UNL     1       0.653  -0.261   1.628  1.00  0.00     0.061 C 
BRANCH   9  12
HETATM   12  N3  UNL     1      -2.934  -1.069   0.775  1.00  0.00    -0.324 N 
HETATM   13  C10 UNL     1      -3.884  -0.028   1.109  1.00  0.00     0.323 C 
HETATM   14  N1  UNL     1      -5.220  -0.183   0.640  1.00  0.00    -0.307 N 
HETATM   15  O2  UNL     1      -3.538   0.968   1.787  1.00  0.00    -0.247 OA
HETATM   16  C4  UNL     1      -5.398  -1.118  -0.465  1.00  0.00     0.232 C 
HETATM   17  C3  UNL     1      -4.719  -2.438  -0.277  1.00  0.00     0.057 C 
HETATM   18  C28 UNL     1      -3.526  -2.384   0.648  1.00  0.00     0.093 C 
HETATM   19  C29 UNL     1      -2.516  -3.461   0.350  1.00  0.00     0.033 C 
BRANCH  14  20
HETATM   20  C6  UNL     1      -6.296   0.548   1.218  1.00  0.00     0.130 C 
BRANCH  20  21
HETATM   21  C7  UNL     1      -6.735   1.810   0.612  1.00  0.00     0.022 C 
BRANCH  21  22
HETATM   22  C8  UNL     1      -5.690   2.868   0.552  1.00  0.00     0.029 C 
BRANCH  22  23
HETATM   23  C9  UNL     1      -6.238   4.144  -0.104  1.00  0.00     0.229 C 
BRANCH  23  24
HETATM   24  N2  UNL     1      -5.171   5.128  -0.130  1.00  0.00    -0.079 N 
ATOM     25  H23 UNL     1      -4.769   5.299   0.792  1.00  0.00     0.274 HD
ATOM     26  H22 UNL     1      -4.326   4.782  -0.585  1.00  0.00     0.274 HD
ATOM     27  H21 UNL     1      -5.535   5.975  -0.566  1.00  0.00     0.274 HD
ENDBRANCH  23  24
ENDBRANCH  22  23
ENDBRANCH  21  22
ENDBRANCH  20  21
ENDBRANCH  14  20
BRANCH  16  28
HETATM   28  O1  UNL     1      -5.127  -0.597  -1.688  1.00  0.00    -0.371 OA
HETATM   29  C5  UNL     1      -6.203  -0.408  -2.523  1.00  0.00     0.204 C 
ENDBRANCH  16  28
BRANCH  17  30
HETATM   30  C2  UNL     1      -4.448  -3.114  -1.564  1.00  0.00     0.006 C 
HETATM   31  C1  UNL     1      -3.585  -2.509  -2.570  1.00  0.00     0.006 C 
ENDBRANCH  17  30
ENDBRANCH   9  12
ENDBRANCH   5   6
BRANCH   5  32
HETATM   32  C15 UNL     1       2.864  -1.086  -0.374  1.00  0.00     0.286 C 
HETATM   33  O3  UNL     1       3.791  -1.206  -1.219  1.00  0.00    -0.263 OA
BRANCH  32  34
HETATM   34  O4  UNL     1       2.320  -2.280   0.088  1.00  0.00    -0.325 OA
HETATM   35  C16 UNL     1       2.836  -3.492  -0.414  1.00  0.00     0.213 C 
ENDBRANCH  32  34
ENDBRANCH   5  32
ENDBRANCH   1   5
BRANCH   4  36
HETATM   36  C20 UNL     1       5.008  -0.680   1.980  1.00  0.00     0.153 C 
BRANCH  36  37
HETATM   37  N6  UNL     1       6.394  -0.307   1.852  1.00  0.00    -0.333 N 
HETATM   38  C21 UNL     1       6.901   0.368   0.751  1.00  0.00     0.361 C 
HETATM   39  O5  UNL     1       6.230   0.730  -0.237  1.00  0.00    -0.238 OA
ATOM     40  H6  UNL     1       7.034  -0.551   2.608  1.00  0.00     0.165 HD
BRANCH  38  41
HETATM   41  O6  UNL     1       8.275   0.682   0.719  1.00  0.00    -0.294 OA
BRANCH  41  42
HETATM   42  C22 UNL     1       8.812   1.368  -0.392  1.00  0.00     0.061 C 
HETATM   43  C23 UNL     1      10.303   1.577  -0.163  1.00  0.00     0.046 C 
HETATM   44  C24 UNL     1       8.659   0.580  -1.672  1.00  0.00     0.046 C 
HETATM   45  C25 UNL     1       8.141   2.714  -0.563  1.00  0.00     0.046 C 
ENDBRANCH  41  42
ENDBRANCH  38  41
ENDBRANCH  36  37
ENDBRANCH   4  36
TORSDOF 16
