REMARK  6 active torsions:
REMARK  status: ('A' for Active; 'I' for Inactive)
REMARK    1  A    between atoms: N1_1  and  C1_4 
REMARK    2  A    between atoms: C5_10  and  O1_11 
REMARK    3  A    between atoms: O1_11  and  C6_12 
REMARK    4  A    between atoms: C6_12  and  C7_13 
REMARK    5  A    between atoms: C7_13  and  C8_14 
REMARK    6  A    between atoms: C8_14  and  N3_15 
ROOT
HETATM    1  C1  UNL     1      -2.270  -0.069   1.421  1.00  0.00     0.132 A 
HETATM    2  N2  UNL     1      -3.525   0.082   0.984  1.00  0.00    -0.350 N 
ATOM      3  H2  UNL     1      -4.261   0.189   1.681  1.00  0.00     0.166 HD
HETATM    4  C2  UNL     1      -3.881   0.102  -0.309  1.00  0.00     0.090 A 
HETATM    5  C3  UNL     1      -2.906  -0.041  -1.266  1.00  0.00     0.020 A 
HETATM    6  C4  UNL     1      -1.588  -0.201  -0.848  1.00  0.00     0.042 A 
HETATM    7  C5  UNL     1      -1.241  -0.219   0.478  1.00  0.00     0.112 A 
ENDROOT
BRANCH   7   8
HETATM    8  O1  UNL     1       0.027  -0.373   0.915  1.00  0.00    -0.347 OA
BRANCH   8   9
HETATM    9  C6  UNL     1       1.239  -0.528   0.300  1.00  0.00     0.177 C 
BRANCH   9  10
HETATM   10  C7  UNL     1       1.725   0.592  -0.564  1.00  0.00     0.054 C 
BRANCH  10  11
HETATM   11  C8  UNL     1       3.085   0.181  -1.129  1.00  0.00     0.231 C 
BRANCH  11  12
HETATM   12  N3  UNL     1       3.970  -0.041  -0.005  1.00  0.00    -0.079 N 
ATOM     13  H33 UNL     1       4.025   0.761   0.623  1.00  0.00     0.274 HD
ATOM     14  H32 UNL     1       3.599  -0.711   0.668  1.00  0.00     0.274 HD
ATOM     15  H31 UNL     1       4.877  -0.315  -0.382  1.00  0.00     0.274 HD
ENDBRANCH  11  12
ENDBRANCH  10  11
ENDBRANCH   9  10
ENDBRANCH   8   9
ENDBRANCH   7   8
BRANCH   1  16
HETATM   16  N1  UNL     1      -1.992  -0.080   2.698  1.00  0.00    -0.383 N 
ATOM     17  H12 UNL     1      -2.740   0.029   3.383  1.00  0.00     0.157 HD
ATOM     18  H11 UNL     1      -1.035  -0.195   3.031  1.00  0.00     0.157 HD
ENDBRANCH   1  16
TORSDOF 6
