REMARK  5 active torsions:
REMARK  status: ('A' for Active; 'I' for Inactive)
REMARK    1  A    between atoms: N1_1  and  C1_5 
REMARK    2  A    between atoms: C1_5  and  C2_6 
REMARK    3  A    between atoms: C2_6  and  O1_7 
REMARK    4  A    between atoms: O1_7  and  C3_8 
REMARK    5  A    between atoms: C9_14  and  N2_15 
ROOT
HETATM    1  C3  UNL     1       0.147  -0.310   0.117  1.00  0.00     0.128 C 
HETATM    2  C4  UNL     1      -0.626  -1.489  -0.493  1.00  0.00     0.039 C 
HETATM    3  C5  UNL     1      -2.073  -1.004  -0.570  1.00  0.00     0.019 C 
HETATM    4  C6  UNL     1      -2.673  -0.863   0.791  1.00  0.00     0.007 C 
HETATM    5  C7  UNL     1      -1.816   0.246   1.418  1.00  0.00     0.010 C 
HETATM    6  C8  UNL     1      -0.911   0.731   0.314  1.00  0.00     0.045 C 
HETATM    7  C9  UNL     1      -1.805   0.474  -0.912  1.00  0.00     0.194 C 
ENDROOT
BRANCH   1   8
HETATM    8  O1  UNL     1       1.204   0.079  -0.656  1.00  0.00    -0.384 OA
BRANCH   8   9
HETATM    9  C2  UNL     1       2.386  -0.003   0.067  1.00  0.00     0.195 C 
BRANCH   9  10
HETATM   10  C1  UNL     1       3.579   0.419  -0.755  1.00  0.00     0.255 C 
BRANCH  10  11
HETATM   11  N1  UNL     1       4.764   0.304   0.068  1.00  0.00    -0.077 N 
ATOM     12  H13 UNL     1       4.686   0.824   0.942  1.00  0.00     0.274 HD
ATOM     13  H12 UNL     1       4.874  -0.627   0.469  1.00  0.00     0.274 HD
ATOM     14  H11 UNL     1       5.570   0.589  -0.488  1.00  0.00     0.274 HD
ENDBRANCH  10  11
ENDBRANCH   9  10
ENDBRANCH   8   9
ENDBRANCH   1   8
BRANCH   7  15
HETATM   15  N2  UNL     1      -3.013   1.242  -0.842  1.00  0.00    -0.074 N 
ATOM     16  H23 UNL     1      -3.746   0.846  -1.430  1.00  0.00     0.274 HD
ATOM     17  H22 UNL     1      -3.471   1.142   0.064  1.00  0.00     0.274 HD
ATOM     18  H21 UNL     1      -2.836   2.221  -1.068  1.00  0.00     0.274 HD
ENDBRANCH   7  15
TORSDOF 5
