REMARK  6 active torsions:
REMARK  status: ('A' for Active; 'I' for Inactive)
REMARK    1  A    between atoms: C4_5  and  N2_6 
REMARK    2  A    between atoms: N2_6  and  C5_8 
REMARK    3  A    between atoms: C5_8  and  C6_9 
REMARK    4  A    between atoms: C6_9  and  C7_10 
REMARK    5  A    between atoms: C7_10  and  C8_11 
REMARK    6  A    between atoms: C8_11  and  N3_12 
ROOT
HETATM    1  N1  UNL     1      -5.409   2.440  -0.614  1.00  0.00    -0.190 NA
HETATM    2  C1  UNL     1      -4.693   1.584  -0.309  1.00  0.00     0.119 C 
HETATM    3  C2  UNL     1      -3.783   0.528   0.068  1.00  0.00     0.132 A 
HETATM    4  C3  UNL     1      -2.427   0.598   0.267  1.00  0.00     0.091 A 
HETATM    5  C4  UNL     1      -1.992  -0.652   0.611  1.00  0.00     0.118 A 
HETATM    6  N4  UNL     1      -3.074  -1.445   0.614  1.00  0.00    -0.285 N 
ATOM      7  H4  UNL     1      -3.069  -2.441   0.833  1.00  0.00     0.188 HD
HETATM    8  N5  UNL     1      -4.136  -0.752   0.294  1.00  0.00    -0.289 N 
ATOM      9  H5  UNL     1      -5.084  -1.123   0.226  1.00  0.00     0.188 HD
ENDROOT
BRANCH   5  10
HETATM   10  N2  UNL     1      -0.814  -1.045   0.884  1.00  0.00    -0.375 N 
ATOM     11  H2  UNL     1      -0.702  -2.031   1.119  1.00  0.00     0.161 HD
BRANCH  10  12
HETATM   12  C5  UNL     1       0.367  -0.244   0.894  1.00  0.00     0.121 C 
BRANCH  12  13
HETATM   13  C6  UNL     1       1.115  -0.500  -0.406  1.00  0.00     0.021 C 
BRANCH  13  14
HETATM   14  C7  UNL     1       2.386   0.306  -0.491  1.00  0.00     0.029 C 
BRANCH  14  15
HETATM   15  C8  UNL     1       3.341  -0.021   0.638  1.00  0.00     0.229 C 
BRANCH  15  16
HETATM   16  N3  UNL     1       4.524   0.820   0.440  1.00  0.00    -0.079 N 
ATOM     17  H33 UNL     1       4.942   0.717  -0.485  1.00  0.00     0.274 HD
ATOM     18  H32 UNL     1       4.306   1.814   0.371  1.00  0.00     0.274 HD
ATOM     19  H31 UNL     1       5.167   0.600   1.200  1.00  0.00     0.274 HD
ENDBRANCH  15  16
ENDBRANCH  14  15
ENDBRANCH  13  14
ENDBRANCH  12  13
ENDBRANCH  10  12
ENDBRANCH   5  10
TORSDOF 6
