REMARK  6 active torsions:
REMARK  status: ('A' for Active; 'I' for Inactive)
REMARK    1  A    between atoms: N1_1  and  C1_5 
REMARK    2  A    between atoms: C1_5  and  C2_6 
REMARK    3  A    between atoms: C2_6  and  C3_7 
REMARK    4  A    between atoms: C3_7  and  C4_8 
REMARK    5  A    between atoms: C4_8  and  N2_9 
REMARK    6  A    between atoms: N2_9  and  C5_11 
ROOT
HETATM    1  N2  UNL     1      -0.091   1.035  -0.725  1.00  0.00    -0.376 N 
ATOM      2  H2  UNL     1       0.231   1.981  -0.929  1.00  0.00     0.161 HD
ENDROOT
BRANCH   1   3
HETATM    3  C4  UNL     1       0.891  -0.011  -0.758  1.00  0.00     0.121 C 
BRANCH   3   4
HETATM    4  C3  UNL     1       1.613   0.001   0.572  1.00  0.00     0.021 C 
BRANCH   4   5
HETATM    5  C2  UNL     1       2.648  -1.078   0.580  1.00  0.00     0.029 C 
BRANCH   5   6
HETATM    6  C1  UNL     1       3.645  -0.860  -0.520  1.00  0.00     0.229 C 
BRANCH   6   7
HETATM    7  N1  UNL     1       4.288   0.422  -0.320  1.00  0.00    -0.079 N 
ATOM      8  H13 UNL     1       3.617   1.187  -0.245  1.00  0.00     0.274 HD
ATOM      9  H12 UNL     1       4.705   0.508   0.607  1.00  0.00     0.274 HD
ATOM     10  H11 UNL     1       4.966   0.570  -1.068  1.00  0.00     0.274 HD
ENDBRANCH   6   7
ENDBRANCH   5   6
ENDBRANCH   4   5
ENDBRANCH   3   4
ENDBRANCH   1   3
BRANCH   1  11
HETATM   11  C5  UNL     1      -1.333   0.886  -0.463  1.00  0.00     0.102 A 
HETATM   12  C6  UNL     1      -1.959  -0.281  -0.166  1.00  0.00     0.074 A 
HETATM   13  C7  UNL     1      -3.308  -0.354   0.107  1.00  0.00     0.051 A 
HETATM   14  N3  UNL     1      -3.965  -1.579   0.418  1.00  0.00    -0.102 NA
HETATM   15  C8  UNL     1      -4.019   0.831   0.066  1.00  0.00     0.043 A 
HETATM   16  C9  UNL     1      -3.401   2.020  -0.233  1.00  0.00     0.091 A 
HETATM   17  N4  UNL     1      -2.094   2.013  -0.485  1.00  0.00    -0.352 N 
ATOM     18  H4  UNL     1      -1.640   2.899  -0.706  1.00  0.00     0.166 HD
ENDBRANCH   1  11
TORSDOF 6
