REMARK  6 active torsions:
REMARK  status: ('A' for Active; 'I' for Inactive)
REMARK    1  A    between atoms: C2_2  and  C3_3 
REMARK    2  A    between atoms: C3_3  and  C4_4 
REMARK    3  A    between atoms: C3_3  and  C9_9 
REMARK    4  A    between atoms: C4_4  and  C5_5 
REMARK    5  A    between atoms: C13_15  and  N2_16 
REMARK    6  A    between atoms: C18_25  and  N4_26 
ROOT
HETATM    1  C9  UNL     1      -0.298   0.866  -0.262  1.00  0.00     0.002 A 
HETATM    2  C10 UNL     1      -0.339   1.597   0.959  1.00  0.00     0.015 A 
HETATM    3  C11 UNL     1       0.633   2.658   1.272  1.00  0.00     0.069 C 
HETATM    4  N1  UNL     1      -1.355   1.429   1.812  1.00  0.00    -0.356 N 
ATOM      5  H1  UNL     1      -1.364   1.960   2.683  1.00  0.00     0.166 HD
HETATM    6  C12 UNL     1      -2.336   0.604   1.562  1.00  0.00     0.090 A 
HETATM    7  C13 UNL     1      -3.317   0.498   2.517  1.00  0.00     0.127 A 
HETATM    8  N3  UNL     1      -4.342  -0.341   2.334  1.00  0.00    -0.350 N 
ATOM      9  H3  UNL     1      -5.074  -0.420   3.040  1.00  0.00     0.166 HD
HETATM   10  C14 UNL     1      -4.400  -1.073   1.221  1.00  0.00     0.097 A 
HETATM   11  C15 UNL     1      -3.423  -1.019   0.189  1.00  0.00    -0.032 A 
HETATM   12  C16 UNL     1      -3.523  -1.919  -0.941  1.00  0.00     0.050 C 
HETATM   13  C17 UNL     1      -2.367  -0.151   0.371  1.00  0.00     0.035 A 
HETATM   14  C18 UNL     1      -1.348  -0.026  -0.561  1.00  0.00     0.124 A 
ENDROOT
BRANCH   1  15
HETATM   15  C3  UNL     1       0.936   0.907  -1.053  1.00  0.00     0.023 C 
BRANCH  15  16
HETATM   16  C2  UNL     1       0.743   1.074  -2.556  1.00  0.00     0.005 C 
HETATM   17  C1  UNL     1       2.080   1.535  -3.191  1.00  0.00     0.006 C 
ENDBRANCH  15  16
BRANCH  15  18
HETATM   18  C4  UNL     1       1.932  -0.187  -0.830  1.00  0.00     0.017 C 
BRANCH  18  19
HETATM   19  C5  UNL     1       2.483  -0.724   0.387  1.00  0.00    -0.051 C 
HETATM   20  C6  UNL     1       3.327   0.064   1.305  1.00  0.00     0.014 C 
HETATM   21  C7  UNL     1       3.438  -1.882  -0.097  1.00  0.00     0.014 C 
HETATM   22  C8  UNL     1       1.488  -1.506   1.256  1.00  0.00     0.014 C 
ENDBRANCH  18  19
ENDBRANCH  15  18
ENDBRANCH   1  15
BRANCH  14  23
HETATM   23  N4  UNL     1      -1.425  -0.651  -1.786  1.00  0.00    -0.114 N 
HETATM   24  O1  UNL     1      -1.005  -1.679  -2.297  1.00  0.00    -0.532 OA
HETATM   25  O2  UNL     1      -2.184   0.101  -2.752  1.00  0.00    -0.532 OA
ENDBRANCH  14  23
BRANCH   7  26
HETATM   26  N2  UNL     1      -3.270   1.203   3.615  1.00  0.00    -0.384 N 
ATOM     27  H22 UNL     1      -2.488   1.843   3.755  1.00  0.00     0.157 HD
ATOM     28  H21 UNL     1      -3.999   1.124   4.324  1.00  0.00     0.157 HD
ENDBRANCH   7  26
TORSDOF 6
