REMARK  4 active torsions:
REMARK  status: ('A' for Active; 'I' for Inactive)
REMARK    1  A    between atoms: C3_3  and  C4_4 
REMARK    2  A    between atoms: C11_11  and  S1_12 
REMARK    3  A    between atoms: S1_12  and  C12_13 
REMARK    4  A    between atoms: C17_24  and  N4_25 
ROOT
HETATM    1  C1  UNL     1       0.307  -2.242  -0.354  1.00  0.00     0.049 C 
HETATM    2  C2  UNL     1      -0.599  -1.097  -0.255  1.00  0.00    -0.041 A 
HETATM    3  C3  UNL     1      -1.988  -1.299  -0.236  1.00  0.00    -0.048 A 
HETATM    4  C7  UNL     1      -2.821  -0.231  -0.167  1.00  0.00     0.009 A 
HETATM    5  C8  UNL     1      -2.340   1.073  -0.113  1.00  0.00     0.014 A 
HETATM    6  C9  UNL     1      -1.005   1.291  -0.129  1.00  0.00    -0.005 A 
HETATM    7  C10 UNL     1      -0.100   0.182  -0.201  1.00  0.00     0.015 A 
HETATM    8  C11 UNL     1       1.246   0.425  -0.211  1.00  0.00     0.083 A 
HETATM    9  N1  UNL     1       1.670   1.696  -0.153  1.00  0.00    -0.335 N 
ATOM     10  H1  UNL     1       2.676   1.862  -0.161  1.00  0.00     0.168 HD
HETATM   11  C15 UNL     1       0.870   2.750  -0.086  1.00  0.00     0.122 A 
HETATM   12  N2  UNL     1       1.364   4.002  -0.032  1.00  0.00    -0.338 N 
ATOM     13  H2  UNL     1       2.373   4.148  -0.042  1.00  0.00     0.168 HD
HETATM   14  C16 UNL     1       0.540   5.058   0.035  1.00  0.00     0.183 A 
HETATM   15  N3  UNL     1      -0.797   4.886   0.049  1.00  0.00    -0.338 N 
ATOM     16  H3  UNL     1      -1.404   5.704   0.100  1.00  0.00     0.168 HD
HETATM   17  C17 UNL     1      -1.359   3.637  -0.004  1.00  0.00     0.114 A 
HETATM   18  C18 UNL     1      -0.506   2.572  -0.072  1.00  0.00     0.063 A 
ENDROOT
BRANCH   8  19
HETATM   19  S1  UNL     1       2.409  -0.908  -0.295  1.00  0.00    -0.107 SA
BRANCH  19  20
HETATM   20  C12 UNL     1       4.117  -0.311  -0.285  1.00  0.00     0.045 C 
HETATM   21  C13 UNL     1       4.390   0.300   1.073  1.00  0.00     0.021 C 
HETATM   22  C14 UNL     1       5.112  -1.404  -0.545  1.00  0.00     0.021 C 
ENDBRANCH  19  20
ENDBRANCH   8  19
BRANCH   3  23
HETATM   23  C4  UNL     1      -2.549  -2.692  -0.266  1.00  0.00     0.011 C 
HETATM   24  C5  UNL     1      -4.064  -2.524  -0.497  1.00  0.00     0.015 C 
HETATM   25  C6  UNL     1      -2.494  -3.350   1.097  1.00  0.00     0.015 C 
ENDBRANCH   3  23
BRANCH  17  26
HETATM   26  N4  UNL     1      -2.614   3.621   0.016  1.00  0.00    -0.385 N 
ATOM     27  H42 UNL     1      -3.251   4.416   0.067  1.00  0.00     0.157 HD
ATOM     28  H41 UNL     1      -3.032   2.692  -0.023  1.00  0.00     0.157 HD
ENDBRANCH  17  26
TORSDOF 4
