REMARK  6 active torsions:
REMARK  status: ('A' for Active; 'I' for Inactive)
REMARK    1  A    between atoms: C2_2  and  C3_3 
REMARK    2  A    between atoms: C3_3  and  C4_4 
REMARK    3  A    between atoms: C4_4  and  C5_6 
REMARK    4  A    between atoms: C5_6  and  C6_7 
REMARK    5  A    between atoms: C9_10  and  O2_11 
REMARK    6  A    between atoms: C19_22  and  O3_24 
ROOT
HETATM    1  C6  UNL     1       1.076   0.384  -0.095  1.00  0.00    -0.034 C 
HETATM    2  C7  UNL     1       0.552   1.483  -0.680  1.00  0.00    -0.049 C 
HETATM    3  C8  UNL     1       1.292   2.754  -0.761  1.00  0.00     0.046 C 
HETATM    4  C9  UNL     1      -0.835   1.420  -1.217  1.00  0.00     0.152 C 
HETATM    5  C10 UNL     1      -1.577   0.559  -0.201  1.00  0.00     0.038 C 
HETATM    6  C11 UNL     1      -3.013   0.854  -0.181  1.00  0.00    -0.041 C 
HETATM    7  C12 UNL     1      -3.222   2.082   0.735  1.00  0.00     0.015 C 
HETATM    8  C13 UNL     1      -3.637   1.297  -1.479  1.00  0.00     0.015 C 
HETATM    9  C14 UNL     1      -3.872  -0.229   0.417  1.00  0.00     0.009 C 
HETATM   10  C15 UNL     1      -3.389  -1.620   0.188  1.00  0.00     0.002 C 
HETATM   11  C16 UNL     1      -1.946  -1.699   0.667  1.00  0.00     0.013 C 
HETATM   12  C17 UNL     1      -1.123  -0.848  -0.297  1.00  0.00    -0.002 C 
HETATM   13  C18 UNL     1      -1.265  -1.498  -1.653  1.00  0.00     0.019 C 
HETATM   14  C19 UNL     1       0.352  -0.902   0.039  1.00  0.00     0.086 C 
HETATM   15  C20 UNL     1       0.578  -1.444   1.442  1.00  0.00     0.051 C 
ENDROOT
BRANCH   1  16
HETATM   16  C5  UNL     1       2.439   0.566   0.459  1.00  0.00     0.116 C 
BRANCH  16  17
HETATM   17  C4  UNL     1       3.539  -0.132  -0.193  1.00  0.00     0.134 C 
HETATM   18  O1  UNL     1       3.499  -0.847  -1.174  1.00  0.00    -0.297 OA
BRANCH  17  19
HETATM   19  C3  UNL     1       4.931   0.022   0.384  1.00  0.00     0.105 C 
BRANCH  19  20
HETATM   20  C2  UNL     1       5.339  -1.122   1.208  1.00  0.00    -0.030 C 
HETATM   21  C1  UNL     1       6.393  -1.832   0.859  1.00  0.00     0.007 C 
ENDBRANCH  19  20
ENDBRANCH  17  19
ENDBRANCH  16  17
ENDBRANCH   1  16
BRANCH  14  22
HETATM   22  O3  UNL     1       1.000  -1.839  -0.800  1.00  0.00    -0.385 OA
ATOM     23  H3  UNL     1       0.536  -2.663  -0.714  1.00  0.00     0.211 HD
ENDBRANCH  14  22
BRANCH   4  24
HETATM   24  O2  UNL     1      -0.942   1.003  -2.508  1.00  0.00    -0.391 OA
ATOM     25  H2  UNL     1      -1.827   0.963  -2.851  1.00  0.00     0.210 HD
ENDBRANCH   4  24
TORSDOF 6
