REMARK  3 active torsions:
REMARK  status: ('A' for Active; 'I' for Inactive)
REMARK    1  A    between atoms: N1_2  and  O1_3 
REMARK    2  A    between atoms: N1_2  and  N2_5 
REMARK       I    between atoms: N2_5  and  C2_7 
REMARK       I    between atoms: C2_7  and  N4_11 
REMARK    3  A    between atoms: N4_11  and  C3_13 
ROOT
HETATM    1  N2  UNL     1       2.420  -0.304  -0.725  1.00  0.00    -0.107 N 
ATOM      2  H2  UNL     1       2.293  -0.792  -1.611  1.00  0.00     0.208 HD
HETATM    3  C2  UNL     1       1.392  -0.293   0.256  1.00  0.00     0.688 C 
HETATM    4  N3  UNL     1       1.444  -1.169   1.187  1.00  0.00    -0.234 N 
ATOM      5  H31 UNL     1       0.706  -1.161   1.891  1.00  0.00     0.174 HD
ATOM      6  H32 UNL     1       2.198  -1.855   1.227  1.00  0.00     0.174 HD
HETATM    7  N4  UNL     1       0.341   0.664   0.200  1.00  0.00    -0.221 N 
ATOM      8  H4  UNL     1       0.494   1.582  -0.217  1.00  0.00     0.178 HD
ENDROOT
BRANCH   1   9
HETATM    9  N1  UNL     1       3.608   0.372  -0.442  1.00  0.00    -0.171 N 
HETATM   10  C1  UNL     1       4.550  -0.214   0.202  1.00  0.00     0.178 C 
BRANCH   9  11
HETATM   11  O1  UNL     1       3.711   1.667  -0.879  1.00  0.00    -0.269 OA
ATOM     12  H1  UNL     1       3.013   2.101  -1.356  1.00  0.00     0.247 HD
ENDBRANCH   9  11
ENDBRANCH   1   9
BRANCH   7  13
HETATM   13  C3  UNL     1      -0.943   0.308   0.744  1.00  0.00     0.099 C 
HETATM   14  C4  UNL     1      -1.543  -0.912   0.043  1.00  0.00     0.026 C 
HETATM   15  C5  UNL     1      -2.965  -0.802   0.619  1.00  0.00     0.002 C 
HETATM   16  C6  UNL     1      -3.289   0.614   0.220  1.00  0.00     0.002 C 
HETATM   17  C7  UNL     1      -1.995   1.341   0.528  1.00  0.00     0.026 C 
ENDBRANCH   7  13
TORSDOF 3
