REMARK  3 active torsions:
REMARK  status: ('A' for Active; 'I' for Inactive)
REMARK    1  A    between atoms: C2_2  and  C3_3 
REMARK    2  A    between atoms: C2_2  and  C4_10 
REMARK       I    between atoms: C3_3  and  N1_5 
REMARK    3  A    between atoms: N1_5  and  N2_7 
ROOT
HETATM    1  C1  UNL     1       1.397  -2.265  -0.477  1.00  0.00     0.020 C 
HETATM    2  C2  UNL     1       1.259  -1.093   0.466  1.00  0.00     0.079 C 
ENDROOT
BRANCH   2   3
HETATM    3  C3  UNL     1       2.516  -0.282   0.311  1.00  0.00     0.239 C 
HETATM    4  O1  UNL     1       3.288  -0.071   1.275  1.00  0.00    -0.271 OA
HETATM    5  N1  UNL     1       2.859   0.267  -0.943  1.00  0.00    -0.276 N 
ATOM      6  H1  UNL     1       2.255   0.116  -1.751  1.00  0.00     0.189 HD
BRANCH   5   7
HETATM    7  N2  UNL     1       4.028   1.017  -1.073  1.00  0.00    -0.343 N 
ATOM      8  H22 UNL     1       4.621   1.159  -0.255  1.00  0.00     0.176 HD
ATOM      9  H21 UNL     1       4.276   1.414  -1.979  1.00  0.00     0.176 HD
ENDBRANCH   5   7
ENDBRANCH   2   3
BRANCH   2  10
HETATM   10  C4  UNL     1       0.053  -0.253   0.021  1.00  0.00    -0.002 C 
HETATM   11  C5  UNL     1      -1.189  -1.069   0.057  1.00  0.00     0.005 C 
HETATM   12  C6  UNL     1      -2.196  -0.533  -0.954  1.00  0.00     0.000 C 
HETATM   13  C7  UNL     1      -3.157   0.335  -0.169  1.00  0.00     0.000 C 
HETATM   14  C8  UNL     1      -2.397   1.602   0.195  1.00  0.00     0.000 C 
HETATM   15  C9  UNL     1      -1.395   1.371   1.279  1.00  0.00     0.000 C 
HETATM   16  C10 UNL     1      -0.021   1.031   0.762  1.00  0.00     0.005 C 
ENDBRANCH   2  10
TORSDOF 3
