REMARK  2 active torsions:
REMARK  status: ('A' for Active; 'I' for Inactive)
REMARK    1  A    between atoms: C2_2  and  N1_3 
REMARK       I    between atoms: N1_3  and  C3_5 
REMARK       I    between atoms: C3_5  and  N3_9 
REMARK    2  A    between atoms: N3_9  and  C4_11 
ROOT
HETATM    1  N1  UNL     1       2.150   0.099  -0.083  1.00  0.00    -0.227 N 
ATOM      2  H1  UNL     1       1.624   0.870  -0.494  1.00  0.00     0.177 HD
HETATM    3  C3  UNL     1       1.470  -0.816   0.751  1.00  0.00     0.667 C 
HETATM    4  N2  UNL     1       2.052  -1.266   1.799  1.00  0.00    -0.235 N 
ATOM      5  H21 UNL     1       1.561  -1.927   2.401  1.00  0.00     0.174 HD
ATOM      6  H22 UNL     1       3.003  -0.971   2.021  1.00  0.00     0.174 HD
HETATM    7  N3  UNL     1       0.166  -1.221   0.446  1.00  0.00    -0.222 N 
ATOM      8  H3  UNL     1       0.046  -2.012  -0.186  1.00  0.00     0.178 HD
ENDROOT
BRANCH   1   9
HETATM    9  C2  UNL     1       3.567  -0.012  -0.379  1.00  0.00     0.133 C 
HETATM   10  C1  UNL     1       4.004   1.269  -1.082  1.00  0.00     0.027 C 
ENDBRANCH   1   9
BRANCH   7  11
HETATM   11  C4  UNL     1      -1.024  -0.585   0.973  1.00  0.00     0.099 C 
HETATM   12  C5  UNL     1      -2.208  -1.320   0.470  1.00  0.00     0.026 C 
HETATM   13  C6  UNL     1      -3.363  -0.480   0.041  1.00  0.00     0.002 C 
HETATM   14  C7  UNL     1      -2.990   0.694  -0.818  1.00  0.00     0.000 C 
HETATM   15  C8  UNL     1      -1.509   0.980  -0.793  1.00  0.00     0.002 C 
HETATM   16  C9  UNL     1      -1.071   0.892   0.652  1.00  0.00     0.026 C 
ENDBRANCH   7  11
TORSDOF 2
