REMARK  3 active torsions:
REMARK  status: ('A' for Active; 'I' for Inactive)
REMARK    1  A    between atoms: C2_2  and  C4_4 
REMARK    2  A    between atoms: C8_8  and  N1_9 
REMARK    3  A    between atoms: C8_8  and  C9_13 
ROOT
HETATM    1  C4  UNL     1      -0.960  -0.320   0.028  1.00  0.00     0.016 C 
HETATM    2  C5  UNL     1      -1.170  -0.276  -1.456  1.00  0.00     0.009 C 
HETATM    3  C6  UNL     1       0.072   0.133  -2.210  1.00  0.00     0.004 C 
HETATM    4  C7  UNL     1       1.341  -0.198  -1.467  1.00  0.00     0.046 C 
HETATM    5  C8  UNL     1       1.429   0.418  -0.096  1.00  0.00     0.178 C 
HETATM    6  C10 UNL     1       0.070   0.615   0.532  1.00  0.00     0.055 C 
ENDROOT
BRANCH   5   7
HETATM    7  N1  UNL     1       2.067   1.736  -0.137  1.00  0.00    -0.064 N 
ATOM      8  H13 UNL     1       2.982   1.693  -0.586  1.00  0.00     0.275 HD
ATOM      9  H12 UNL     1       1.597   2.357  -0.795  1.00  0.00     0.275 HD
ATOM     10  H11 UNL     1       2.127   2.153   0.792  1.00  0.00     0.275 HD
ENDBRANCH   5   7
BRANCH   5  11
HETATM   11  C9  UNL     1       2.280  -0.473   0.712  1.00  0.00     0.123 C 
HETATM   12  N2  UNL     1       1.792  -1.005   1.763  1.00  0.00    -0.389 N 
ATOM     13  H22 UNL     1       0.828  -0.815   2.038  1.00  0.00     0.157 HD
ATOM     14  H21 UNL     1       2.381  -1.622   2.322  1.00  0.00     0.157 HD
HETATM   15  N3  UNL     1       3.597  -0.733   0.336  1.00  0.00    -0.085 NA
ENDBRANCH   5  11
BRANCH   1  16
HETATM   16  C2  UNL     1      -2.252  -0.049   0.701  1.00  0.00    -0.089 C 
HETATM   17  C1  UNL     1      -2.358   0.903   1.612  1.00  0.00     0.014 C 
HETATM   18  C3  UNL     1      -3.472  -0.847   0.362  1.00  0.00     0.043 C 
ENDBRANCH   1  16
TORSDOF 3
