REMARK  3 active torsions:
REMARK  status: ('A' for Active; 'I' for Inactive)
REMARK    1  A    between atoms: N1_1  and  C1_5 
REMARK    2  A    between atoms: C4_8  and  N2_9 
REMARK    3  A    between atoms: N2_9  and  C5_12 
ROOT
HETATM    1  C1  UNL     1       2.995   0.613   0.027  1.00  0.00     0.185 C 
HETATM    2  C2  UNL     1       3.200  -0.844  -0.309  1.00  0.00     0.034 C 
HETATM    3  C3  UNL     1       1.974  -1.147  -1.157  1.00  0.00     0.035 C 
HETATM    4  C4  UNL     1       0.886  -0.491  -0.333  1.00  0.00     0.188 C 
HETATM    5  C10 UNL     1       1.497   0.866  -0.066  1.00  0.00     0.065 C 
ENDROOT
BRANCH   4   6
HETATM    6  N2  UNL     1      -0.377  -0.417  -1.003  1.00  0.00    -0.067 N 
ATOM      7  H22 UNL     1      -0.412   0.340  -1.686  1.00  0.00     0.278 HD
ATOM      8  H21 UNL     1      -0.523  -1.195  -1.646  1.00  0.00     0.278 HD
BRANCH   6   9
HETATM    9  C5  UNL     1      -1.417  -0.317  -0.021  1.00  0.00     0.186 C 
HETATM   10  C6  UNL     1      -2.695  -1.003  -0.476  1.00  0.00     0.033 C 
HETATM   11  C7  UNL     1      -3.844  -0.173   0.038  1.00  0.00     0.002 C 
HETATM   12  C8  UNL     1      -3.163   0.761   1.030  1.00  0.00     0.002 C 
HETATM   13  C9  UNL     1      -1.903   1.084   0.230  1.00  0.00     0.033 C 
ENDBRANCH   6   9
ENDBRANCH   4   6
BRANCH   1  14
HETATM   14  N1  UNL     1       3.445   0.853   1.391  1.00  0.00    -0.075 N 
ATOM     15  H13 UNL     1       2.995   0.232   2.063  1.00  0.00     0.274 HD
ATOM     16  H12 UNL     1       4.408   0.552   1.541  1.00  0.00     0.274 HD
ATOM     17  H11 UNL     1       3.306   1.838   1.618  1.00  0.00     0.274 HD
ENDBRANCH   1  14
TORSDOF 3
