REMARK  12 active torsions:
REMARK  status: ('A' for Active; 'I' for Inactive)
REMARK    1  A    between atoms: C2_2  and  C3_3 
REMARK    2  A    between atoms: C3_3  and  C4_4 
REMARK    3  A    between atoms: C4_4  and  C5_5 
REMARK    4  A    between atoms: C5_5  and  C6_6 
REMARK    5  A    between atoms: C6_6  and  C7_7 
REMARK    6  A    between atoms: C9_9  and  N1_10 
REMARK    7  A    between atoms: C12_15  and  N3_16 
REMARK    8  A    between atoms: N3_16  and  C13_18 
REMARK    9  A    between atoms: C13_18  and  O1_19 
REMARK   10  A    between atoms: C13_18  and  O2_21 
REMARK   11  A    between atoms: C18_29  and  O3_30 
REMARK   12  A    between atoms: C19_32  and  O4_33 
ROOT
HETATM    1  N1  UNL     1      -0.742   0.713   0.797  1.00  0.00    -0.320 N 
HETATM    2  C10 UNL     1      -1.631   1.586   1.316  1.00  0.00     0.185 A 
HETATM    3  N2  UNL     1      -2.885   1.261   0.955  1.00  0.00    -0.346 N 
ATOM      4  H2  UNL     1      -3.736   1.760   1.215  1.00  0.00     0.167 HD
HETATM    5  C11 UNL     1      -2.814   0.163   0.192  1.00  0.00     0.122 A 
HETATM    6  C12 UNL     1      -3.810  -0.605  -0.449  1.00  0.00     0.137 A 
HETATM    7  N4  UNL     1      -3.436  -1.670  -1.157  1.00  0.00    -0.337 N 
ATOM      8  H4  UNL     1      -4.147  -2.232  -1.625  1.00  0.00     0.168 HD
HETATM    9  C16 UNL     1      -2.139  -2.023  -1.270  1.00  0.00     0.183 A 
HETATM   10  N5  UNL     1      -1.210  -1.278  -0.650  1.00  0.00    -0.336 N 
ATOM     11  H5  UNL     1      -0.232  -1.554  -0.741  1.00  0.00     0.168 HD
HETATM   12  C17 UNL     1      -1.501  -0.175   0.093  1.00  0.00     0.141 A 
ENDROOT
BRANCH   1  13
HETATM   13  C9  UNL     1       0.661   0.663   0.929  1.00  0.00     0.124 C 
HETATM   14  C8  UNL     1       1.487   1.047  -0.262  1.00  0.00     0.039 C 
HETATM   15  C7  UNL     1       2.893   1.017   0.310  1.00  0.00     0.042 C 
HETATM   16  C19 UNL     1       2.693   1.415   1.750  1.00  0.00     0.156 C 
HETATM   17  C18 UNL     1       1.211   1.633   1.959  1.00  0.00     0.170 C 
BRANCH  15  18
HETATM   18  C6  UNL     1       3.790   1.935  -0.398  1.00  0.00    -0.011 C 
BRANCH  18  19
HETATM   19  C5  UNL     1       4.961   1.469  -0.883  1.00  0.00     0.047 C 
BRANCH  19  20
HETATM   20  C4  UNL     1       5.354   0.128  -0.735  1.00  0.00    -0.156 C 
BRANCH  20  21
HETATM   21  C3  UNL     1       5.704  -1.062  -0.605  1.00  0.00     0.084 C 
BRANCH  21  22
HETATM   22  C2  UNL     1       6.925  -1.811  -1.017  1.00  0.00     0.007 C 
HETATM   23  C1  UNL     1       7.575  -2.365   0.209  1.00  0.00     0.006 C 
ENDBRANCH  21  22
ENDBRANCH  20  21
ENDBRANCH  19  20
ENDBRANCH  18  19
ENDBRANCH  15  18
BRANCH  16  24
HETATM   24  O4  UNL     1       3.453   2.509   2.118  1.00  0.00    -0.392 OA
ATOM     25  H4  UNL     1       3.327   2.760   3.026  1.00  0.00     0.210 HD
ENDBRANCH  16  24
BRANCH  17  26
HETATM   26  O3  UNL     1       0.981   2.969   1.635  1.00  0.00    -0.391 OA
ATOM     27  H3  UNL     1       1.325   3.576   2.280  1.00  0.00     0.210 HD
ENDBRANCH  17  26
ENDBRANCH   1  13
BRANCH   6  28
HETATM   28  N3  UNL     1      -4.980  -0.237  -0.309  1.00  0.00    -0.326 N 
ATOM     29  H3  UNL     1      -4.983   0.598   0.277  1.00  0.00     0.166 HD
BRANCH  28  30
HETATM   30  C13 UNL     1      -6.288  -0.532  -0.648  1.00  0.00     0.370 C 
BRANCH  30  31
HETATM   31  O1  UNL     1      -6.776  -1.765  -0.279  1.00  0.00    -0.349 OA
HETATM   32  C14 UNL     1      -7.462  -2.357  -1.323  1.00  0.00     0.206 C 
ENDBRANCH  30  31
BRANCH  30  33
HETATM   33  O2  UNL     1      -7.080   0.376   0.167  1.00  0.00    -0.349 OA
HETATM   34  C15 UNL     1      -7.825   1.154  -0.677  1.00  0.00     0.206 C 
ENDBRANCH  30  33
ENDBRANCH  28  30
ENDBRANCH   6  28
TORSDOF 12
