REMARK  7 active torsions:
REMARK  status: ('A' for Active; 'I' for Inactive)
REMARK    1  A    between atoms: C1_2  and  C2_3 
REMARK       I    between atoms: C1_2  and  N4_22 
REMARK    2  A    between atoms: C2_3  and  S1_4 
REMARK    3  A    between atoms: S1_4  and  C3_5 
REMARK    4  A    between atoms: C4_10  and  N3_11 
REMARK    5  A    between atoms: N3_11  and  C5_12 
REMARK    6  A    between atoms: C11_18  and  O2_19 
REMARK    7  A    between atoms: N4_22  and  C12_24 
ROOT
HETATM    1  C3  UNL     1       0.279  -0.426   1.283  1.00  0.00     0.135 A 
HETATM    2  N1  UNL     1       0.297  -0.922   0.096  1.00  0.00    -0.285 N 
ATOM      3  H1  UNL     1       1.098  -1.486  -0.187  1.00  0.00     0.188 HD
HETATM    4  N2  UNL     1      -0.584  -0.749  -0.686  1.00  0.00    -0.267 N 
ATOM      5  H2  UNL     1      -0.419  -1.208  -1.582  1.00  0.00     0.190 HD
HETATM    6  C4  UNL     1      -1.723  -0.094  -0.644  1.00  0.00     0.234 A 
HETATM    7  S2  UNL     1      -1.171   0.378   1.258  1.00  0.00    -0.011 SA
ENDROOT
BRANCH   1   8
HETATM    8  S1  UNL     1       1.490  -0.513   2.659  1.00  0.00    -0.070 SA
BRANCH   8   9
HETATM    9  C2  UNL     1       2.501   0.944   2.814  1.00  0.00     0.126 C 
BRANCH   9  10
HETATM   10  C1  UNL     1       3.577   1.079   1.858  1.00  0.00     0.251 C 
HETATM   11  O1  UNL     1       4.476   1.946   2.069  1.00  0.00    -0.268 OA
HETATM   12  N4  UNL     1       3.617   0.264   0.682  1.00  0.00    -0.331 N 
ATOM     13  H4  UNL     1       2.896  -0.440   0.526  1.00  0.00     0.168 HD
BRANCH  12  14
HETATM   14  C12 UNL     1       4.676   0.437  -0.284  1.00  0.00     0.123 C 
HETATM   15  C13 UNL     1       5.977  -0.070   0.046  1.00  0.00     0.061 C 
HETATM   16  C14 UNL     1       6.261  -1.542  -0.125  1.00  0.00     0.068 C 
HETATM   17  O3  UNL     1       6.656   0.334   1.208  1.00  0.00    -0.354 OA
HETATM   18  C15 UNL     1       7.652  -1.632   0.510  1.00  0.00     0.033 C 
HETATM   19  C16 UNL     1       7.947  -0.194   0.932  1.00  0.00     0.175 C 
ENDBRANCH  12  14
ENDBRANCH   9  10
ENDBRANCH   8   9
ENDBRANCH   1   8
BRANCH   6  20
HETATM   20  N3  UNL     1      -2.719   0.488  -0.595  1.00  0.00    -0.415 NA
BRANCH  20  21
HETATM   21  C5  UNL     1      -3.918   1.094  -0.646  1.00  0.00     0.194 C 
HETATM   22  C6  UNL     1      -4.671   0.870   0.696  1.00  0.00     0.042 C 
HETATM   23  C7  UNL     1      -5.044  -0.558   0.809  1.00  0.00     0.003 C 
HETATM   24  C8  UNL     1      -6.469  -0.797   0.463  1.00  0.00     0.000 C 
HETATM   25  C9  UNL     1      -6.935  -0.326  -0.869  1.00  0.00     0.002 C 
HETATM   26  C10 UNL     1      -6.292   0.925  -1.387  1.00  0.00     0.035 C 
HETATM   27  C11 UNL     1      -4.840   0.728  -1.777  1.00  0.00     0.154 C 
BRANCH  27  28
HETATM   28  O2  UNL     1      -4.614  -0.537  -2.254  1.00  0.00    -0.392 OA
ATOM     29  H2  UNL     1      -5.196  -0.768  -2.968  1.00  0.00     0.210 HD
ENDBRANCH  27  28
ENDBRANCH  20  21
ENDBRANCH   6  20
TORSDOF 7
