REMARK  9 active torsions:
REMARK  status: ('A' for Active; 'I' for Inactive)
REMARK    1  A    between atoms: C2_2  and  O1_3 
REMARK    2  A    between atoms: O1_3  and  C3_4 
REMARK       I    between atoms: C3_4  and  N1_6 
REMARK    3  A    between atoms: N1_6  and  C4_8 
REMARK    4  A    between atoms: C5_11  and  C6_12 
REMARK    5  A    between atoms: C6_12  and  C8_14 
REMARK    6  A    between atoms: C8_14  and  N3_15 
REMARK    7  A    between atoms: N3_15  and  N4_17 
REMARK    8  A    between atoms: N4_17  and  C10_19 
REMARK    9  A    between atoms: N5_24  and  O3_25 
ROOT
HETATM    1  C6  UNL     1       1.400   0.105  -0.316  1.00  0.00     0.066 C 
HETATM    2  C7  UNL     1       0.980   1.041   0.833  1.00  0.00     0.019 C 
ENDROOT
BRANCH   1   3
HETATM    3  C5  UNL     1       2.381   0.889  -1.111  1.00  0.00     0.110 A 
HETATM    4  N2  UNL     1       3.702   0.630  -1.120  1.00  0.00    -0.308 N 
HETATM    5  C4  UNL     1       4.277   1.527  -1.935  1.00  0.00     0.253 A 
ATOM      6  H2  UNL     1       4.177  -0.110  -0.603  1.00  0.00     0.170 HD
HETATM    7  O4  UNL     1       3.330   2.326  -2.422  1.00  0.00    -0.199 OA
HETATM    8  N6  UNL     1       2.218   1.927  -1.919  1.00  0.00    -0.245 N 
ATOM      9  H6  UNL     1       1.315   2.358  -2.118  1.00  0.00     0.196 HD
BRANCH   5  10
HETATM   10  N1  UNL     1       5.531   1.586  -2.187  1.00  0.00    -0.266 N 
HETATM   11  C3  UNL     1       6.448   0.687  -1.613  1.00  0.00     0.367 C 
HETATM   12  O2  UNL     1       7.245   0.070  -2.399  1.00  0.00    -0.238 OA
ATOM     13  H1  UNL     1       5.875   2.306  -2.822  1.00  0.00     0.174 HD
BRANCH  11  14
HETATM   14  O1  UNL     1       6.552   0.419  -0.259  1.00  0.00    -0.304 OA
BRANCH  14  15
HETATM   15  C2  UNL     1       7.454  -0.468   0.331  1.00  0.00     0.176 C 
HETATM   16  C1  UNL     1       8.862  -0.019   0.024  1.00  0.00     0.034 C 
ENDBRANCH  14  15
ENDBRANCH  11  14
ENDBRANCH   5  10
ENDBRANCH   1   3
BRANCH   1  17
HETATM   17  C8  UNL     1       0.194  -0.273  -1.141  1.00  0.00     0.124 C 
BRANCH  17  18
HETATM   18  N3  UNL     1      -0.791  -1.045  -0.443  1.00  0.00    -0.239 NA
HETATM   19  C9  UNL     1      -0.200  -2.365  -0.174  1.00  0.00     0.135 C 
BRANCH  18  20
HETATM   20  N4  UNL     1      -1.256  -0.550   0.732  1.00  0.00    -0.348 N 
ATOM     21  H4  UNL     1      -0.634  -0.487   1.538  1.00  0.00     0.174 HD
BRANCH  20  22
HETATM   22  C10 UNL     1      -2.585  -0.126   0.842  1.00  0.00     0.120 C 
HETATM   23  C11 UNL     1      -3.028   0.975  -0.090  1.00  0.00     0.055 C 
HETATM   24  C12 UNL     1      -4.530   0.994   0.237  1.00  0.00     0.034 C 
HETATM   25  C13 UNL     1      -4.737   2.066   1.271  1.00  0.00     0.034 C 
HETATM   26  C14 UNL     1      -5.359   1.303  -0.976  1.00  0.00     0.034 C 
HETATM   27  N5  UNL     1      -4.863  -0.316   0.723  1.00  0.00    -0.180 NA
HETATM   28  C15 UNL     1      -3.671  -1.128   0.682  1.00  0.00     0.053 C 
HETATM   29  C16 UNL     1      -3.604  -2.121   1.816  1.00  0.00     0.036 C 
HETATM   30  C17 UNL     1      -3.660  -1.879  -0.609  1.00  0.00     0.036 C 
BRANCH  27  31
HETATM   31  O3  UNL     1      -5.447  -0.268   1.922  1.00  0.00    -0.311 OA
ATOM     32  H3  UNL     1      -5.667  -1.134   2.243  1.00  0.00     0.237 HD
ENDBRANCH  27  31
ENDBRANCH  20  22
ENDBRANCH  18  20
ENDBRANCH  17  18
ENDBRANCH   1  17
TORSDOF 9
