REMARK  9 active torsions:
REMARK  status: ('A' for Active; 'I' for Inactive)
REMARK    1  A    between atoms: N1_2  and  C2_5 
REMARK    2  A    between atoms: C2_5  and  C3_6 
REMARK    3  A    between atoms: C6_9  and  O1_10 
REMARK    4  A    between atoms: C8_12  and  O2_13 
REMARK    5  A    between atoms: O2_13  and  C9_14 
REMARK    6  A    between atoms: C14_19  and  C15_20 
REMARK    7  A    between atoms: C15_20  and  O4_22 
REMARK    8  A    between atoms: C17_24  and  O5_25 
REMARK    9  A    between atoms: C18_27  and  O6_29 
ROOT
HETATM    1  C3  UNL     1       3.055   0.022  -0.072  1.00  0.00     0.151 C 
HETATM    2  C4  UNL     1       1.970   0.231   0.960  1.00  0.00     0.054 C 
HETATM    3  C5  UNL     1       0.737  -0.192   0.130  1.00  0.00     0.077 C 
HETATM    4  C6  UNL     1      -0.362  -0.661   1.034  1.00  0.00     0.193 C 
HETATM    5  C8  UNL     1      -1.700  -0.072   0.758  1.00  0.00     0.074 C 
HETATM    6  C13 UNL     1      -1.775   1.174   0.350  1.00  0.00     0.025 C 
HETATM    7  C14 UNL     1      -0.490   1.904   0.197  1.00  0.00     0.140 C 
HETATM    8  C17 UNL     1       0.413   1.026  -0.684  1.00  0.00     0.152 C 
HETATM    9  C18 UNL     1       1.344  -1.306  -0.654  1.00  0.00     0.171 C 
HETATM   10  C19 UNL     1       0.691  -1.583  -1.987  1.00  0.00     0.080 C 
HETATM   11  O7  UNL     1       2.705  -1.088  -0.795  1.00  0.00    -0.348 OA
ENDROOT
BRANCH   4  12
HETATM   12  O1  UNL     1       0.021  -0.343   2.362  1.00  0.00    -0.383 OA
HETATM   13  C7  UNL     1       0.062  -1.430   3.195  1.00  0.00     0.202 C 
ENDBRANCH   4  12
BRANCH   8  14
HETATM   14  O5  UNL     1      -0.274   0.821  -1.843  1.00  0.00    -0.393 OA
ATOM     15  H5  UNL     1      -0.479   1.592  -2.358  1.00  0.00     0.210 HD
ENDBRANCH   8  14
BRANCH   9  16
HETATM   16  O6  UNL     1       1.207  -2.479   0.089  1.00  0.00    -0.365 OA
ATOM     17  H6  UNL     1       1.594  -3.189  -0.410  1.00  0.00     0.213 HD
ENDBRANCH   9  16
BRANCH   1  18
HETATM   18  C2  UNL     1       4.420  -0.116   0.578  1.00  0.00     0.263 C 
BRANCH  18  19
HETATM   19  N1  UNL     1       5.390  -0.315  -0.491  1.00  0.00    -0.077 N 
HETATM   20  C1  UNL     1       6.689  -0.449   0.091  1.00  0.00     0.267 C 
ATOM     21  H12 UNL     1       5.352   0.421  -1.196  1.00  0.00     0.276 HD
ATOM     22  H11 UNL     1       5.150  -1.101  -1.096  1.00  0.00     0.276 HD
ENDBRANCH  18  19
ENDBRANCH   1  18
BRANCH   5  23
HETATM   23  O2  UNL     1      -2.861  -0.780   0.914  1.00  0.00    -0.343 OA
BRANCH  23  24
HETATM   24  C9  UNL     1      -3.777  -1.204  -0.030  1.00  0.00     0.056 C 
HETATM   25  C10 UNL     1      -4.413  -0.082  -0.834  1.00  0.00     0.045 C 
HETATM   26  C11 UNL     1      -3.312  -2.250  -0.987  1.00  0.00     0.045 C 
HETATM   27  C12 UNL     1      -4.953  -1.818   0.758  1.00  0.00     0.045 C 
ENDBRANCH  23  24
ENDBRANCH   5  23
BRANCH   7  28
HETATM   28  C15 UNL     1      -0.687   3.203  -0.451  1.00  0.00     0.268 C 
HETATM   29  O3  UNL     1      -0.116   3.465  -1.533  1.00  0.00    -0.264 OA
BRANCH  28  30
HETATM   30  O4  UNL     1      -1.508   4.169   0.118  1.00  0.00    -0.326 OA
HETATM   31  C16 UNL     1      -1.688   5.434  -0.530  1.00  0.00     0.213 C 
ENDBRANCH  28  30
ENDBRANCH   7  28
TORSDOF 9
