REMARK  5 active torsions:
REMARK  status: ('A' for Active; 'I' for Inactive)
REMARK    1  A    between atoms: C2_2  and  O2_4 
REMARK    2  A    between atoms: O2_4  and  C3_5 
REMARK    3  A    between atoms: C6_8  and  O3_9 
REMARK    4  A    between atoms: C11_16  and  O5_17 
REMARK    5  A    between atoms: O5_17  and  C12_18 
ROOT
HETATM    1  C3  UNL     1       1.565  -0.324  -0.158  1.00  0.00     0.144 C 
HETATM    2  C4  UNL     1       2.152  -1.730  -0.416  1.00  0.00     0.048 C 
HETATM    3  C5  UNL     1       3.589  -1.686   0.049  1.00  0.00     0.015 C 
HETATM    4  C6  UNL     1       1.412  -2.812   0.257  1.00  0.00     0.194 C 
HETATM    5  C7  UNL     1       0.339  -2.401   1.170  1.00  0.00     0.164 C 
HETATM    6  O4  UNL     1      -0.053  -3.222   1.989  1.00  0.00    -0.294 OA
HETATM    7  C8  UNL     1      -0.292  -1.079   1.165  1.00  0.00     0.029 C 
HETATM    8  C9  UNL     1       0.122  -0.319   2.356  1.00  0.00     0.024 C 
HETATM    9  C10 UNL     1      -1.776  -1.068   1.010  1.00  0.00     0.051 C 
HETATM   10  C11 UNL     1      -1.993   0.339   0.491  1.00  0.00     0.141 C 
HETATM   11  C14 UNL     1      -0.799   0.641  -0.432  1.00  0.00    -0.014 C 
HETATM   12  C15 UNL     1      -1.398   0.530  -1.847  1.00  0.00     0.018 C 
HETATM   13  C16 UNL     1      -0.347   2.043  -0.308  1.00  0.00     0.018 C 
HETATM   14  C17 UNL     1       0.118  -0.451  -0.178  1.00  0.00     0.042 C 
ENDROOT
BRANCH   1  15
HETATM   15  O2  UNL     1       2.190   0.630  -0.949  1.00  0.00    -0.315 OA
BRANCH  15  16
HETATM   16  C2  UNL     1       3.089   1.584  -0.523  1.00  0.00     0.255 C 
HETATM   17  C1  UNL     1       3.663   2.525  -1.501  1.00  0.00     0.126 C 
HETATM   18  O1  UNL     1       3.342   1.559   0.696  1.00  0.00    -0.266 OA
ENDBRANCH  15  16
ENDBRANCH   1  15
BRANCH   4  19
HETATM   19  O3  UNL     1       0.819  -3.706  -0.667  1.00  0.00    -0.388 OA
ATOM     20  H3  UNL     1       0.342  -4.404  -0.233  1.00  0.00     0.210 HD
ENDBRANCH   4  19
BRANCH  10  21
HETATM   21  O5  UNL     1      -3.216   0.479  -0.147  1.00  0.00    -0.316 OA
BRANCH  21  22
HETATM   22  C12 UNL     1      -4.181   1.380   0.264  1.00  0.00     0.255 C 
HETATM   23  C13 UNL     1      -5.493   1.520  -0.431  1.00  0.00     0.126 C 
HETATM   24  O6  UNL     1      -3.926   2.111   1.273  1.00  0.00    -0.266 OA
ENDBRANCH  21  22
ENDBRANCH  10  21
TORSDOF 5
