REMARK  4 active torsions:
REMARK  status: ('A' for Active; 'I' for Inactive)
REMARK    1  A    between atoms: C7_8  and  O2_9 
REMARK    2  A    between atoms: C13_16  and  O4_17 
REMARK    3  A    between atoms: C15_20  and  C16_21 
REMARK    4  A    between atoms: C16_21  and  O6_23 
ROOT
HETATM    1  C1  UNL     1       0.788   3.718  -1.646  1.00  0.00     0.052 C 
HETATM    2  C2  UNL     1       0.729   2.601  -0.960  1.00  0.00     0.100 C 
HETATM    3  O1  UNL     1      -0.128   2.622   0.132  1.00  0.00    -0.340 OA
HETATM    4  C3  UNL     1      -0.753   1.505   0.810  1.00  0.00     0.068 C 
HETATM    5  C4  UNL     1      -2.248   1.880   0.663  1.00  0.00     0.047 C 
HETATM    6  C5  UNL     1      -0.471   1.506   2.245  1.00  0.00     0.047 C 
HETATM    7  C6  UNL     1      -0.574   0.304  -0.018  1.00  0.00     0.070 C 
HETATM    8  C7  UNL     1      -1.581  -0.797   0.085  1.00  0.00     0.129 C 
HETATM    9  C9  UNL     1      -1.485  -1.609  -1.203  1.00  0.00     0.035 C 
HETATM   10  C10 UNL     1      -0.499  -1.153  -2.192  1.00  0.00     0.041 C 
HETATM   11  C11 UNL     1       0.825  -0.657  -1.700  1.00  0.00     0.079 C 
HETATM   12  C12 UNL     1       1.946  -1.537  -2.077  1.00  0.00     0.047 C 
HETATM   13  O3  UNL     1       0.972   0.618  -2.295  1.00  0.00    -0.337 OA
HETATM   14  C13 UNL     1       1.577   1.472  -1.434  1.00  0.00     0.213 C 
HETATM   15  C14 UNL     1       1.924   0.687  -0.182  1.00  0.00     0.099 C 
HETATM   16  C15 UNL     1       0.760  -0.291  -0.224  1.00  0.00     0.093 C 
ENDROOT
BRANCH  16  17
HETATM   17  C16 UNL     1       1.098  -1.460   0.631  1.00  0.00     0.271 C 
HETATM   18  O5  UNL     1       1.251  -2.634   0.220  1.00  0.00    -0.264 OA
BRANCH  17  19
HETATM   19  O6  UNL     1       1.265  -1.272   1.987  1.00  0.00    -0.326 OA
HETATM   20  C17 UNL     1       1.593  -2.275   2.926  1.00  0.00     0.213 C 
ENDBRANCH  17  19
ENDBRANCH  16  17
BRANCH   8  21
HETATM   21  O2  UNL     1      -1.450  -1.683   1.108  1.00  0.00    -0.390 OA
HETATM   22  C8  UNL     1      -2.626  -1.745   1.846  1.00  0.00     0.202 C 
ENDBRANCH   8  21
BRANCH  14  23
HETATM   23  O4  UNL     1       2.781   1.954  -1.951  1.00  0.00    -0.360 OA
ATOM     24  H4  UNL     1       3.322   1.234  -2.253  1.00  0.00     0.213 HD
ENDBRANCH  14  23
TORSDOF 4
