REMARK  4 active torsions:
REMARK  status: ('A' for Active; 'I' for Inactive)
REMARK    1  A    between atoms: C2_2  and  O2_4 
REMARK    2  A    between atoms: O2_4  and  C3_5 
REMARK    3  A    between atoms: C4_6  and  C5_7 
REMARK    4  A    between atoms: C13_18  and  O6_19 
ROOT
HETATM    1  C3  UNL     1      -0.859  -0.621  -0.349  1.00  0.00     0.145 C 
HETATM    2  C4  UNL     1      -0.201   0.665  -0.777  1.00  0.00     0.036 C 
HETATM    3  C8  UNL     1       1.156   0.710  -0.148  1.00  0.00     0.039 C 
HETATM    4  C9  UNL     1       1.209   1.446   1.125  1.00  0.00     0.025 C 
HETATM    5  C10 UNL     1       2.224   1.308  -0.995  1.00  0.00     0.212 C 
HETATM    6  O3  UNL     1       2.071   1.994  -2.009  1.00  0.00    -0.288 OA
HETATM    7  C11 UNL     1       3.570   1.004  -0.511  1.00  0.00     0.266 C 
HETATM    8  O4  UNL     1       4.543   1.730  -0.869  1.00  0.00    -0.280 OA
HETATM    9  C12 UNL     1       3.775  -0.157   0.397  1.00  0.00     0.231 C 
HETATM   10  O5  UNL     1       4.903  -0.314   0.959  1.00  0.00    -0.286 OA
HETATM   11  C13 UNL     1       2.692  -1.139   0.664  1.00  0.00     0.202 C 
HETATM   12  C14 UNL     1       1.508  -0.765  -0.095  1.00  0.00     0.049 C 
HETATM   13  C15 UNL     1       0.264  -1.551   0.037  1.00  0.00    -0.013 C 
HETATM   14  C16 UNL     1       0.230  -2.741  -0.926  1.00  0.00     0.018 C 
HETATM   15  C17 UNL     1       0.067  -2.248   1.346  1.00  0.00     0.018 C 
ENDROOT
BRANCH   1  16
HETATM   16  O2  UNL     1      -1.953  -0.593   0.445  1.00  0.00    -0.315 OA
BRANCH  16  17
HETATM   17  C2  UNL     1      -3.219  -0.991   0.419  1.00  0.00     0.255 C 
HETATM   18  C1  UNL     1      -4.245  -0.809   1.473  1.00  0.00     0.126 C 
HETATM   19  O1  UNL     1      -3.521  -1.571  -0.621  1.00  0.00    -0.266 OA
ENDBRANCH  16  17
ENDBRANCH   1  16
BRANCH   2  20
HETATM   20  C5  UNL     1      -1.092   1.820  -0.652  1.00  0.00    -0.015 C 
HETATM   21  C6  UNL     1      -2.282   1.589  -1.567  1.00  0.00     0.010 C 
HETATM   22  C7  UNL     1      -0.582   3.180  -0.912  1.00  0.00     0.010 C 
ENDBRANCH   2  20
BRANCH  11  23
HETATM   23  O6  UNL     1       2.601  -1.315   2.016  1.00  0.00    -0.387 OA
ATOM     24  H6  UNL     1       1.909  -1.943   2.187  1.00  0.00     0.210 HD
ENDBRANCH  11  23
TORSDOF 4
