REMARK  15 active torsions:
REMARK  status: ('A' for Active; 'I' for Inactive)
REMARK    1  A    between atoms: C2_2  and  N1_3 
REMARK    2  A    between atoms: N1_3  and  C3_4 
REMARK    3  A    between atoms: N1_3  and  S1_35 
REMARK    4  A    between atoms: C3_4  and  C4_5 
REMARK    5  A    between atoms: C8_9  and  C10_11 
REMARK       I    between atoms: N2_13  and  C12_14 
REMARK    6  A    between atoms: C12_14  and  C13_16 
REMARK    7  A    between atoms: C13_16  and  C14_17 
REMARK    8  A    between atoms: C13_16  and  N6_26 
REMARK    9  A    between atoms: C14_17  and  C15_18 
REMARK   10  A    between atoms: C15_18  and  C16_19 
REMARK   11  A    between atoms: C16_19  and  C17_20 
REMARK   12  A    between atoms: C17_20  and  N3_21 
REMARK       I    between atoms: N6_26  and  C19_28 
REMARK   13  A    between atoms: C19_28  and  O3_30 
REMARK   14  A    between atoms: O3_30  and  C20_31 
REMARK   15  A    between atoms: S1_35  and  C24_38 
ROOT
HETATM    1  C4  UNL     1       2.248  -0.569  -0.187  1.00  0.00     0.107 C 
HETATM    2  C5  UNL     1       3.594  -1.253  -0.176  1.00  0.00     0.033 C 
HETATM    3  C6  UNL     1       3.888  -1.271  -1.658  1.00  0.00     0.011 C 
HETATM    4  C7  UNL     1       5.036  -2.184  -1.985  1.00  0.00     0.012 C 
HETATM    5  C8  UNL     1       2.591  -1.596  -2.286  1.00  0.00     0.035 C 
HETATM    6  C9  UNL     1       2.328  -3.085  -2.381  1.00  0.00     0.039 C 
HETATM    7  N2  UNL     1       1.592  -1.066  -1.378  1.00  0.00    -0.335 N 
HETATM    8  C12 UNL     1       0.197  -1.062  -1.599  1.00  0.00     0.243 C 
HETATM    9  O1  UNL     1      -0.221  -1.564  -2.703  1.00  0.00    -0.271 OA
ENDROOT
BRANCH   8  10
HETATM   10  C13 UNL     1      -0.823  -0.525  -0.652  1.00  0.00     0.179 C 
BRANCH  10  11
HETATM   11  C14 UNL     1      -1.409   0.749  -1.296  1.00  0.00     0.035 C 
BRANCH  11  12
HETATM   12  C15 UNL     1      -2.449   1.378  -0.422  1.00  0.00     0.004 C 
BRANCH  12  13
HETATM   13  C16 UNL     1      -2.963   2.604  -1.120  1.00  0.00     0.020 C 
BRANCH  13  14
HETATM   14  C17 UNL     1      -4.024   3.293  -0.283  1.00  0.00     0.122 C 
BRANCH  14  15
HETATM   15  N3  UNL     1      -3.399   3.657   0.968  1.00  0.00    -0.367 N 
HETATM   16  C18 UNL     1      -3.883   4.482   1.806  1.00  0.00     0.196 C 
HETATM   17  N4  UNL     1      -3.168   4.755   3.002  1.00  0.00    -0.067 NA
HETATM   18  N5  UNL     1      -5.121   5.135   1.571  1.00  0.00    -0.067 NA
ATOM     19  H3  UNL     1      -2.505   3.221   1.195  1.00  0.00     0.161 HD
ENDBRANCH  14  15
ENDBRANCH  13  14
ENDBRANCH  12  13
ENDBRANCH  11  12
ENDBRANCH  10  11
BRANCH  10  20
HETATM   20  N6  UNL     1      -1.990  -1.434  -0.638  1.00  0.00    -0.324 N 
HETATM   21  C19 UNL     1      -2.500  -1.974   0.567  1.00  0.00     0.362 C 
HETATM   22  O2  UNL     1      -2.020  -1.734   1.690  1.00  0.00    -0.238 OA
ATOM     23  H6  UNL     1      -2.439  -1.678  -1.521  1.00  0.00     0.165 HD
BRANCH  21  24
HETATM   24  O3  UNL     1      -3.587  -2.810   0.491  1.00  0.00    -0.294 OA
BRANCH  24  25
HETATM   25  C20 UNL     1      -4.186  -3.411   1.633  1.00  0.00     0.061 C 
HETATM   26  C21 UNL     1      -5.342  -4.250   1.116  1.00  0.00     0.046 C 
HETATM   27  C22 UNL     1      -4.802  -2.350   2.534  1.00  0.00     0.046 C 
HETATM   28  C23 UNL     1      -3.243  -4.286   2.392  1.00  0.00     0.046 C 
ENDBRANCH  24  25
ENDBRANCH  21  24
ENDBRANCH  10  20
ENDBRANCH   8  10
BRANCH   1  29
HETATM   29  C3  UNL     1       2.405   0.918  -0.159  1.00  0.00     0.160 C 
BRANCH  29  30
HETATM   30  N1  UNL     1       3.061   1.437   0.991  1.00  0.00    -0.302 N 
BRANCH  30  31
HETATM   31  C2  UNL     1       2.187   1.871   2.020  1.00  0.00     0.131 C 
HETATM   32  C1  UNL     1       1.368   3.087   1.646  1.00  0.00     0.027 C 
ENDBRANCH  30  31
BRANCH  30  33
HETATM   33  S1  UNL     1       4.570   2.127   0.860  1.00  0.00     0.331 S 
HETATM   34  O4  UNL     1       4.488   3.660   0.755  1.00  0.00    -0.196 OA
HETATM   35  O5  UNL     1       5.376   1.739  -0.357  1.00  0.00    -0.196 OA
BRANCH  33  36
HETATM   36  C24 UNL     1       5.561   1.849   2.306  1.00  0.00     0.517 C 
HETATM   37  F1  UNL     1       6.830   2.416   2.141  1.00  0.00    -0.155 F 
HETATM   38  F2  UNL     1       4.973   2.452   3.416  1.00  0.00    -0.155 F 
HETATM   39  F3  UNL     1       5.721   0.519   2.595  1.00  0.00    -0.155 F 
ENDBRANCH  33  36
ENDBRANCH  30  33
ENDBRANCH  29  30
ENDBRANCH   1  29
BRANCH   5  40
HETATM   40  C10 UNL     1       2.523  -0.912  -3.633  1.00  0.00     0.027 C 
HETATM   41  C11 UNL     1       3.636  -1.377  -4.540  1.00  0.00     0.007 C 
ENDBRANCH   5  40
TORSDOF 15
