REMARK  16 active torsions:
REMARK  status: ('A' for Active; 'I' for Inactive)
REMARK    1  A    between atoms: O1_2  and  C2_3 
REMARK    2  A    between atoms: C2_3  and  C3_4 
REMARK    3  A    between atoms: C3_4  and  N1_5 
REMARK    4  A    between atoms: N1_5  and  C4_7 
REMARK    5  A    between atoms: C5_10  and  N3_11 
REMARK    6  A    between atoms: N3_11  and  C6_13 
REMARK    7  A    between atoms: C6_13  and  C7_14 
REMARK    8  A    between atoms: C7_14  and  N4_15 
REMARK    9  A    between atoms: N4_15  and  C8_16 
REMARK   10  A    between atoms: C8_16  and  C9_17 
REMARK   11  A    between atoms: C9_17  and  O2_18 
REMARK   12  A    between atoms: O2_18  and  C10_19 
REMARK   13  A    between atoms: C10_19  and  C11_20 
REMARK   14  A    between atoms: C11_20  and  C12_22 
REMARK   15  A    between atoms: C20_35  and  N6_36 
REMARK   16  A    between atoms: N6_36  and  C21_38 
ROOT
HETATM    1  C4  UNL     1       2.967   0.627   0.897  1.00  0.00     0.707 A 
HETATM    2  N2  UNL     1       1.672   0.266   0.662  1.00  0.00    -0.022 N 
ATOM      3  H2  UNL     1       0.916   0.905   0.906  1.00  0.00     0.203 HD
HETATM    4  C5  UNL     1       1.390  -0.913   0.118  1.00  0.00     0.707 A 
HETATM    5  N5  UNL     1       2.393  -1.757  -0.201  1.00  0.00    -0.021 N 
ATOM      6  H5  UNL     1       2.171  -2.661  -0.617  1.00  0.00     0.203 HD
HETATM    7  C20 UNL     1       3.677  -1.433   0.017  1.00  0.00     0.711 A 
HETATM    8  N7  UNL     1       3.924  -0.235   0.567  1.00  0.00    -0.021 N 
ATOM      9  H7  UNL     1       4.894   0.028   0.741  1.00  0.00     0.203 HD
ENDROOT
BRANCH   4  10
HETATM   10  N3  UNL     1       0.200  -1.284  -0.113  1.00  0.00    -0.223 N 
ATOM     11  H3  UNL     1       0.054  -2.202  -0.533  1.00  0.00     0.177 HD
BRANCH  10  12
HETATM   12  C6  UNL     1      -0.963  -0.474   0.187  1.00  0.00     0.166 C 
BRANCH  12  13
HETATM   13  C7  UNL     1      -2.132  -1.153  -0.466  1.00  0.00     0.257 C 
BRANCH  13  14
HETATM   14  N4  UNL     1      -3.407  -0.469  -0.257  1.00  0.00    -0.063 N 
HETATM   15  C13 UNL     1      -3.258   0.886  -0.718  1.00  0.00     0.237 C 
HETATM   16  C14 UNL     1      -2.833   0.951  -2.158  1.00  0.00     0.029 C 
HETATM   17  C15 UNL     1      -3.879   0.289  -3.001  1.00  0.00     0.012 C 
HETATM   18  C16 UNL     1      -4.795  -0.637  -2.318  1.00  0.00    -0.023 C 
HETATM   19  C17 UNL     1      -5.021  -1.822  -3.279  1.00  0.00     0.016 C 
HETATM   20  C18 UNL     1      -6.189   0.005  -2.217  1.00  0.00     0.016 C 
HETATM   21  C19 UNL     1      -4.396  -1.177  -0.997  1.00  0.00     0.246 C 
BRANCH  14  22
HETATM   22  C8  UNL     1      -3.588  -0.478   1.173  1.00  0.00     0.263 C 
BRANCH  22  23
HETATM   23  C9  UNL     1      -4.966  -0.343   1.686  1.00  0.00     0.196 C 
BRANCH  23  24
HETATM   24  O2  UNL     1      -5.596   0.848   1.299  1.00  0.00    -0.382 OA
BRANCH  24  25
HETATM   25  C10 UNL     1      -6.870   0.850   1.840  1.00  0.00     0.255 C 
BRANCH  25  26
HETATM   26  C11 UNL     1      -7.614   2.086   1.477  1.00  0.00     0.255 C 
HETATM   27  O3  UNL     1      -7.173   2.986   0.797  1.00  0.00    -0.286 OA
BRANCH  26  28
HETATM   28  C12 UNL     1      -9.007   2.215   1.998  1.00  0.00     0.453 C 
HETATM   29  F1  UNL     1      -9.000   2.187   3.395  1.00  0.00    -0.163 F 
HETATM   30  F2  UNL     1      -9.751   1.140   1.568  1.00  0.00    -0.163 F 
HETATM   31  F3  UNL     1      -9.573   3.423   1.626  1.00  0.00    -0.163 F 
ENDBRANCH  26  28
ENDBRANCH  25  26
ENDBRANCH  24  25
ENDBRANCH  23  24
ENDBRANCH  22  23
ENDBRANCH  14  22
ENDBRANCH  13  14
ENDBRANCH  12  13
ENDBRANCH  10  12
ENDBRANCH   4  10
BRANCH   1  32
HETATM   32  N1  UNL     1       3.204   1.773   1.417  1.00  0.00    -0.223 N 
ATOM     33  H1  UNL     1       2.418   2.383   1.640  1.00  0.00     0.177 HD
BRANCH  32  34
HETATM   34  C3  UNL     1       4.543   2.233   1.699  1.00  0.00     0.164 C 
BRANCH  34  35
HETATM   35  C2  UNL     1       5.177   2.858   0.461  1.00  0.00     0.187 C 
BRANCH  35  36
HETATM   36  O1  UNL     1       6.452   3.308   0.686  1.00  0.00    -0.394 OA
HETATM   37  C1  UNL     1       6.550   4.280   1.669  1.00  0.00     0.201 C 
ENDBRANCH  35  36
ENDBRANCH  34  35
ENDBRANCH  32  34
ENDBRANCH   1  32
BRANCH   7  38
HETATM   38  N6  UNL     1       4.584  -2.285  -0.313  1.00  0.00    -0.190 N 
ATOM     39  H6  UNL     1       4.284  -3.168  -0.726  1.00  0.00     0.184 HD
BRANCH  38  40
HETATM   40  C21 UNL     1       5.970  -2.072  -0.138  1.00  0.00     0.061 A 
HETATM   41  C22 UNL     1       6.688  -1.680  -1.250  1.00  0.00    -0.034 A 
HETATM   42  C23 UNL     1       6.015  -1.497  -2.568  1.00  0.00     0.050 C 
HETATM   43  C24 UNL     1       8.043  -1.468  -1.091  1.00  0.00     0.009 A 
HETATM   44  C25 UNL     1       8.628  -1.650   0.146  1.00  0.00     0.001 A 
HETATM   45  C26 UNL     1       7.872  -2.045   1.240  1.00  0.00     0.009 A 
HETATM   46  C27 UNL     1       6.525  -2.258   1.095  1.00  0.00    -0.034 A 
HETATM   47  C28 UNL     1       5.745  -2.681   2.289  1.00  0.00     0.050 C 
ENDBRANCH  38  40
ENDBRANCH   7  38
TORSDOF 16
