REMARK  12 active torsions:
REMARK  status: ('A' for Active; 'I' for Inactive)
REMARK    1  A    between atoms: C1_2  and  C2_4 
REMARK    2  A    between atoms: C2_4  and  C3_5 
REMARK    3  A    between atoms: C2_4  and  N3_15 
REMARK    4  A    between atoms: C3_5  and  C4_6 
REMARK    5  A    between atoms: N3_15  and  C8_17 
REMARK    6  A    between atoms: C8_17  and  C9_18 
REMARK    7  A    between atoms: C9_18  and  O2_19 
REMARK    8  A    between atoms: O2_19  and  C10_20 
REMARK    9  A    between atoms: C17_27  and  C18_28 
REMARK   10  A    between atoms: N4_31  and  S1_32 
REMARK   11  A    between atoms: S1_32  and  C21_35 
REMARK   12  A    between atoms: C21_35  and  C22_36 
ROOT
HETATM    1  C10 UNL     1      -1.307  -0.665  -0.772  1.00  0.00     0.069 A 
HETATM    2  C11 UNL     1      -1.663   0.388   0.043  1.00  0.00     0.039 A 
HETATM    3  C12 UNL     1      -0.718   0.942   0.877  1.00  0.00     0.040 A 
HETATM    4  C13 UNL     1       0.569   0.452   0.898  1.00  0.00     0.075 A 
HETATM    5  C14 UNL     1       0.942  -0.605   0.084  1.00  0.00    -0.022 A 
HETATM    6  C15 UNL     1       0.016  -1.167  -0.750  1.00  0.00     0.046 A 
HETATM    7  C16 UNL     1       2.332  -1.128   0.111  1.00  0.00     0.048 C 
HETATM    8  C17 UNL     1       3.244  -0.008   0.481  1.00  0.00     0.019 C 
HETATM    9  C25 UNL     1       2.850   0.479   1.846  1.00  0.00     0.181 C 
HETATM   10  O5  UNL     1       1.540   1.004   1.740  1.00  0.00    -0.350 OA
ENDROOT
BRANCH   1  11
HETATM   11  O2  UNL     1      -2.190  -1.261  -1.615  1.00  0.00    -0.350 OA
BRANCH  11  12
HETATM   12  C9  UNL     1      -3.499  -1.125  -1.922  1.00  0.00     0.195 C 
BRANCH  12  13
HETATM   13  C8  UNL     1      -4.497  -1.427  -0.790  1.00  0.00     0.141 C 
BRANCH  13  14
HETATM   14  N3  UNL     1      -5.785  -1.220  -1.326  1.00  0.00    -0.407 N 
ATOM     15  H3  UNL     1      -5.892  -0.991  -2.314  1.00  0.00     0.154 HD
BRANCH  14  16
HETATM   16  C2  UNL     1      -6.924  -1.327  -0.507  1.00  0.00     0.168 C 
BRANCH  16  17
HETATM   17  C1  UNL     1      -7.131  -2.658   0.106  1.00  0.00     0.253 C 
HETATM   18  N1  UNL     1      -8.260  -2.835   0.985  1.00  0.00    -0.060 NA
HETATM   19  O1  UNL     1      -6.401  -3.623  -0.088  1.00  0.00    -0.275 OA
ENDBRANCH  16  17
BRANCH  16  20
HETATM   20  C3  UNL     1      -7.147  -0.258   0.511  1.00  0.00     0.067 C 
BRANCH  20  21
HETATM   21  C4  UNL     1      -7.014   1.146   0.030  1.00  0.00     0.195 C 
HETATM   22  C5  UNL     1      -7.289   2.045   1.247  1.00  0.00     0.041 C 
HETATM   23  C6  UNL     1      -6.753   3.375   0.765  1.00  0.00     0.113 C 
HETATM   24  C7  UNL     1      -5.572   2.981  -0.086  1.00  0.00     0.403 C 
HETATM   25  F1  UNL     1      -5.553   3.766  -1.237  1.00  0.00    -0.174 F 
HETATM   26  F2  UNL     1      -4.362   3.155   0.591  1.00  0.00    -0.174 F 
HETATM   27  N2  UNL     1      -5.729   1.577  -0.384  1.00  0.00    -0.005 N 
ATOM     28  H22 UNL     1      -4.984   1.011   0.022  1.00  0.00     0.284 HD
ATOM     29  H21 UNL     1      -5.551   1.369  -1.367  1.00  0.00     0.284 HD
ENDBRANCH  20  21
ENDBRANCH  16  20
ENDBRANCH  14  16
ENDBRANCH  13  14
ENDBRANCH  12  13
ENDBRANCH  11  12
ENDBRANCH   1  11
BRANCH   8  30
HETATM   30  C18 UNL     1       4.698  -0.277   0.336  1.00  0.00     0.001 C 
HETATM   31  C19 UNL     1       5.042  -0.597  -1.104  1.00  0.00     0.051 C 
HETATM   32  C20 UNL     1       6.508  -0.885  -1.278  1.00  0.00     0.081 C 
HETATM   33  N4  UNL     1       7.271  -1.024  -0.111  1.00  0.00    -0.270 N 
HETATM   34  C23 UNL     1       6.678  -1.487   1.076  1.00  0.00     0.081 C 
HETATM   35  C24 UNL     1       5.179  -1.453   1.148  1.00  0.00     0.051 C 
BRANCH  33  36
HETATM   36  S1  UNL     1       8.709  -0.149   0.010  1.00  0.00     0.236 S 
HETATM   37  O3  UNL     1       9.477  -0.481   1.254  1.00  0.00    -0.205 OA
HETATM   38  O4  UNL     1       9.631  -0.478  -1.156  1.00  0.00    -0.205 OA
BRANCH  36  39
HETATM   39  C21 UNL     1       8.471   1.619  -0.045  1.00  0.00     0.178 C 
BRANCH  39  40
HETATM   40  C22 UNL     1       9.793   2.324   0.067  1.00  0.00     0.131 C 
HETATM   41 CL1  UNL     1      10.639   1.951   1.568  1.00  0.00    -0.129 Cl
ENDBRANCH  39  40
ENDBRANCH  36  39
ENDBRANCH  33  36
ENDBRANCH   8  30
TORSDOF 12
