REMARK  13 active torsions:
REMARK  status: ('A' for Active; 'I' for Inactive)
REMARK    1  A    between atoms: C2_2  and  C3_3 
REMARK    2  A    between atoms: C4_4  and  C5_5 
REMARK       I    between atoms: C5_5  and  N1_7 
REMARK    3  A    between atoms: N1_7  and  C6_9 
REMARK    4  A    between atoms: C6_9  and  C7_10 
REMARK    5  A    between atoms: C7_10  and  N2_11 
REMARK    6  A    between atoms: C10_14  and  C11_15 
REMARK    7  A    between atoms: C13_20  and  C14_21 
REMARK    8  A    between atoms: N3_28  and  C18_29 
REMARK       I    between atoms: N4_33  and  C22_34 
REMARK    9  A    between atoms: C22_34  and  C23_36 
REMARK   10  A    between atoms: C23_36  and  C24_37 
REMARK   11  A    between atoms: C24_37  and  N5_38 
REMARK   12  A    between atoms: N5_38  and  C25_41 
REMARK   13  A    between atoms: C25_41  and  C26_42 
ROOT
HETATM    1  C3  UNL     1       0.500   0.222   0.029  1.00  0.00     0.027 A 
HETATM    2  C4  UNL     1       1.524   0.342  -0.855  1.00  0.00     0.056 A 
HETATM    3  C15 UNL     1       0.925   0.108  -2.108  1.00  0.00     0.043 A 
HETATM    4  C16 UNL     1      -0.416  -0.138  -1.943  1.00  0.00     0.009 A 
HETATM    5  C17 UNL     1      -1.395  -0.423  -3.022  1.00  0.00     0.068 C 
HETATM    6  N3  UNL     1      -0.683  -0.070  -0.645  1.00  0.00    -0.347 N 
ENDROOT
BRANCH   2   7
HETATM    7  C5  UNL     1       2.937   0.681  -0.763  1.00  0.00     0.257 C 
HETATM    8  O1  UNL     1       3.700   0.247  -1.704  1.00  0.00    -0.267 OA
HETATM    9  N1  UNL     1       3.534   1.429   0.229  1.00  0.00    -0.332 N 
ATOM     10  H1  UNL     1       2.889   1.748   0.952  1.00  0.00     0.168 HD
BRANCH   9  11
HETATM   11  C6  UNL     1       4.873   1.837   0.433  1.00  0.00     0.102 C 
BRANCH  11  12
HETATM   12  C7  UNL     1       5.966   0.889   0.626  1.00  0.00     0.077 C 
BRANCH  12  13
HETATM   13  N2  UNL     1       6.404   0.003  -0.379  1.00  0.00    -0.279 NA
HETATM   14  C8  UNL     1       7.091   0.645  -1.485  1.00  0.00     0.096 C 
HETATM   15  C9  UNL     1       8.314   1.393  -1.041  1.00  0.00     0.028 C 
HETATM   16  C10 UNL     1       9.329   0.333  -0.654  1.00  0.00     0.096 C 
HETATM   17  C12 UNL     1       8.702  -0.965  -0.310  1.00  0.00     0.042 C 
HETATM   18  C13 UNL     1       7.320  -0.942   0.227  1.00  0.00     0.171 C 
BRANCH  16  19
HETATM   19  C11 UNL     1      10.327   0.841   0.336  1.00  0.00     0.391 C 
HETATM   20  F1  UNL     1      11.254  -0.131   0.686  1.00  0.00    -0.171 F 
HETATM   21  F2  UNL     1      11.083   1.869  -0.232  1.00  0.00    -0.171 F 
HETATM   22  F3  UNL     1       9.777   1.336   1.493  1.00  0.00    -0.171 F 
ENDBRANCH  16  19
BRANCH  18  23
HETATM   23  C14 UNL     1       6.781  -2.374   0.079  1.00  0.00     0.403 C 
HETATM   24  F4  UNL     1       6.664  -2.616  -1.270  1.00  0.00    -0.169 F 
HETATM   25  F5  UNL     1       7.780  -3.218   0.567  1.00  0.00    -0.169 F 
HETATM   26  F6  UNL     1       5.629  -2.523   0.787  1.00  0.00    -0.169 F 
ENDBRANCH  18  23
ENDBRANCH  12  13
ENDBRANCH  11  12
ENDBRANCH   9  11
ENDBRANCH   2   7
BRANCH   1  27
HETATM   27  C2  UNL     1       0.644   0.365   1.505  1.00  0.00     0.054 C 
HETATM   28  C1  UNL     1       1.377  -0.852   2.082  1.00  0.00     0.011 C 
ENDBRANCH   1  27
BRANCH   6  29
HETATM   29  C18 UNL     1      -1.903  -0.239   0.058  1.00  0.00     0.108 C 
HETATM   30  C19 UNL     1      -2.416   1.114   0.506  1.00  0.00     0.029 C 
HETATM   31  C20 UNL     1      -3.415   1.032   1.610  1.00  0.00     0.022 C 
HETATM   32  C21 UNL     1      -3.902  -0.400   1.723  1.00  0.00     0.126 C 
HETATM   33  N4  UNL     1      -4.153  -0.846   0.377  1.00  0.00    -0.350 N 
HETATM   34  C22 UNL     1      -5.483  -1.128  -0.017  1.00  0.00     0.221 C 
HETATM   35  C29 UNL     1      -3.011  -0.977  -0.581  1.00  0.00     0.151 C 
HETATM   36  O2  UNL     1      -5.643  -1.534  -1.221  1.00  0.00    -0.273 OA
BRANCH  34  37
HETATM   37  C23 UNL     1      -6.620  -0.964   0.893  1.00  0.00     0.130 C 
BRANCH  37  38
HETATM   38  C24 UNL     1      -7.932  -1.278   0.217  1.00  0.00     0.241 C 
BRANCH  38  39
HETATM   39  N5  UNL     1      -8.211  -0.452  -0.903  1.00  0.00    -0.074 N 
ATOM     40  H52 UNL     1      -8.044   0.530  -0.682  1.00  0.00     0.277 HD
ATOM     41  H51 UNL     1      -7.511  -0.580  -1.634  1.00  0.00     0.277 HD
BRANCH  39  42
HETATM   42  C25 UNL     1      -9.530  -0.642  -1.421  1.00  0.00     0.237 C 
BRANCH  42  43
HETATM   43  C26 UNL     1     -10.664  -0.035  -0.680  1.00  0.00     0.011 A 
HETATM   44  C27 UNL     1     -10.758   1.453  -0.528  1.00  0.00     0.007 A 
HETATM   45  C28 UNL     1     -10.458   0.610   0.658  1.00  0.00     0.007 A 
ENDBRANCH  42  43
ENDBRANCH  39  42
ENDBRANCH  38  39
ENDBRANCH  37  38
ENDBRANCH  34  37
ENDBRANCH   6  29
TORSDOF 13
