REMARK  13 active torsions:
REMARK  status: ('A' for Active; 'I' for Inactive)
REMARK    1  A    between atoms: C3_4  and  N2_5 
REMARK    2  A    between atoms: N2_5  and  C4_7 
REMARK    3  A    between atoms: C5_8  and  C6_9 
REMARK    4  A    between atoms: C6_9  and  C7_10 
REMARK    5  A    between atoms: N6_20  and  C10_21 
REMARK    6  A    between atoms: C10_21  and  C11_22 
REMARK    7  A    between atoms: C11_22  and  C12_23 
REMARK    8  A    between atoms: C12_23  and  C13_24 
REMARK    9  A    between atoms: C13_24  and  C14_25 
REMARK   10  A    between atoms: C14_25  and  N7_26 
REMARK   11  A    between atoms: C18_30  and  C19_31 
REMARK   12  A    between atoms: C21_33  and  C22_34 
REMARK   13  A    between atoms: C24_39  and  C25_40 
ROOT
HETATM    1  C12 UNL     1       1.180  -0.530   1.567  1.00  0.00     0.007 C 
ENDROOT
BRANCH   1   2
HETATM    2  C11 UNL     1       1.690  -1.546   0.590  1.00  0.00     0.022 C 
BRANCH   2   3
HETATM    3  C10 UNL     1       2.180  -1.037  -0.712  1.00  0.00     0.146 C 
BRANCH   3   4
HETATM    4  N6  UNL     1       3.344  -0.203  -0.716  1.00  0.00    -0.279 N 
HETATM    5  N1  UNL     1       3.460   1.205  -0.622  1.00  0.00    -0.228 NA
HETATM    6  C1  UNL     1       4.169   1.604   0.613  1.00  0.00     0.136 C 
HETATM    7  C2  UNL     1       4.472   1.448  -1.663  1.00  0.00     0.148 C 
HETATM    8  C3  UNL     1       5.543   0.389  -1.253  1.00  0.00     0.190 C 
HETATM    9  C9  UNL     1       4.687  -0.715  -0.850  1.00  0.00     0.258 C 
HETATM   10  O1  UNL     1       4.975  -1.898  -0.640  1.00  0.00    -0.270 OA
BRANCH   8  11
HETATM   11  N2  UNL     1       6.334   0.224  -2.378  1.00  0.00    -0.385 N 
ATOM     12  H2  UNL     1       6.438   1.051  -2.966  1.00  0.00     0.159 HD
BRANCH  11  13
HETATM   13  C4  UNL     1       6.989  -0.883  -2.807  1.00  0.00     0.080 C 
HETATM   14  C5  UNL     1       8.209  -1.508  -2.345  1.00  0.00    -0.003 C 
BRANCH  14  15
HETATM   15  C6  UNL     1       8.558  -2.059  -1.052  1.00  0.00     0.106 C 
BRANCH  15  16
HETATM   16  C7  UNL     1       8.691  -1.211   0.130  1.00  0.00     0.100 A 
HETATM   17  N3  UNL     1       7.871  -0.927   1.131  1.00  0.00    -0.340 N 
HETATM   18  C8  UNL     1       8.447  -0.086   2.000  1.00  0.00     0.198 A 
ATOM     19  H3  UNL     1       6.926  -1.299   1.227  1.00  0.00     0.168 HD
HETATM   20  N4  UNL     1       9.676   0.171   1.532  1.00  0.00    -0.295 N 
HETATM   21  N5  UNL     1       9.825  -0.497   0.421  1.00  0.00    -0.288 N 
ATOM     22  H4  UNL     1      10.370   0.779   1.966  1.00  0.00     0.187 HD
ATOM     23  H5  UNL     1      10.669  -0.489  -0.152  1.00  0.00     0.188 HD
ENDBRANCH  15  16
ENDBRANCH  14  15
ENDBRANCH  11  13
ENDBRANCH   8  11
ENDBRANCH   3   4
ENDBRANCH   2   3
ENDBRANCH   1   2
BRANCH   1  24
HETATM   24  C13 UNL     1      -0.008   0.216   0.935  1.00  0.00     0.044 C 
BRANCH  24  25
HETATM   25  C14 UNL     1      -1.134  -0.707   0.626  1.00  0.00     0.063 C 
BRANCH  25  26
HETATM   26  N7  UNL     1      -2.270  -0.121   0.053  1.00  0.00    -0.373 N 
HETATM   27  C15 UNL     1      -3.381  -0.962  -0.166  1.00  0.00     0.131 C 
HETATM   28  C16 UNL     1      -4.704  -0.507   0.364  1.00  0.00     0.055 C 
HETATM   29  C17 UNL     1      -4.808   0.881   0.819  1.00  0.00    -0.073 C 
HETATM   30  C18 UNL     1      -5.974   1.444   0.986  1.00  0.00     0.014 C 
HETATM   31  C27 UNL     1      -3.551   1.645   1.130  1.00  0.00     0.079 C 
HETATM   32  C28 UNL     1      -2.471   1.263   0.130  1.00  0.00     0.067 C 
BRANCH  30  33
HETATM   33  C19 UNL     1      -7.239   0.822   0.771  1.00  0.00    -0.034 A 
HETATM   34  C20 UNL     1      -7.636  -0.353   1.422  1.00  0.00     0.027 A 
HETATM   35  C21 UNL     1      -8.843  -0.955   1.201  1.00  0.00     0.049 A 
HETATM   36  C23 UNL     1      -9.720  -0.399   0.305  1.00  0.00     0.032 A 
HETATM   37  C24 UNL     1      -9.380   0.775  -0.376  1.00  0.00     0.049 A 
HETATM   38  C26 UNL     1      -8.157   1.344  -0.123  1.00  0.00     0.027 A 
BRANCH  35  39
HETATM   39  C22 UNL     1      -9.267  -2.206   1.890  1.00  0.00     0.417 C 
HETATM   40  F1  UNL     1     -10.266  -1.886   2.821  1.00  0.00    -0.166 F 
HETATM   41  F2  UNL     1      -9.842  -3.050   0.969  1.00  0.00    -0.166 F 
HETATM   42  F3  UNL     1      -8.222  -2.835   2.548  1.00  0.00    -0.166 F 
ENDBRANCH  35  39
BRANCH  37  43
HETATM   43  C25 UNL     1     -10.323   1.391  -1.340  1.00  0.00     0.417 C 
HETATM   44  F4  UNL     1     -11.497   0.665  -1.383  1.00  0.00    -0.166 F 
HETATM   45  F5  UNL     1      -9.711   1.381  -2.576  1.00  0.00    -0.166 F 
HETATM   46  F6  UNL     1     -10.554   2.711  -1.029  1.00  0.00    -0.166 F 
ENDBRANCH  37  43
ENDBRANCH  30  33
ENDBRANCH  25  26
ENDBRANCH  24  25
ENDBRANCH   1  24
TORSDOF 13
