REMARK  15 active torsions:
REMARK  status: ('A' for Active; 'I' for Inactive)
REMARK    1  A    between atoms: C5_7  and  C6_8 
REMARK    2  A    between atoms: C7_12  and  C8_13 
REMARK    3  A    between atoms: C9_16  and  N2_17 
REMARK    4  A    between atoms: N2_17  and  C10_19 
REMARK    5  A    between atoms: C10_19  and  C11_20 
REMARK    6  A    between atoms: C11_20  and  C12_21 
REMARK    7  A    between atoms: C12_21  and  N3_22 
REMARK    8  A    between atoms: C17_30  and  N5_31 
REMARK    9  A    between atoms: N5_31  and  C18_33 
REMARK   10  A    between atoms: C18_33  and  C19_34 
REMARK   11  A    between atoms: C19_34  and  C20_35 
REMARK   12  A    between atoms: C20_35  and  C21_36 
REMARK   13  A    between atoms: C21_36  and  C22_37 
REMARK   14  A    between atoms: C22_37  and  C23_38 
REMARK   15  A    between atoms: C23_38  and  C24_39 
ROOT
HETATM    1  C8  UNL     1       0.557   2.971   0.066  1.00  0.00     0.150 A 
HETATM    2  N1  UNL     1      -0.758   2.649  -0.194  1.00  0.00    -0.175 N 
ATOM      3  H1  UNL     1      -1.409   3.406  -0.402  1.00  0.00     0.186 HD
HETATM    4  C9  UNL     1      -1.220   1.408  -0.188  1.00  0.00     0.694 A 
HETATM    5  N4  UNL     1      -0.403   0.378   0.080  1.00  0.00    -0.022 N 
ATOM      6  H4  UNL     1      -0.742  -0.584   0.090  1.00  0.00     0.203 HD
HETATM    7  C17 UNL     1       0.871   0.671   0.332  1.00  0.00     0.694 A 
HETATM    8  N6  UNL     1       1.340   1.954   0.322  1.00  0.00    -0.175 N 
ATOM      9  H6  UNL     1       2.326   2.124   0.519  1.00  0.00     0.186 HD
ENDROOT
BRANCH   1  10
HETATM   10  C7  UNL     1       0.813   4.392   0.113  1.00  0.00     0.063 A 
HETATM   11  C1  UNL     1       0.001   5.156  -0.753  1.00  0.00     0.132 A 
HETATM   12  F1  UNL     1      -0.853   4.533  -1.632  1.00  0.00    -0.205 F 
HETATM   13  C2  UNL     1       0.006   6.513  -0.781  1.00  0.00     0.067 A 
HETATM   14  C3  UNL     1       0.827   7.193   0.060  1.00  0.00     0.037 A 
HETATM   15 CL1  UNL     1       0.856   8.963   0.047  1.00  0.00    -0.084 Cl
HETATM   16  C4  UNL     1       1.616   6.480   0.902  1.00  0.00     0.041 A 
HETATM   17  C5  UNL     1       1.635   5.059   0.956  1.00  0.00     0.066 A 
BRANCH  17  18
HETATM   18  C6  UNL     1       2.576   4.482   1.923  1.00  0.00     0.418 C 
HETATM   19  F2  UNL     1       3.678   3.859   1.426  1.00  0.00    -0.166 F 
HETATM   20  F3  UNL     1       1.837   3.633   2.782  1.00  0.00    -0.166 F 
HETATM   21  F4  UNL     1       3.052   5.481   2.772  1.00  0.00    -0.166 F 
ENDBRANCH  17  18
ENDBRANCH   1  10
BRANCH   4  22
HETATM   22  N2  UNL     1      -2.489   1.205  -0.447  1.00  0.00    -0.225 N 
ATOM     23  H2  UNL     1      -3.076   2.016  -0.644  1.00  0.00     0.177 HD
BRANCH  22  24
HETATM   24  C10 UNL     1      -3.105  -0.107  -0.469  1.00  0.00     0.143 C 
BRANCH  24  25
HETATM   25  C11 UNL     1      -3.559  -0.540   0.892  1.00  0.00     0.065 C 
BRANCH  25  26
HETATM   26  C12 UNL     1      -4.135  -1.896   0.970  1.00  0.00     0.065 C 
BRANCH  26  27
HETATM   27  N3  UNL     1      -5.242  -2.278   0.239  1.00  0.00    -0.370 N 
HETATM   28  C13 UNL     1      -5.248  -2.473  -1.139  1.00  0.00     0.089 C 
HETATM   29  C14 UNL     1      -6.413  -1.867  -1.883  1.00  0.00     0.212 C 
HETATM   30  O1  UNL     1      -7.611  -1.999  -1.196  1.00  0.00    -0.385 OA
HETATM   31  C15 UNL     1      -7.514  -2.844  -0.103  1.00  0.00     0.188 C 
HETATM   32  C16 UNL     1      -6.526  -2.287   0.884  1.00  0.00     0.153 C 
ENDBRANCH  26  27
ENDBRANCH  25  26
ENDBRANCH  24  25
ENDBRANCH  22  24
ENDBRANCH   4  22
BRANCH   7  33
HETATM   33  N5  UNL     1       1.648  -0.325   0.588  1.00  0.00    -0.226 N 
ATOM     34  H5  UNL     1       1.239  -1.259   0.580  1.00  0.00     0.177 HD
BRANCH  33  35
HETATM   35  C18 UNL     1       3.037  -0.213   0.881  1.00  0.00     0.138 C 
BRANCH  35  36
HETATM   36  C19 UNL     1       3.547  -1.452   1.593  1.00  0.00     0.020 C 
BRANCH  36  37
HETATM   37  C20 UNL     1       3.338  -2.660   0.738  1.00  0.00     0.002 C 
BRANCH  37  38
HETATM   38  C21 UNL     1       4.059  -2.553  -0.596  1.00  0.00     0.000 C 
BRANCH  38  39
HETATM   39  C22 UNL     1       5.534  -2.405  -0.406  1.00  0.00     0.001 C 
BRANCH  39  40
HETATM   40  C23 UNL     1       6.250  -2.293  -1.712  1.00  0.00     0.011 C 
BRANCH  40  41
HETATM   41  C24 UNL     1       6.029  -3.523  -2.548  1.00  0.00     0.085 C 
HETATM   42 BR1  UNL     1       6.679  -5.079  -1.583  1.00  0.00    -0.097 Br
ENDBRANCH  40  41
ENDBRANCH  39  40
ENDBRANCH  38  39
ENDBRANCH  37  38
ENDBRANCH  36  37
ENDBRANCH  35  36
ENDBRANCH  33  35
ENDBRANCH   7  33
TORSDOF 15
