REMARK  13 active torsions:
REMARK  status: ('A' for Active; 'I' for Inactive)
REMARK    1  A    between atoms: C2_2  and  C3_3 
REMARK    2  A    between atoms: C3_3  and  C4_4 
REMARK    3  A    between atoms: C4_4  and  N1_5 
REMARK       I    between atoms: N1_5  and  C5_7 
REMARK       I    between atoms: C5_7  and  N2_9 
REMARK    4  A    between atoms: C7_11  and  C8_12 
REMARK    5  A    between atoms: N3_14  and  C10_15 
REMARK    6  A    between atoms: C13_20  and  C14_21 
REMARK       I    between atoms: C14_21  and  N5_23 
REMARK    7  A    between atoms: N5_23  and  C15_25 
REMARK    8  A    between atoms: C15_25  and  C16_26 
REMARK    9  A    between atoms: C16_26  and  N6_27 
REMARK   10  A    between atoms: C21_32  and  C22_33 
REMARK   11  A    between atoms: C22_33  and  C23_34 
REMARK   12  A    between atoms: C23_34  and  C24_35 
REMARK   13  A    between atoms: C26_41  and  C27_42 
ROOT
HETATM    1  C10 UNL     1       0.583  -0.505   0.117  1.00  0.00     0.121 A 
HETATM    2  N4  UNL     1       1.308  -0.450   1.289  1.00  0.00    -0.344 N 
ATOM      3  H4  UNL     1       0.779  -0.375   2.158  1.00  0.00     0.167 HD
HETATM    4  C11 UNL     1       2.610  -0.485   1.388  1.00  0.00     0.023 A 
HETATM    5  C12 UNL     1       3.335  -0.413   2.693  1.00  0.00     0.069 C 
HETATM    6  C13 UNL     1       3.381  -0.587   0.208  1.00  0.00     0.060 A 
HETATM    7  C19 UNL     1       2.685  -0.646  -0.973  1.00  0.00    -0.034 A 
HETATM    8  C20 UNL     1       3.411  -0.792  -2.259  1.00  0.00     0.050 C 
HETATM    9  C21 UNL     1       1.267  -0.607  -1.049  1.00  0.00    -0.006 A 
ENDROOT
BRANCH   1  10
HETATM   10  N3  UNL     1      -0.824  -0.394   0.253  1.00  0.00    -0.271 N 
HETATM   11  C7  UNL     1      -1.586   0.810   0.351  1.00  0.00     0.017 C 
HETATM   12  C6  UNL     1      -2.861   0.664  -0.450  1.00  0.00     0.181 C 
HETATM   13  N2  UNL     1      -3.653  -0.322   0.332  1.00  0.00    -0.307 N 
HETATM   14  C5  UNL     1      -4.854   0.133   0.908  1.00  0.00     0.319 C 
HETATM   15  C26 UNL     1      -3.088  -1.622   0.417  1.00  0.00     0.289 C 
HETATM   16  N1  UNL     1      -5.654  -0.668   1.730  1.00  0.00    -0.343 N 
HETATM   17  O1  UNL     1      -5.192   1.313   0.655  1.00  0.00    -0.247 OA
ATOM     18  H1  UNL     1      -5.291  -1.604   1.909  1.00  0.00     0.164 HD
HETATM   19  C25 UNL     1      -1.595  -1.602   0.409  1.00  0.00     0.261 C 
HETATM   20  O3  UNL     1      -1.012  -2.707   0.550  1.00  0.00    -0.270 OA
BRANCH  11  21
HETATM   21  C8  UNL     1      -0.918   2.117   0.276  1.00  0.00     0.050 C 
HETATM   22  C9  UNL     1      -0.488   2.627  -1.051  1.00  0.00     0.011 C 
ENDBRANCH  11  21
BRANCH  16  23
HETATM   23  C4  UNL     1      -6.896  -0.372   2.352  1.00  0.00     0.124 C 
BRANCH  23  24
HETATM   24  C3  UNL     1      -8.117  -0.178   1.566  1.00  0.00     0.019 C 
BRANCH  24  25
HETATM   25  C2  UNL     1      -8.193   0.881   0.524  1.00  0.00    -0.003 C 
HETATM   26  C1  UNL     1      -9.625   0.902  -0.083  1.00  0.00     0.005 C 
ENDBRANCH  24  25
ENDBRANCH  23  24
ENDBRANCH  16  23
BRANCH  15  27
HETATM   27  C27 UNL     1      -3.607  -2.538  -0.639  1.00  0.00     0.416 C 
HETATM   28  F4  UNL     1      -2.985  -3.777  -0.459  1.00  0.00    -0.168 F 
HETATM   29  F5  UNL     1      -4.958  -2.816  -0.566  1.00  0.00    -0.168 F 
HETATM   30  F6  UNL     1      -3.368  -2.033  -1.878  1.00  0.00    -0.168 F 
ENDBRANCH  15  27
ENDBRANCH   1  10
BRANCH   9  31
HETATM   31  C22 UNL     1       0.697  -0.712  -2.410  1.00  0.00     0.052 C 
BRANCH  31  32
HETATM   32  C23 UNL     1       0.285  -2.082  -2.817  1.00  0.00     0.122 C 
BRANCH  32  33
HETATM   33  C24 UNL     1      -0.205  -2.096  -4.272  1.00  0.00     0.388 C 
HETATM   34  F1  UNL     1      -1.272  -1.252  -4.428  1.00  0.00    -0.171 F 
HETATM   35  F2  UNL     1      -0.581  -3.374  -4.629  1.00  0.00    -0.171 F 
HETATM   36  F3  UNL     1       0.831  -1.732  -5.105  1.00  0.00    -0.171 F 
ENDBRANCH  32  33
ENDBRANCH  31  32
ENDBRANCH   9  31
BRANCH   6  37
HETATM   37  C14 UNL     1       4.819  -0.669   0.361  1.00  0.00     0.254 C 
HETATM   38  O2  UNL     1       5.254  -1.266   1.399  1.00  0.00    -0.268 OA
HETATM   39  N5  UNL     1       5.780  -0.160  -0.502  1.00  0.00    -0.352 N 
ATOM     40  H5  UNL     1       5.467   0.336  -1.337  1.00  0.00     0.163 HD
BRANCH  39  41
HETATM   41  C15 UNL     1       7.215  -0.299  -0.275  1.00  0.00     0.167 C 
BRANCH  41  42
HETATM   42  C16 UNL     1       7.731   0.342   0.953  1.00  0.00     0.076 C 
BRANCH  42  43
HETATM   43  N6  UNL     1       7.592   1.738   1.076  1.00  0.00    -0.400 N 
HETATM   44  C17 UNL     1       6.305   2.300   1.224  1.00  0.00     0.148 C 
HETATM   45  C18 UNL     1       8.598   2.362   1.914  1.00  0.00     0.148 C 
ENDBRANCH  42  43
ENDBRANCH  41  42
ENDBRANCH  39  41
ENDBRANCH   6  37
TORSDOF 13
