REMARK  16 active torsions:
REMARK  status: ('A' for Active; 'I' for Inactive)
REMARK    1  A    between atoms: C1_2  and  C2_3 
REMARK       I    between atoms: C1_2  and  N2_17 
REMARK    2  A    between atoms: C2_3  and  C3_4 
REMARK    3  A    between atoms: C3_4  and  C4_5 
REMARK    4  A    between atoms: C4_5  and  C5_6 
REMARK    5  A    between atoms: C5_6  and  N1_7 
REMARK    6  A    between atoms: N2_17  and  C13_19 
REMARK    7  A    between atoms: C13_19  and  C14_20 
REMARK    8  A    between atoms: C14_20  and  C15_21 
REMARK    9  A    between atoms: C15_21  and  C16_22 
REMARK   10  A    between atoms: C16_22  and  C17_23 
REMARK   11  A    between atoms: C20_26  and  C21_27 
REMARK   12  A    between atoms: C21_27  and  O4_28 
REMARK   13  A    between atoms: C21_27  and  C22_30 
REMARK   14  A    between atoms: C21_27  and  C23_34 
REMARK   15  A    between atoms: C24_38  and  C25_39 
REMARK   16  A    between atoms: C26_40  and  C27_41 
ROOT
HETATM    1  C17 UNL     1      -4.004  -1.506  -0.515  1.00  0.00    -0.057 A 
HETATM    2  C18 UNL     1      -3.249  -0.727   0.309  1.00  0.00     0.008 A 
HETATM    3  C19 UNL     1      -3.774   0.246   1.141  1.00  0.00     0.013 A 
HETATM    4  C20 UNL     1      -5.120   0.468   1.167  1.00  0.00     0.013 A 
HETATM    5  C24 UNL     1      -5.956  -0.304   0.332  1.00  0.00     0.028 A 
HETATM    6  C30 UNL     1      -5.378  -1.259  -0.473  1.00  0.00     0.028 A 
ENDROOT
BRANCH   1   7
HETATM    7  C16 UNL     1      -3.454  -2.543  -1.418  1.00  0.00     0.038 C 
BRANCH   7   8
HETATM    8  C15 UNL     1      -3.222  -2.020  -2.807  1.00  0.00     0.006 C 
BRANCH   8   9
HETATM    9  C14 UNL     1      -2.204  -0.933  -2.861  1.00  0.00     0.020 C 
BRANCH   9  10
HETATM   10  C13 UNL     1      -0.851  -1.457  -2.433  1.00  0.00     0.122 C 
BRANCH  10  11
HETATM   11  N2  UNL     1       0.139  -0.399  -2.478  1.00  0.00    -0.361 N 
HETATM   12  C1  UNL     1       1.470  -0.695  -2.112  1.00  0.00     0.217 C 
HETATM   13  O1  UNL     1       1.774  -1.847  -1.758  1.00  0.00    -0.274 OA
ATOM     14  H2  UNL     1      -0.122   0.543  -2.769  1.00  0.00     0.162 HD
BRANCH  12  15
HETATM   15  C2  UNL     1       2.462   0.388  -2.166  1.00  0.00     0.103 C 
BRANCH  15  16
HETATM   16  C3  UNL     1       3.836   0.046  -1.730  1.00  0.00     0.011 C 
BRANCH  16  17
HETATM   17  C4  UNL     1       3.991  -0.399  -0.309  1.00  0.00     0.020 C 
BRANCH  17  18
HETATM   18  C5  UNL     1       5.463  -0.721  -0.002  1.00  0.00     0.117 C 
BRANCH  18  19
HETATM   19  N1  UNL     1       6.296   0.403  -0.199  1.00  0.00    -0.412 N 
HETATM   20  C6  UNL     1       6.177   1.499   0.681  1.00  0.00     0.122 C 
HETATM   21  C7  UNL     1       6.922   1.247   1.965  1.00  0.00     0.088 C 
HETATM   22  C8  UNL     1       8.303   0.747   1.800  1.00  0.00     0.167 C 
HETATM   23  C9  UNL     1       8.666   0.179   0.483  1.00  0.00     0.088 C 
HETATM   24  O2  UNL     1       9.248   1.697   2.252  1.00  0.00    -0.353 OA
HETATM   25  O3  UNL     1       8.498  -0.263   2.773  1.00  0.00    -0.353 OA
HETATM   26  C10 UNL     1       7.640   0.179  -0.579  1.00  0.00     0.122 C 
HETATM   27  C11 UNL     1      10.412   0.976   2.493  1.00  0.00     0.197 C 
HETATM   28  C12 UNL     1       9.878  -0.377   2.910  1.00  0.00     0.197 C 
ENDBRANCH  18  19
ENDBRANCH  17  18
ENDBRANCH  16  17
ENDBRANCH  15  16
ENDBRANCH  12  15
ENDBRANCH  10  11
ENDBRANCH   9  10
ENDBRANCH   8   9
ENDBRANCH   7   8
ENDBRANCH   1   7
BRANCH   5  29
HETATM   29  C25 UNL     1      -7.368  -0.058   0.195  1.00  0.00    -0.066 C 
HETATM   30  C26 UNL     1      -8.567   0.160   0.032  1.00  0.00    -0.096 C 
BRANCH  30  31
HETATM   31  C27 UNL     1      -9.986   0.440  -0.179  1.00  0.00     0.065 A 
HETATM   32  C28 UNL     1     -10.897  -0.749   0.043  1.00  0.00     0.018 A 
HETATM   33  C29 UNL     1     -10.691  -0.198  -1.316  1.00  0.00     0.018 A 
ENDBRANCH  30  31
ENDBRANCH   5  29
BRANCH   4  34
HETATM   34  C21 UNL     1      -5.788   1.394   2.074  1.00  0.00     0.283 C 
BRANCH  34  35
HETATM   35  O4  UNL     1      -6.650   2.286   1.394  1.00  0.00    -0.370 OA
ATOM     36  H4  UNL     1      -7.085   2.889   1.985  1.00  0.00     0.211 HD
ENDBRANCH  34  35
BRANCH  34  37
HETATM   37  C22 UNL     1      -6.389   0.814   3.295  1.00  0.00     0.431 C 
HETATM   38  F1  UNL     1      -7.014   1.781   4.085  1.00  0.00    -0.167 F 
HETATM   39  F2  UNL     1      -5.319   0.306   4.091  1.00  0.00    -0.167 F 
HETATM   40  F3  UNL     1      -7.240  -0.232   3.200  1.00  0.00    -0.167 F 
ENDBRANCH  34  37
BRANCH  34  41
HETATM   41  C23 UNL     1      -4.693   2.423   2.549  1.00  0.00     0.431 C 
HETATM   42  F4  UNL     1      -4.197   2.996   1.425  1.00  0.00    -0.167 F 
HETATM   43  F5  UNL     1      -5.495   3.432   3.150  1.00  0.00    -0.167 F 
HETATM   44  F6  UNL     1      -3.810   1.946   3.410  1.00  0.00    -0.167 F 
ENDBRANCH  34  41
ENDBRANCH   4  34
TORSDOF 16
