REMARK  14 active torsions:
REMARK  status: ('A' for Active; 'I' for Inactive)
REMARK    1  A    between atoms: C2_2  and  C3_3 
REMARK    2  A    between atoms: C3_3  and  C4_4 
REMARK    3  A    between atoms: C4_4  and  C5_5 
REMARK    4  A    between atoms: C5_5  and  C6_6 
REMARK    5  A    between atoms: C6_6  and  N1_7 
REMARK    6  A    between atoms: N1_7  and  C7_9 
REMARK    7  A    between atoms: C10_14  and  N3_15 
REMARK    8  A    between atoms: N3_15  and  C11_17 
REMARK    9  A    between atoms: C11_17  and  C12_18 
REMARK   10  A    between atoms: C12_18  and  N4_19 
REMARK   11  A    between atoms: N7_31  and  C20_32 
REMARK   12  A    between atoms: C28_42  and  C29_43 
REMARK   13  A    between atoms: C29_43  and  C30_44 
REMARK   14  A    between atoms: C30_44  and  C31_45 
ROOT
HETATM    1  C7  UNL     1      -0.430   1.896   0.086  1.00  0.00     0.684 A 
HETATM    2  N2  UNL     1      -1.368   0.961  -0.144  1.00  0.00    -0.188 N 
ATOM      3  H2  UNL     1      -2.347   1.241  -0.090  1.00  0.00     0.184 HD
HETATM    4  C8  UNL     1      -1.091  -0.327  -0.443  1.00  0.00     0.093 A 
HETATM    5  C9  UNL     1       0.234  -0.697  -0.518  1.00  0.00     0.141 A 
HETATM    6  C10 UNL     1       1.215   0.265  -0.282  1.00  0.00     0.153 A 
HETATM    7  N6  UNL     1       0.882   1.530   0.013  1.00  0.00    -0.174 N 
ATOM      8  H6  UNL     1       1.613   2.221   0.183  1.00  0.00     0.186 HD
HETATM    9  O1  UNL     1       0.533  -1.999  -0.824  1.00  0.00    -0.337 OA
HETATM   10  C18 UNL     1      -0.259  -3.047  -0.361  1.00  0.00     0.165 C 
HETATM   11  C19 UNL     1      -0.351  -4.219  -1.327  1.00  0.00     0.165 C 
HETATM   12  N7  UNL     1      -1.550  -4.935  -0.858  1.00  0.00    -0.315 N 
HETATM   13  C26 UNL     1      -2.438  -3.864  -0.465  1.00  0.00     0.235 C 
HETATM   14  O2  UNL     1      -3.696  -4.091  -0.523  1.00  0.00    -0.272 OA
HETATM   15  C27 UNL     1      -1.687  -2.664  -0.053  1.00  0.00     0.144 C 
HETATM   16  C28 UNL     1      -2.102  -1.375  -0.704  1.00  0.00    -0.016 C 
ENDROOT
BRANCH   6  17
HETATM   17  N3  UNL     1       2.417  -0.155  -0.371  1.00  0.00    -0.372 N 
ATOM     18  H3  UNL     1       2.555  -1.139  -0.603  1.00  0.00     0.161 HD
BRANCH  17  19
HETATM   19  C11 UNL     1       3.574   0.638  -0.173  1.00  0.00     0.151 C 
BRANCH  19  20
HETATM   20  C12 UNL     1       4.624  -0.249   0.529  1.00  0.00     0.292 C 
BRANCH  20  21
HETATM   21  N4  UNL     1       5.820   0.550   0.712  1.00  0.00     0.096 N 
HETATM   22  C13 UNL     1       6.824  -0.188   1.462  1.00  0.00     0.292 C 
HETATM   23  C14 UNL     1       8.073   0.645   1.652  1.00  0.00     0.151 C 
HETATM   24  N5  UNL     1       8.654   0.840   0.374  1.00  0.00    -0.394 N 
HETATM   25  C15 UNL     1       9.702   1.817   0.395  1.00  0.00     0.148 C 
HETATM   26  C16 UNL     1       7.809   0.887  -0.750  1.00  0.00     0.087 C 
HETATM   27  C17 UNL     1       6.348   1.024  -0.550  1.00  0.00     0.316 C 
ENDBRANCH  20  21
ENDBRANCH  19  20
ENDBRANCH  17  19
ENDBRANCH   6  17
BRANCH   1  28
HETATM   28  N1  UNL     1      -0.745   3.107   0.404  1.00  0.00    -0.205 N 
ATOM     29  H1  UNL     1       0.039   3.741   0.558  1.00  0.00     0.183 HD
BRANCH  28  30
HETATM   30  C6  UNL     1      -2.026   3.670   0.567  1.00  0.00     0.079 C 
BRANCH  30  31
HETATM   31  C5  UNL     1      -2.227   4.789  -0.446  1.00  0.00     0.045 C 
BRANCH  31  32
HETATM   32  C4  UNL     1      -3.608   5.403  -0.286  1.00  0.00     0.005 C 
BRANCH  32  33
HETATM   33  C3  UNL     1      -3.750   6.501  -1.304  1.00  0.00     0.000 C 
BRANCH  33  34
HETATM   34  C2  UNL     1      -5.112   7.160  -1.205  1.00  0.00    -0.005 C 
HETATM   35  C1  UNL     1      -5.253   7.730   0.179  1.00  0.00     0.005 C 
ENDBRANCH  33  34
ENDBRANCH  32  33
ENDBRANCH  31  32
ENDBRANCH  30  31
ENDBRANCH  28  30
ENDBRANCH   1  28
BRANCH  16  36
HETATM   36  C29 UNL     1      -3.513  -1.034  -0.620  1.00  0.00    -0.016 C 
BRANCH  36  37
HETATM   37  C30 UNL     1      -4.197  -0.538   0.571  1.00  0.00     0.027 C 
BRANCH  37  38
HETATM   38  C31 UNL     1      -4.159  -1.348   1.823  1.00  0.00    -0.001 C 
HETATM   39  C32 UNL     1      -4.975  -0.677   2.933  1.00  0.00     0.005 C 
ENDBRANCH  37  38
ENDBRANCH  36  37
ENDBRANCH  16  36
BRANCH  12  40
HETATM   40  C20 UNL     1      -1.754  -6.340  -0.809  1.00  0.00     0.037 A 
HETATM   41  C21 UNL     1      -2.493  -6.980  -1.778  1.00  0.00     0.033 A 
HETATM   42  C22 UNL     1      -2.693  -8.356  -1.733  1.00  0.00     0.044 A 
HETATM   43  C23 UNL     1      -2.163  -9.127  -0.722  1.00  0.00     0.116 A 
HETATM   44  F1  UNL     1      -2.356 -10.482  -0.671  1.00  0.00    -0.206 F 
HETATM   45  C24 UNL     1      -1.419  -8.501   0.258  1.00  0.00     0.044 A 
HETATM   46  C25 UNL     1      -1.225  -7.131   0.205  1.00  0.00     0.033 A 
ENDBRANCH  12  40
TORSDOF 14
