REMARK  14 active torsions:
REMARK  status: ('A' for Active; 'I' for Inactive)
REMARK    1  A    between atoms: C2_2  and  C3_3 
REMARK    2  A    between atoms: C3_3  and  C6_6 
REMARK       I    between atoms: C6_6  and  N1_8 
REMARK    3  A    between atoms: N1_8  and  C7_10 
REMARK    4  A    between atoms: N2_12  and  C8_14 
REMARK    5  A    between atoms: C8_14  and  C9_15 
REMARK    6  A    between atoms: C8_14  and  C16_23 
REMARK    7  A    between atoms: C9_15  and  C10_16 
REMARK    8  A    between atoms: C10_16  and  N3_17 
REMARK    9  A    between atoms: C16_23  and  O2_24 
REMARK   10  A    between atoms: O2_24  and  C17_25 
REMARK   11  A    between atoms: C17_25  and  O3_26 
REMARK   12  A    between atoms: C18_28  and  C19_29 
REMARK   13  A    between atoms: C19_29  and  O4_30 
REMARK   14  A    between atoms: O4_30  and  C20_31 
ROOT
HETATM    1  C8  UNL     1      -0.968   0.520  -0.474  1.00  0.00     0.112 C 
ENDROOT
BRANCH   1   2
HETATM    2  N2  UNL     1      -1.912  -0.391   0.283  1.00  0.00    -0.363 N 
HETATM    3  C7  UNL     1      -3.031  -1.016  -0.000  1.00  0.00     0.154 C 
HETATM    4  S1  UNL     1      -3.243   0.103  -1.698  1.00  0.00    -0.013 SA
ATOM      5  H2  UNL     1      -1.605  -0.559   1.241  1.00  0.00     0.162 HD
BRANCH   3   6
HETATM    6  N1  UNL     1      -4.162  -1.646  -0.292  1.00  0.00    -0.306 N 
HETATM    7  C6  UNL     1      -4.596  -2.692   0.658  1.00  0.00     0.231 C 
HETATM    8  O1  UNL     1      -3.930  -2.938   1.682  1.00  0.00    -0.272 OA
ATOM      9  H1  UNL     1      -4.703  -1.421  -1.127  1.00  0.00     0.171 HD
BRANCH   7  10
HETATM   10  C3  UNL     1      -5.830  -3.471   0.388  1.00  0.00     0.034 C 
HETATM   11  C4  UNL     1      -6.070  -4.406   1.548  1.00  0.00     0.025 C 
HETATM   12  C5  UNL     1      -5.467  -4.356  -0.825  1.00  0.00     0.025 C 
BRANCH  10  13
HETATM   13  C2  UNL     1      -7.028  -2.642   0.090  1.00  0.00     0.014 C 
HETATM   14  C1  UNL     1      -8.226  -3.500  -0.276  1.00  0.00     0.006 C 
ENDBRANCH  10  13
ENDBRANCH   7  10
ENDBRANCH   3   6
ENDBRANCH   1   2
BRANCH   1  15
HETATM   15  C9  UNL     1      -1.343   1.874  -0.032  1.00  0.00     0.071 C 
BRANCH  15  16
HETATM   16  C10 UNL     1      -0.628   3.031  -0.660  1.00  0.00     0.060 C 
BRANCH  16  17
HETATM   17  N3  UNL     1      -1.086   4.266  -0.239  1.00  0.00    -0.393 N 
HETATM   18  C11 UNL     1      -0.903   4.799   1.035  1.00  0.00     0.122 C 
HETATM   19  C12 UNL     1      -0.542   6.286   1.002  1.00  0.00     0.020 C 
HETATM   20  C13 UNL     1      -1.507   7.031   0.144  1.00  0.00     0.003 C 
HETATM   21  C14 UNL     1      -1.677   6.430  -1.219  1.00  0.00     0.020 C 
HETATM   22  C15 UNL     1      -2.041   4.964  -1.055  1.00  0.00     0.122 C 
ENDBRANCH  16  17
ENDBRANCH  15  16
ENDBRANCH   1  15
BRANCH   1  23
HETATM   23  C16 UNL     1       0.311  -0.097  -0.173  1.00  0.00     0.203 C 
BRANCH  23  24
HETATM   24  O2  UNL     1       1.547   0.243  -0.751  1.00  0.00    -0.329 OA
BRANCH  24  25
HETATM   25  C17 UNL     1       2.600  -0.586  -0.333  1.00  0.00     0.176 C 
HETATM   26  C18 UNL     1       3.975  -0.676  -0.667  1.00  0.00     0.063 C 
BRANCH  25  27
HETATM   27  O3  UNL     1       2.170  -1.459   0.548  1.00  0.00    -0.341 OA
ATOM     28  H3  UNL     1       2.883  -2.020   0.831  1.00  0.00     0.220 HD
ENDBRANCH  25  27
BRANCH  26  29
HETATM   29  C19 UNL     1       4.955   0.352  -0.277  1.00  0.00     0.208 C 
BRANCH  29  30
HETATM   30  O4  UNL     1       6.290  -0.035  -0.607  1.00  0.00    -0.346 OA
BRANCH  30  31
HETATM   31  C20 UNL     1       6.823  -1.189  -0.032  1.00  0.00     0.081 A 
HETATM   32  C21 UNL     1       6.881  -2.419  -0.609  1.00  0.00    -0.027 A 
HETATM   33  C22 UNL     1       6.468  -2.681  -2.029  1.00  0.00     0.051 C 
HETATM   34  C23 UNL     1       7.422  -3.532   0.070  1.00  0.00     0.028 A 
HETATM   35  C24 UNL     1       7.898  -3.348   1.344  1.00  0.00     0.012 A 
HETATM   36 BR1  UNL     1       8.644  -4.799   2.321  1.00  0.00    -0.051 Br
HETATM   37  C25 UNL     1       7.841  -2.095   1.919  1.00  0.00     0.028 A 
HETATM   38  C26 UNL     1       7.318  -1.013   1.267  1.00  0.00    -0.027 A 
HETATM   39  C27 UNL     1       7.300   0.325   1.911  1.00  0.00     0.051 C 
ENDBRANCH  30  31
ENDBRANCH  29  30
ENDBRANCH  26  29
ENDBRANCH  24  25
ENDBRANCH  23  24
ENDBRANCH   1  23
TORSDOF 14
