REMARK  12 active torsions:
REMARK  status: ('A' for Active; 'I' for Inactive)
REMARK    1  A    between atoms: O1_2  and  C2_3 
REMARK    2  A    between atoms: N1_5  and  C4_6 
REMARK    3  A    between atoms: N2_17  and  C15_18 
REMARK    4  A    between atoms: C15_18  and  C16_19 
REMARK    5  A    between atoms: C16_19  and  C17_20 
REMARK    6  A    between atoms: C17_20  and  C18_21 
REMARK    7  A    between atoms: C18_21  and  C19_22 
REMARK    8  A    between atoms: C19_22  and  C20_23 
REMARK       I    between atoms: C20_23  and  N3_25 
REMARK    9  A    between atoms: N3_25  and  C21_27 
REMARK   10  A    between atoms: C25_32  and  S1_33 
REMARK   11  A    between atoms: S1_33  and  N4_36 
REMARK   12  A    between atoms: N4_36  and  C26_38 
ROOT
HETATM    1  C18 UNL     1       1.791   0.865   1.569  1.00  0.00     0.009 C 
ENDROOT
BRANCH   1   2
HETATM    2  C17 UNL     1       0.621   0.047   1.120  1.00  0.00     0.002 C 
BRANCH   2   3
HETATM    3  C16 UNL     1       0.303   0.178  -0.341  1.00  0.00     0.030 C 
BRANCH   3   4
HETATM    4  C15 UNL     1      -0.897  -0.700  -0.623  1.00  0.00     0.276 C 
BRANCH   4   5
HETATM    5  N2  UNL     1      -2.069  -0.310   0.144  1.00  0.00     0.120 N 
HETATM    6  C2  UNL     1      -3.129  -1.228  -0.197  1.00  0.00     0.376 C 
HETATM    7  C3  UNL     1      -4.444  -0.747   0.453  1.00  0.00     0.181 C 
HETATM    8  N1  UNL     1      -4.764   0.477  -0.178  1.00  0.00    -0.402 N 
HETATM    9  C13 UNL     1      -3.791   1.471   0.094  1.00  0.00     0.147 C 
HETATM   10  C14 UNL     1      -2.375   1.057  -0.187  1.00  0.00     0.295 C 
BRANCH   6  11
HETATM   11  O1  UNL     1      -2.812  -2.494   0.235  1.00  0.00    -0.361 OA
HETATM   12  C1  UNL     1      -2.837  -3.385  -0.830  1.00  0.00     0.204 C 
ENDBRANCH   6  11
BRANCH   8  13
HETATM   13  C4  UNL     1      -6.082   0.960  -0.133  1.00  0.00     0.083 C 
HETATM   14  C5  UNL     1      -6.602   1.188   1.268  1.00  0.00     0.026 C 
HETATM   15  C6  UNL     1      -7.967   0.578   1.292  1.00  0.00     0.007 C 
HETATM   16  C7  UNL     1      -7.927  -0.478   0.207  1.00  0.00    -0.008 C 
HETATM   17  C8  UNL     1      -9.321  -0.732  -0.338  1.00  0.00     0.005 C 
HETATM   18  C12 UNL     1      -7.142   0.237  -0.870  1.00  0.00     0.012 C 
HETATM   19  C9  UNL     1      -9.193  -1.094  -1.794  1.00  0.00     0.000 C 
HETATM   20  C10 UNL     1      -7.841  -1.760  -2.073  1.00  0.00     0.000 C 
HETATM   21  C11 UNL     1      -6.729  -0.709  -1.927  1.00  0.00     0.007 C 
ENDBRANCH   8  13
ENDBRANCH   4   5
ENDBRANCH   3   4
ENDBRANCH   2   3
ENDBRANCH   1   2
BRANCH   1  22
HETATM   22  C19 UNL     1       3.018   0.449   0.826  1.00  0.00     0.103 C 
BRANCH  22  23
HETATM   23  C20 UNL     1       4.215   1.264   1.267  1.00  0.00     0.222 C 
HETATM   24  O2  UNL     1       3.977   2.116   2.131  1.00  0.00    -0.273 OA
HETATM   25  N3  UNL     1       5.468   1.025   0.702  1.00  0.00    -0.327 N 
ATOM     26  H3  UNL     1       5.529   0.289  -0.002  1.00  0.00     0.169 HD
BRANCH  25  27
HETATM   27  C21 UNL     1       6.650   1.709   1.018  1.00  0.00     0.036 A 
HETATM   28  C22 UNL     1       6.727   2.807   1.796  1.00  0.00     0.031 A 
HETATM   29  C23 UNL     1       7.962   3.419   2.062  1.00  0.00     0.028 A 
HETATM   30  C24 UNL     1       9.134   2.928   1.543  1.00  0.00     0.057 A 
HETATM   31 CL1  UNL     1      10.661   3.720   1.897  1.00  0.00    -0.083 Cl
HETATM   32  C25 UNL     1       9.074   1.787   0.731  1.00  0.00     0.103 A 
HETATM   33  C29 UNL     1       7.860   1.225   0.498  1.00  0.00     0.056 A 
BRANCH  32  34
HETATM   34  S1  UNL     1      10.594   1.233   0.107  1.00  0.00     0.260 S 
HETATM   35  O3  UNL     1      11.252   2.291  -0.735  1.00  0.00    -0.200 OA
HETATM   36  O4  UNL     1      11.533   0.968   1.262  1.00  0.00    -0.200 OA
BRANCH  34  37
HETATM   37  N4  UNL     1      10.424  -0.171  -0.837  1.00  0.00    -0.311 N 
ATOM     38  H4  UNL     1      10.672  -0.202  -1.826  1.00  0.00     0.172 HD
BRANCH  37  39
HETATM   39  C26 UNL     1       9.903  -1.310  -0.132  1.00  0.00     0.093 A 
HETATM   40  C27 UNL     1      10.586  -2.672  -0.439  1.00  0.00     0.028 A 
HETATM   41  C28 UNL     1       9.208  -2.349  -0.961  1.00  0.00     0.028 A 
ENDBRANCH  37  39
ENDBRANCH  34  37
ENDBRANCH  32  34
ENDBRANCH  25  27
ENDBRANCH  22  23
ENDBRANCH   1  22
TORSDOF 12
