REMARK  15 active torsions:
REMARK  status: ('A' for Active; 'I' for Inactive)
REMARK    1  A    between atoms: C2_2  and  C3_3 
REMARK    2  A    between atoms: C3_3  and  O1_4 
REMARK    3  A    between atoms: N1_6  and  O2_8 
REMARK    4  A    between atoms: N2_12  and  C6_13 
REMARK    5  A    between atoms: C6_13  and  C7_14 
REMARK    6  A    between atoms: C7_14  and  O3_15 
REMARK    7  A    between atoms: C7_14  and  C8_17 
REMARK    8  A    between atoms: C8_17  and  O4_18 
REMARK    9  A    between atoms: O4_18  and  C9_19 
REMARK   10  A    between atoms: C9_19  and  C10_20 
REMARK   11  A    between atoms: C10_20  and  C11_21 
REMARK   12  A    between atoms: C11_21  and  C12_22 
REMARK   13  A    between atoms: C12_22  and  N3_23 
REMARK   14  A    between atoms: N4_26  and  C15_27 
REMARK   15  A    between atoms: C15_27  and  C16_28 
ROOT
HETATM    1  C7  UNL     1      -1.815   0.848   1.275  1.00  0.00     0.082 C 
ENDROOT
BRANCH   1   2
HETATM    2  C6  UNL     1      -3.133   1.342   1.747  1.00  0.00     0.188 C 
BRANCH   2   3
HETATM    3  N2  UNL     1      -4.266   1.218   0.907  1.00  0.00    -0.386 N 
HETATM    4  C5  UNL     1      -5.397   1.811   1.551  1.00  0.00     0.123 C 
HETATM    5  C4  UNL     1      -6.727   1.265   1.209  1.00  0.00     0.038 C 
HETATM    6  C2  UNL     1      -6.722   1.025  -0.305  1.00  0.00     0.036 C 
HETATM    7  C1  UNL     1      -6.277   2.292  -0.998  1.00  0.00     0.025 C 
HETATM    8  C25 UNL     1      -5.775  -0.114  -0.528  1.00  0.00     0.006 C 
HETATM    9  C24 UNL     1      -4.470   0.041   0.189  1.00  0.00     0.069 C 
HETATM   10  C26 UNL     1      -6.459  -1.382  -0.067  1.00  0.00     0.016 C 
HETATM   11  C29 UNL     1      -5.509  -0.341  -2.005  1.00  0.00     0.016 C 
HETATM   12  C27 UNL     1      -6.624  -2.271  -1.261  1.00  0.00     0.001 C 
HETATM   13  C28 UNL     1      -5.644  -1.798  -2.283  1.00  0.00     0.001 C 
BRANCH   6  14
HETATM   14  C3  UNL     1      -8.110   0.718  -0.698  1.00  0.00     0.145 C 
HETATM   15  N1  UNL     1      -9.087   0.671   0.162  1.00  0.00    -0.250 N 
ATOM     16  H1  UNL     1      -8.868   0.856   1.141  1.00  0.00     0.196 HD
BRANCH  14  17
HETATM   17  O1  UNL     1      -8.468   0.460  -2.015  1.00  0.00    -0.347 OA
ATOM     18  H1  UNL     1      -9.362   0.262  -2.268  1.00  0.00     0.219 HD
ENDBRANCH  14  17
BRANCH  15  19
HETATM   19  O2  UNL     1     -10.371   0.394  -0.154  1.00  0.00    -0.288 OA
ATOM     20  H2  UNL     1     -11.084   0.360   0.473  1.00  0.00     0.244 HD
ENDBRANCH  15  19
ENDBRANCH   6  14
ENDBRANCH   2   3
ENDBRANCH   1   2
BRANCH   1  21
HETATM   21  O3  UNL     1      -1.333   1.376   0.116  1.00  0.00    -0.361 OA
ATOM     22  H3  UNL     1      -0.490   1.060  -0.186  1.00  0.00     0.217 HD
ENDBRANCH   1  21
BRANCH   1  23
HETATM   23  C8  UNL     1      -1.557  -0.602   1.544  1.00  0.00     0.168 C 
BRANCH  23  24
HETATM   24  O4  UNL     1      -0.389  -1.086   1.776  1.00  0.00    -0.360 OA
BRANCH  24  25
HETATM   25  C9  UNL     1       0.796  -1.245   1.322  1.00  0.00     0.174 C 
BRANCH  25  26
HETATM   26  C10 UNL     1       1.633  -0.034   1.098  1.00  0.00     0.028 C 
BRANCH  26  27
HETATM   27  C11 UNL     1       3.060  -0.347   0.630  1.00  0.00     0.021 C 
BRANCH  27  28
HETATM   28  C12 UNL     1       3.055  -1.071  -0.663  1.00  0.00     0.117 C 
BRANCH  28  29
HETATM   29  N3  UNL     1       4.396  -1.381  -1.140  1.00  0.00    -0.406 N 
HETATM   30  C13 UNL     1       5.072  -2.355  -0.347  1.00  0.00     0.137 C 
HETATM   31  C14 UNL     1       6.540  -2.345  -0.741  1.00  0.00     0.146 C 
HETATM   32  N4  UNL     1       7.166  -1.119  -0.385  1.00  0.00    -0.366 N 
HETATM   33  C22 UNL     1       6.319  -0.018  -0.601  1.00  0.00     0.083 C 
HETATM   34  C23 UNL     1       5.156  -0.248  -1.539  1.00  0.00     0.161 C 
BRANCH  32  35
HETATM   35  C15 UNL     1       8.548  -1.016  -0.567  1.00  0.00     0.101 C 
BRANCH  35  36
HETATM   36  C16 UNL     1       9.179   0.247  -0.192  1.00  0.00    -0.021 A 
HETATM   37  C17 UNL     1       9.464   1.162  -1.166  1.00  0.00     0.014 A 
HETATM   38  C18 UNL     1      10.055   2.360  -0.833  1.00  0.00     0.020 A 
HETATM   39  C19 UNL     1      10.371   2.664   0.473  1.00  0.00     0.011 A 
HETATM   40 BR1  UNL     1      11.187   4.323   0.914  1.00  0.00    -0.051 Br
HETATM   41  C20 UNL     1      10.071   1.715   1.442  1.00  0.00     0.020 A 
HETATM   42  C21 UNL     1       9.484   0.530   1.100  1.00  0.00     0.014 A 
ENDBRANCH  35  36
ENDBRANCH  32  35
ENDBRANCH  28  29
ENDBRANCH  27  28
ENDBRANCH  26  27
ENDBRANCH  25  26
ENDBRANCH  24  25
ENDBRANCH  23  24
ENDBRANCH   1  23
TORSDOF 15
