REMARK  16 active torsions:
REMARK  status: ('A' for Active; 'I' for Inactive)
REMARK    1  A    between atoms: C2_2  and  C3_3 
REMARK    2  A    between atoms: C3_3  and  C5_5 
REMARK    3  A    between atoms: C5_5  and  C6_6 
REMARK    4  A    between atoms: C6_6  and  N1_7 
REMARK    5  A    between atoms: C6_6  and  C12_16 
REMARK       I    between atoms: N1_7  and  C7_9 
REMARK    6  A    between atoms: C7_9  and  O2_11 
REMARK    7  A    between atoms: O2_11  and  C8_12 
REMARK       I    between atoms: C12_16  and  N2_18 
REMARK    8  A    between atoms: C15_21  and  N3_22 
REMARK       I    between atoms: N3_22  and  C16_24 
REMARK    9  A    between atoms: C16_24  and  C17_26 
REMARK   10  A    between atoms: C17_26  and  C18_27 
REMARK   11  A    between atoms: C18_27  and  S1_28 
REMARK   12  A    between atoms: S1_28  and  S2_29 
REMARK   13  A    between atoms: S2_29  and  C19_30 
REMARK   14  A    between atoms: C19_30  and  C20_31 
REMARK   15  A    between atoms: C20_31  and  N4_32 
REMARK   16  A    between atoms: C20_31  and  C21_36 
ROOT
HETATM    1  C12 UNL     1       2.425   1.045   0.614  1.00  0.00     0.242 C 
HETATM    2  O3  UNL     1       2.822   1.971   1.413  1.00  0.00    -0.271 OA
HETATM    3  N2  UNL     1       1.050   0.766   0.615  1.00  0.00    -0.350 N 
HETATM    4  C13 UNL     1       0.439  -0.215  -0.240  1.00  0.00     0.128 C 
HETATM    5  C14 UNL     1      -1.035   0.069  -0.463  1.00  0.00     0.045 C 
HETATM    6  C15 UNL     1      -1.807   0.399   0.758  1.00  0.00     0.087 C 
HETATM    7  C26 UNL     1      -0.983   0.720   1.978  1.00  0.00     0.045 C 
HETATM    8  C27 UNL     1       0.216   1.532   1.558  1.00  0.00     0.128 C 
ENDROOT
BRANCH   6   9
HETATM    9  N3  UNL     1      -2.767  -0.652   1.011  1.00  0.00    -0.356 N 
HETATM   10  C16 UNL     1      -4.163  -0.477   1.088  1.00  0.00     0.227 C 
HETATM   11  O4  UNL     1      -4.703   0.648   0.940  1.00  0.00    -0.273 OA
ATOM     12  H3  UNL     1      -2.405  -1.596   1.144  1.00  0.00     0.162 HD
BRANCH  10  13
HETATM   13  C17 UNL     1      -5.093  -1.620   1.350  1.00  0.00     0.050 C 
HETATM   14  C22 UNL     1      -6.437  -1.218   1.828  1.00  0.00     0.020 C 
HETATM   15  C23 UNL     1      -6.653  -1.703   3.223  1.00  0.00     0.001 C 
HETATM   16  C24 UNL     1      -5.679  -2.882   3.304  1.00  0.00     0.001 C 
HETATM   17  C25 UNL     1      -4.479  -2.288   2.616  1.00  0.00     0.020 C 
BRANCH  13  18
HETATM   18  C18 UNL     1      -5.042  -2.663   0.306  1.00  0.00     0.105 C 
BRANCH  18  19
HETATM   19  S1  UNL     1      -5.418  -2.248  -1.362  1.00  0.00    -0.096 SA
BRANCH  19  20
HETATM   20  S2  UNL     1      -7.437  -1.714  -1.603  1.00  0.00    -0.095 SA
BRANCH  20  21
HETATM   21  C19 UNL     1      -7.600   0.064  -1.427  1.00  0.00     0.130 C 
BRANCH  21  22
HETATM   22  C20 UNL     1      -6.865   0.706  -2.623  1.00  0.00     0.293 C 
BRANCH  22  23
HETATM   23  N4  UNL     1      -7.442   0.284  -3.866  1.00  0.00    -0.064 N 
ATOM     24  H43 UNL     1      -7.469  -0.733  -3.943  1.00  0.00     0.275 HD
ATOM     25  H42 UNL     1      -8.445   0.468  -3.897  1.00  0.00     0.275 HD
ATOM     26  H41 UNL     1      -6.956   0.708  -4.656  1.00  0.00     0.275 HD
ENDBRANCH  22  23
BRANCH  22  27
HETATM   27  C21 UNL     1      -6.908   2.189  -2.475  1.00  0.00     0.205 C 
HETATM   28  O5  UNL     1      -6.456   2.801  -1.490  1.00  0.00    -0.646 OA
HETATM   29  O6  UNL     1      -7.486   2.919  -3.499  1.00  0.00    -0.646 OA
ENDBRANCH  22  27
ENDBRANCH  21  22
ENDBRANCH  20  21
ENDBRANCH  19  20
ENDBRANCH  18  19
ENDBRANCH  13  18
ENDBRANCH  10  13
ENDBRANCH   6   9
BRANCH   1  30
HETATM   30  C6  UNL     1       3.483   0.411  -0.192  1.00  0.00     0.179 C 
BRANCH  30  31
HETATM   31  C5  UNL     1       3.600  -1.060  -0.075  1.00  0.00     0.039 C 
BRANCH  31  32
HETATM   32  C3  UNL     1       4.000  -1.687   1.193  1.00  0.00    -0.017 C 
HETATM   33  C4  UNL     1       5.249  -1.272   1.858  1.00  0.00     0.010 C 
BRANCH  32  34
HETATM   34  C2  UNL     1       4.025  -3.209   1.038  1.00  0.00    -0.000 C 
HETATM   35  C1  UNL     1       5.166  -3.710   0.229  1.00  0.00     0.005 C 
ENDBRANCH  32  34
ENDBRANCH  31  32
ENDBRANCH  30  31
BRANCH  30  36
HETATM   36  N1  UNL     1       4.731   1.112   0.059  1.00  0.00    -0.324 N 
HETATM   37  C7  UNL     1       5.466   1.742  -0.992  1.00  0.00     0.362 C 
HETATM   38  O1  UNL     1       5.054   1.712  -2.193  1.00  0.00    -0.238 OA
ATOM     39  H1  UNL     1       5.092   1.156   1.012  1.00  0.00     0.165 HD
BRANCH  37  40
HETATM   40  O2  UNL     1       6.648   2.407  -0.751  1.00  0.00    -0.294 OA
BRANCH  40  41
HETATM   41  C8  UNL     1       7.414   3.049  -1.755  1.00  0.00     0.061 C 
HETATM   42  C9  UNL     1       7.883   2.120  -2.828  1.00  0.00     0.046 C 
HETATM   43  C10 UNL     1       8.639   3.638  -1.062  1.00  0.00     0.046 C 
HETATM   44  C11 UNL     1       6.620   4.229  -2.260  1.00  0.00     0.046 C 
ENDBRANCH  40  41
ENDBRANCH  37  40
ENDBRANCH  30  36
ENDBRANCH   1  30
TORSDOF 16
