REMARK  13 active torsions:
REMARK  status: ('A' for Active; 'I' for Inactive)
REMARK    1  A    between atoms: C5_6  and  O1_7 
REMARK    2  A    between atoms: O1_7  and  C6_8 
REMARK    3  A    between atoms: C6_8  and  C7_9 
REMARK    4  A    between atoms: C7_9  and  C8_10 
REMARK    5  A    between atoms: C8_10  and  C9_11 
REMARK    6  A    between atoms: C9_11  and  C10_12 
REMARK    7  A    between atoms: C10_12  and  C11_13 
REMARK    8  A    between atoms: C11_13  and  C12_14 
REMARK    9  A    between atoms: C12_14  and  N2_15 
REMARK   10  A    between atoms: C24_34  and  C25_35 
REMARK   11  A    between atoms: C25_35  and  N5_36 
REMARK       I    between atoms: N5_36  and  C26_38 
REMARK   12  A    between atoms: C26_38  and  C27_40 
REMARK   13  A    between atoms: C32_45  and  O4_46 
ROOT
HETATM    1  N1  UNL     1       7.985   0.117  -4.480  1.00  0.00    -0.191 NA
HETATM    2  C1  UNL     1       7.058  -0.043  -3.818  1.00  0.00     0.099 C 
HETATM    3  C2  UNL     1       5.898  -0.229  -3.012  1.00  0.00     0.045 A 
HETATM    4  C3  UNL     1       4.644  -0.139  -3.566  1.00  0.00     0.025 A 
HETATM    5  C4  UNL     1       3.511  -0.314  -2.818  1.00  0.00     0.039 A 
HETATM    6  C5  UNL     1       3.626  -0.592  -1.450  1.00  0.00     0.076 A 
HETATM    7  C24 UNL     1       4.923  -0.686  -0.878  1.00  0.00    -0.006 A 
HETATM    8  C33 UNL     1       6.035  -0.508  -1.646  1.00  0.00     0.034 A 
ENDROOT
BRANCH   7   9
HETATM    9  C25 UNL     1       4.985  -1.016   0.550  1.00  0.00     0.164 C 
BRANCH   9  10
HETATM   10  N5  UNL     1       6.301  -1.046   1.120  1.00  0.00    -0.356 N 
HETATM   11  C26 UNL     1       7.108   0.137   1.281  1.00  0.00     0.224 C 
HETATM   12  O3  UNL     1       6.601   1.206   0.905  1.00  0.00    -0.273 OA
ATOM     13  H5  UNL     1       6.681  -1.942   1.424  1.00  0.00     0.162 HD
BRANCH  11  14
HETATM   14  C27 UNL     1       8.458   0.057   1.860  1.00  0.00     0.106 C 
HETATM   15  C28 UNL     1       9.414  -0.706   0.953  1.00  0.00     0.017 C 
HETATM   16  C29 UNL     1       9.973   0.174  -0.142  1.00  0.00     0.001 C 
HETATM   17  C30 UNL     1      10.690   1.368   0.422  1.00  0.00     0.002 C 
HETATM   18  C31 UNL     1      10.518   1.473   1.923  1.00  0.00     0.032 C 
HETATM   19  C32 UNL     1       9.058   1.335   2.316  1.00  0.00     0.131 C 
BRANCH  19  20
HETATM   20  O4  UNL     1       8.308   2.410   1.891  1.00  0.00    -0.395 OA
ATOM     21  H4  UNL     1       8.692   3.228   2.183  1.00  0.00     0.210 HD
ENDBRANCH  19  20
ENDBRANCH  11  14
ENDBRANCH   9  10
ENDBRANCH   7   9
BRANCH   6  22
HETATM   22  O1  UNL     1       2.616  -0.779  -0.632  1.00  0.00    -0.350 OA
BRANCH  22  23
HETATM   23  C6  UNL     1       1.391  -0.883  -0.225  1.00  0.00     0.179 C 
BRANCH  23  24
HETATM   24  C7  UNL     1       0.422   0.280  -0.331  1.00  0.00     0.054 C 
BRANCH  24  25
HETATM   25  C8  UNL     1       0.090   0.769  -1.655  1.00  0.00    -0.025 C 
BRANCH  25  26
HETATM   26  C9  UNL     1      -0.517  -0.007  -2.719  1.00  0.00    -0.004 C 
BRANCH  26  27
HETATM   27  C10 UNL     1      -1.804  -0.640  -2.773  1.00  0.00    -0.003 C 
BRANCH  27  28
HETATM   28  C11 UNL     1      -2.338  -1.744  -2.007  1.00  0.00     0.003 C 
BRANCH  28  29
HETATM   29  C12 UNL     1      -2.534  -1.744  -0.547  1.00  0.00     0.300 C 
BRANCH  29  30
HETATM   30  N2  UNL     1      -3.389  -0.671  -0.097  1.00  0.00     0.093 N 
HETATM   31  C13 UNL     1      -3.493  -0.641   1.352  1.00  0.00     0.273 C 
HETATM   32  C14 UNL     1      -3.748   0.778   1.859  1.00  0.00     0.032 C 
HETATM   33  C15 UNL     1      -5.088   0.877   2.565  1.00  0.00     0.029 C 
HETATM   34  C16 UNL     1      -5.867   2.073   2.065  1.00  0.00     0.232 C 
HETATM   35  N3  UNL     1      -7.286   1.776   2.102  1.00  0.00    -0.075 N 
HETATM   36  C17 UNL     1      -7.958   2.287   0.906  1.00  0.00     0.233 C 
ATOM     37  H32 UNL     1      -7.459   0.780   2.235  1.00  0.00     0.277 HD
ATOM     38  H31 UNL     1      -7.722   2.124   2.956  1.00  0.00     0.277 HD
HETATM   39  C18 UNL     1      -9.304   1.667   0.710  1.00  0.00     0.055 C 
HETATM   40  C19 UNL     1      -9.359   0.211   1.020  1.00  0.00     0.234 C 
HETATM   41  N4  UNL     1      -9.749  -0.606  -0.121  1.00  0.00    -0.073 N 
HETATM   42  C20 UNL     1      -8.690  -0.721  -1.103  1.00  0.00     0.258 C 
ATOM     43  H42 UNL     1     -10.075  -1.525   0.178  1.00  0.00     0.277 HD
ATOM     44  H41 UNL     1     -10.609  -0.259  -0.546  1.00  0.00     0.277 HD
HETATM   45  C21 UNL     1      -7.806  -1.925  -0.871  1.00  0.00     0.195 C 
HETATM   46  O2  UNL     1      -6.801  -1.581   0.027  1.00  0.00    -0.388 OA
HETATM   47  C22 UNL     1      -5.525  -1.880  -0.435  1.00  0.00     0.198 C 
HETATM   48  C23 UNL     1      -4.694  -0.682  -0.721  1.00  0.00     0.298 C 
ENDBRANCH  29  30
ENDBRANCH  28  29
ENDBRANCH  27  28
ENDBRANCH  26  27
ENDBRANCH  25  26
ENDBRANCH  24  25
ENDBRANCH  23  24
ENDBRANCH  22  23
ENDBRANCH   6  22
TORSDOF 13
