REMARK  17 active torsions:
REMARK  status: ('A' for Active; 'I' for Inactive)
REMARK    1  A    between atoms: C2_2  and  C3_3 
REMARK    2  A    between atoms: C6_6  and  O1_7 
REMARK    3  A    between atoms: C7_9  and  C8_10 
REMARK    4  A    between atoms: C8_10  and  C9_12 
REMARK    5  A    between atoms: C9_12  and  N1_13 
REMARK    6  A    between atoms: C9_12  and  C12_20 
REMARK    7  A    between atoms: N1_13  and  C10_16 
REMARK    8  A    between atoms: C10_16  and  C11_17 
REMARK    9  A    between atoms: C18_27  and  O6_28 
REMARK   10  A    between atoms: C18_27  and  C19_30 
REMARK   11  A    between atoms: C19_30  and  O8_32 
REMARK   12  A    between atoms: O8_32  and  C20_33 
REMARK   13  A    between atoms: C24_37  and  C25_38 
REMARK   14  A    between atoms: C25_38  and  C27_40 
REMARK   15  A    between atoms: C27_40  and  C28_41 
REMARK   16  A    between atoms: C28_41  and  C29_42 
REMARK   17  A    between atoms: C29_42  and  C30_43 
ROOT
HETATM    1  C3  UNL     1      -0.874  -0.791   1.520  1.00  0.00     0.019 C 
HETATM    2  C4  UNL     1       0.068  -1.921   1.785  1.00  0.00     0.023 C 
HETATM    3  C5  UNL     1      -2.200  -1.126   2.158  1.00  0.00     0.050 C 
HETATM    4  C6  UNL     1      -3.280  -0.158   1.716  1.00  0.00     0.140 C 
HETATM    5  C7  UNL     1      -3.539  -0.429   0.265  1.00  0.00     0.104 C 
HETATM    6  C15 UNL     1      -3.834  -1.895  -0.029  1.00  0.00     0.192 C 
HETATM    7  O5  UNL     1      -2.557  -2.066  -0.512  1.00  0.00    -0.374 OA
HETATM    8  C16 UNL     1      -2.335  -0.668  -0.545  1.00  0.00     0.118 C 
HETATM    9  C17 UNL     1      -2.328  -0.238  -1.989  1.00  0.00     0.051 C 
HETATM   10  C18 UNL     1      -1.002  -0.397   0.082  1.00  0.00     0.188 C 
ENDROOT
BRANCH  10  11
HETATM   11  O6  UNL     1      -0.729   0.972  -0.090  1.00  0.00    -0.376 OA
ATOM     12  H6  UNL     1      -0.810   1.222  -1.003  1.00  0.00     0.211 HD
ENDBRANCH  10  11
BRANCH  10  13
HETATM   13  C19 UNL     1       0.005  -1.134  -0.738  1.00  0.00     0.298 C 
HETATM   14  O7  UNL     1      -0.011  -2.399  -0.850  1.00  0.00    -0.262 OA
BRANCH  13  15
HETATM   15  O8  UNL     1       1.017  -0.459  -1.426  1.00  0.00    -0.312 OA
BRANCH  15  16
HETATM   16  C20 UNL     1       1.972  -1.095  -2.203  1.00  0.00     0.143 C 
HETATM   17  C21 UNL     1       1.925  -0.632  -3.648  1.00  0.00     0.060 C 
HETATM   18  C22 UNL     1       2.937   0.432  -3.682  1.00  0.00    -0.028 C 
HETATM   19  C23 UNL     1       3.757   0.352  -2.657  1.00  0.00    -0.023 C 
HETATM   20  C24 UNL     1       3.369  -0.815  -1.794  1.00  0.00     0.041 C 
BRANCH  20  21
HETATM   21  C25 UNL     1       3.629  -0.518  -0.354  1.00  0.00    -0.009 C 
HETATM   22  C26 UNL     1       2.999   0.688   0.214  1.00  0.00     0.011 C 
BRANCH  21  23
HETATM   23  C27 UNL     1       5.149  -0.565  -0.154  1.00  0.00     0.005 C 
BRANCH  23  24
HETATM   24  C28 UNL     1       5.549  -0.307   1.242  1.00  0.00     0.001 C 
BRANCH  24  25
HETATM   25  C29 UNL     1       7.004  -0.420   1.483  1.00  0.00     0.008 C 
BRANCH  25  26
HETATM   26  C30 UNL     1       7.952   0.456   0.774  1.00  0.00    -0.051 C 
HETATM   27  C31 UNL     1       9.358   0.060   1.334  1.00  0.00     0.014 C 
HETATM   28  C32 UNL     1       7.791   1.908   1.091  1.00  0.00     0.014 C 
HETATM   29  C33 UNL     1       8.063   0.294  -0.712  1.00  0.00     0.014 C 
ENDBRANCH  25  26
ENDBRANCH  24  25
ENDBRANCH  23  24
ENDBRANCH  21  23
ENDBRANCH  20  21
ENDBRANCH  15  16
ENDBRANCH  13  15
ENDBRANCH  10  13
BRANCH   1  30
HETATM   30  C2  UNL     1      -0.364   0.399   2.276  1.00  0.00    -0.024 C 
HETATM   31  C1  UNL     1      -0.178   0.321   3.577  1.00  0.00     0.008 C 
ENDBRANCH   1  30
BRANCH   5  32
HETATM   32  C8  UNL     1      -4.628   0.385  -0.281  1.00  0.00     0.174 C 
HETATM   33  O2  UNL     1      -4.402   1.142  -1.203  1.00  0.00    -0.295 OA
BRANCH  32  34
HETATM   34  C9  UNL     1      -6.002   0.313   0.251  1.00  0.00     0.259 C 
BRANCH  34  35
HETATM   35  N1  UNL     1      -6.994   0.584  -0.789  1.00  0.00    -0.054 N 
ATOM     36  H12 UNL     1      -7.925   0.668  -0.380  1.00  0.00     0.278 HD
ATOM     37  H11 UNL     1      -6.878   1.529  -1.154  1.00  0.00     0.278 HD
BRANCH  35  38
HETATM   38  C10 UNL     1      -7.002  -0.363  -1.853  1.00  0.00     0.345 C 
BRANCH  38  39
HETATM   39  C11 UNL     1      -8.103   0.021  -2.785  1.00  0.00     0.199 C 
HETATM   40  O3  UNL     1      -8.822   1.041  -2.561  1.00  0.00    -0.647 OA
HETATM   41  O4  UNL     1      -8.401  -0.702  -3.934  1.00  0.00    -0.647 OA
ENDBRANCH  38  39
ENDBRANCH  35  38
ENDBRANCH  34  35
BRANCH  34  42
HETATM   42  C12 UNL     1      -6.290   1.384   1.312  1.00  0.00     0.015 C 
HETATM   43  C13 UNL     1      -7.746   1.162   1.745  1.00  0.00     0.012 C 
HETATM   44  C14 UNL     1      -6.194   2.764   0.711  1.00  0.00     0.012 C 
ENDBRANCH  34  42
ENDBRANCH  32  34
ENDBRANCH   5  32
BRANCH   4  45
HETATM   45  O1  UNL     1      -2.914   1.151   1.908  1.00  0.00    -0.394 OA
ATOM     46  H1  UNL     1      -3.591   1.758   1.631  1.00  0.00     0.210 HD
ENDBRANCH   4  45
TORSDOF 17
