REMARK  16 active torsions:
REMARK  status: ('A' for Active; 'I' for Inactive)
REMARK    1  A    between atoms: C2_2  and  C3_3 
REMARK    2  A    between atoms: C3_3  and  O1_4 
REMARK    3  A    between atoms: C3_3  and  C4_6 
REMARK    4  A    between atoms: C11_13  and  O2_14 
REMARK    5  A    between atoms: C12_16  and  O3_17 
REMARK    6  A    between atoms: C14_21  and  C15_22 
REMARK    7  A    between atoms: C15_22  and  C16_23 
REMARK    8  A    between atoms: C20_29  and  C21_30 
REMARK    9  A    between atoms: C20_29  and  C25_34 
REMARK   10  A    between atoms: C21_30  and  C22_31 
REMARK   11  A    between atoms: C22_31  and  C23_32 
REMARK   12  A    between atoms: C25_34  and  C26_35 
REMARK   13  A    between atoms: C26_35  and  C27_36 
REMARK   14  A    between atoms: C27_36  and  N1_37 
REMARK   15  A    between atoms: N1_37  and  C28_38 
REMARK   16  A    between atoms: N1_37  and  C30_40 
ROOT
HETATM    1  C4  UNL     1      -1.256   3.003   0.689  1.00  0.00     0.116 C 
HETATM    2  C5  UNL     1      -2.468   2.177   0.834  1.00  0.00     0.028 C 
HETATM    3  C6  UNL     1      -3.697   2.517   0.085  1.00  0.00     0.002 C 
HETATM    4  C7  UNL     1      -3.522   2.574  -1.416  1.00  0.00     0.000 C 
HETATM    5  C8  UNL     1      -4.509   1.706  -2.164  1.00  0.00     0.000 C 
HETATM    6  C9  UNL     1      -4.597   0.319  -1.594  1.00  0.00     0.002 C 
HETATM    7  C10 UNL     1      -4.638  -0.736  -2.685  1.00  0.00     0.034 C 
HETATM    8  C11 UNL     1      -3.745  -1.925  -2.344  1.00  0.00     0.149 C 
HETATM    9  C12 UNL     1      -3.978  -2.460  -0.971  1.00  0.00     0.170 C 
HETATM   10  C13 UNL     1      -2.648  -3.039  -0.469  1.00  0.00     0.203 C 
HETATM   11  O4  UNL     1      -1.870  -1.972  -0.123  1.00  0.00    -0.373 OA
HETATM   12  C14 UNL     1      -0.673  -2.245   0.489  1.00  0.00     0.221 C 
HETATM   13  C19 UNL     1      -0.453  -1.198   1.524  1.00  0.00     0.289 C 
HETATM   14  O5  UNL     1      -1.516  -1.067   2.241  1.00  0.00    -0.262 OA
HETATM   15  O6  UNL     1       0.682  -0.552   1.627  1.00  0.00    -0.298 OA
HETATM   16  C20 UNL     1       1.300   0.586   0.986  1.00  0.00     0.151 C 
HETATM   17  C32 UNL     1       0.443   1.201  -0.045  1.00  0.00     0.253 C 
HETATM   18  O7  UNL     1       0.312   0.407  -1.065  1.00  0.00    -0.270 OA
HETATM   19  N2  UNL     1      -0.213   2.409  -0.128  1.00  0.00    -0.351 N 
ATOM     20  H2  UNL     1       0.090   2.994  -0.907  1.00  0.00     0.163 HD
ENDROOT
BRANCH  16  21
HETATM   21  C21 UNL     1       1.692   1.448   2.124  1.00  0.00     0.049 C 
BRANCH  21  22
HETATM   22  C22 UNL     1       2.351   2.732   1.968  1.00  0.00     0.003 C 
BRANCH  22  23
HETATM   23  C23 UNL     1       2.555   3.299   3.408  1.00  0.00    -0.004 C 
HETATM   24  C24 UNL     1       1.257   3.474   4.119  1.00  0.00     0.005 C 
ENDBRANCH  22  23
ENDBRANCH  21  22
ENDBRANCH  16  21
BRANCH  16  25
HETATM   25  C25 UNL     1       2.484  -0.119   0.303  1.00  0.00     0.050 C 
BRANCH  25  26
HETATM   26  C26 UNL     1       3.391   0.666  -0.520  1.00  0.00     0.034 C 
BRANCH  26  27
HETATM   27  C27 UNL     1       4.451  -0.326  -1.080  1.00  0.00     0.272 C 
BRANCH  27  28
HETATM   28  N1  UNL     1       3.847  -1.356  -1.859  1.00  0.00     0.087 N 
BRANCH  28  29
HETATM   29  C28 UNL     1       3.261  -0.947  -3.096  1.00  0.00     0.268 C 
HETATM   30  C29 UNL     1       4.264  -0.485  -4.129  1.00  0.00     0.037 C 
ENDBRANCH  28  29
BRANCH  28  31
HETATM   31  C30 UNL     1       4.873  -2.344  -2.136  1.00  0.00     0.268 C 
HETATM   32  C31 UNL     1       5.271  -3.055  -0.850  1.00  0.00     0.037 C 
ENDBRANCH  28  31
ENDBRANCH  27  28
ENDBRANCH  26  27
ENDBRANCH  25  26
ENDBRANCH  16  25
BRANCH  12  33
HETATM   33  C15 UNL     1      -0.803  -3.624   1.159  1.00  0.00     0.046 C 
BRANCH  33  34
HETATM   34  C16 UNL     1       0.490  -3.993   1.860  1.00  0.00    -0.020 C 
HETATM   35  C17 UNL     1       0.272  -5.355   2.488  1.00  0.00     0.009 C 
HETATM   36  C18 UNL     1       1.625  -4.156   0.859  1.00  0.00     0.009 C 
ENDBRANCH  33  34
ENDBRANCH  12  33
BRANCH   1  37
HETATM   37  C3  UNL     1      -1.535   4.428   0.228  1.00  0.00     0.162 C 
BRANCH  37  38
HETATM   38  C2  UNL     1      -2.506   5.139   1.095  1.00  0.00    -0.004 C 
HETATM   39  C1  UNL     1      -2.398   5.306   2.375  1.00  0.00     0.009 C 
ENDBRANCH  37  38
BRANCH  37  40
HETATM   40  O1  UNL     1      -0.324   5.136   0.374  1.00  0.00    -0.390 OA
ATOM     41  H1  UNL     1       0.298   4.681  -0.181  1.00  0.00     0.210 HD
ENDBRANCH  37  40
ENDBRANCH   1  37
BRANCH   9  42
HETATM   42  O3  UNL     1      -4.955  -3.472  -1.027  1.00  0.00    -0.391 OA
ATOM     43  H3  UNL     1      -5.103  -3.813  -0.153  1.00  0.00     0.210 HD
ENDBRANCH   9  42
BRANCH   8  44
HETATM   44  O2  UNL     1      -2.411  -1.636  -2.622  1.00  0.00    -0.393 OA
ATOM     45  H2  UNL     1      -1.855  -2.376  -2.410  1.00  0.00     0.210 HD
ENDBRANCH   8  44
TORSDOF 16
