REMARK  19 active torsions:
REMARK  status: ('A' for Active; 'I' for Inactive)
REMARK    1  A    between atoms: C2_2  and  O2_4 
REMARK    2  A    between atoms: O2_4  and  C3_5 
REMARK    3  A    between atoms: C3_5  and  C4_6 
REMARK    4  A    between atoms: C4_6  and  C5_7 
REMARK    5  A    between atoms: C5_7  and  C6_8 
REMARK    6  A    between atoms: C7_9  and  C8_10 
REMARK    7  A    between atoms: C9_11  and  C10_12 
REMARK    8  A    between atoms: C10_12  and  C11_13 
REMARK    9  A    between atoms: C12_14  and  C13_15 
REMARK   10  A    between atoms: C14_16  and  C15_17 
REMARK   11  A    between atoms: C15_17  and  C16_18 
REMARK   12  A    between atoms: C16_18  and  C17_19 
REMARK   13  A    between atoms: C17_19  and  O3_20 
REMARK   14  A    between atoms: C17_19  and  C18_22 
REMARK   15  A    between atoms: C18_22  and  O4_23 
REMARK   16  A    between atoms: C23_30  and  O6_31 
REMARK   17  A    between atoms: C24_33  and  C25_34 
REMARK   18  A    between atoms: C26_35  and  C27_36 
REMARK   19  A    between atoms: C33_43  and  O8_44 
ROOT
HETATM    1  C18 UNL     1      -2.834   0.834  -0.381  1.00  0.00     0.115 C 
HETATM    2  C19 UNL     1      -3.247   2.089  -0.978  1.00  0.00     0.064 C 
HETATM    3  C20 UNL     1      -4.659   2.634  -0.918  1.00  0.00     0.153 C 
HETATM    4  O5  UNL     1      -4.729   3.801  -0.763  1.00  0.00    -0.293 OA
HETATM    5  C21 UNL     1      -5.974   1.909  -1.025  1.00  0.00     0.071 C 
HETATM    6  C22 UNL     1      -6.994   2.113  -0.011  1.00  0.00     0.077 C 
HETATM    7  C23 UNL     1      -7.289   1.044   1.008  1.00  0.00     0.051 C 
HETATM    8  C24 UNL     1      -6.198   0.051   1.360  1.00  0.00    -0.020 C 
HETATM    9  C28 UNL     1      -5.015   0.473   0.586  1.00  0.00    -0.001 C 
HETATM   10  C29 UNL     1      -4.586   1.547   1.450  1.00  0.00     0.021 C 
HETATM   11  C30 UNL     1      -5.491   0.520  -0.826  1.00  0.00     0.011 C 
HETATM   12  C31 UNL     1      -6.140  -0.633  -1.399  1.00  0.00     0.009 C 
HETATM   13  C32 UNL     1      -5.098  -1.764  -1.304  1.00  0.00     0.032 C 
HETATM   14  C33 UNL     1      -3.858  -1.445  -0.608  1.00  0.00     0.126 C 
HETATM   15  C34 UNL     1      -3.748  -0.209   0.276  1.00  0.00     0.069 C 
ENDROOT
BRANCH   1  16
HETATM   16  C17 UNL     1      -1.604   0.980   0.569  1.00  0.00     0.179 C 
BRANCH  16  17
HETATM   17  C16 UNL     1      -0.730   2.048   0.298  1.00  0.00     0.008 C 
BRANCH  17  18
HETATM   18  C15 UNL     1       0.458   2.273  -0.193  1.00  0.00    -0.001 C 
BRANCH  18  19
HETATM   19  C14 UNL     1       1.287   1.195  -0.667  1.00  0.00    -0.000 C 
HETATM   20  C13 UNL     1       2.492   1.417  -1.144  1.00  0.00    -0.000 C 
BRANCH  20  21
HETATM   21  C12 UNL     1       3.149   2.693  -1.266  1.00  0.00    -0.004 C 
HETATM   22  C11 UNL     1       4.378   2.865  -1.741  1.00  0.00    -0.023 C 
BRANCH  22  23
HETATM   23  C10 UNL     1       5.272   1.800  -2.231  1.00  0.00     0.054 C 
BRANCH  23  24
HETATM   24  C9  UNL     1       6.488   1.656  -1.420  1.00  0.00    -0.023 C 
HETATM   25  C8  UNL     1       6.805   0.541  -0.806  1.00  0.00    -0.004 C 
BRANCH  25  26
HETATM   26  C7  UNL     1       6.047  -0.669  -0.827  1.00  0.00    -0.004 C 
HETATM   27  C6  UNL     1       6.337  -1.778  -0.226  1.00  0.00    -0.027 C 
BRANCH  27  28
HETATM   28  C5  UNL     1       7.538  -1.963   0.604  1.00  0.00     0.029 C 
BRANCH  28  29
HETATM   29  C4  UNL     1       8.374  -3.091  -0.007  1.00  0.00     0.030 C 
BRANCH  29  30
HETATM   30  C3  UNL     1       9.582  -3.330   0.840  1.00  0.00     0.179 C 
BRANCH  30  31
HETATM   31  O2  UNL     1      10.402  -2.195   0.960  1.00  0.00    -0.322 OA
BRANCH  31  32
HETATM   32  C2  UNL     1      11.565  -2.189   1.696  1.00  0.00     0.254 C 
HETATM   33  C1  UNL     1      12.404  -0.967   1.801  1.00  0.00     0.126 C 
HETATM   34  O1  UNL     1      11.910  -3.243   2.287  1.00  0.00    -0.266 OA
ENDBRANCH  31  32
ENDBRANCH  30  31
ENDBRANCH  29  30
ENDBRANCH  28  29
ENDBRANCH  27  28
ENDBRANCH  25  26
ENDBRANCH  23  24
ENDBRANCH  22  23
ENDBRANCH  20  21
ENDBRANCH  18  19
ENDBRANCH  17  18
ENDBRANCH  16  17
BRANCH  16  35
HETATM   35  O3  UNL     1      -0.962  -0.273   0.643  1.00  0.00    -0.388 OA
ATOM     36  H3  UNL     1      -1.552  -0.994   0.826  1.00  0.00     0.210 HD
ENDBRANCH  16  35
ENDBRANCH   1  16
BRANCH   1  37
HETATM   37  O4  UNL     1      -2.101   0.247  -1.441  1.00  0.00    -0.382 OA
ATOM     38  H4  UNL     1      -2.850   0.158  -2.019  1.00  0.00     0.211 HD
ENDBRANCH   1  37
BRANCH  14  39
HETATM   39  O8  UNL     1      -3.386  -2.608   0.080  1.00  0.00    -0.395 OA
ATOM     40  H8  UNL     1      -2.578  -2.400   0.534  1.00  0.00     0.210 HD
ENDBRANCH  14  39
BRANCH   8  41
HETATM   41  C25 UNL     1      -6.484  -1.230   1.866  1.00  0.00     0.013 C 
HETATM   42  C26 UNL     1      -7.462  -2.044   1.653  1.00  0.00     0.042 C 
BRANCH  42  43
HETATM   43  C27 UNL     1      -7.556  -3.357   2.308  1.00  0.00     0.258 C 
HETATM   44  O7  UNL     1      -8.514  -4.095   2.069  1.00  0.00    -0.302 OA
ENDBRANCH  42  43
ENDBRANCH   8  41
BRANCH   7  45
HETATM   45  O6  UNL     1      -8.553   0.507   0.795  1.00  0.00    -0.364 OA
ATOM     46  H6  UNL     1      -8.739  -0.167   1.438  1.00  0.00     0.217 HD
ENDBRANCH   7  45
TORSDOF 19
