REMARK  15 active torsions:
REMARK  status: ('A' for Active; 'I' for Inactive)
REMARK    1  A    between atoms: C2_2  and  C3_3 
REMARK    2  A    between atoms: C3_3  and  N1_6 
REMARK       I    between atoms: N1_6  and  C6_8 
REMARK    3  A    between atoms: C6_8  and  C7_10 
REMARK    4  A    between atoms: C7_10  and  C9_12 
REMARK    5  A    between atoms: C9_12  and  C10_13 
REMARK    6  A    between atoms: C10_13  and  C11_15 
REMARK    7  A    between atoms: C11_15  and  C12_16 
REMARK    8  A    between atoms: C11_15  and  C24_34 
REMARK       I    between atoms: C12_16  and  N2_18 
REMARK    9  A    between atoms: N2_18  and  C13_20 
REMARK   10  A    between atoms: C13_20  and  C14_21 
REMARK   11  A    between atoms: C13_20  and  C21_28 
REMARK   12  A    between atoms: C14_21  and  C15_22 
REMARK   13  A    between atoms: C21_28  and  C22_30 
REMARK   14  A    between atoms: C22_30  and  O6_32 
REMARK   15  A    between atoms: C24_34  and  C26_36 
ROOT
HETATM    1  C11 UNL     1       0.515   2.403   0.689  1.00  0.00     0.153 C 
ENDROOT
BRANCH   1   2
HETATM    2  C10 UNL     1       1.410   1.471  -0.106  1.00  0.00     0.141 C 
HETATM    3  O2  UNL     1       2.442   1.101   0.403  1.00  0.00    -0.297 OA
BRANCH   2   4
HETATM    4  C9  UNL     1       1.051   1.023  -1.453  1.00  0.00     0.093 C 
BRANCH   4   5
HETATM    5  C7  UNL     1       2.057   0.195  -2.172  1.00  0.00     0.081 C 
HETATM    6  C8  UNL     1       3.320   0.999  -2.483  1.00  0.00     0.020 C 
BRANCH   5   7
HETATM    7  C6  UNL     1       2.442  -1.072  -1.591  1.00  0.00     0.222 C 
HETATM    8  N1  UNL     1       3.428  -1.888  -2.239  1.00  0.00    -0.352 N 
ATOM      9  H1  UNL     1       3.853  -1.554  -3.104  1.00  0.00     0.163 HD
HETATM   10  O1  UNL     1       1.957  -1.516  -0.540  1.00  0.00    -0.273 OA
BRANCH   8  11
HETATM   11  C3  UNL     1       3.839  -3.164  -1.710  1.00  0.00     0.025 C 
HETATM   12  C4  UNL     1       4.400  -3.010  -0.324  1.00  0.00     0.038 C 
HETATM   13  C5  UNL     1       2.653  -4.121  -1.621  1.00  0.00     0.038 C 
BRANCH  11  14
HETATM   14  C2  UNL     1       4.876  -3.765  -2.619  1.00  0.00     0.026 C 
HETATM   15  C1  UNL     1       5.326  -5.126  -2.159  1.00  0.00     0.007 C 
ENDBRANCH  11  14
ENDBRANCH   8  11
ENDBRANCH   5   7
ENDBRANCH   4   5
ENDBRANCH   2   4
ENDBRANCH   1   2
BRANCH   1  16
HETATM   16  C12 UNL     1      -0.777   1.793   0.964  1.00  0.00     0.230 C 
HETATM   17  O3  UNL     1      -1.894   2.343   1.082  1.00  0.00    -0.273 OA
HETATM   18  N2  UNL     1      -0.812   0.365   1.133  1.00  0.00    -0.348 N 
ATOM     19  H2  UNL     1       0.050  -0.172   1.036  1.00  0.00     0.163 HD
BRANCH  18  20
HETATM   20  C13 UNL     1      -2.085  -0.346   1.448  1.00  0.00     0.165 C 
BRANCH  20  21
HETATM   21  C14 UNL     1      -2.588  -0.851   0.137  1.00  0.00     0.038 C 
BRANCH  21  22
HETATM   22  C15 UNL     1      -3.843  -1.599   0.055  1.00  0.00    -0.012 C 
HETATM   23  C16 UNL     1      -3.903  -2.878   0.792  1.00  0.00     0.005 C 
HETATM   24  C17 UNL     1      -4.726  -3.939   0.050  1.00  0.00     0.000 C 
HETATM   25  C18 UNL     1      -4.224  -4.225  -1.325  1.00  0.00     0.000 C 
HETATM   26  C19 UNL     1      -3.547  -3.034  -1.944  1.00  0.00     0.000 C 
HETATM   27  C20 UNL     1      -4.205  -1.777  -1.429  1.00  0.00     0.005 C 
ENDBRANCH  21  22
ENDBRANCH  20  21
BRANCH  20  28
HETATM   28  C21 UNL     1      -1.702  -1.357   2.446  1.00  0.00     0.246 C 
HETATM   29  O4  UNL     1      -0.617  -2.029   2.288  1.00  0.00    -0.284 OA
BRANCH  28  30
HETATM   30  C22 UNL     1      -2.447  -1.688   3.649  1.00  0.00     0.331 C 
HETATM   31  O5  UNL     1      -3.530  -1.056   3.903  1.00  0.00    -0.256 OA
BRANCH  30  32
HETATM   32  O6  UNL     1      -2.083  -2.641   4.555  1.00  0.00    -0.320 OA
HETATM   33  C23 UNL     1      -2.766  -2.994   5.724  1.00  0.00     0.213 C 
ENDBRANCH  30  32
ENDBRANCH  28  30
ENDBRANCH  20  28
ENDBRANCH  18  20
ENDBRANCH   1  16
BRANCH   1  34
HETATM   34  C24 UNL     1       0.528   3.701  -0.033  1.00  0.00     0.032 C 
HETATM   35  C25 UNL     1       1.973   4.199  -0.081  1.00  0.00     0.013 C 
BRANCH  34  36
HETATM   36  C26 UNL     1      -0.394   4.772   0.410  1.00  0.00     0.190 C 
HETATM   37  C27 UNL     1      -0.185   5.217   1.839  1.00  0.00     0.033 C 
HETATM   38  C28 UNL     1      -1.084   6.398   2.132  1.00  0.00     0.004 C 
HETATM   39  C29 UNL     1      -0.671   7.539   1.257  1.00  0.00     0.027 C 
HETATM   40  C30 UNL     1       0.155   7.101   0.065  1.00  0.00     0.232 C 
HETATM   41  N3  UNL     1      -0.300   5.890  -0.515  1.00  0.00    -0.070 N 
ATOM     42  H32 UNL     1       0.282   5.640  -1.315  1.00  0.00     0.277 HD
ATOM     43  H31 UNL     1      -1.193   6.036  -0.986  1.00  0.00     0.277 HD
ENDBRANCH  34  36
ENDBRANCH   1  34
TORSDOF 15
