REMARK  18 active torsions:
REMARK  status: ('A' for Active; 'I' for Inactive)
REMARK    1  A    between atoms: C3_3  and  C4_4 
REMARK    2  A    between atoms: C8_8  and  C9_9 
REMARK    3  A    between atoms: C9_9  and  C10_10 
REMARK    4  A    between atoms: C10_10  and  O1_11 
REMARK    5  A    between atoms: C10_10  and  N1_13 
REMARK    6  A    between atoms: N1_13  and  C11_15 
REMARK    7  A    between atoms: C12_20  and  C13_21 
REMARK    8  A    between atoms: C13_21  and  C14_22 
REMARK    9  A    between atoms: C14_22  and  C15_23 
REMARK   10  A    between atoms: C15_23  and  C16_24 
REMARK   11  A    between atoms: C16_24  and  C17_25 
REMARK       I    between atoms: N6_31  and  C19_33 
REMARK   12  A    between atoms: C19_33  and  C20_35 
REMARK   13  A    between atoms: C20_35  and  C21_36 
REMARK   14  A    between atoms: C21_36  and  C22_37 
REMARK   15  A    between atoms: C22_37  and  C23_38 
REMARK   16  A    between atoms: C23_38  and  C24_39 
REMARK   17  A    between atoms: C24_39  and  N7_40 
REMARK   18  A    between atoms: C25_46  and  C26_47 
ROOT
HETATM    1  C1  UNL     1     -12.216   0.308  -1.635  1.00  0.00     0.112 C 
HETATM    2  C2  UNL     1     -10.900   0.838  -1.280  1.00  0.00    -0.105 C 
HETATM    3  C3  UNL     1      -9.788   1.271  -1.001  1.00  0.00    -0.067 C 
ENDROOT
BRANCH   3   4
HETATM    4  C4  UNL     1      -8.473   1.792  -0.701  1.00  0.00     0.024 A 
HETATM    5  C5  UNL     1      -8.216   3.143  -0.647  1.00  0.00     0.021 A 
HETATM    6  C6  UNL     1      -6.953   3.623  -0.374  1.00  0.00     0.002 A 
HETATM    7  C7  UNL     1      -5.943   2.723  -0.153  1.00  0.00     0.008 A 
HETATM    8  C8  UNL     1      -6.191   1.346  -0.204  1.00  0.00    -0.043 A 
HETATM    9  C25 UNL     1      -7.431   0.868  -0.473  1.00  0.00    -0.033 A 
BRANCH   8  10
HETATM   10  C9  UNL     1      -5.039   0.473   0.078  1.00  0.00     0.123 C 
BRANCH  10  11
HETATM   11  C10 UNL     1      -5.012   0.093   1.496  1.00  0.00     0.121 C 
BRANCH  11  12
HETATM   12  O1  UNL     1      -5.964   0.629   2.210  1.00  0.00    -0.349 OA
ATOM     13  H1  UNL     1      -5.947   0.383   3.127  1.00  0.00     0.219 HD
ENDBRANCH  11  12
BRANCH  11  14
HETATM   14  N1  UNL     1      -4.169  -0.719   2.203  1.00  0.00    -0.320 N 
ATOM     15  H1  UNL     1      -4.387  -0.809   3.195  1.00  0.00     0.169 HD
BRANCH  14  16
HETATM   16  C11 UNL     1      -3.152  -1.381   1.811  1.00  0.00     0.166 A 
HETATM   17  N2  UNL     1      -2.532  -1.546   0.647  1.00  0.00    -0.279 N 
HETATM   18  N3  UNL     1      -1.522  -2.299   0.575  1.00  0.00    -0.296 N 
ATOM     19  H2  UNL     1      -2.872  -1.065  -0.186  1.00  0.00     0.189 HD
HETATM   20  C12 UNL     1      -1.045  -2.938   1.612  1.00  0.00     0.069 A 
ATOM     21  H3  UNL     1      -1.060  -2.414  -0.327  1.00  0.00     0.187 HD
HETATM   22  S2  UNL     1      -2.160  -2.409   2.831  1.00  0.00    -0.038 SA
BRANCH  20  23
HETATM   23  C13 UNL     1       0.105  -3.860   1.789  1.00  0.00     0.066 C 
BRANCH  23  24
HETATM   24  C14 UNL     1       1.085  -3.829   0.712  1.00  0.00     0.007 C 
BRANCH  24  25
HETATM   25  C15 UNL     1       1.954  -2.665   0.535  1.00  0.00     0.007 C 
BRANCH  25  26
HETATM   26  C16 UNL     1       1.438  -1.312   0.289  1.00  0.00     0.066 C 
BRANCH  26  27
HETATM   27  C17 UNL     1       2.662  -0.413   0.145  1.00  0.00     0.069 A 
HETATM   28  N4  UNL     1       2.654   0.890  -0.051  1.00  0.00    -0.296 N 
HETATM   29  N5  UNL     1       3.749   1.523  -0.160  1.00  0.00    -0.279 N 
ATOM     30  H4  UNL     1       1.767   1.390  -0.115  1.00  0.00     0.187 HD
HETATM   31  C18 UNL     1       4.896   0.847  -0.072  1.00  0.00     0.167 A 
ATOM     32  H5  UNL     1       3.752   2.532  -0.312  1.00  0.00     0.189 HD
HETATM   33  N6  UNL     1       6.119   1.320  -0.160  1.00  0.00    -0.306 N 
HETATM   34  S1  UNL     1       4.326  -0.755   0.176  1.00  0.00    -0.038 SA
HETATM   35  C19 UNL     1       7.192   0.368  -0.030  1.00  0.00     0.223 C 
ATOM     36  H6  UNL     1       6.299   2.312  -0.313  1.00  0.00     0.171 HD
HETATM   37  O2  UNL     1       7.685   0.253   1.123  1.00  0.00    -0.273 OA
BRANCH  35  38
HETATM   38  C20 UNL     1       7.700  -0.432  -1.124  1.00  0.00     0.103 C 
BRANCH  38  39
HETATM   39  C21 UNL     1       9.167  -0.693  -1.031  1.00  0.00     0.009 C 
BRANCH  39  40
HETATM   40  C22 UNL     1      10.073   0.450  -1.195  1.00  0.00     0.002 C 
BRANCH  40  41
HETATM   41  C23 UNL     1       9.995   1.597  -0.280  1.00  0.00     0.027 C 
BRANCH  41  42
HETATM   42  C24 UNL     1      11.104   2.591  -0.733  1.00  0.00     0.229 C 
BRANCH  42  43
HETATM   43  N7  UNL     1      11.033   3.734   0.161  1.00  0.00    -0.079 N 
ATOM     44  H73 UNL     1      10.106   4.157   0.200  1.00  0.00     0.274 HD
ATOM     45  H72 UNL     1      11.100   3.479   1.146  1.00  0.00     0.274 HD
ATOM     46  H71 UNL     1      11.760   4.385  -0.136  1.00  0.00     0.274 HD
ENDBRANCH  42  43
ENDBRANCH  41  42
ENDBRANCH  40  41
ENDBRANCH  39  40
ENDBRANCH  38  39
ENDBRANCH  35  38
ENDBRANCH  26  27
ENDBRANCH  25  26
ENDBRANCH  24  25
ENDBRANCH  23  24
ENDBRANCH  20  23
ENDBRANCH  14  16
ENDBRANCH  11  14
ENDBRANCH  10  11
ENDBRANCH   8  10
BRANCH   9  47
HETATM   47  C26 UNL     1      -7.734  -0.555  -0.583  1.00  0.00     0.036 C 
HETATM   48  C27 UNL     1      -8.556  -1.125   0.550  1.00  0.00     0.010 C 
ENDBRANCH   9  47
ENDBRANCH   3   4
TORSDOF 18
