REMARK  13 active torsions:
REMARK  status: ('A' for Active; 'I' for Inactive)
REMARK    1  A    between atoms: C7_7  and  O1_8 
REMARK    2  A    between atoms: C8_10  and  N1_11 
REMARK    3  A    between atoms: C10_13  and  C11_14 
REMARK       I    between atoms: C11_14  and  N2_16 
REMARK    4  A    between atoms: N2_16  and  C12_18 
REMARK    5  A    between atoms: C12_18  and  C13_19 
REMARK    6  A    between atoms: C13_19  and  C14_20 
REMARK    7  A    between atoms: C14_20  and  C15_21 
REMARK    8  A    between atoms: C15_21  and  C16_22 
REMARK    9  A    between atoms: C16_22  and  C17_23 
REMARK   10  A    between atoms: C17_23  and  C18_24 
REMARK   11  A    between atoms: C18_24  and  C19_25 
REMARK   12  A    between atoms: C19_25  and  N3_26 
REMARK       I    between atoms: N3_26  and  C20_28 
REMARK   13  A    between atoms: C20_28  and  C21_30 
ROOT
HETATM    1  C11 UNL     1       3.201   1.137   2.050  1.00  0.00     0.271 C 
HETATM    2  O2  UNL     1       3.766   1.940   2.798  1.00  0.00    -0.266 OA
HETATM    3  N2  UNL     1       1.823   0.790   2.318  1.00  0.00    -0.356 N 
ATOM      4  H2  UNL     1       1.344   0.128   1.707  1.00  0.00     0.162 HD
ENDROOT
BRANCH   3   5
HETATM    5  C12 UNL     1       1.126   1.357   3.420  1.00  0.00     0.123 C 
BRANCH   5   6
HETATM    6  C13 UNL     1      -0.292   0.967   3.578  1.00  0.00     0.020 C 
BRANCH   6   7
HETATM    7  C14 UNL     1      -1.283   1.336   2.564  1.00  0.00     0.002 C 
BRANCH   7   8
HETATM    8  C15 UNL     1      -1.253   0.830   1.191  1.00  0.00     0.000 C 
BRANCH   8   9
HETATM    9  C16 UNL     1      -1.408  -0.665   1.028  1.00  0.00     0.000 C 
BRANCH   9  10
HETATM   10  C17 UNL     1      -2.692  -1.192   1.572  1.00  0.00     0.002 C 
BRANCH  10  11
HETATM   11  C18 UNL     1      -3.922  -0.594   0.915  1.00  0.00     0.020 C 
BRANCH  11  12
HETATM   12  C19 UNL     1      -5.112  -1.229   1.576  1.00  0.00     0.122 C 
BRANCH  12  13
HETATM   13  N3  UNL     1      -6.383  -0.804   1.109  1.00  0.00    -0.360 N 
HETATM   14  C20 UNL     1      -6.791  -0.982  -0.225  1.00  0.00     0.226 C 
HETATM   15  O3  UNL     1      -6.059  -1.530  -1.085  1.00  0.00    -0.273 OA
ATOM     16  H3  UNL     1      -7.023  -0.354   1.764  1.00  0.00     0.162 HD
BRANCH  14  17
HETATM   17  C21 UNL     1      -8.150  -0.496  -0.623  1.00  0.00     0.042 C 
HETATM   18  C22 UNL     1      -8.438  -0.763  -2.078  1.00  0.00     0.024 C 
HETATM   19  C23 UNL     1      -9.799  -0.214  -2.387  1.00  0.00    -0.013 C 
HETATM   20  C24 UNL     1     -10.817  -0.911  -1.536  1.00  0.00     0.009 C 
HETATM   21  C28 UNL     1      -9.796   1.280  -2.188  1.00  0.00     0.009 C 
HETATM   22  C25 UNL     1     -10.558  -0.587  -0.083  1.00  0.00    -0.013 C 
HETATM   23  C26 UNL     1     -10.542   0.902   0.166  1.00  0.00     0.009 C 
HETATM   24  C30 UNL     1      -9.192  -1.125   0.266  1.00  0.00     0.024 C 
HETATM   25  C27 UNL     1      -9.535   1.567  -0.723  1.00  0.00    -0.013 C 
HETATM   26  C29 UNL     1      -8.173   0.995  -0.379  1.00  0.00     0.024 C 
ENDBRANCH  14  17
ENDBRANCH  12  13
ENDBRANCH  11  12
ENDBRANCH  10  11
ENDBRANCH   9  10
ENDBRANCH   8   9
ENDBRANCH   7   8
ENDBRANCH   6   7
ENDBRANCH   5   6
ENDBRANCH   3   5
BRANCH   1  27
HETATM   27  C10 UNL     1       3.869   0.540   0.925  1.00  0.00     0.134 A 
HETATM   28  C9  UNL     1       5.202   0.796   0.594  1.00  0.00     0.148 A 
HETATM   29  N1  UNL     1       5.457   0.069  -0.495  1.00  0.00    -0.279 N 
HETATM   30  N5  UNL     1       4.360  -0.586  -0.814  1.00  0.00    -0.240 N 
HETATM   31  N4  UNL     1       3.387  -0.333   0.010  1.00  0.00    -0.280 N 
ATOM     32  H5  UNL     1       4.283  -1.216  -1.612  1.00  0.00     0.208 HD
ATOM     33  H4  UNL     1       2.443  -0.718  -0.026  1.00  0.00     0.189 HD
BRANCH  29  34
HETATM   34  C8  UNL     1       6.761   0.054  -1.165  1.00  0.00     0.140 C 
HETATM   35  C7  UNL     1       7.082  -1.358  -1.616  1.00  0.00     0.143 C 
HETATM   36  C6  UNL     1       8.130  -1.409  -2.685  1.00  0.00     0.034 C 
HETATM   37  C5  UNL     1       9.515  -1.639  -2.125  1.00  0.00     0.010 C 
HETATM   38  C4  UNL     1       9.793  -0.788  -0.900  1.00  0.00     0.017 C 
HETATM   39  C3  UNL     1      11.267  -0.469  -0.890  1.00  0.00     0.038 C 
HETATM   40  C32 UNL     1       9.146   0.559  -0.991  1.00  0.00     0.128 C 
HETATM   41  C2  UNL     1      11.261   0.899  -0.265  1.00  0.00     0.118 C 
HETATM   42  C1  UNL     1      12.333   1.803  -0.830  1.00  0.00     0.039 C 
HETATM   43  O4  UNL     1      10.031   1.443  -0.459  1.00  0.00    -0.381 OA
HETATM   44  C31 UNL     1       7.848   0.482  -0.204  1.00  0.00     0.062 C 
BRANCH  35  45
HETATM   45  O1  UNL     1       5.932  -1.942  -2.119  1.00  0.00    -0.393 OA
ATOM     46  H1  UNL     1       5.267  -1.910  -1.441  1.00  0.00     0.210 HD
ENDBRANCH  35  45
ENDBRANCH  29  34
ENDBRANCH   1  27
TORSDOF 13
