REMARK  13 active torsions:
REMARK  status: ('A' for Active; 'I' for Inactive)
REMARK    1  A    between atoms: O1_2  and  C2_3 
REMARK    2  A    between atoms: C8_9  and  C9_10 
REMARK    3  A    between atoms: C10_13  and  O4_14 
REMARK    4  A    between atoms: C13_18  and  C14_19 
REMARK    5  A    between atoms: C15_20  and  C16_21 
REMARK    6  A    between atoms: C16_21  and  C17_22 
REMARK    7  A    between atoms: C22_28  and  C23_29 
REMARK    8  A    between atoms: C23_29  and  C24_30 
REMARK    9  A    between atoms: C24_30  and  C25_31 
REMARK   10  A    between atoms: C26_32  and  C27_33 
REMARK   11  A    between atoms: C27_33  and  C28_34 
REMARK   12  A    between atoms: C28_34  and  C29_35 
REMARK   13  A    between atoms: C30_39  and  O9_40 
ROOT
HETATM    1  C2  UNL     1      -6.213  -0.720  -0.430  1.00  0.00     0.126 C 
HETATM    2  C3  UNL     1      -5.523  -2.038  -0.828  1.00  0.00     0.032 C 
HETATM    3  C4  UNL     1      -4.271  -1.600  -1.555  1.00  0.00     0.003 C 
HETATM    4  C5  UNL     1      -3.329  -0.879  -0.619  1.00  0.00     0.008 C 
HETATM    5  C6  UNL     1      -3.964  -0.579   0.709  1.00  0.00     0.031 C 
HETATM    6  C7  UNL     1      -5.363   0.003   0.557  1.00  0.00     0.039 C 
HETATM    7  C8  UNL     1      -5.090   1.438   0.248  1.00  0.00     0.131 C 
HETATM    8  C10 UNL     1      -3.898   1.765   1.132  1.00  0.00     0.103 C 
HETATM    9  C11 UNL     1      -2.952   2.534   0.230  1.00  0.00     0.043 C 
HETATM   10  C12 UNL     1      -1.613   2.102   0.667  1.00  0.00     0.014 C 
HETATM   11  C13 UNL     1      -1.792   0.657   1.075  1.00  0.00     0.046 C 
HETATM   12  C30 UNL     1      -3.244   0.483   1.502  1.00  0.00     0.103 C 
ENDROOT
BRANCH  11  13
HETATM   13  C14 UNL     1      -0.846   0.422   2.192  1.00  0.00    -0.023 C 
HETATM   14  C15 UNL     1       0.091  -0.490   2.208  1.00  0.00    -0.025 C 
BRANCH  14  15
HETATM   15  C16 UNL     1       0.420  -1.471   1.153  1.00  0.00     0.087 C 
BRANCH  15  16
HETATM   16  C17 UNL     1       1.864  -1.288   0.665  1.00  0.00     0.264 C 
HETATM   17  O5  UNL     1       2.145  -2.211  -0.308  1.00  0.00    -0.356 OA
HETATM   18  C18 UNL     1       2.089  -1.747  -1.600  1.00  0.00     0.126 C 
HETATM   19  C19 UNL     1       2.357  -2.900  -2.541  1.00  0.00     0.040 C 
HETATM   20  C20 UNL     1       3.180  -0.665  -1.730  1.00  0.00     0.039 C 
HETATM   21  C21 UNL     1       2.836   0.082  -3.005  1.00  0.00     0.015 C 
HETATM   22  C22 UNL     1       3.148   0.209  -0.538  1.00  0.00     0.131 C 
HETATM   23  O8  UNL     1       1.980   0.025   0.231  1.00  0.00    -0.355 OA
BRANCH  22  24
HETATM   24  C23 UNL     1       4.352   0.320   0.315  1.00  0.00     0.036 C 
BRANCH  24  25
HETATM   25  C24 UNL     1       5.606   0.875  -0.240  1.00  0.00     0.029 C 
BRANCH  25  26
HETATM   26  C25 UNL     1       6.282   0.236  -1.346  1.00  0.00    -0.031 C 
HETATM   27  C26 UNL     1       7.522  -0.275  -1.262  1.00  0.00    -0.030 C 
BRANCH  27  28
HETATM   28  C27 UNL     1       8.358  -0.265  -0.068  1.00  0.00     0.037 C 
BRANCH  28  29
HETATM   29  C28 UNL     1       9.655   0.500  -0.311  1.00  0.00     0.117 C 
BRANCH  29  30
HETATM   30  C29 UNL     1      10.493   0.502   0.908  1.00  0.00     0.172 C 
HETATM   31  O6  UNL     1      11.582   1.090   0.934  1.00  0.00    -0.648 OA
HETATM   32  O7  UNL     1      10.039  -0.168   2.028  1.00  0.00    -0.648 OA
ENDBRANCH  29  30
ENDBRANCH  28  29
ENDBRANCH  27  28
ENDBRANCH  25  26
ENDBRANCH  24  25
ENDBRANCH  22  24
ENDBRANCH  15  16
ENDBRANCH  14  15
ENDBRANCH  11  13
BRANCH  12  33
HETATM   33  O9  UNL     1      -3.170   0.242   2.829  1.00  0.00    -0.381 OA
HETATM   34  C31 UNL     1      -4.237   0.067   3.608  1.00  0.00     0.202 C 
ENDBRANCH  12  33
BRANCH   8  35
HETATM   35  O4  UNL     1      -4.210   2.602   2.180  1.00  0.00    -0.386 OA
ATOM     36  H4  UNL     1      -3.465   2.806   2.733  1.00  0.00     0.210 HD
ENDBRANCH   8  35
BRANCH   7  37
HETATM   37  C9  UNL     1      -6.213   2.299   0.663  1.00  0.00     0.180 C 
HETATM   38  O2  UNL     1      -6.772   3.052  -0.183  1.00  0.00    -0.648 OA
HETATM   39  O3  UNL     1      -6.719   2.345   1.954  1.00  0.00    -0.648 OA
ENDBRANCH   7  37
BRANCH   1  40
HETATM   40  O1  UNL     1      -6.542   0.008  -1.566  1.00  0.00    -0.390 OA
HETATM   41  C1  UNL     1      -7.940   0.022  -1.786  1.00  0.00     0.202 C 
ENDBRANCH   1  40
TORSDOF 13
