REMARK  16 active torsions:
REMARK  status: ('A' for Active; 'I' for Inactive)
REMARK    1  A    between atoms: C2_2  and  C3_3 
REMARK    2  A    between atoms: N2_9  and  C7_10 
REMARK    3  A    between atoms: C7_10  and  C8_11 
REMARK       I    between atoms: N3_15  and  C12_16 
REMARK    4  A    between atoms: C12_16  and  C13_18 
REMARK    5  A    between atoms: C13_18  and  C14_19 
REMARK    6  A    between atoms: C14_19  and  C15_20 
REMARK    7  A    between atoms: C16_23  and  C17_24 
REMARK    8  A    between atoms: C17_24  and  C18_25 
REMARK    9  A    between atoms: C21_30  and  O2_31 
REMARK   10  A    between atoms: O2_31  and  C22_32 
REMARK   11  A    between atoms: C22_32  and  C23_33 
REMARK   12  A    between atoms: C23_33  and  O3_34 
REMARK   13  A    between atoms: C23_33  and  C24_36 
REMARK   14  A    between atoms: C24_36  and  N6_37 
REMARK       I    between atoms: N6_37  and  C25_39 
REMARK   15  A    between atoms: C25_39  and  C26_41 
REMARK   16  A    between atoms: C26_41  and  C27_42 
ROOT
HETATM    1  C15 UNL     1      -1.753  -0.267  -3.321  1.00  0.00     0.062 A 
HETATM    2  N4  UNL     1      -1.382   0.593  -4.312  1.00  0.00    -0.346 N 
ATOM      3  H4  UNL     1      -1.993   0.927  -5.058  1.00  0.00     0.167 HD
HETATM    4  C16 UNL     1      -0.093   0.935  -4.159  1.00  0.00     0.083 A 
HETATM    5  N5  UNL     1       0.379   0.311  -3.087  1.00  0.00    -0.325 N 
ATOM      6  H5  UNL     1       1.331   0.382  -2.728  1.00  0.00     0.169 HD
HETATM    7  C21 UNL     1      -0.632  -0.448  -2.541  1.00  0.00     0.167 A 
ENDROOT
BRANCH   1   8
HETATM    8  C14 UNL     1      -3.119  -0.796  -3.163  1.00  0.00     0.071 C 
BRANCH   8   9
HETATM    9  C13 UNL     1      -4.025   0.011  -2.286  1.00  0.00     0.109 C 
BRANCH   9  10
HETATM   10  C12 UNL     1      -3.647   0.133  -0.869  1.00  0.00     0.220 C 
HETATM   11  N3  UNL     1      -3.487   1.334  -0.194  1.00  0.00    -0.346 N 
HETATM   12  C8  UNL     1      -3.184   1.685   1.157  1.00  0.00     0.105 C 
HETATM   13  C11 UNL     1      -3.499   2.657  -0.846  1.00  0.00     0.126 C 
HETATM   14  C9  UNL     1      -1.747   2.253   0.811  1.00  0.00     0.028 C 
HETATM   15  C10 UNL     1      -2.081   3.098  -0.401  1.00  0.00     0.022 C 
HETATM   16  O1  UNL     1      -3.474  -0.988  -0.270  1.00  0.00    -0.273 OA
BRANCH  12  17
HETATM   17  C7  UNL     1      -3.074   0.638   2.165  1.00  0.00     0.150 C 
BRANCH  17  18
HETATM   18  N2  UNL     1      -4.283   0.077   2.673  1.00  0.00    -0.363 N 
HETATM   19  C3  UNL     1      -4.364  -1.128   3.560  1.00  0.00     0.103 C 
HETATM   20  C4  UNL     1      -5.367  -0.585   4.560  1.00  0.00     0.146 C 
HETATM   21  N1  UNL     1      -6.276   0.118   3.695  1.00  0.00    -0.378 N 
HETATM   22  C5  UNL     1      -5.637   0.493   2.589  1.00  0.00     0.071 C 
ATOM     23  H1  UNL     1      -7.259   0.301   3.898  1.00  0.00     0.160 HD
HETATM   24  C6  UNL     1      -6.305   1.240   1.500  1.00  0.00     0.088 C 
BRANCH  19  25
HETATM   25  C2  UNL     1      -4.996  -2.210   2.709  1.00  0.00     0.022 C 
HETATM   26  C1  UNL     1      -5.516  -3.373   3.537  1.00  0.00     0.007 C 
ENDBRANCH  19  25
ENDBRANCH  17  18
ENDBRANCH  12  17
ENDBRANCH   9  10
ENDBRANCH   8   9
ENDBRANCH   1   8
BRANCH   7  27
HETATM   27  O2  UNL     1      -0.508  -1.206  -1.461  1.00  0.00    -0.332 OA
BRANCH  27  28
HETATM   28  C22 UNL     1       0.280  -1.653  -0.486  1.00  0.00     0.210 C 
BRANCH  28  29
HETATM   29  C23 UNL     1       1.524  -2.440  -0.876  1.00  0.00     0.160 C 
BRANCH  29  30
HETATM   30  O3  UNL     1       2.465  -1.730  -1.537  1.00  0.00    -0.392 OA
ATOM     31  H3  UNL     1       3.241  -2.221  -1.780  1.00  0.00     0.210 HD
ENDBRANCH  29  30
BRANCH  29  32
HETATM   32  C24 UNL     1       2.018  -3.219   0.275  1.00  0.00     0.156 C 
BRANCH  32  33
HETATM   33  N6  UNL     1       2.635  -2.476   1.315  1.00  0.00    -0.359 N 
HETATM   34  C25 UNL     1       3.811  -1.716   1.303  1.00  0.00     0.217 C 
HETATM   35  O4  UNL     1       4.530  -1.585   0.293  1.00  0.00    -0.274 OA
ATOM     36  H6  UNL     1       2.146  -2.499   2.210  1.00  0.00     0.162 HD
BRANCH  34  37
HETATM   37  C26 UNL     1       4.246  -1.016   2.557  1.00  0.00     0.107 C 
BRANCH  37  38
HETATM   38  C27 UNL     1       5.445  -0.152   2.366  1.00  0.00    -0.006 C 
HETATM   39  C28 UNL     1       5.786   0.479   3.708  1.00  0.00     0.005 C 
HETATM   40  C29 UNL     1       6.886   1.476   3.559  1.00  0.00     0.000 C 
HETATM   41  C30 UNL     1       8.090   0.869   2.938  1.00  0.00     0.000 C 
HETATM   42  C31 UNL     1       7.937  -0.516   2.405  1.00  0.00     0.000 C 
HETATM   43  C32 UNL     1       6.628  -0.813   1.747  1.00  0.00     0.005 C 
ENDBRANCH  37  38
ENDBRANCH  34  37
ENDBRANCH  32  33
ENDBRANCH  29  32
ENDBRANCH  28  29
ENDBRANCH  27  28
ENDBRANCH   7  27
BRANCH   4  44
HETATM   44  C17 UNL     1       0.622   1.881  -5.076  1.00  0.00     0.080 C 
BRANCH  44  45
HETATM   45  C18 UNL     1       1.274   1.176  -6.241  1.00  0.00    -0.016 C 
HETATM   46  C19 UNL     1       2.294   0.167  -5.791  1.00  0.00     0.010 C 
HETATM   47  C20 UNL     1       1.889   2.233  -7.140  1.00  0.00     0.010 C 
ENDBRANCH  44  45
ENDBRANCH   4  44
TORSDOF 16
