REMARK  17 active torsions:
REMARK  status: ('A' for Active; 'I' for Inactive)
REMARK    1  A    between atoms: C2_2  and  C4_4 
REMARK    2  A    between atoms: C4_4  and  C5_5 
REMARK    3  A    between atoms: C5_5  and  O2_7 
REMARK    4  A    between atoms: O2_7  and  C6_8 
REMARK    5  A    between atoms: C6_8  and  C8_10 
REMARK    6  A    between atoms: C8_10  and  N1_12 
REMARK       I    between atoms: N1_12  and  C10_14 
REMARK    7  A    between atoms: C10_14  and  C11_16 
REMARK    8  A    between atoms: C11_16  and  C12_17 
REMARK    9  A    between atoms: C11_16  and  N2_21 
REMARK   10  A    between atoms: C12_17  and  C13_18 
REMARK       I    between atoms: N2_21  and  C16_23 
REMARK   11  A    between atoms: C16_23  and  C17_25 
REMARK   12  A    between atoms: C21_30  and  C22_31 
REMARK       I    between atoms: C22_31  and  N3_33 
REMARK   13  A    between atoms: N3_33  and  C23_35 
REMARK   14  A    between atoms: C23_35  and  C24_36 
REMARK   15  A    between atoms: C23_35  and  C28_40 
REMARK   16  A    between atoms: C24_36  and  C25_37 
REMARK   17  A    between atoms: C28_40  and  C29_42 
ROOT
HETATM    1  N2  UNL     1       0.561  -0.765  -1.568  1.00  0.00    -0.347 N 
ATOM      2  H2  UNL     1       0.862  -0.439  -2.486  1.00  0.00     0.163 HD
HETATM    3  C16 UNL     1      -0.729  -0.443  -1.113  1.00  0.00     0.223 C 
HETATM    4  O4  UNL     1      -1.123  -0.837   0.002  1.00  0.00    -0.273 OA
ENDROOT
BRANCH   3   5
HETATM    5  C17 UNL     1      -1.672   0.379  -1.938  1.00  0.00     0.098 C 
HETATM    6  C18 UNL     1      -1.320  -0.020  -3.394  1.00  0.00     0.093 C 
HETATM    7  C19 UNL     1      -2.524   0.476  -4.097  1.00  0.00     0.128 C 
HETATM    8  O5  UNL     1      -2.594   1.056  -5.158  1.00  0.00    -0.298 OA
HETATM    9  C20 UNL     1      -3.663   0.121  -3.240  1.00  0.00     0.093 C 
HETATM   10  C21 UNL     1      -3.077  -0.164  -1.872  1.00  0.00     0.098 C 
BRANCH  10  11
HETATM   11  C22 UNL     1      -3.889   0.381  -0.760  1.00  0.00     0.223 C 
HETATM   12  O6  UNL     1      -3.323   1.102   0.093  1.00  0.00    -0.273 OA
HETATM   13  N3  UNL     1      -5.263   0.111  -0.639  1.00  0.00    -0.349 N 
ATOM     14  H3  UNL     1      -5.685  -0.477  -1.358  1.00  0.00     0.163 HD
BRANCH  13  15
HETATM   15  C23 UNL     1      -6.145   0.597   0.425  1.00  0.00     0.155 C 
BRANCH  15  16
HETATM   16  C24 UNL     1      -7.230   1.365  -0.288  1.00  0.00     0.037 C 
BRANCH  16  17
HETATM   17  C25 UNL     1      -6.660   2.542  -1.087  1.00  0.00    -0.020 C 
HETATM   18  C26 UNL     1      -5.954   3.543  -0.225  1.00  0.00     0.009 C 
HETATM   19  C27 UNL     1      -7.806   3.186  -1.847  1.00  0.00     0.009 C 
ENDBRANCH  16  17
ENDBRANCH  15  16
BRANCH  15  20
HETATM   20  C28 UNL     1      -6.635  -0.542   1.233  1.00  0.00     0.157 C 
HETATM   21  O7  UNL     1      -6.252  -1.663   0.933  1.00  0.00    -0.295 OA
BRANCH  20  22
HETATM   22  C29 UNL     1      -7.551  -0.426   2.373  1.00  0.00     0.012 C 
HETATM   23  C30 UNL     1      -7.769  -1.810   3.033  1.00  0.00     0.022 C 
HETATM   24  C31 UNL     1      -7.023   0.463   3.478  1.00  0.00     0.022 C 
HETATM   25  C32 UNL     1      -8.974  -0.018   1.961  1.00  0.00     0.022 C 
ENDBRANCH  20  22
ENDBRANCH  15  20
ENDBRANCH  13  15
ENDBRANCH  10  11
ENDBRANCH   3   5
BRANCH   1  26
HETATM   26  C11 UNL     1       1.497  -1.571  -0.740  1.00  0.00     0.177 C 
BRANCH  26  27
HETATM   27  C10 UNL     1       2.790  -0.925  -0.866  1.00  0.00     0.240 C 
HETATM   28  N1  UNL     1       3.882  -1.043   0.040  1.00  0.00    -0.353 N 
ATOM     29  H1  UNL     1       3.780  -1.630   0.868  1.00  0.00     0.163 HD
HETATM   30  O3  UNL     1       2.987  -0.164  -1.887  1.00  0.00    -0.271 OA
BRANCH  28  31
HETATM   31  C8  UNL     1       5.132  -0.352  -0.184  1.00  0.00     0.109 C 
HETATM   32  C9  UNL     1       6.309  -1.288  -0.166  1.00  0.00     0.035 C 
BRANCH  31  33
HETATM   33  C6  UNL     1       5.356   0.661   0.945  1.00  0.00     0.150 C 
HETATM   34  C7  UNL     1       4.291   1.717   0.806  1.00  0.00     0.042 C 
BRANCH  33  35
HETATM   35  O2  UNL     1       6.599   1.338   0.723  1.00  0.00    -0.314 OA
BRANCH  35  36
HETATM   36  C5  UNL     1       7.656   1.293   1.607  1.00  0.00     0.259 C 
HETATM   37  O1  UNL     1       7.557   0.643   2.658  1.00  0.00    -0.265 OA
BRANCH  36  38
HETATM   38  C4  UNL     1       8.902   2.019   1.294  1.00  0.00     0.115 C 
BRANCH  38  39
HETATM   39  C2  UNL     1       9.975   1.813   2.313  1.00  0.00    -0.013 C 
HETATM   40  C1  UNL     1      10.349   0.354   2.431  1.00  0.00     0.010 C 
HETATM   41  C3  UNL     1      11.172   2.663   1.954  1.00  0.00     0.010 C 
ENDBRANCH  38  39
ENDBRANCH  36  38
ENDBRANCH  35  36
ENDBRANCH  33  35
ENDBRANCH  31  33
ENDBRANCH  28  31
ENDBRANCH  26  27
BRANCH  26  42
HETATM   42  C12 UNL     1       1.445  -2.946  -1.316  1.00  0.00     0.038 C 
BRANCH  42  43
HETATM   43  C13 UNL     1       2.317  -4.008  -0.804  1.00  0.00    -0.020 C 
HETATM   44  C14 UNL     1       2.175  -4.313   0.678  1.00  0.00     0.009 C 
HETATM   45  C15 UNL     1       3.753  -4.013  -1.187  1.00  0.00     0.009 C 
ENDBRANCH  42  43
ENDBRANCH  26  42
ENDBRANCH   1  26
TORSDOF 17
