REMARK  12 active torsions:
REMARK  status: ('A' for Active; 'I' for Inactive)
REMARK    1  A    between atoms: C2_2  and  C3_3 
REMARK    2  A    between atoms: C3_3  and  N1_4 
REMARK       I    between atoms: N1_4  and  C4_6 
REMARK    3  A    between atoms: C4_6  and  C5_8 
REMARK    4  A    between atoms: C5_8  and  C6_9 
REMARK    5  A    between atoms: C5_8  and  N2_31 
REMARK    6  A    between atoms: C6_9  and  S1_10 
REMARK    7  A    between atoms: S1_10  and  S2_11 
REMARK    8  A    between atoms: S2_11  and  C7_12 
REMARK    9  A    between atoms: C7_12  and  C8_13 
REMARK       I    between atoms: N2_31  and  C23_33 
REMARK   10  A    between atoms: C23_33  and  C24_35 
REMARK   11  A    between atoms: C24_35  and  C25_36 
REMARK   12  A    between atoms: C25_36  and  C26_37 
ROOT
HETATM    1  S2  UNL     1       0.260  -1.043   2.110  1.00  0.00    -0.097 SA
ENDROOT
BRANCH   1   2
HETATM    2  S1  UNL     1       2.108  -0.036   2.383  1.00  0.00    -0.095 SA
BRANCH   2   3
HETATM    3  C6  UNL     1       3.415  -1.024   1.696  1.00  0.00     0.120 C 
BRANCH   3   4
HETATM    4  C5  UNL     1       3.357  -1.191   0.178  1.00  0.00     0.186 C 
BRANCH   4   5
HETATM    5  C4  UNL     1       4.485  -2.148  -0.112  1.00  0.00     0.241 C 
HETATM    6  N1  UNL     1       4.354  -3.437   0.454  1.00  0.00    -0.359 N 
ATOM      7  H1  UNL     1       3.529  -3.658   1.012  1.00  0.00     0.162 HD
HETATM    8  O1  UNL     1       5.474  -1.856  -0.794  1.00  0.00    -0.271 OA
BRANCH   6   9
HETATM    9  C3  UNL     1       5.363  -4.441   0.256  1.00  0.00     0.122 C 
BRANCH   9  10
HETATM   10  C2  UNL     1       5.497  -4.774  -1.205  1.00  0.00     0.015 C 
HETATM   11  C1  UNL     1       6.593  -5.833  -1.343  1.00  0.00     0.006 C 
ENDBRANCH   9  10
ENDBRANCH   6   9
ENDBRANCH   4   5
BRANCH   4  12
HETATM   12  N2  UNL     1       3.637   0.035  -0.490  1.00  0.00    -0.347 N 
HETATM   13  C23 UNL     1       3.612   1.387  -0.210  1.00  0.00     0.218 C 
HETATM   14  O5  UNL     1       3.313   1.972   0.864  1.00  0.00    -0.274 OA
ATOM     15  H2  UNL     1       3.943  -0.133  -1.448  1.00  0.00     0.163 HD
BRANCH  13  16
HETATM   16  C24 UNL     1       3.997   2.332  -1.346  1.00  0.00     0.113 C 
BRANCH  16  17
HETATM   17  C25 UNL     1       3.955   3.759  -0.933  1.00  0.00     0.122 C 
BRANCH  17  18
HETATM   18  C26 UNL     1       2.606   4.214  -0.533  1.00  0.00     0.172 C 
HETATM   19  O6  UNL     1       1.557   3.546  -0.646  1.00  0.00    -0.648 OA
HETATM   20  O7  UNL     1       2.454   5.499   0.027  1.00  0.00    -0.648 OA
ENDBRANCH  17  18
ENDBRANCH  16  17
ENDBRANCH  13  16
ENDBRANCH   4  12
ENDBRANCH   3   4
ENDBRANCH   2   3
ENDBRANCH   1   2
BRANCH   1  21
HETATM   21  C7  UNL     1      -0.526  -0.646   0.575  1.00  0.00     0.101 C 
BRANCH  21  22
HETATM   22  C8  UNL     1      -1.007   0.769   0.397  1.00  0.00     0.102 C 
HETATM   23  C9  UNL     1      -1.588   0.836  -0.979  1.00  0.00     0.135 C 
HETATM   24  O2  UNL     1      -1.019   1.625  -1.718  1.00  0.00    -0.297 OA
HETATM   25  C10 UNL     1      -2.715   0.197  -1.772  1.00  0.00     0.086 C 
HETATM   26  C11 UNL     1      -3.929   0.996  -1.678  1.00  0.00     0.035 C 
HETATM   27  C12 UNL     1      -5.284   0.358  -1.631  1.00  0.00    -0.003 C 
HETATM   28  C15 UNL     1      -4.112   1.737  -0.342  1.00  0.00     0.104 C 
HETATM   29  C13 UNL     1      -6.078   1.680  -1.799  1.00  0.00     0.009 C 
HETATM   30  C21 UNL     1      -5.601  -0.003  -0.170  1.00  0.00    -0.007 C 
HETATM   31  C14 UNL     1      -5.417   2.464  -0.664  1.00  0.00     0.042 C 
HETATM   32  C20 UNL     1      -4.327   0.484   0.472  1.00  0.00     0.028 C 
HETATM   33  C22 UNL     1      -5.781  -1.487  -0.091  1.00  0.00     0.011 C 
HETATM   34  C19 UNL     1      -4.207   0.611   1.909  1.00  0.00     0.011 C 
HETATM   35  C18 UNL     1      -2.715   0.338   2.233  1.00  0.00     0.042 C 
HETATM   36  C16 UNL     1      -1.829   1.323   1.481  1.00  0.00     0.104 C 
HETATM   37  O4  UNL     1      -2.633   2.385   1.169  1.00  0.00    -0.228 OA
HETATM   38  C17 UNL     1      -0.875   1.893   2.553  1.00  0.00     0.050 C 
HETATM   39  O3  UNL     1      -3.109   2.539   0.019  1.00  0.00    -0.228 OA
ENDBRANCH  21  22
ENDBRANCH   1  21
TORSDOF 12
