REMARK  14 active torsions:
REMARK  status: ('A' for Active; 'I' for Inactive)
REMARK    1  A    between atoms: C2_2  and  C3_3 
REMARK    2  A    between atoms: C3_3  and  C4_4 
REMARK    3  A    between atoms: C4_4  and  C5_5 
REMARK    4  A    between atoms: C5_5  and  C6_6 
REMARK    5  A    between atoms: C6_6  and  N1_7 
REMARK    6  A    between atoms: C9_10  and  O1_11 
REMARK       I    between atoms: N2_15  and  C11_17 
REMARK    7  A    between atoms: C11_17  and  C12_19 
REMARK       I    between atoms: N3_27  and  C20_28 
REMARK    8  A    between atoms: C20_28  and  C21_30 
REMARK    9  A    between atoms: C21_30  and  N4_31 
REMARK   10  A    between atoms: C21_30  and  C22_35 
REMARK   11  A    between atoms: C22_35  and  C23_36 
REMARK   12  A    between atoms: C23_36  and  C24_37 
REMARK   13  A    between atoms: C24_37  and  N5_38 
REMARK       I    between atoms: N5_38  and  C25_40 
REMARK   14  A    between atoms: C25_40  and  C26_42 
ROOT
HETATM    1  C12 UNL     1      -0.612   0.090  -0.462  1.00  0.00     0.087 C 
HETATM    2  C13 UNL     1      -0.786   1.484  -1.006  1.00  0.00     0.047 C 
HETATM    3  C14 UNL     1      -1.348   1.613  -2.368  1.00  0.00     0.011 C 
HETATM    4  C15 UNL     1      -0.836   2.970  -2.892  1.00  0.00     0.001 C 
HETATM    5  C16 UNL     1      -0.529   3.917  -1.722  1.00  0.00     0.000 C 
HETATM    6  C17 UNL     1       0.660   3.392  -0.895  1.00  0.00     0.007 C 
HETATM    7  C18 UNL     1       0.676   1.940  -1.151  1.00  0.00     0.014 C 
HETATM    8  C19 UNL     1       1.401   1.051  -0.205  1.00  0.00     0.137 C 
HETATM    9  N3  UNL     1       0.759  -0.243  -0.656  1.00  0.00    -0.314 N 
HETATM   10  C20 UNL     1       1.504  -1.310  -1.129  1.00  0.00     0.255 C 
HETATM   11  O3  UNL     1       0.967  -2.344  -1.574  1.00  0.00    -0.271 OA
ENDROOT
BRANCH   1  12
HETATM   12  C11 UNL     1      -1.674  -0.818  -0.693  1.00  0.00     0.270 C 
HETATM   13  N2  UNL     1      -3.017  -0.330  -0.749  1.00  0.00    -0.302 N 
HETATM   14  C10 UNL     1      -3.606   0.114   0.348  1.00  0.00     0.156 A 
ATOM     15  H2  UNL     1      -3.521  -0.325  -1.636  1.00  0.00     0.171 HD
HETATM   16  N1  UNL     1      -4.856   0.595   0.424  1.00  0.00    -0.328 N 
HETATM   17  S1  UNL     1      -3.024   0.234   1.936  1.00  0.00    -0.027 SA
HETATM   18  C7  UNL     1      -5.283   1.003   1.603  1.00  0.00     0.050 A 
HETATM   19  C8  UNL     1      -6.665   1.599   1.899  1.00  0.00     0.072 C 
HETATM   20  C9  UNL     1      -4.409   0.901   2.658  1.00  0.00     0.133 A 
HETATM   21  O2  UNL     1      -1.566  -2.040  -0.861  1.00  0.00    -0.266 OA
BRANCH  16  22
HETATM   22  C6  UNL     1      -5.715   0.627  -0.801  1.00  0.00     0.131 C 
BRANCH  22  23
HETATM   23  C5  UNL     1      -6.426  -0.657  -1.030  1.00  0.00     0.020 C 
BRANCH  23  24
HETATM   24  C4  UNL     1      -7.351  -1.120   0.037  1.00  0.00     0.002 C 
BRANCH  24  25
HETATM   25  C3  UNL     1      -7.975  -2.460  -0.400  1.00  0.00    -0.000 C 
BRANCH  25  26
HETATM   26  C2  UNL     1      -8.909  -2.858   0.748  1.00  0.00    -0.005 C 
HETATM   27  C1  UNL     1      -9.955  -1.777   0.921  1.00  0.00     0.005 C 
ENDBRANCH  25  26
ENDBRANCH  24  25
ENDBRANCH  23  24
ENDBRANCH  22  23
ENDBRANCH  16  22
BRANCH  20  28
HETATM   28  O1  UNL     1      -4.620   1.265   4.012  1.00  0.00    -0.352 OA
ATOM     29  H1  UNL     1      -4.016   1.194   4.742  1.00  0.00     0.218 HD
ENDBRANCH  20  28
ENDBRANCH   1  12
BRANCH  10  30
HETATM   30  C21 UNL     1       3.021  -1.298  -1.138  1.00  0.00     0.275 C 
BRANCH  30  31
HETATM   31  N4  UNL     1       3.519  -2.459  -1.892  1.00  0.00    -0.066 N 
ATOM     32  H43 UNL     1       3.143  -3.338  -1.537  1.00  0.00     0.275 HD
ATOM     33  H42 UNL     1       3.129  -2.502  -2.833  1.00  0.00     0.275 HD
ATOM     34  H41 UNL     1       4.539  -2.451  -1.898  1.00  0.00     0.275 HD
ENDBRANCH  30  31
BRANCH  30  35
HETATM   35  C22 UNL     1       3.510  -1.499   0.264  1.00  0.00     0.044 C 
BRANCH  35  36
HETATM   36  C23 UNL     1       5.016  -1.507   0.274  1.00  0.00     0.022 C 
BRANCH  36  37
HETATM   37  C24 UNL     1       5.595  -0.219  -0.210  1.00  0.00     0.122 C 
BRANCH  37  38
HETATM   38  N5  UNL     1       7.042  -0.255  -0.176  1.00  0.00    -0.360 N 
HETATM   39  C25 UNL     1       7.770  -0.432   1.016  1.00  0.00     0.225 C 
HETATM   40  O4  UNL     1       7.250  -0.571   2.149  1.00  0.00    -0.273 OA
ATOM     41  H5  UNL     1       7.555  -0.148  -1.051  1.00  0.00     0.162 HD
BRANCH  39  42
HETATM   42  C26 UNL     1       9.263  -0.457   0.928  1.00  0.00     0.030 C 
HETATM   43  C27 UNL     1       9.816  -0.660   2.315  1.00  0.00     0.024 C 
HETATM   44  C28 UNL     1       9.736  -1.536  -0.034  1.00  0.00     0.024 C 
HETATM   45  C29 UNL     1       9.678   0.898   0.371  1.00  0.00     0.024 C 
ENDBRANCH  39  42
ENDBRANCH  37  38
ENDBRANCH  36  37
ENDBRANCH  35  36
ENDBRANCH  30  35
ENDBRANCH  10  30
TORSDOF 14
