REMARK  15 active torsions:
REMARK  status: ('A' for Active; 'I' for Inactive)
REMARK    1  A    between atoms: C2_2  and  C3_3 
REMARK    2  A    between atoms: C4_4  and  O1_5 
REMARK    3  A    between atoms: C8_10  and  O2_11 
REMARK    4  A    between atoms: C13_17  and  C14_18 
REMARK    5  A    between atoms: C15_19  and  C16_20 
REMARK    6  A    between atoms: C16_20  and  O3_21 
REMARK    7  A    between atoms: C16_20  and  C17_23 
REMARK    8  A    between atoms: C20_26  and  C21_27 
REMARK    9  A    between atoms: C21_27  and  O5_29 
REMARK   10  A    between atoms: O5_29  and  C22_30 
REMARK   11  A    between atoms: C22_30  and  C23_31 
REMARK   12  A    between atoms: C23_31  and  C24_32 
REMARK   13  A    between atoms: C24_32  and  N1_33 
REMARK   14  A    between atoms: C28_38  and  C29_39 
REMARK   15  A    between atoms: C29_39  and  S1_40 
ROOT
HETATM    1  C16 UNL     1      -0.746   1.243   0.164  1.00  0.00     0.147 C 
ENDROOT
BRANCH   1   2
HETATM    2  C15 UNL     1      -1.953   0.433   0.332  1.00  0.00     0.001 C 
HETATM    3  C14 UNL     1      -3.052   0.731  -0.319  1.00  0.00    -0.022 C 
BRANCH   3   4
HETATM    4  C13 UNL     1      -4.304  -0.072  -0.168  1.00  0.00     0.023 C 
HETATM    5  C3  UNL     1      -4.679  -0.788  -1.405  1.00  0.00     0.022 C 
HETATM    6  C4  UNL     1      -5.922  -1.605  -1.219  1.00  0.00     0.123 C 
HETATM    7  C5  UNL     1      -6.527  -1.370   0.151  1.00  0.00     0.037 C 
HETATM    8  C6  UNL     1      -6.707   0.154   0.249  1.00  0.00    -0.001 C 
HETATM    9  C7  UNL     1      -7.777   0.523   1.216  1.00  0.00     0.037 C 
HETATM   10  C11 UNL     1      -5.411   0.834   0.355  1.00  0.00    -0.033 C 
HETATM   11  C8  UNL     1      -7.392   1.468   2.288  1.00  0.00     0.118 C 
HETATM   12  C9  UNL     1      -6.038   1.109   2.793  1.00  0.00     0.032 C 
HETATM   13  C10 UNL     1      -4.987   1.199   1.756  1.00  0.00     0.012 C 
HETATM   14  C12 UNL     1      -5.426   2.077  -0.542  1.00  0.00     0.016 C 
BRANCH   5  15
HETATM   15  C2  UNL     1      -3.545  -1.658  -1.944  1.00  0.00     0.003 C 
HETATM   16  C1  UNL     1      -3.242  -2.795  -1.004  1.00  0.00     0.005 C 
ENDBRANCH   5  15
BRANCH   6  17
HETATM   17  O1  UNL     1      -6.856  -1.240  -2.213  1.00  0.00    -0.395 OA
ATOM     18  H1  UNL     1      -7.644  -1.758  -2.095  1.00  0.00     0.210 HD
ENDBRANCH   6  17
BRANCH  11  19
HETATM   19  O2  UNL     1      -7.516   2.809   1.947  1.00  0.00    -0.396 OA
ATOM     20  H2  UNL     1      -7.269   3.416   2.635  1.00  0.00     0.210 HD
ENDBRANCH  11  19
ENDBRANCH   3   4
ENDBRANCH   1   2
BRANCH   1  21
HETATM   21  O3  UNL     1      -0.184   1.495   1.440  1.00  0.00    -0.391 OA
ATOM     22  H3  UNL     1       0.600   2.021   1.331  1.00  0.00     0.210 HD
ENDBRANCH   1  21
BRANCH   1  23
HETATM   23  C17 UNL     1       0.345   0.643  -0.694  1.00  0.00     0.048 C 
HETATM   24  C18 UNL     1       1.448   1.675  -0.701  1.00  0.00     0.013 C 
HETATM   25  C19 UNL     1       2.832   1.152  -0.721  1.00  0.00     0.043 C 
HETATM   26  C20 UNL     1       3.036  -0.158  -0.056  1.00  0.00     0.221 C 
HETATM   27  O6  UNL     1       1.945  -0.712   0.528  1.00  0.00    -0.369 OA
HETATM   28  C28 UNL     1       0.788  -0.700  -0.243  1.00  0.00     0.138 C 
BRANCH  26  29
HETATM   29  C21 UNL     1       4.090  -0.015   1.013  1.00  0.00     0.288 C 
HETATM   30  O4  UNL     1       3.892  -0.405   2.192  1.00  0.00    -0.262 OA
BRANCH  29  31
HETATM   31  O5  UNL     1       5.317   0.555   0.723  1.00  0.00    -0.319 OA
BRANCH  31  32
HETATM   32  C22 UNL     1       6.259   0.649   1.796  1.00  0.00     0.180 C 
BRANCH  32  33
HETATM   33  C23 UNL     1       7.525   1.294   1.375  1.00  0.00     0.055 C 
BRANCH  33  34
HETATM   34  C24 UNL     1       8.228   0.590   0.288  1.00  0.00     0.238 C 
BRANCH  34  35
HETATM   35  N1  UNL     1       8.663  -0.731   0.580  1.00  0.00    -0.079 N 
HETATM   36  C25 UNL     1       9.161  -0.826   1.936  1.00  0.00     0.271 C 
HETATM   37  C26 UNL     1       9.815  -0.964  -0.350  1.00  0.00     0.271 C 
HETATM   38  C27 UNL     1       7.691  -1.740   0.242  1.00  0.00     0.271 C 
ENDBRANCH  34  35
ENDBRANCH  33  34
ENDBRANCH  32  33
ENDBRANCH  31  32
ENDBRANCH  29  31
ENDBRANCH  26  29
BRANCH  28  39
HETATM   39  C29 UNL     1       0.748  -1.798  -1.256  1.00  0.00     0.105 C 
BRANCH  39  40
HETATM   40  S1  UNL     1       1.723  -1.615  -2.722  1.00  0.00    -0.171 SA
HETATM   41  C30 UNL     1       1.182  -0.358  -3.872  1.00  0.00     0.089 C 
ENDBRANCH  39  40
ENDBRANCH  28  39
ENDBRANCH   1  23
TORSDOF 15
