REMARK  13 active torsions:
REMARK  status: ('A' for Active; 'I' for Inactive)
REMARK    1  A    between atoms: C2_2  and  C3_3 
REMARK    2  A    between atoms: C3_3  and  C4_4 
REMARK    3  A    between atoms: C4_4  and  C5_5 
REMARK    4  A    between atoms: C5_5  and  N1_6 
REMARK    5  A    between atoms: N1_6  and  C6_8 
REMARK    6  A    between atoms: C7_11  and  N3_12 
REMARK    7  A    between atoms: N4_15  and  C10_16 
REMARK    8  A    between atoms: C10_16  and  C11_17 
REMARK    9  A    between atoms: C11_17  and  O1_18 
REMARK   10  A    between atoms: C17_26  and  N6_27 
REMARK   11  A    between atoms: N6_27  and  C18_29 
REMARK   12  A    between atoms: C23_36  and  C24_37 
REMARK   13  A    between atoms: C30_45  and  O2_46 
ROOT
HETATM    1  C6  UNL     1      -1.032   2.435  -0.914  1.00  0.00     0.153 C 
HETATM    2  N2  UNL     1      -1.724   1.291  -0.736  1.00  0.00    -0.174 N 
ATOM      3  H2  UNL     1      -2.715   1.351  -0.969  1.00  0.00     0.186 HD
HETATM    4  C7  UNL     1      -1.318   0.077  -0.299  1.00  0.00     0.682 C 
HETATM    5  N5  UNL     1      -0.078  -0.309   0.089  1.00  0.00    -0.189 N 
ATOM      6  H5  UNL     1      -0.024  -1.236   0.511  1.00  0.00     0.184 HD
HETATM    7  C15 UNL     1       1.100   0.353   0.000  1.00  0.00     0.082 A 
HETATM    8  C16 UNL     1       2.340  -0.094   0.389  1.00  0.00     0.081 A 
HETATM    9  C17 UNL     1       3.266   0.905   0.118  1.00  0.00     0.108 A 
HETATM   10  N8  UNL     1       2.625   1.950  -0.425  1.00  0.00    -0.338 N 
ATOM     11  H8  UNL     1       3.077   2.817  -0.716  1.00  0.00     0.167 HD
HETATM   12  C29 UNL     1       1.313   1.705  -0.534  1.00  0.00     0.099 A 
HETATM   13  C30 UNL     1       0.350   2.557  -1.047  1.00  0.00     0.141 C 
ENDROOT
BRANCH   9  14
HETATM   14  N6  UNL     1       4.518   0.805   0.364  1.00  0.00    -0.342 N 
ATOM     15  H6  UNL     1       5.135   1.585   0.135  1.00  0.00     0.167 HD
BRANCH  14  16
HETATM   16  C18 UNL     1       5.074  -0.378   0.954  1.00  0.00     0.040 A 
HETATM   17  C19 UNL     1       4.795  -0.636   2.260  1.00  0.00     0.032 A 
HETATM   18  C20 UNL     1       5.329  -1.773   2.824  1.00  0.00     0.033 A 
HETATM   19  C21 UNL     1       6.126  -2.624   2.071  1.00  0.00     0.043 A 
HETATM   20  N7  UNL     1       6.747  -3.774   2.390  1.00  0.00    -0.365 N 
HETATM   21  C26 UNL     1       6.398  -2.330   0.722  1.00  0.00     0.006 A 
HETATM   22  C22 UNL     1       7.394  -4.220   1.319  1.00  0.00     0.096 A 
ATOM     23  H7  UNL     1       6.725  -4.228   3.303  1.00  0.00     0.165 HD
HETATM   24  C23 UNL     1       7.200  -3.338   0.242  1.00  0.00    -0.030 A 
HETATM   25  C27 UNL     1       5.872  -1.197   0.142  1.00  0.00    -0.022 A 
HETATM   26  C28 UNL     1       6.131  -0.862  -1.258  1.00  0.00     0.051 C 
BRANCH  24  27
HETATM   27  C24 UNL     1       7.759  -3.474  -1.110  1.00  0.00     0.036 C 
HETATM   28  C25 UNL     1       8.946  -2.612  -1.407  1.00  0.00     0.010 C 
ENDBRANCH  24  27
ENDBRANCH  14  16
ENDBRANCH   9  14
BRANCH  13  29
HETATM   29  O2  UNL     1       0.843   3.620  -1.754  1.00  0.00    -0.350 OA
HETATM   30  C31 UNL     1       1.171   4.876  -1.197  1.00  0.00     0.210 C 
ENDBRANCH  13  29
BRANCH   4  31
HETATM   31  N3  UNL     1      -2.338  -0.911  -0.246  1.00  0.00    -0.214 N 
HETATM   32  C8  UNL     1      -2.535  -1.713  -1.451  1.00  0.00     0.171 C 
HETATM   33  C9  UNL     1      -3.783  -2.546  -1.259  1.00  0.00     0.293 C 
HETATM   34  N4  UNL     1      -3.691  -3.381  -0.076  1.00  0.00     0.093 N 
HETATM   35  C13 UNL     1      -3.494  -2.609   1.124  1.00  0.00     0.293 C 
HETATM   36  C14 UNL     1      -3.172  -1.170   0.885  1.00  0.00     0.171 C 
BRANCH  34  37
HETATM   37  C10 UNL     1      -4.904  -4.182  -0.044  1.00  0.00     0.298 C 
BRANCH  37  38
HETATM   38  C11 UNL     1      -4.956  -5.105   1.123  1.00  0.00     0.197 C 
BRANCH  38  39
HETATM   39  O1  UNL     1      -6.125  -5.842   1.088  1.00  0.00    -0.394 OA
HETATM   40  C12 UNL     1      -7.256  -5.041   1.138  1.00  0.00     0.201 C 
ENDBRANCH  38  39
ENDBRANCH  37  38
ENDBRANCH  34  37
ENDBRANCH   4  31
BRANCH   1  41
HETATM   41  N1  UNL     1      -1.647   3.559  -0.974  1.00  0.00    -0.373 N 
ATOM     42  H1  UNL     1      -1.074   4.392  -1.109  1.00  0.00     0.161 HD
BRANCH  41  43
HETATM   43  C5  UNL     1      -3.059   3.755  -0.869  1.00  0.00     0.121 C 
BRANCH  43  44
HETATM   44  C4  UNL     1      -3.394   5.187  -0.485  1.00  0.00     0.020 C 
BRANCH  44  45
HETATM   45  C3  UNL     1      -4.879   5.328  -0.390  1.00  0.00     0.001 C 
BRANCH  45  46
HETATM   46  C2  UNL     1      -5.232   6.753  -0.007  1.00  0.00    -0.004 C 
HETATM   47  C1  UNL     1      -4.722   7.736  -1.031  1.00  0.00     0.005 C 
ENDBRANCH  45  46
ENDBRANCH  44  45
ENDBRANCH  43  44
ENDBRANCH  41  43
ENDBRANCH   1  41
TORSDOF 13
