REMARK  17 active torsions:
REMARK  status: ('A' for Active; 'I' for Inactive)
REMARK    1  A    between atoms: C2_2  and  C3_3 
REMARK    2  A    between atoms: C3_3  and  C4_4 
REMARK    3  A    between atoms: C4_4  and  C5_5 
REMARK    4  A    between atoms: C5_5  and  C6_6 
REMARK    5  A    between atoms: C6_6  and  C7_7 
REMARK    6  A    between atoms: C7_7  and  C8_8 
REMARK    7  A    between atoms: C8_8  and  C9_9 
REMARK    8  A    between atoms: C9_9  and  C10_10 
REMARK    9  A    between atoms: C10_10  and  C11_11 
REMARK       I    between atoms: C11_11  and  N1_13 
REMARK   10  A    between atoms: N1_13  and  C12_15 
REMARK   11  A    between atoms: N2_18  and  C14_19 
REMARK   12  A    between atoms: C14_19  and  C15_20 
REMARK       I    between atoms: C15_20  and  N3_22 
REMARK   13  A    between atoms: C21_29  and  C22_30 
REMARK   14  A    between atoms: C21_29  and  S1_33 
REMARK   15  A    between atoms: C22_30  and  O5_31 
REMARK   16  A    between atoms: S1_33  and  C23_34 
REMARK   17  A    between atoms: C23_34  and  C24_35 
ROOT
HETATM    1  C12 UNL     1      -1.491   0.227   1.718  1.00  0.00     0.199 C 
HETATM    2  C13 UNL     1      -2.216  -1.021   1.932  1.00  0.00     0.244 C 
HETATM    3  O2  UNL     1      -1.866  -1.871   2.829  1.00  0.00    -0.271 OA
HETATM    4  N2  UNL     1      -3.312  -1.136   1.038  1.00  0.00    -0.340 N 
HETATM    5  C20 UNL     1      -3.262   0.031   0.166  1.00  0.00     0.151 C 
HETATM    6  C21 UNL     1      -2.540   1.090   0.941  1.00  0.00     0.074 C 
ENDROOT
BRANCH   1   7
HETATM    7  N1  UNL     1      -0.320   0.015   0.944  1.00  0.00    -0.346 N 
HETATM    8  C11 UNL     1       0.900   0.631   1.318  1.00  0.00     0.218 C 
HETATM    9  O1  UNL     1       0.906   1.372   2.361  1.00  0.00    -0.274 OA
ATOM     10  H1  UNL     1      -0.357  -0.582   0.117  1.00  0.00     0.163 HD
BRANCH   8  11
HETATM   11  C10 UNL     1       2.180   0.483   0.591  1.00  0.00     0.103 C 
BRANCH  11  12
HETATM   12  C9  UNL     1       3.232   1.336   1.216  1.00  0.00     0.009 C 
BRANCH  12  13
HETATM   13  C8  UNL     1       4.562   1.248   0.551  1.00  0.00     0.000 C 
BRANCH  13  14
HETATM   14  C7  UNL     1       5.142  -0.148   0.566  1.00  0.00     0.000 C 
BRANCH  14  15
HETATM   15  C6  UNL     1       6.494  -0.067  -0.142  1.00  0.00     0.000 C 
BRANCH  15  16
HETATM   16  C5  UNL     1       7.084  -1.451  -0.124  1.00  0.00     0.000 C 
BRANCH  16  17
HETATM   17  C4  UNL     1       8.427  -1.550  -0.786  1.00  0.00     0.000 C 
BRANCH  17  18
HETATM   18  C3  UNL     1       9.415  -0.655  -0.111  1.00  0.00    -0.000 C 
BRANCH  18  19
HETATM   19  C2  UNL     1      10.791  -0.737  -0.746  1.00  0.00    -0.005 C 
HETATM   20  C1  UNL     1      10.720  -0.335  -2.187  1.00  0.00     0.005 C 
ENDBRANCH  18  19
ENDBRANCH  17  18
ENDBRANCH  16  17
ENDBRANCH  15  16
ENDBRANCH  14  15
ENDBRANCH  13  14
ENDBRANCH  12  13
ENDBRANCH  11  12
ENDBRANCH   8  11
ENDBRANCH   1   7
BRANCH   6  21
HETATM   21  C22 UNL     1      -3.352   1.692   2.036  1.00  0.00     0.189 C 
BRANCH  21  22
HETATM   22  O5  UNL     1      -2.633   2.510   2.891  1.00  0.00    -0.399 OA
ATOM     23  H5  UNL     1      -3.151   2.894   3.589  1.00  0.00     0.209 HD
ENDBRANCH  21  22
ENDBRANCH   6  21
BRANCH   6  24
HETATM   24  S1  UNL     1      -1.714   2.198  -0.116  1.00  0.00    -0.152 SA
BRANCH  24  25
HETATM   25  C23 UNL     1      -2.540   3.176  -1.285  1.00  0.00     0.079 C 
BRANCH  25  26
HETATM   26  C24 UNL     1      -3.305   4.391  -0.923  1.00  0.00    -0.005 C 
HETATM   27  C25 UNL     1      -4.466   4.303  -0.030  1.00  0.00     0.005 C 
HETATM   28  C26 UNL     1      -5.444   5.406  -0.457  1.00  0.00     0.000 C 
HETATM   29  C27 UNL     1      -5.306   5.335  -1.951  1.00  0.00     0.000 C 
HETATM   30  C28 UNL     1      -3.836   5.109  -2.164  1.00  0.00     0.005 C 
ENDBRANCH  25  26
ENDBRANCH  24  25
ENDBRANCH   6  24
BRANCH   4  31
HETATM   31  C14 UNL     1      -4.298  -2.167   0.962  1.00  0.00     0.228 C 
BRANCH  31  32
HETATM   32  C15 UNL     1      -3.977  -3.291   0.071  1.00  0.00     0.237 C 
HETATM   33  O3  UNL     1      -2.921  -3.367  -0.597  1.00  0.00    -0.272 OA
HETATM   34  N3  UNL     1      -4.901  -4.361  -0.052  1.00  0.00    -0.347 N 
HETATM   35  C16 UNL     1      -6.161  -4.373   0.687  1.00  0.00     0.152 C 
HETATM   36  C19 UNL     1      -4.621  -5.471  -0.913  1.00  0.00     0.152 C 
HETATM   37  C17 UNL     1      -7.329  -4.673  -0.195  1.00  0.00     0.187 C 
HETATM   38  O4  UNL     1      -6.962  -5.308  -1.379  1.00  0.00    -0.388 OA
HETATM   39  C18 UNL     1      -5.919  -6.184  -1.217  1.00  0.00     0.187 C 
ENDBRANCH  31  32
ENDBRANCH   4  31
TORSDOF 17
