REMARK  16 active torsions:
REMARK  status: ('A' for Active; 'I' for Inactive)
REMARK    1  A    between atoms: C2_2  and  C3_3 
REMARK    2  A    between atoms: C3_3  and  C4_4 
REMARK    3  A    between atoms: C4_4  and  C5_5 
REMARK    4  A    between atoms: C5_5  and  C6_6 
REMARK    5  A    between atoms: C6_6  and  C7_7 
REMARK    6  A    between atoms: C7_7  and  C8_8 
REMARK    7  A    between atoms: C8_8  and  C9_9 
REMARK    8  A    between atoms: C9_9  and  C10_10 
REMARK    9  A    between atoms: C10_10  and  C11_11 
REMARK   10  A    between atoms: C11_11  and  C12_12 
REMARK   11  A    between atoms: C12_12  and  C13_13 
REMARK   12  A    between atoms: C13_13  and  C14_14 
REMARK   13  A    between atoms: C14_14  and  C15_15 
REMARK   14  A    between atoms: C15_15  and  C16_16 
REMARK       I    between atoms: C16_16  and  N1_18 
REMARK   15  A    between atoms: N1_18  and  C17_20 
REMARK   16  A    between atoms: C20_24  and  N2_25 
REMARK       I    between atoms: N2_25  and  C21_27 
REMARK       I    between atoms: C21_27  and  N3_29 
ROOT
HETATM    1  C17 UNL     1       2.037  -1.517  -0.425  1.00  0.00     0.352 C 
HETATM    2  C18 UNL     1       3.245  -2.291  -1.000  1.00  0.00     0.228 C 
HETATM    3  O2  UNL     1       4.370  -1.617  -0.585  1.00  0.00    -0.351 OA
HETATM    4  C19 UNL     1       4.065  -0.845   0.517  1.00  0.00     0.393 C 
HETATM    5  C20 UNL     1       4.450   0.584   0.436  1.00  0.00     0.217 C 
HETATM    6  C27 UNL     1       3.321   1.270   1.173  1.00  0.00     0.187 C 
HETATM    7  O4  UNL     1       3.425   2.269   1.826  1.00  0.00    -0.293 OA
HETATM    8  C28 UNL     1       2.142   0.430   0.889  1.00  0.00     0.296 C 
HETATM    9  C29 UNL     1       1.055   0.534   1.928  1.00  0.00     0.051 C 
HETATM   10  N5  UNL     1       2.633  -0.919   0.708  1.00  0.00     0.156 N 
ENDROOT
BRANCH   1  11
HETATM   11  N1  UNL     1       0.956  -2.421  -0.171  1.00  0.00    -0.329 N 
HETATM   12  C16 UNL     1       0.078  -2.787  -1.226  1.00  0.00     0.222 C 
HETATM   13  O1  UNL     1       0.263  -2.331  -2.375  1.00  0.00    -0.273 OA
ATOM     14  H1  UNL     1       0.817  -2.801   0.765  1.00  0.00     0.164 HD
BRANCH  12  15
HETATM   15  C15 UNL     1      -1.039  -3.723  -0.894  1.00  0.00     0.130 C 
BRANCH  15  16
HETATM   16  C14 UNL     1      -1.479  -4.455  -2.064  1.00  0.00    -0.018 C 
BRANCH  16  17
HETATM   17  C13 UNL     1      -1.990  -3.948  -3.320  1.00  0.00    -0.008 C 
BRANCH  17  18
HETATM   18  C12 UNL     1      -3.179  -3.197  -3.549  1.00  0.00    -0.027 C 
BRANCH  18  19
HETATM   19  C11 UNL     1      -3.611  -1.865  -3.192  1.00  0.00     0.027 C 
BRANCH  19  20
HETATM   20  C10 UNL     1      -3.734  -1.445  -1.800  1.00  0.00     0.004 C 
BRANCH  20  21
HETATM   21  C9  UNL     1      -4.292  -0.021  -1.646  1.00  0.00     0.000 C 
BRANCH  21  22
HETATM   22  C8  UNL     1      -5.655   0.047  -2.232  1.00  0.00     0.000 C 
BRANCH  22  23
HETATM   23  C7  UNL     1      -6.290   1.404  -2.097  1.00  0.00     0.000 C 
BRANCH  23  24
HETATM   24  C6  UNL     1      -6.461   1.877  -0.682  1.00  0.00     0.000 C 
BRANCH  24  25
HETATM   25  C5  UNL     1      -7.302   0.911   0.109  1.00  0.00     0.000 C 
BRANCH  25  26
HETATM   26  C4  UNL     1      -7.545   1.340   1.537  1.00  0.00     0.000 C 
BRANCH  26  27
HETATM   27  C3  UNL     1      -8.288   2.651   1.520  1.00  0.00    -0.000 C 
BRANCH  27  28
HETATM   28  C2  UNL     1      -8.604   3.183   2.892  1.00  0.00    -0.005 C 
HETATM   29  C1  UNL     1      -9.467   2.231   3.691  1.00  0.00     0.005 C 
ENDBRANCH  27  28
ENDBRANCH  26  27
ENDBRANCH  25  26
ENDBRANCH  24  25
ENDBRANCH  23  24
ENDBRANCH  22  23
ENDBRANCH  21  22
ENDBRANCH  20  21
ENDBRANCH  19  20
ENDBRANCH  18  19
ENDBRANCH  17  18
ENDBRANCH  16  17
ENDBRANCH  15  16
ENDBRANCH  12  15
ENDBRANCH   1  11
BRANCH   5  30
HETATM   30  N2  UNL     1       5.655   0.901   1.197  1.00  0.00    -0.327 N 
HETATM   31  C21 UNL     1       6.601   1.773   0.654  1.00  0.00     0.319 C 
HETATM   32  O3  UNL     1       6.396   2.281  -0.497  1.00  0.00    -0.247 OA
HETATM   33  N3  UNL     1       7.795   2.144   1.297  1.00  0.00    -0.331 N 
HETATM   34  C22 UNL     1       8.710   3.085   0.662  1.00  0.00     0.157 C 
HETATM   35  C26 UNL     1       8.233   1.642   2.588  1.00  0.00     0.157 C 
HETATM   36  C23 UNL     1      10.091   2.821   1.174  1.00  0.00     0.291 C 
HETATM   37  N4  UNL     1      10.337   1.405   1.350  1.00  0.00     0.087 N 
HETATM   38  C24 UNL     1      10.194   0.764   0.056  1.00  0.00     0.310 C 
HETATM   39  C25 UNL     1       9.496   0.826   2.366  1.00  0.00     0.291 C 
ATOM     40  H2  UNL     1       5.805   0.489   2.118  1.00  0.00     0.165 HD
ENDBRANCH   5  30
TORSDOF 16
