REMARK  18 active torsions:
REMARK  status: ('A' for Active; 'I' for Inactive)
REMARK    1  A    between atoms: N1_2  and  C2_3 
REMARK    2  A    between atoms: N1_2  and  C23_30 
REMARK    3  A    between atoms: C2_3  and  C3_4 
REMARK    4  A    between atoms: C3_4  and  C4_5 
REMARK    5  A    between atoms: C4_5  and  C5_6 
REMARK    6  A    between atoms: C5_6  and  C6_7 
REMARK    7  A    between atoms: C6_7  and  C7_8 
REMARK    8  A    between atoms: C7_8  and  C8_9 
REMARK    9  A    between atoms: C8_9  and  N2_10 
REMARK   10  A    between atoms: N2_10  and  C9_11 
REMARK   11  A    between atoms: N2_10  and  C17_24 
REMARK   12  A    between atoms: C9_11  and  N3_13 
REMARK   13  A    between atoms: N3_13  and  C10_15 
REMARK   14  A    between atoms: C10_15  and  C11_16 
REMARK   15  A    between atoms: C11_16  and  C12_17 
REMARK   16  A    between atoms: C12_17  and  N4_18 
REMARK   17  A    between atoms: C23_30  and  C24_31 
REMARK   18  A    between atoms: C24_31  and  N5_32 
ROOT
HETATM    1  N2  UNL     1      -2.896   0.291  -0.496  1.00  0.00    -0.353 N 
ENDROOT
BRANCH   1   2
HETATM    2  C8  UNL     1      -1.813  -0.113   0.399  1.00  0.00     0.125 C 
BRANCH   2   3
HETATM    3  C7  UNL     1      -1.126  -1.366  -0.013  1.00  0.00     0.020 C 
BRANCH   3   4
HETATM    4  C6  UNL     1      -0.049  -1.716   0.973  1.00  0.00     0.002 C 
BRANCH   4   5
HETATM    5  C5  UNL     1       0.959  -0.627   1.060  1.00  0.00     0.000 C 
BRANCH   5   6
HETATM    6  C4  UNL     1       2.068  -0.990   2.047  1.00  0.00     0.005 C 
BRANCH   6   7
HETATM    7  C3  UNL     1       3.043   0.117   2.118  1.00  0.00     0.044 C 
BRANCH   7   8
HETATM    8  C2  UNL     1       3.819   0.508   0.919  1.00  0.00     0.057 C 
BRANCH   8   9
HETATM    9  N1  UNL     1       4.736  -0.411   0.373  1.00  0.00    -0.396 N 
HETATM   10  C1  UNL     1       4.231  -1.530  -0.276  1.00  0.00     0.148 C 
BRANCH   9  11
HETATM   11  C23 UNL     1       5.955  -0.560   1.094  1.00  0.00     0.151 C 
BRANCH  11  12
HETATM   12  C24 UNL     1       7.180  -0.802   0.257  1.00  0.00     0.292 C 
BRANCH  12  13
HETATM   13  N5  UNL     1       7.449   0.253  -0.667  1.00  0.00     0.093 N 
HETATM   14  C25 UNL     1       7.838   1.500  -0.091  1.00  0.00     0.302 C 
HETATM   15  C26 UNL     1       9.201   1.358   0.531  1.00  0.00     0.302 C 
HETATM   16  N6  UNL     1      10.151   1.047  -0.519  1.00  0.00     0.087 N 
HETATM   17  C27 UNL     1      11.473   0.824   0.027  1.00  0.00     0.310 C 
HETATM   18  C28 UNL     1       9.771  -0.101  -1.286  1.00  0.00     0.302 C 
HETATM   19  C29 UNL     1       8.340  -0.107  -1.722  1.00  0.00     0.302 C 
ENDBRANCH  12  13
ENDBRANCH  11  12
ENDBRANCH   9  11
ENDBRANCH   8   9
ENDBRANCH   7   8
ENDBRANCH   6   7
ENDBRANCH   5   6
ENDBRANCH   4   5
ENDBRANCH   3   4
ENDBRANCH   2   3
ENDBRANCH   1   2
BRANCH   1  20
HETATM   20  C9  UNL     1      -4.230   0.105  -0.054  1.00  0.00     0.174 C 
HETATM   21  S1  UNL     1      -5.450   0.573  -1.017  1.00  0.00    -0.041 SA
BRANCH  20  22
HETATM   22  N3  UNL     1      -4.547  -0.445   1.192  1.00  0.00    -0.343 N 
ATOM     23  H3  UNL     1      -3.718  -0.673   1.741  1.00  0.00     0.167 HD
BRANCH  22  24
HETATM   24  C10 UNL     1      -5.745  -0.758   1.868  1.00  0.00     0.088 C 
BRANCH  24  25
HETATM   25  C11 UNL     1      -6.562  -1.918   1.545  1.00  0.00     0.020 C 
BRANCH  25  26
HETATM   26  C12 UNL     1      -7.305  -2.121   0.306  1.00  0.00     0.301 C 
BRANCH  26  27
HETATM   27  N4  UNL     1      -8.387  -1.179   0.051  1.00  0.00     0.096 N 
HETATM   28  C13 UNL     1      -9.471  -1.362   1.002  1.00  0.00     0.299 C 
HETATM   29  C14 UNL     1     -10.588  -0.399   0.653  1.00  0.00     0.198 C 
HETATM   30  O1  UNL     1     -11.075  -0.773  -0.594  1.00  0.00    -0.388 OA
HETATM   31  C15 UNL     1     -10.129  -0.597  -1.572  1.00  0.00     0.198 C 
HETATM   32  C16 UNL     1      -8.853  -1.366  -1.311  1.00  0.00     0.299 C 
ENDBRANCH  26  27
ENDBRANCH  25  26
ENDBRANCH  24  25
ENDBRANCH  22  24
ENDBRANCH  20  22
ENDBRANCH   1  20
BRANCH   1  33
HETATM   33  C17 UNL     1      -2.514   0.775  -1.805  1.00  0.00     0.086 C 
HETATM   34  C18 UNL     1      -1.138   1.432  -1.808  1.00  0.00     0.025 C 
HETATM   35  C19 UNL     1      -1.154   2.828  -1.282  1.00  0.00     0.002 C 
HETATM   36  C20 UNL     1      -1.751   3.705  -2.381  1.00  0.00     0.000 C 
HETATM   37  C21 UNL     1      -2.655   2.862  -3.228  1.00  0.00     0.002 C 
HETATM   38  C22 UNL     1      -3.435   1.849  -2.343  1.00  0.00     0.025 C 
ENDBRANCH   1  33
TORSDOF 18
