REMARK  16 active torsions:
REMARK  status: ('A' for Active; 'I' for Inactive)
REMARK    1  A    between atoms: C2_2  and  C3_3 
REMARK    2  A    between atoms: C3_3  and  C4_4 
REMARK    3  A    between atoms: C4_4  and  C5_5 
REMARK    4  A    between atoms: C5_5  and  C6_6 
REMARK    5  A    between atoms: C6_6  and  C7_7 
REMARK    6  A    between atoms: C7_7  and  N1_8 
REMARK       I    between atoms: N1_8  and  C8_10 
REMARK       I    between atoms: C8_10  and  N2_12 
REMARK    7  A    between atoms: N3_15  and  C11_16 
REMARK    8  A    between atoms: C11_16  and  C12_17 
REMARK    9  A    between atoms: C12_17  and  N4_18 
REMARK   10  A    between atoms: N4_18  and  C13_19 
REMARK   11  A    between atoms: N4_18  and  C18_25 
REMARK   12  A    between atoms: C13_19  and  C14_20 
REMARK   13  A    between atoms: C14_20  and  N5_21 
REMARK   14  A    between atoms: N5_21  and  C16_23 
REMARK   15  A    between atoms: C18_25  and  C19_26 
REMARK   16  A    between atoms: N6_31  and  C23_33 
ROOT
HETATM    1  C12 UNL     1      -2.360  -0.803   1.679  1.00  0.00     0.078 C 
ENDROOT
BRANCH   1   2
HETATM    2  C11 UNL     1      -0.971  -0.329   1.986  1.00  0.00     0.169 C 
BRANCH   2   3
HETATM    3  N3  UNL     1       0.063  -1.117   1.374  1.00  0.00    -0.352 N 
HETATM    4  C10 UNL     1       0.242  -2.529   1.779  1.00  0.00     0.146 C 
HETATM    5  C9  UNL     1       1.202  -3.090   0.762  1.00  0.00     0.156 C 
HETATM    6  N2  UNL     1       1.992  -1.929   0.351  1.00  0.00    -0.275 N 
HETATM    7  C8  UNL     1       3.333  -2.000  -0.013  1.00  0.00     0.324 C 
HETATM    8  C25 UNL     1       1.067  -0.847   0.435  1.00  0.00     0.180 C 
HETATM    9  N1  UNL     1       4.172  -0.923  -0.412  1.00  0.00    -0.343 N 
HETATM   10  O1  UNL     1       3.912  -3.141  -0.004  1.00  0.00    -0.247 OA
ATOM     11  H1  UNL     1       3.783   0.019  -0.447  1.00  0.00     0.164 HD
HETATM   12  S2  UNL     1       1.215   0.505  -0.457  1.00  0.00    -0.040 SA
BRANCH   9  13
HETATM   13  C7  UNL     1       5.567  -1.123  -0.771  1.00  0.00     0.124 C 
BRANCH  13  14
HETATM   14  C6  UNL     1       6.162   0.201  -1.145  1.00  0.00     0.020 C 
BRANCH  14  15
HETATM   15  C5  UNL     1       7.600   0.106  -1.536  1.00  0.00     0.002 C 
BRANCH  15  16
HETATM   16  C4  UNL     1       8.508  -0.435  -0.474  1.00  0.00     0.000 C 
BRANCH  16  17
HETATM   17  C3  UNL     1       8.507   0.392   0.781  1.00  0.00    -0.000 C 
BRANCH  17  18
HETATM   18  C2  UNL     1       8.947   1.812   0.528  1.00  0.00    -0.005 C 
HETATM   19  C1  UNL     1      10.361   1.843  -0.048  1.00  0.00     0.005 C 
ENDBRANCH  17  18
ENDBRANCH  16  17
ENDBRANCH  15  16
ENDBRANCH  14  15
ENDBRANCH  13  14
ENDBRANCH   9  13
ENDBRANCH   2   3
ENDBRANCH   1   2
BRANCH   1  20
HETATM   20  N4  UNL     1      -2.706  -0.673   0.331  1.00  0.00    -0.388 N 
BRANCH  20  21
HETATM   21  C13 UNL     1      -3.744  -1.473  -0.208  1.00  0.00     0.141 C 
BRANCH  21  22
HETATM   22  C14 UNL     1      -3.347  -2.951  -0.294  1.00  0.00     0.141 C 
BRANCH  22  23
HETATM   23  N5  UNL     1      -4.396  -3.708  -0.841  1.00  0.00    -0.396 N 
HETATM   24  C15 UNL     1      -4.755  -3.536  -2.189  1.00  0.00     0.148 C 
BRANCH  23  25
HETATM   25  C16 UNL     1      -5.185  -4.514  -0.003  1.00  0.00     0.053 C 
HETATM   26  C17 UNL     1      -6.059  -3.755   0.965  1.00  0.00     0.054 C 
ENDBRANCH  23  25
ENDBRANCH  22  23
ENDBRANCH  21  22
ENDBRANCH  20  21
BRANCH  20  27
HETATM   27  C18 UNL     1      -2.739   0.650  -0.187  1.00  0.00     0.147 C 
BRANCH  27  28
HETATM   28  C19 UNL     1      -3.730   1.629   0.354  1.00  0.00     0.102 C 
HETATM   29  C20 UNL     1      -5.121   1.193   0.199  1.00  0.00     0.037 C 
HETATM   30  C21 UNL     1      -6.204   2.238   0.299  1.00  0.00     0.084 C 
HETATM   31  S1  UNL     1      -5.573   3.819   0.991  1.00  0.00    -0.094 SA
HETATM   32  C22 UNL     1      -4.057   4.053   0.086  1.00  0.00     0.136 C 
HETATM   33  N6  UNL     1      -3.641   5.224  -0.164  1.00  0.00    -0.371 N 
HETATM   34  N7  UNL     1      -3.391   2.897  -0.323  1.00  0.00    -0.365 N 
ATOM     35  H6  UNL     1      -2.772   5.359  -0.681  1.00  0.00     0.161 HD
ATOM     36  H7  UNL     1      -2.692   2.927  -1.066  1.00  0.00     0.162 HD
BRANCH  33  37
HETATM   37  C23 UNL     1      -4.408   6.377   0.290  1.00  0.00     0.117 C 
HETATM   38  C24 UNL     1      -4.956   7.053  -0.949  1.00  0.00     0.026 C 
ENDBRANCH  33  37
ENDBRANCH  27  28
ENDBRANCH  20  27
ENDBRANCH   1  20
TORSDOF 16
