REMARK  18 active torsions:
REMARK  status: ('A' for Active; 'I' for Inactive)
REMARK    1  A    between atoms: C3_3  and  C4_4 
REMARK    2  A    between atoms: C4_4  and  C5_5 
REMARK    3  A    between atoms: C5_5  and  C6_6 
REMARK    4  A    between atoms: C6_6  and  C7_7 
REMARK    5  A    between atoms: C7_7  and  C8_8 
REMARK    6  A    between atoms: C8_8  and  C9_9 
REMARK    7  A    between atoms: C9_9  and  C10_10 
REMARK    8  A    between atoms: C10_10  and  C11_11 
REMARK    9  A    between atoms: C11_11  and  C12_12 
REMARK   10  A    between atoms: C12_12  and  C13_13 
REMARK   11  A    between atoms: C13_13  and  C14_14 
REMARK   12  A    between atoms: C14_14  and  C15_15 
REMARK   13  A    between atoms: C15_15  and  O2_17 
REMARK   14  A    between atoms: O2_17  and  C16_18 
REMARK   15  A    between atoms: C16_18  and  C17_19 
REMARK   16  A    between atoms: C16_18  and  C20_24 
REMARK   17  A    between atoms: C17_19  and  N1_20 
REMARK       I    between atoms: N1_20  and  C18_21 
REMARK       I    between atoms: C20_24  and  N2_26 
REMARK   18  A    between atoms: C26_32  and  N3_33 
ROOT
HETATM    1  C1  UNL     1      12.544   0.811  -1.985  1.00  0.00     0.012 C 
HETATM    2  C2  UNL     1      11.680   0.720  -1.171  1.00  0.00    -0.117 C 
HETATM    3  C3  UNL     1      10.633   0.583  -0.158  1.00  0.00     0.097 C 
ENDROOT
BRANCH   3   4
HETATM    4  C4  UNL     1      10.223  -0.858   0.004  1.00  0.00     0.039 C 
BRANCH   4   5
HETATM    5  C5  UNL     1       9.650  -1.515  -1.172  1.00  0.00    -0.030 C 
BRANCH   5   6
HETATM    6  C6  UNL     1       8.436  -1.059  -1.834  1.00  0.00    -0.031 C 
BRANCH   6   7
HETATM    7  C7  UNL     1       7.120  -1.030  -1.184  1.00  0.00     0.027 C 
BRANCH   7   8
HETATM    8  C8  UNL     1       7.017  -0.139   0.003  1.00  0.00     0.004 C 
BRANCH   8   9
HETATM    9  C9  UNL     1       5.670  -0.072   0.657  1.00  0.00     0.000 C 
BRANCH   9  10
HETATM   10  C10 UNL     1       4.557   0.415  -0.233  1.00  0.00     0.000 C 
BRANCH  10  11
HETATM   11  C11 UNL     1       3.259   0.542   0.498  1.00  0.00     0.000 C 
BRANCH  11  12
HETATM   12  C12 UNL     1       2.681  -0.677   1.102  1.00  0.00     0.000 C 
BRANCH  12  13
HETATM   13  C13 UNL     1       2.248  -1.749   0.137  1.00  0.00     0.010 C 
BRANCH  13  14
HETATM   14  C14 UNL     1       1.197  -1.312  -0.837  1.00  0.00     0.111 C 
BRANCH  14  15
HETATM   15  C15 UNL     1      -0.062  -0.848  -0.256  1.00  0.00     0.259 C 
HETATM   16  O1  UNL     1      -0.254  -0.871   0.971  1.00  0.00    -0.265 OA
BRANCH  15  17
HETATM   17  O2  UNL     1      -1.120  -0.351  -1.024  1.00  0.00    -0.304 OA
BRANCH  17  18
HETATM   18  C16 UNL     1      -2.339   0.121  -0.341  1.00  0.00     0.254 C 
BRANCH  18  19
HETATM   19  C17 UNL     1      -2.338   1.662  -0.586  1.00  0.00     0.264 C 
BRANCH  19  20
HETATM   20  N1  UNL     1      -1.178   2.219  -0.198  1.00  0.00    -0.413 NA
HETATM   21  C18 UNL     1      -0.004   2.776   0.222  1.00  0.00     0.282 C 
HETATM   22  C19 UNL     1       0.862   3.492  -0.825  1.00  0.00     0.134 C 
HETATM   23  O3  UNL     1       0.485   2.792   1.363  1.00  0.00    -0.258 OA
ENDBRANCH  19  20
ENDBRANCH  18  19
BRANCH  18  24
HETATM   24  C20 UNL     1      -3.485  -0.570  -0.852  1.00  0.00     0.252 C 
HETATM   25  O4  UNL     1      -3.259  -1.477  -1.754  1.00  0.00    -0.270 OA
HETATM   26  N2  UNL     1      -4.830  -0.384  -0.494  1.00  0.00    -0.350 N 
HETATM   27  C21 UNL     1      -5.327   0.545   0.474  1.00  0.00     0.126 C 
HETATM   28  C30 UNL     1      -5.837  -1.213  -1.201  1.00  0.00     0.126 C 
HETATM   29  C22 UNL     1      -6.552   0.177   1.224  1.00  0.00     0.030 C 
HETATM   30  C23 UNL     1      -7.508  -0.699   0.467  1.00  0.00    -0.031 C 
HETATM   31  C24 UNL     1      -8.467  -1.320   1.452  1.00  0.00     0.012 C 
HETATM   32  C28 UNL     1      -8.237   0.003  -0.641  1.00  0.00     0.090 C 
HETATM   33  C29 UNL     1      -6.689  -1.862  -0.141  1.00  0.00     0.030 C 
HETATM   34  C25 UNL     1      -9.308  -0.248   2.100  1.00  0.00     0.041 C 
HETATM   35  C26 UNL     1     -10.226   0.325   1.048  1.00  0.00     0.252 C 
HETATM   36  C27 UNL     1      -9.615   0.432  -0.283  1.00  0.00     0.158 C 
HETATM   37  O5  UNL     1     -10.297   0.916  -1.181  1.00  0.00    -0.296 OA
BRANCH  35  38
HETATM   38  N3  UNL     1     -10.717   1.641   1.465  1.00  0.00    -0.068 N 
ATOM     39  H33 UNL     1     -11.163   1.608   2.382  1.00  0.00     0.275 HD
ATOM     40  H32 UNL     1      -9.953   2.278   1.692  1.00  0.00     0.275 HD
ATOM     41  H31 UNL     1     -11.337   2.028   0.754  1.00  0.00     0.275 HD
ENDBRANCH  35  38
ENDBRANCH  18  24
ENDBRANCH  17  18
ENDBRANCH  15  17
ENDBRANCH  14  15
ENDBRANCH  13  14
ENDBRANCH  12  13
ENDBRANCH  11  12
ENDBRANCH  10  11
ENDBRANCH   9  10
ENDBRANCH   8   9
ENDBRANCH   7   8
ENDBRANCH   6   7
ENDBRANCH   5   6
ENDBRANCH   4   5
ENDBRANCH   3   4
TORSDOF 18
