REMARK  16 active torsions:
REMARK  status: ('A' for Active; 'I' for Inactive)
REMARK    1  A    between atoms: N1_8  and  C8_9 
REMARK    2  A    between atoms: C8_9  and  C9_10 
REMARK    3  A    between atoms: C9_10  and  O1_11 
REMARK    4  A    between atoms: O1_11  and  C10_12 
REMARK    5  A    between atoms: C10_12  and  C11_13 
REMARK    6  A    between atoms: C11_13  and  C12_14 
REMARK    7  A    between atoms: C12_14  and  C13_15 
REMARK    8  A    between atoms: C13_15  and  C14_16 
REMARK    9  A    between atoms: C14_16  and  C15_17 
REMARK   10  A    between atoms: C15_17  and  N2_18 
REMARK   11  A    between atoms: N2_18  and  C16_19 
REMARK       I    between atoms: N2_18  and  C23_29 
REMARK   12  A    between atoms: C16_19  and  C17_20 
REMARK   13  A    between atoms: C17_20  and  C18_21 
REMARK       I    between atoms: C18_21  and  N3_23 
REMARK       I    between atoms: C23_29  and  N4_31 
REMARK   14  A    between atoms: N4_31  and  C24_33 
REMARK   15  A    between atoms: C24_33  and  C25_34 
REMARK   16  A    between atoms: C25_34  and  C26_35 
ROOT
HETATM    1  N2  UNL     1      -3.359   0.110   0.635  1.00  0.00    -0.334 N 
HETATM    2  C23 UNL     1      -3.473   1.493   0.919  1.00  0.00     0.318 C 
HETATM    3  O3  UNL     1      -4.451   1.911   1.638  1.00  0.00    -0.247 OA
HETATM    4  N4  UNL     1      -2.525   2.416   0.421  1.00  0.00    -0.342 N 
ATOM      5  H4  UNL     1      -1.753   2.057  -0.141  1.00  0.00     0.164 HD
ENDROOT
BRANCH   1   6
HETATM    6  C15 UNL     1      -2.298  -0.373  -0.193  1.00  0.00     0.127 C 
BRANCH   6   7
HETATM    7  C14 UNL     1      -1.027  -0.708   0.572  1.00  0.00     0.020 C 
BRANCH   7   8
HETATM    8  C13 UNL     1      -0.049  -1.232  -0.448  1.00  0.00     0.002 C 
BRANCH   8   9
HETATM    9  C12 UNL     1       1.278  -1.627   0.141  1.00  0.00     0.002 C 
BRANCH   9  10
HETATM   10  C11 UNL     1       1.995  -0.474   0.799  1.00  0.00     0.026 C 
BRANCH  10  11
HETATM   11  C10 UNL     1       2.298   0.642  -0.134  1.00  0.00     0.167 C 
BRANCH  11  12
HETATM   12  O1  UNL     1       3.048   0.366  -1.171  1.00  0.00    -0.389 OA
BRANCH  12  13
HETATM   13  C9  UNL     1       4.296  -0.014  -1.290  1.00  0.00     0.198 C 
BRANCH  13  14
HETATM   14  C8  UNL     1       4.836  -1.276  -0.745  1.00  0.00     0.299 C 
BRANCH  14  15
HETATM   15  N1  UNL     1       6.226  -1.446  -1.020  1.00  0.00     0.100 N 
HETATM   16  C5  UNL     1       7.210  -0.666  -0.398  1.00  0.00     0.162 C 
HETATM   17  C4  UNL     1       7.976   0.185  -1.418  1.00  0.00     0.042 C 
HETATM   18  C6  UNL     1       8.026  -1.911  -0.040  1.00  0.00     0.072 C 
HETATM   19  C27 UNL     1       6.908   0.213   0.754  1.00  0.00     0.046 C 
HETATM   20  C3  UNL     1       8.647   1.216  -0.511  1.00  0.00     0.007 C 
HETATM   21  C2  UNL     1       7.547   1.538   0.445  1.00  0.00    -0.016 C 
HETATM   22  C1  UNL     1       8.054   2.249   1.695  1.00  0.00     0.010 C 
HETATM   23  C7  UNL     1       6.760  -2.639  -0.415  1.00  0.00     0.276 C 
ENDBRANCH  14  15
ENDBRANCH  13  14
ENDBRANCH  12  13
ENDBRANCH  11  12
ENDBRANCH  10  11
ENDBRANCH   9  10
ENDBRANCH   8   9
ENDBRANCH   7   8
ENDBRANCH   6   7
ENDBRANCH   1   6
BRANCH   1  24
HETATM   24  C16 UNL     1      -4.341  -0.794   1.206  1.00  0.00     0.136 C 
BRANCH  24  25
HETATM   25  C17 UNL     1      -5.483  -0.907   0.220  1.00  0.00     0.123 C 
BRANCH  25  26
HETATM   26  C18 UNL     1      -6.549  -1.821   0.734  1.00  0.00     0.221 C 
HETATM   27  O2  UNL     1      -6.397  -2.356   1.870  1.00  0.00    -0.273 OA
HETATM   28  N3  UNL     1      -7.680  -2.045  -0.072  1.00  0.00    -0.351 N 
HETATM   29  C19 UNL     1      -7.798  -1.413  -1.356  1.00  0.00     0.136 C 
HETATM   30  C22 UNL     1      -8.726  -2.916   0.402  1.00  0.00     0.136 C 
HETATM   31  C20 UNL     1      -7.691  -2.426  -2.507  1.00  0.00     0.093 C 
HETATM   32  S1  UNL     1      -9.050  -3.630  -2.235  1.00  0.00    -0.166 SA
HETATM   33  C21 UNL     1      -9.801  -3.149  -0.638  1.00  0.00     0.093 C 
ENDBRANCH  25  26
ENDBRANCH  24  25
ENDBRANCH   1  24
BRANCH   4  34
HETATM   34  C24 UNL     1      -2.587   3.832   0.661  1.00  0.00     0.135 C 
BRANCH  34  35
HETATM   35  C25 UNL     1      -3.820   4.419   0.062  1.00  0.00     0.133 C 
BRANCH  35  36
HETATM   36  C26 UNL     1      -3.844   5.890   0.341  1.00  0.00     0.174 C 
HETATM   37  O4  UNL     1      -2.915   6.399   0.995  1.00  0.00    -0.648 OA
HETATM   38  O5  UNL     1      -4.872   6.682  -0.113  1.00  0.00    -0.648 OA
ENDBRANCH  35  36
ENDBRANCH  34  35
ENDBRANCH   4  34
TORSDOF 16
