REMARK  13 active torsions:
REMARK  status: ('A' for Active; 'I' for Inactive)
REMARK    1  A    between atoms: N2_5  and  C4_6 
REMARK    2  A    between atoms: C7_9  and  N3_10 
REMARK    3  A    between atoms: N4_12  and  C8_14 
REMARK    4  A    between atoms: C11_17  and  O1_18 
REMARK    5  A    between atoms: O1_18  and  C12_19 
REMARK    6  A    between atoms: C12_19  and  C13_20 
REMARK       I    between atoms: C13_20  and  N5_22 
REMARK    7  A    between atoms: N5_22  and  C14_24 
REMARK    8  A    between atoms: C14_24  and  C15_25 
REMARK    9  A    between atoms: C15_25  and  C16_26 
REMARK   10  A    between atoms: C16_26  and  C17_27 
REMARK   11  A    between atoms: C17_27  and  C18_28 
REMARK   12  A    between atoms: C18_28  and  C19_29 
REMARK   13  A    between atoms: C19_29  and  C20_30 
ROOT
HETATM    1  C8  UNL     1      -1.191  -0.939   0.149  1.00  0.00     0.048 A 
HETATM    2  C9  UNL     1      -1.826  -0.631   1.329  1.00  0.00     0.034 A 
HETATM    3  C10 UNL     1      -1.373   0.289   2.249  1.00  0.00     0.039 A 
HETATM    4  C11 UNL     1      -0.177   0.975   1.983  1.00  0.00     0.069 A 
HETATM    5  C25 UNL     1       0.471   0.685   0.812  1.00  0.00     0.039 A 
HETATM    6  C26 UNL     1      -0.002  -0.236  -0.087  1.00  0.00     0.034 A 
ENDROOT
BRANCH   1   7
HETATM    7  N4  UNL     1      -1.606  -1.878  -0.802  1.00  0.00    -0.300 N 
HETATM    8  N3  UNL     1      -2.728  -2.121  -1.157  1.00  0.00    -0.300 N 
ATOM      9  H3  UNL     1      -2.757  -2.853  -1.867  1.00  0.00     0.187 HD
ATOM     10  H4  UNL     1      -0.867  -2.422  -1.248  1.00  0.00     0.187 HD
BRANCH   8  11
HETATM   11  C7  UNL     1      -4.004  -1.646  -0.835  1.00  0.00     0.048 A 
HETATM   12  C6  UNL     1      -4.987  -2.469  -0.279  1.00  0.00     0.033 A 
HETATM   13  C5  UNL     1      -6.247  -2.004   0.017  1.00  0.00     0.031 A 
HETATM   14  C4  UNL     1      -6.623  -0.677  -0.220  1.00  0.00     0.030 A 
HETATM   15  C28 UNL     1      -5.636   0.135  -0.773  1.00  0.00     0.031 A 
HETATM   16  C27 UNL     1      -4.369  -0.342  -1.068  1.00  0.00     0.033 A 
BRANCH  14  17
HETATM   17  N2  UNL     1      -7.925  -0.228   0.062  1.00  0.00    -0.378 N 
HETATM   18  C3  UNL     1      -8.999  -1.153   0.313  1.00  0.00     0.142 C 
HETATM   19  C2  UNL     1     -10.247  -0.579  -0.305  1.00  0.00     0.136 C 
HETATM   20  N1  UNL     1     -10.049   0.384  -1.323  1.00  0.00    -0.414 N 
HETATM   21  C1  UNL     1     -11.056   0.560  -2.287  1.00  0.00     0.143 C 
HETATM   22  C30 UNL     1      -9.274   1.528  -0.950  1.00  0.00     0.136 C 
HETATM   23  C29 UNL     1      -8.251   1.176   0.117  1.00  0.00     0.142 C 
ENDBRANCH  14  17
ENDBRANCH   8  11
ENDBRANCH   1   7
BRANCH   4  24
HETATM   24  O1  UNL     1       0.289   1.889   2.872  1.00  0.00    -0.342 OA
BRANCH  24  25
HETATM   25  C12 UNL     1       1.434   2.644   2.826  1.00  0.00     0.278 C 
BRANCH  25  26
HETATM   26  C13 UNL     1       2.720   1.939   2.906  1.00  0.00     0.241 C 
HETATM   27  O2  UNL     1       3.773   2.657   2.725  1.00  0.00    -0.271 OA
HETATM   28  N5  UNL     1       2.828   0.561   3.171  1.00  0.00    -0.359 N 
ATOM     29  H5  UNL     1       1.978   0.013   3.303  1.00  0.00     0.162 HD
BRANCH  28  30
HETATM   30  C14 UNL     1       4.100  -0.094   3.260  1.00  0.00     0.122 C 
BRANCH  30  31
HETATM   31  C15 UNL     1       4.974  -0.060   2.068  1.00  0.00     0.020 C 
BRANCH  31  32
HETATM   32  C16 UNL     1       4.334  -0.692   0.878  1.00  0.00     0.002 C 
BRANCH  32  33
HETATM   33  C17 UNL     1       5.214  -0.696  -0.362  1.00  0.00     0.000 C 
BRANCH  33  34
HETATM   34  C18 UNL     1       6.499  -1.462  -0.151  1.00  0.00     0.000 C 
BRANCH  34  35
HETATM   35  C19 UNL     1       7.356  -1.462  -1.394  1.00  0.00     0.004 C 
BRANCH  35  36
HETATM   36  C20 UNL     1       7.749  -0.067  -1.819  1.00  0.00    -0.014 C 
HETATM   37  C21 UNL     1       8.542   0.646  -0.746  1.00  0.00     0.004 C 
HETATM   38  C22 UNL     1       9.224   1.748  -1.516  1.00  0.00     0.000 C 
HETATM   39  C23 UNL     1       9.731   0.990  -2.743  1.00  0.00     0.000 C 
HETATM   40  C24 UNL     1       8.745  -0.147  -2.955  1.00  0.00     0.004 C 
ENDBRANCH  35  36
ENDBRANCH  34  35
ENDBRANCH  33  34
ENDBRANCH  32  33
ENDBRANCH  31  32
ENDBRANCH  30  31
ENDBRANCH  28  30
ENDBRANCH  25  26
ENDBRANCH  24  25
ENDBRANCH   4  24
TORSDOF 13
