REMARK  14 active torsions:
REMARK  status: ('A' for Active; 'I' for Inactive)
REMARK    1  A    between atoms: C2_2  and  C3_3 
REMARK    2  A    between atoms: C3_3  and  C4_4 
REMARK    3  A    between atoms: C4_4  and  N1_5 
REMARK    4  A    between atoms: C5_7  and  N2_8 
REMARK    5  A    between atoms: C5_7  and  C7_12 
REMARK    6  A    between atoms: C10_15  and  C11_16 
REMARK    7  A    between atoms: C11_16  and  N4_17 
REMARK    8  A    between atoms: N4_17  and  C12_18 
REMARK    9  A    between atoms: N4_17  and  C21_28 
REMARK   10  A    between atoms: C12_18  and  C13_19 
REMARK   11  A    between atoms: C13_19  and  C14_20 
REMARK   12  A    between atoms: C14_20  and  O1_21 
REMARK   13  A    between atoms: O1_21  and  C15_22 
REMARK   14  A    between atoms: C22_31  and  C23_32 
ROOT
HETATM    1  N2  UNL     1       4.815   0.377  -1.431  1.00  0.00    -0.279 N 
ATOM      2  H2  UNL     1       4.728   0.092  -2.407  1.00  0.00     0.179 HD
HETATM    3  C6  UNL     1       5.487   1.544  -1.108  1.00  0.00     0.183 C 
HETATM    4  N3  UNL     1       6.051   2.541  -0.851  1.00  0.00    -0.172 NA
ENDROOT
BRANCH   1   5
HETATM    5  C5  UNL     1       4.249  -0.420  -0.409  1.00  0.00     0.120 C 
HETATM    6  N1  UNL     1       4.906  -1.442  -0.027  1.00  0.00    -0.375 N 
ATOM      7  H1  UNL     1       4.494  -2.015   0.710  1.00  0.00     0.161 HD
BRANCH   6   8
HETATM    8  C4  UNL     1       6.171  -1.851  -0.545  1.00  0.00     0.121 C 
BRANCH   8   9
HETATM    9  C3  UNL     1       7.318  -1.588   0.365  1.00  0.00     0.019 C 
BRANCH   9  10
HETATM   10  C2  UNL     1       8.599  -2.027  -0.281  1.00  0.00    -0.003 C 
HETATM   11  C1  UNL     1       8.678  -3.480  -0.621  1.00  0.00     0.005 C 
ENDBRANCH   9  10
ENDBRANCH   8   9
ENDBRANCH   6   8
BRANCH   5  12
HETATM   12  C7  UNL     1       2.954  -0.038   0.164  1.00  0.00     0.008 A 
HETATM   13  C8  UNL     1       2.312   1.098  -0.310  1.00  0.00     0.016 A 
HETATM   14  C9  UNL     1       1.098   1.491   0.196  1.00  0.00     0.014 A 
HETATM   15  C10 UNL     1       0.441   0.773   1.213  1.00  0.00    -0.021 A 
HETATM   16  C29 UNL     1       1.079  -0.345   1.675  1.00  0.00     0.014 A 
HETATM   17  C30 UNL     1       2.314  -0.740   1.156  1.00  0.00     0.016 A 
BRANCH  15  18
HETATM   18  C11 UNL     1      -0.852   1.263   1.737  1.00  0.00     0.104 C 
BRANCH  18  19
HETATM   19  N4  UNL     1      -1.989   1.133   0.924  1.00  0.00    -0.337 N 
BRANCH  19  20
HETATM   20  C12 UNL     1      -2.849   0.015   0.825  1.00  0.00     0.132 C 
BRANCH  20  21
HETATM   21  C13 UNL     1      -2.303  -1.233   0.179  1.00  0.00     0.047 C 
BRANCH  21  22
HETATM   22  C14 UNL     1      -3.478  -2.217   0.171  1.00  0.00     0.177 C 
BRANCH  22  23
HETATM   23  O1  UNL     1      -3.108  -3.431  -0.403  1.00  0.00    -0.351 OA
BRANCH  23  24
HETATM   24  C15 UNL     1      -4.081  -4.427  -0.502  1.00  0.00     0.068 A 
HETATM   25  C16 UNL     1      -5.362  -4.214  -0.052  1.00  0.00     0.037 A 
HETATM   26  C17 UNL     1      -6.322  -5.186  -0.148  1.00  0.00     0.003 A 
HETATM   27  C18 UNL     1      -5.946  -6.408  -0.724  1.00  0.00     0.000 A 
HETATM   28  C19 UNL     1      -4.656  -6.619  -1.175  1.00  0.00     0.003 A 
HETATM   29  C20 UNL     1      -3.697  -5.622  -1.070  1.00  0.00     0.037 A 
ENDBRANCH  23  24
ENDBRANCH  22  23
ENDBRANCH  21  22
ENDBRANCH  20  21
ENDBRANCH  19  20
BRANCH  19  30
HETATM   30  C21 UNL     1      -2.306   2.258   0.056  1.00  0.00     0.151 A 
HETATM   31  N5  UNL     1      -2.788   3.437   0.343  1.00  0.00    -0.334 N 
HETATM   32  C22 UNL     1      -3.015   4.302  -0.598  1.00  0.00     0.067 A 
ATOM     33  H5  UNL     1      -2.988   3.680   1.313  1.00  0.00     0.168 HD
HETATM   34  C28 UNL     1      -2.728   3.922  -1.885  1.00  0.00     0.085 A 
HETATM   35  S1  UNL     1      -2.145   2.334  -1.662  1.00  0.00    -0.063 SA
BRANCH  32  36
HETATM   36  C23 UNL     1      -3.559   5.657  -0.294  1.00  0.00     0.059 A 
HETATM   37  C24 UNL     1      -3.797   6.559  -1.278  1.00  0.00     0.032 A 
HETATM   38  C25 UNL     1      -4.309   7.835  -1.020  1.00  0.00     0.004 A 
HETATM   39  C26 UNL     1      -4.566   8.147   0.293  1.00  0.00     0.017 A 
HETATM   40  C27 UNL     1      -4.325   7.234   1.291  1.00  0.00     0.088 A 
HETATM   41  N6  UNL     1      -3.836   6.034   0.976  1.00  0.00    -0.364 N 
ATOM     42  H6  UNL     1      -3.662   5.368   1.729  1.00  0.00     0.165 HD
ENDBRANCH  32  36
ENDBRANCH  19  30
ENDBRANCH  18  19
ENDBRANCH  15  18
ENDBRANCH   5  12
ENDBRANCH   1   5
TORSDOF 14
