REMARK  13 active torsions:
REMARK  status: ('A' for Active; 'I' for Inactive)
REMARK    1  A    between atoms: C1_2  and  C2_4 
REMARK    2  A    between atoms: C2_4  and  C3_5 
REMARK    3  A    between atoms: C8_10  and  C9_11 
REMARK    4  A    between atoms: C9_11  and  S1_12 
REMARK    5  A    between atoms: S1_12  and  C10_13 
REMARK    6  A    between atoms: C11_18  and  S2_19 
REMARK    7  A    between atoms: S2_19  and  C12_20 
REMARK    8  A    between atoms: C12_20  and  C13_21 
REMARK    9  A    between atoms: C13_21  and  O3_22 
REMARK   10  A    between atoms: O3_22  and  C14_23 
REMARK   11  A    between atoms: N3_29  and  C20_30 
REMARK   12  A    between atoms: C20_30  and  C21_31 
REMARK   13  A    between atoms: C21_31  and  C22_32 
ROOT
HETATM    1  C10 UNL     1      -0.691  -0.191  -0.871  1.00  0.00     0.163 A 
HETATM    2  N1  UNL     1       0.005  -0.879  -1.821  1.00  0.00    -0.278 N 
ATOM      3  H1  UNL     1      -0.391  -1.350  -2.634  1.00  0.00     0.189 HD
HETATM    4  N2  UNL     1       1.274  -0.826  -1.501  1.00  0.00    -0.278 N 
ATOM      5  H2  UNL     1       2.021  -1.260  -2.043  1.00  0.00     0.189 HD
HETATM    6  C11 UNL     1       1.468  -0.134  -0.378  1.00  0.00     0.163 A 
HETATM    7  N3  UNL     1       0.201   0.267   0.013  1.00  0.00    -0.306 N 
ENDROOT
BRANCH   1   8
HETATM    8  S1  UNL     1      -2.476   0.004  -0.815  1.00  0.00    -0.088 SA
BRANCH   8   9
HETATM    9  C9  UNL     1      -3.209  -1.380   0.145  1.00  0.00     0.121 C 
BRANCH   9  10
HETATM   10  C8  UNL     1      -4.671  -1.170   0.175  1.00  0.00    -0.042 A 
HETATM   11  C3  UNL     1      -5.522  -2.040   0.823  1.00  0.00    -0.041 A 
HETATM   12  C4  UNL     1      -6.910  -1.828   0.878  1.00  0.00     0.008 A 
HETATM   13  C5  UNL     1      -7.418  -0.709   0.257  1.00  0.00     0.001 A 
HETATM   14  C6  UNL     1      -6.611   0.184  -0.401  1.00  0.00     0.001 A 
HETATM   15  C7  UNL     1      -5.256  -0.057  -0.433  1.00  0.00     0.008 A 
BRANCH  11  16
HETATM   16  C2  UNL     1      -4.954  -3.251   1.458  1.00  0.00     0.152 C 
BRANCH  16  17
HETATM   17  C1  UNL     1      -4.735  -4.300   0.434  1.00  0.00     0.176 C 
HETATM   18  O1  UNL     1      -5.053  -4.136  -0.766  1.00  0.00    -0.648 OA
HETATM   19  O2  UNL     1      -4.158  -5.519   0.785  1.00  0.00    -0.648 OA
ENDBRANCH  16  17
ENDBRANCH  11  16
ENDBRANCH   9  10
ENDBRANCH   8   9
ENDBRANCH   1   8
BRANCH   7  20
HETATM   20  C20 UNL     1       0.002   1.088   1.188  1.00  0.00     0.134 C 
BRANCH  20  21
HETATM   21  C21 UNL     1       0.256   2.517   1.094  1.00  0.00     0.025 C 
BRANCH  21  22
HETATM   22  C22 UNL     1      -0.449   3.462   0.247  1.00  0.00    -0.013 C 
HETATM   23  C23 UNL     1      -1.917   3.665   0.433  1.00  0.00     0.005 C 
HETATM   24  C24 UNL     1      -2.209   5.107  -0.026  1.00  0.00     0.000 C 
HETATM   25  C25 UNL     1      -1.148   5.693  -0.877  1.00  0.00     0.000 C 
HETATM   26  C26 UNL     1      -0.426   4.775  -1.799  1.00  0.00     0.000 C 
HETATM   27  C27 UNL     1      -0.215   3.371  -1.247  1.00  0.00     0.005 C 
ENDBRANCH  21  22
ENDBRANCH  20  21
ENDBRANCH   7  20
BRANCH   6  28
HETATM   28  S2  UNL     1       2.964   0.253   0.511  1.00  0.00    -0.090 SA
BRANCH  28  29
HETATM   29  C12 UNL     1       4.360  -0.491  -0.381  1.00  0.00     0.109 C 
BRANCH  29  30
HETATM   30  C13 UNL     1       4.255  -1.972  -0.296  1.00  0.00     0.186 C 
BRANCH  30  31
HETATM   31  O3  UNL     1       5.237  -2.687  -0.908  1.00  0.00    -0.350 OA
BRANCH  31  32
HETATM   32  C14 UNL     1       6.570  -2.814  -0.727  1.00  0.00     0.068 A 
HETATM   33  C15 UNL     1       7.268  -2.182   0.249  1.00  0.00     0.037 A 
HETATM   34  C16 UNL     1       8.641  -2.361   0.367  1.00  0.00     0.003 A 
HETATM   35  C17 UNL     1       9.361  -3.172  -0.478  1.00  0.00     0.000 A 
HETATM   36  C18 UNL     1       8.657  -3.816  -1.469  1.00  0.00     0.003 A 
HETATM   37  C19 UNL     1       7.308  -3.644  -1.591  1.00  0.00     0.037 A 
ENDBRANCH  31  32
ENDBRANCH  30  31
ENDBRANCH  29  30
ENDBRANCH  28  29
ENDBRANCH   6  28
TORSDOF 13
