REMARK  6 active torsions:
REMARK  status: ('A' for Active; 'I' for Inactive)
REMARK    1  A    between atoms: N1_2  and  C2_5 
REMARK    2  A    between atoms: C2_5  and  C3_6 
REMARK    3  A    between atoms: C4_7  and  N2_8 
REMARK    4  A    between atoms: C7_17  and  C8_18 
REMARK    5  A    between atoms: C8_18  and  C9_19 
REMARK    6  A    between atoms: C9_19  and  N4_20 
ROOT
HETATM    1  C3  UNL     1      -0.158  -0.146   0.376  1.00  0.00     0.072 C 
HETATM    2  C4  UNL     1      -0.560  -1.601   0.418  1.00  0.00     0.192 C 
HETATM    3  C5  UNL     1      -0.497  -2.242  -0.950  1.00  0.00     0.060 C 
HETATM    4  C6  UNL     1       0.996  -2.325  -1.296  1.00  0.00     0.235 C 
HETATM    5  N3  UNL     1       1.680  -1.176  -0.732  1.00  0.00    -0.070 N 
ATOM      6  H31 UNL     1       2.573  -1.002  -1.194  1.00  0.00     0.277 HD
ATOM      7  H32 UNL     1       2.029  -1.367   0.207  1.00  0.00     0.277 HD
HETATM    8  C7  UNL     1       0.812   0.007  -0.761  1.00  0.00     0.195 C 
ENDROOT
BRANCH   8   9
HETATM    9  C8  UNL     1       1.614   1.262  -0.717  1.00  0.00     0.060 C 
BRANCH   9  10
HETATM   10  C9  UNL     1       2.464   1.427   0.499  1.00  0.00     0.231 C 
BRANCH  10  11
HETATM   11  N4  UNL     1       3.203   2.697   0.417  1.00  0.00    -0.079 N 
ATOM     12  H43 UNL     1       3.745   2.772  -0.444  1.00  0.00     0.274 HD
ATOM     13  H42 UNL     1       2.583   3.494   0.270  1.00  0.00     0.274 HD
ATOM     14  H41 UNL     1       3.784   2.810   1.248  1.00  0.00     0.274 HD
ENDBRANCH  10  11
ENDBRANCH   9  10
ENDBRANCH   8   9
BRANCH   1  15
HETATM   15  C2  UNL     1      -1.300   0.810   0.327  1.00  0.00     0.240 C 
BRANCH  15  16
HETATM   16  N1  UNL     1      -2.177   0.693  -0.790  1.00  0.00    -0.079 N 
HETATM   17  C1  UNL     1      -3.207   1.732  -0.623  1.00  0.00     0.267 C 
ATOM     18  H12 UNL     1      -2.563  -0.244  -0.904  1.00  0.00     0.276 HD
ATOM     19  H11 UNL     1      -1.696   0.742  -1.688  1.00  0.00     0.276 HD
ENDBRANCH  15  16
ENDBRANCH   1  15
BRANCH   2  20
HETATM   20  N2  UNL     1      -1.865  -1.818   0.981  1.00  0.00    -0.074 N 
ATOM     21  H23 UNL     1      -1.933  -1.397   1.908  1.00  0.00     0.274 HD
ATOM     22  H22 UNL     1      -2.567  -1.263   0.491  1.00  0.00     0.274 HD
ATOM     23  H21 UNL     1      -2.137  -2.801   1.009  1.00  0.00     0.274 HD
ENDBRANCH   2  20
TORSDOF 6
