REMARK  7 active torsions:
REMARK  status: ('A' for Active; 'I' for Inactive)
REMARK    1  A    between atoms: N1_1  and  N2_4 
REMARK    2  A    between atoms: N3_6  and  C1_8 
REMARK    3  A    between atoms: C1_8  and  C2_9 
REMARK    4  A    between atoms: C2_9  and  N4_10 
REMARK    5  A    between atoms: N4_10  and  C3_13 
REMARK    6  A    between atoms: C3_13  and  C4_14 
REMARK    7  A    between atoms: N5_18  and  N6_20 
ROOT
HETATM    1  N4  UNL     1      -1.874   0.005  -0.712  1.00  0.00    -0.072 N 
ATOM      2  H41 UNL     1      -1.791   0.775  -0.048  1.00  0.00     0.277 HD
ATOM      3  H42 UNL     1      -2.622   0.373  -1.299  1.00  0.00     0.277 HD
ENDROOT
BRANCH   1   4
HETATM    4  C2  UNL     1      -2.288  -1.211  -0.046  1.00  0.00     0.253 C 
BRANCH   4   5
HETATM    5  C1  UNL     1      -3.579  -0.935   0.735  1.00  0.00     0.168 C 
BRANCH   5   6
HETATM    6  N3  UNL     1      -3.296   0.105   1.706  1.00  0.00    -0.321 N 
HETATM    7  N2  UNL     1      -3.817   1.213   1.573  1.00  0.00    -0.254 N 
ATOM      8  H2  UNL     1      -3.398   1.576   0.716  1.00  0.00     0.207 HD
ATOM      9  H3  UNL     1      -2.672  -0.080   2.491  1.00  0.00     0.181 HD
BRANCH   7  10
HETATM   10  N1  UNL     1      -4.588   2.126   1.935  1.00  0.00    -0.331 N 
ATOM     11  H12 UNL     1      -4.984   1.729   2.787  1.00  0.00     0.178 HD
ATOM     12  H11 UNL     1      -5.019   3.044   1.825  1.00  0.00     0.178 HD
ENDBRANCH   7  10
ENDBRANCH   5   6
ENDBRANCH   4   5
ENDBRANCH   1   4
BRANCH   1  13
HETATM   13  C3  UNL     1      -0.666  -0.158  -1.463  1.00  0.00     0.257 C 
BRANCH  13  14
HETATM   14  C4  UNL     1       0.541  -0.383  -0.588  1.00  0.00     0.108 C 
HETATM   15  C5  UNL     1       1.804  -0.553  -1.388  1.00  0.00     0.034 C 
HETATM   16  C6  UNL     1       2.863  -0.348  -0.300  1.00  0.00     0.079 C 
HETATM   17  C7  UNL     1       2.234   0.842   0.378  1.00  0.00     0.091 C 
HETATM   18  N5  UNL     1       2.906   1.767   0.934  1.00  0.00    -0.296 N 
HETATM   19  N7  UNL     1       0.827   0.726   0.273  1.00  0.00    -0.372 N 
ATOM     20  H5  UNL     1       2.398   2.536   1.370  1.00  0.00     0.187 HD
ATOM     21  H7  UNL     1       0.139   1.325   0.729  1.00  0.00     0.161 HD
BRANCH  18  22
HETATM   22  N6  UNL     1       4.292   1.788   0.981  1.00  0.00    -0.344 N 
ATOM     23  H62 UNL     1       4.784   1.011   0.540  1.00  0.00     0.176 HD
ATOM     24  H61 UNL     1       4.831   2.530   1.427  1.00  0.00     0.176 HD
ENDBRANCH  18  22
ENDBRANCH  13  14
ENDBRANCH   1  13
TORSDOF 7
