REMARK  5 active torsions:
REMARK  status: ('A' for Active; 'I' for Inactive)
REMARK    1  A    between atoms: C2_2  and  C3_3 
REMARK    2  A    between atoms: C5_5  and  C6_6 
REMARK       I    between atoms: C6_6  and  N1_8 
REMARK    3  A    between atoms: N1_8  and  C7_10 
REMARK    4  A    between atoms: C10_15  and  C11_16 
REMARK       I    between atoms: C11_16  and  N2_18 
REMARK    5  A    between atoms: N2_18  and  C12_20 
ROOT
HETATM    1  C7  UNL     1       1.203  -2.400  -0.809  1.00  0.00     0.093 A 
HETATM    2  S1  UNL     1       1.551  -4.018  -1.242  1.00  0.00    -0.064 SA
HETATM    3  C8  UNL     1      -0.031  -4.588  -1.447  1.00  0.00     0.055 A 
HETATM    4  S2  UNL     1      -0.613  -6.241  -1.918  1.00  0.00    -0.044 SA
HETATM    5  C9  UNL     1      -0.802  -3.493  -1.170  1.00  0.00     0.046 A 
HETATM    6  C10 UNL     1      -0.159  -2.346  -0.836  1.00  0.00     0.067 A 
ENDROOT
BRANCH   6   7
HETATM    7  C11 UNL     1      -0.899  -1.087  -0.513  1.00  0.00     0.255 C 
HETATM    8  O2  UNL     1      -0.301  -0.037  -0.207  1.00  0.00    -0.268 OA
HETATM    9  N2  UNL     1      -2.309  -1.019  -0.537  1.00  0.00    -0.348 N 
ATOM     10  H2  UNL     1      -2.804  -1.875  -0.787  1.00  0.00     0.163 HD
BRANCH   9  11
HETATM   11  C12 UNL     1      -3.117   0.129  -0.246  1.00  0.00     0.034 C 
HETATM   12  C13 UNL     1      -4.606  -0.243  -0.406  1.00  0.00     0.035 C 
HETATM   13  C14 UNL     1      -5.441   0.955  -0.109  1.00  0.00    -0.012 C 
HETATM   14  C15 UNL     1      -5.266   1.284   1.359  1.00  0.00     0.009 C 
HETATM   15  C19 UNL     1      -5.132   2.153  -0.947  1.00  0.00     0.009 C 
HETATM   16  C16 UNL     1      -3.838   1.679   1.559  1.00  0.00    -0.012 C 
HETATM   17  C17 UNL     1      -3.419   2.837   0.691  1.00  0.00     0.009 C 
HETATM   18  C21 UNL     1      -2.932   0.511   1.202  1.00  0.00     0.035 C 
HETATM   19  C18 UNL     1      -3.669   2.483  -0.750  1.00  0.00    -0.012 C 
HETATM   20  C20 UNL     1      -2.887   1.265  -1.198  1.00  0.00     0.035 C 
ENDBRANCH   9  11
ENDBRANCH   6   7
BRANCH   1  21
HETATM   21  N1  UNL     1       2.196  -1.399  -0.504  1.00  0.00    -0.315 N 
HETATM   22  C6  UNL     1       3.576  -1.756  -0.560  1.00  0.00     0.274 C 
HETATM   23  O1  UNL     1       3.884  -2.924  -0.871  1.00  0.00    -0.266 OA
ATOM     24  H1  UNL     1       1.916  -0.451  -0.252  1.00  0.00     0.170 HD
BRANCH  22  25
HETATM   25  C5  UNL     1       4.625  -0.798  -0.265  1.00  0.00     0.120 A 
HETATM   26  C4  UNL     1       4.401   0.535   0.094  1.00  0.00     0.063 A 
HETATM   27  C3  UNL     1       5.653   1.070   0.278  1.00  0.00     0.028 A 
HETATM   28  N4  UNL     1       6.540   0.120   0.045  1.00  0.00    -0.302 N 
HETATM   29  N3  UNL     1       5.945  -0.993  -0.279  1.00  0.00    -0.291 N 
ATOM     30  H4  UNL     1       7.551   0.241   0.110  1.00  0.00     0.186 HD
HETATM   31  C22 UNL     1       6.611  -2.233  -0.598  1.00  0.00     0.178 C 
BRANCH  27  32
HETATM   32  C2  UNL     1       5.953   2.475   0.673  1.00  0.00     0.054 C 
HETATM   33  C1  UNL     1       6.003   2.528   2.168  1.00  0.00     0.011 C 
ENDBRANCH  27  32
ENDBRANCH  22  25
ENDBRANCH   1  21
TORSDOF 5
