REMARK  15 active torsions:
REMARK  status: ('A' for Active; 'I' for Inactive)
REMARK    1  A    between atoms: C4_6  and  C5_7 
REMARK    2  A    between atoms: C9_13  and  C10_14 
REMARK    3  A    between atoms: C10_14  and  O2_15 
REMARK    4  A    between atoms: C10_14  and  C11_17 
REMARK    5  A    between atoms: C11_17  and  O3_18 
REMARK    6  A    between atoms: C11_17  and  C12_20 
REMARK    7  A    between atoms: C12_20  and  C13_21 
REMARK    8  A    between atoms: C14_22  and  C15_23 
REMARK    9  A    between atoms: C15_23  and  C16_24 
REMARK   10  A    between atoms: C16_24  and  C17_25 
REMARK   11  A    between atoms: C17_25  and  C18_26 
REMARK   12  A    between atoms: C18_26  and  C19_27 
REMARK   13  A    between atoms: C19_27  and  C20_28 
REMARK   14  A    between atoms: N3_34  and  C23_35 
REMARK   15  A    between atoms: C23_35  and  C24_36 
ROOT
HETATM    1  O1  UNL     1      -4.823   2.160   1.942  1.00  0.00    -0.270 OA
HETATM    2  C1  UNL     1      -3.666   2.048   1.421  1.00  0.00     0.253 C 
HETATM    3  C2  UNL     1      -2.997   0.763   1.505  1.00  0.00     0.247 C 
HETATM    4  S1  UNL     1      -4.226  -0.466   0.866  1.00  0.00    -0.097 SA
HETATM    5  C3  UNL     1      -3.013  -1.483   0.053  1.00  0.00     0.008 C 
HETATM    6  C4  UNL     1      -3.257  -2.495  -0.710  1.00  0.00     0.045 C 
HETATM    7  C9  UNL     1      -1.731  -0.881   0.473  1.00  0.00     0.160 C 
HETATM    8  N2  UNL     1      -1.932   0.531   0.547  1.00  0.00    -0.316 N 
HETATM    9  C21 UNL     1      -1.373   1.697  -0.049  1.00  0.00     0.239 C 
HETATM   10  O4  UNL     1      -0.591   1.602  -1.000  1.00  0.00    -0.271 OA
HETATM   11  C22 UNL     1      -1.696   3.068   0.437  1.00  0.00     0.228 C 
HETATM   12  N3  UNL     1      -3.090   3.170   0.789  1.00  0.00    -0.340 N 
ENDROOT
BRANCH   7  13
HETATM   13  C10 UNL     1      -0.620  -1.427  -0.303  1.00  0.00     0.175 C 
BRANCH  13  14
HETATM   14  O2  UNL     1      -0.567  -1.163  -1.644  1.00  0.00    -0.391 OA
ATOM     15  H2  UNL     1       0.155  -1.518  -2.149  1.00  0.00     0.210 HD
ENDBRANCH  13  14
BRANCH  13  16
HETATM   16  C11 UNL     1       0.750  -1.297   0.381  1.00  0.00     0.160 C 
BRANCH  16  17
HETATM   17  O3  UNL     1       0.620  -1.574   1.741  1.00  0.00    -0.392 OA
ATOM     18  H3  UNL     1       1.467  -1.494   2.164  1.00  0.00     0.210 HD
ENDBRANCH  16  17
BRANCH  16  19
HETATM   19  C12 UNL     1       1.705  -2.345  -0.174  1.00  0.00     0.128 C 
BRANCH  19  20
HETATM   20  C13 UNL     1       2.998  -2.249   0.450  1.00  0.00    -0.104 C 
HETATM   21  C14 UNL     1       4.078  -2.192   0.980  1.00  0.00    -0.106 C 
BRANCH  21  22
HETATM   22  C15 UNL     1       5.402  -2.147   1.613  1.00  0.00     0.094 C 
BRANCH  22  23
HETATM   23  C16 UNL     1       5.886  -0.748   1.822  1.00  0.00     0.012 C 
BRANCH  23  24
HETATM   24  C17 UNL     1       5.998   0.006   0.491  1.00  0.00     0.001 C 
BRANCH  24  25
HETATM   25  C18 UNL     1       6.485   1.403   0.702  1.00  0.00     0.001 C 
BRANCH  25  26
HETATM   26  C19 UNL     1       6.609   2.148  -0.587  1.00  0.00     0.011 C 
BRANCH  26  27
HETATM   27  C20 UNL     1       5.292   2.243  -1.285  1.00  0.00     0.085 C 
HETATM   28 BR1  UNL     1       5.513   3.232  -2.936  1.00  0.00    -0.097 Br
ENDBRANCH  26  27
ENDBRANCH  25  26
ENDBRANCH  24  25
ENDBRANCH  23  24
ENDBRANCH  22  23
ENDBRANCH  21  22
ENDBRANCH  19  20
ENDBRANCH  16  19
ENDBRANCH  13  16
ENDBRANCH   7  13
BRANCH   6  29
HETATM   29  C5  UNL     1      -4.626  -2.962  -1.023  1.00  0.00     0.033 A 
HETATM   30  C6  UNL     1      -5.072  -3.408  -2.256  1.00  0.00     0.031 A 
HETATM   31  C7  UNL     1      -6.381  -3.745  -2.098  1.00  0.00     0.019 A 
HETATM   32  C8  UNL     1      -6.693  -3.498  -0.781  1.00  0.00     0.088 A 
HETATM   33  N1  UNL     1      -5.620  -3.020  -0.125  1.00  0.00    -0.366 N 
ATOM     34  H1  UNL     1      -5.572  -2.755   0.859  1.00  0.00     0.165 HD
ENDBRANCH   6  29
BRANCH  12  35
HETATM   35  C23 UNL     1      -3.919   4.331   0.537  1.00  0.00     0.137 C 
BRANCH  35  36
HETATM   36  C24 UNL     1      -4.558   4.164  -0.840  1.00  0.00     0.105 C 
HETATM   37 BR2  UNL     1      -5.679   5.664  -1.262  1.00  0.00    -0.095 Br
ENDBRANCH  35  36
ENDBRANCH  12  35
TORSDOF 15
