REMARK  12 active torsions:
REMARK  status: ('A' for Active; 'I' for Inactive)
REMARK       I    between atoms: C2_2  and  N1_4 
REMARK    1  A    between atoms: N1_4  and  C3_6 
REMARK    2  A    between atoms: C3_6  and  C4_7 
REMARK    3  A    between atoms: C4_7  and  C5_8 
REMARK    4  A    between atoms: C5_8  and  C6_9 
REMARK    5  A    between atoms: C6_9  and  C7_10 
REMARK       I    between atoms: C7_10  and  N2_12 
REMARK    6  A    between atoms: N2_12  and  C9_14 
REMARK    7  A    between atoms: C9_14  and  C10_15 
REMARK    8  A    between atoms: C10_15  and  N3_17 
REMARK    9  A    between atoms: C15_21  and  C16_22 
REMARK   10  A    between atoms: C16_22  and  N4_23 
REMARK       I    between atoms: N4_23  and  C17_25 
REMARK       I    between atoms: C17_25  and  N5_27 
REMARK   11  A    between atoms: N5_27  and  C18_29 
REMARK   12  A    between atoms: C24_36  and  C26_38 
ROOT
HETATM    1  N3  UNL     1       0.163   0.436   0.296  1.00  0.00    -0.262 N 
HETATM    2  C12 UNL     1      -0.785  -0.360  -0.479  1.00  0.00     0.147 C 
HETATM    3  C13 UNL     1      -2.202  -0.088  -0.167  1.00  0.00     0.009 C 
HETATM    4  C14 UNL     1      -2.371  -0.113   1.342  1.00  0.00     0.012 C 
HETATM    5  C15 UNL     1      -2.886   0.992  -0.879  1.00  0.00     0.038 C 
HETATM    6  C24 UNL     1      -2.244   2.299  -1.061  1.00  0.00     0.058 C 
HETATM    7  C25 UNL     1      -2.522   3.291   0.051  1.00  0.00     0.041 C 
HETATM    8  N6  UNL     1      -0.868   2.320  -1.376  1.00  0.00    -0.287 N 
HETATM    9  C27 UNL     1      -0.476   1.992  -2.677  1.00  0.00     0.165 C 
HETATM   10  S1  UNL     1       0.254   2.016  -0.139  1.00  0.00     0.323 S 
HETATM   11  O4  UNL     1       1.555   2.625  -0.526  1.00  0.00    -0.182 OA
HETATM   12  O5  UNL     1      -0.147   2.860   1.112  1.00  0.00    -0.182 OA
ENDROOT
BRANCH   1  13
HETATM   13  C10 UNL     1       1.262  -0.340   0.749  1.00  0.00     0.035 C 
HETATM   14  C11 UNL     1       1.727   0.126   2.066  1.00  0.00     0.070 C 
BRANCH  13  15
HETATM   15  C9  UNL     1       2.214  -0.968  -0.176  1.00  0.00     0.118 C 
BRANCH  15  16
HETATM   16  N2  UNL     1       3.361  -0.391  -0.718  1.00  0.00    -0.331 N 
HETATM   17  C7  UNL     1       4.616  -0.375  -0.103  1.00  0.00     0.223 C 
HETATM   18  O2  UNL     1       5.597   0.108  -0.766  1.00  0.00    -0.273 OA
HETATM   19  C8  UNL     1       3.322   0.159  -2.087  1.00  0.00     0.158 C 
BRANCH  17  20
HETATM   20  C6  UNL     1       4.977  -0.852   1.246  1.00  0.00     0.103 C 
BRANCH  20  21
HETATM   21  C5  UNL     1       6.456  -1.124   1.396  1.00  0.00     0.011 C 
BRANCH  21  22
HETATM   22  C4  UNL     1       6.979  -2.166   0.465  1.00  0.00     0.020 C 
BRANCH  22  23
HETATM   23  C3  UNL     1       8.457  -2.419   0.648  1.00  0.00     0.122 C 
BRANCH  23  24
HETATM   24  N1  UNL     1       9.281  -1.277   0.434  1.00  0.00    -0.361 N 
HETATM   25  C2  UNL     1      10.685  -1.384   0.577  1.00  0.00     0.213 C 
HETATM   26  C1  UNL     1      11.584  -0.221   0.363  1.00  0.00     0.117 C 
HETATM   27  O1  UNL     1      11.165  -2.519   0.896  1.00  0.00    -0.274 OA
ATOM     28  H1  UNL     1       8.860  -0.384   0.178  1.00  0.00     0.162 HD
ENDBRANCH  23  24
ENDBRANCH  22  23
ENDBRANCH  21  22
ENDBRANCH  20  21
ENDBRANCH  17  20
ENDBRANCH  15  16
ENDBRANCH  13  15
ENDBRANCH   1  13
BRANCH   5  29
HETATM   29  C16 UNL     1      -4.255   1.205  -0.270  1.00  0.00     0.132 C 
BRANCH  29  30
HETATM   30  N4  UNL     1      -5.078   0.027  -0.364  1.00  0.00    -0.342 N 
HETATM   31  C17 UNL     1      -6.412   0.086   0.169  1.00  0.00     0.320 C 
HETATM   32  O3  UNL     1      -6.731   1.184   0.676  1.00  0.00    -0.247 OA
HETATM   33  N5  UNL     1      -7.264  -1.031   0.103  1.00  0.00    -0.309 N 
ATOM     34  H5  UNL     1      -6.866  -1.862  -0.334  1.00  0.00     0.170 HD
ATOM     35  H4  UNL     1      -4.724  -0.826  -0.797  1.00  0.00     0.164 HD
BRANCH  33  36
HETATM   36  C18 UNL     1      -8.587  -1.159   0.556  1.00  0.00     0.036 A 
HETATM   37  C19 UNL     1      -9.310  -0.163   1.161  1.00  0.00     0.032 A 
HETATM   38  C20 UNL     1     -10.636  -0.339   1.590  1.00  0.00     0.044 A 
HETATM   39  C21 UNL     1     -11.264  -1.544   1.412  1.00  0.00     0.116 A 
HETATM   40  F1  UNL     1     -12.554  -1.697   1.838  1.00  0.00    -0.206 F 
HETATM   41  C22 UNL     1     -10.569  -2.556   0.813  1.00  0.00     0.044 A 
HETATM   42  C23 UNL     1      -9.275  -2.377   0.396  1.00  0.00     0.032 A 
ENDBRANCH  33  36
ENDBRANCH  29  30
ENDBRANCH   5  29
BRANCH   6  43
HETATM   43  C26 UNL     1      -2.908   2.980  -2.287  1.00  0.00     0.146 C 
HETATM   44 CL1  UNL     1      -2.074   4.567  -2.432  1.00  0.00    -0.128 Cl
ENDBRANCH   6  43
TORSDOF 12
