REMARK  12 active torsions:
REMARK  status: ('A' for Active; 'I' for Inactive)
REMARK    1  A    between atoms: C2_2  and  C4_4 
REMARK    2  A    between atoms: C4_4  and  N1_5 
REMARK    3  A    between atoms: N1_5  and  C6_7 
REMARK    4  A    between atoms: C6_7  and  C7_8 
REMARK    5  A    between atoms: C7_8  and  C8_9 
REMARK    6  A    between atoms: C7_8  and  N4_27 
REMARK    7  A    between atoms: C8_9  and  C9_10 
REMARK    8  A    between atoms: C9_10  and  C10_11 
REMARK       I    between atoms: C10_11  and  N2_13 
REMARK    9  A    between atoms: C14_17  and  C15_18 
REMARK   10  A    between atoms: C15_18  and  O2_19 
REMARK   11  A    between atoms: C15_18  and  N3_21 
REMARK       I    between atoms: N4_27  and  C21_29 
REMARK   12  A    between atoms: C21_29  and  C22_31 
ROOT
HETATM    1  C7  UNL     1      -2.228  -1.370  -0.081  1.00  0.00     0.123 C 
ENDROOT
BRANCH   1   2
HETATM    2  C6  UNL     1      -3.171  -1.819  -1.135  1.00  0.00     0.087 C 
BRANCH   2   3
HETATM    3  N1  UNL     1      -4.526  -1.527  -0.954  1.00  0.00    -0.376 N 
HETATM    4  C5  UNL     1      -4.968  -1.252   0.330  1.00  0.00     0.154 C 
BRANCH   3   5
HETATM    5  C4  UNL     1      -5.379  -2.027  -1.937  1.00  0.00     0.066 C 
BRANCH   5   6
HETATM    6  C2  UNL     1      -5.876  -3.423  -1.761  1.00  0.00     0.016 C 
HETATM    7  C1  UNL     1      -6.674  -3.711  -0.548  1.00  0.00     0.015 C 
HETATM    8  C3  UNL     1      -6.766  -3.718  -2.976  1.00  0.00     0.015 C 
ENDBRANCH   5   6
ENDBRANCH   3   5
ENDBRANCH   2   3
ENDBRANCH   1   2
BRANCH   1   9
HETATM    9  C8  UNL     1      -0.809  -1.782  -0.519  1.00  0.00     0.040 C 
BRANCH   9  10
HETATM   10  C9  UNL     1       0.134  -1.305   0.544  1.00  0.00     0.105 C 
BRANCH  10  11
HETATM   11  C10 UNL     1       1.537  -1.619   0.191  1.00  0.00     0.220 C 
HETATM   12  O1  UNL     1       1.833  -2.311  -0.802  1.00  0.00    -0.273 OA
HETATM   13  N2  UNL     1       2.602  -1.119   1.004  1.00  0.00    -0.340 N 
HETATM   14  C11 UNL     1       2.460  -0.320   2.198  1.00  0.00     0.127 C 
HETATM   15  C14 UNL     1       4.042  -1.266   0.813  1.00  0.00     0.161 C 
HETATM   16  C12 UNL     1       3.439  -0.982   3.139  1.00  0.00     0.022 C 
HETATM   17  C13 UNL     1       4.569  -1.356   2.191  1.00  0.00     0.035 C 
BRANCH  15  18
HETATM   18  C15 UNL     1       4.439  -0.170  -0.056  1.00  0.00     0.137 C 
BRANCH  18  19
HETATM   19  O2  UNL     1       3.930  -0.339  -1.277  1.00  0.00    -0.348 OA
ATOM     20  H2  UNL     1       4.189   0.377  -1.845  1.00  0.00     0.219 HD
ENDBRANCH  18  19
BRANCH  18  21
HETATM   21  N3  UNL     1       5.192   0.970   0.071  1.00  0.00    -0.364 N 
HETATM   22  C16 UNL     1       5.783   1.449   1.275  1.00  0.00     0.124 C 
HETATM   23  C17 UNL     1       6.000   2.957   1.148  1.00  0.00     0.020 C 
HETATM   24  C18 UNL     1       7.047   3.264   0.097  1.00  0.00     0.003 C 
HETATM   25  C19 UNL     1       6.864   2.362  -1.108  1.00  0.00     0.020 C 
HETATM   26  C20 UNL     1       5.459   1.786  -1.128  1.00  0.00     0.124 C 
ENDBRANCH  18  21
ENDBRANCH  15  18
ENDBRANCH  10  11
ENDBRANCH   9  10
ENDBRANCH   1   9
BRANCH   1  27
HETATM   27  N4  UNL     1      -2.276   0.018   0.251  1.00  0.00    -0.348 N 
HETATM   28  C21 UNL     1      -1.914   1.051  -0.626  1.00  0.00     0.252 C 
HETATM   29  O3  UNL     1      -1.514   0.806  -1.808  1.00  0.00    -0.268 OA
ATOM     30  H4  UNL     1      -2.594   0.275   1.186  1.00  0.00     0.163 HD
BRANCH  28  31
HETATM   31  C22 UNL     1      -1.972   2.460  -0.235  1.00  0.00     0.034 A 
HETATM   32  C23 UNL     1      -1.685   3.457  -1.139  1.00  0.00     0.036 A 
HETATM   33  C24 UNL     1      -1.718   4.808  -0.837  1.00  0.00     0.013 A 
HETATM   34 BR1  UNL     1      -1.319   6.169  -2.091  1.00  0.00    -0.051 Br
HETATM   35  C25 UNL     1      -2.062   5.182   0.456  1.00  0.00     0.038 A 
HETATM   36  C26 UNL     1      -2.346   4.225   1.357  1.00  0.00     0.013 A 
HETATM   37 BR2  UNL     1      -2.823   4.712   3.142  1.00  0.00    -0.051 Br
HETATM   38  C27 UNL     1      -2.309   2.867   1.040  1.00  0.00     0.036 A 
ENDBRANCH  28  31
ENDBRANCH   1  27
TORSDOF 12
