REMARK  7 active torsions:
REMARK  status: ('A' for Active; 'I' for Inactive)
REMARK    1  A    between atoms: C3_3  and  N1_4 
REMARK    2  A    between atoms: C3_3  and  O1_18 
REMARK    3  A    between atoms: N1_4  and  C4_6 
REMARK    4  A    between atoms: C4_6  and  C6_8 
REMARK    5  A    between atoms: C6_8  and  N2_9 
REMARK    6  A    between atoms: N2_9  and  C7_12 
REMARK    7  A    between atoms: C7_12  and  N3_14 
ROOT
HETATM    1  C1  UNL     1       3.978  -0.937   2.677  1.00  0.00     0.016 C 
HETATM    2  C2  UNL     1       3.276  -0.604   1.758  1.00  0.00    -0.064 C 
HETATM    3  C3  UNL     1       2.359  -0.166   0.617  1.00  0.00     0.297 C 
ENDROOT
BRANCH   3   4
HETATM    4  N1  UNL     1       1.498  -1.220   0.393  1.00  0.00    -0.382 N 
ATOM      5  H1  UNL     1       1.818  -2.150   0.664  1.00  0.00     0.157 HD
BRANCH   4   6
HETATM    6  C4  UNL     1       0.233  -1.122  -0.170  1.00  0.00     0.101 C 
HETATM    7  C5  UNL     1       0.309  -0.668  -1.612  1.00  0.00     0.033 C 
BRANCH   6   8
HETATM    8  C6  UNL     1      -0.724  -0.176   0.538  1.00  0.00     0.259 C 
BRANCH   8   9
HETATM    9  N2  UNL     1      -1.974  -0.283  -0.254  1.00  0.00    -0.045 N 
ATOM     10  H22 UNL     1      -1.802  -0.131  -1.248  1.00  0.00     0.279 HD
ATOM     11  H21 UNL     1      -2.308  -1.246  -0.298  1.00  0.00     0.279 HD
BRANCH   9  12
HETATM   12  C7  UNL     1      -2.994   0.609   0.250  1.00  0.00     0.376 C 
HETATM   13  C8  UNL     1      -4.307  -0.123   0.234  1.00  0.00     0.071 C 
BRANCH  12  14
HETATM   14  N3  UNL     1      -3.092   1.728  -0.658  1.00  0.00    -0.051 N 
ATOM     15  H33 UNL     1      -2.198   2.195  -0.808  1.00  0.00     0.276 HD
ATOM     16  H32 UNL     1      -3.259   1.441  -1.622  1.00  0.00     0.276 HD
ATOM     17  H31 UNL     1      -3.812   2.357  -0.302  1.00  0.00     0.276 HD
ENDBRANCH  12  14
ENDBRANCH   9  12
ENDBRANCH   8   9
ENDBRANCH   6   8
ENDBRANCH   4   6
ENDBRANCH   3   4
BRANCH   3  18
HETATM   18  O1  UNL     1       3.275  -0.046  -0.453  1.00  0.00    -0.361 OA
HETATM   19  C9  UNL     1       3.613   1.314  -0.627  1.00  0.00     0.205 C 
ENDBRANCH   3  18
TORSDOF 7
