REMARK  6 active torsions:
REMARK  status: ('A' for Active; 'I' for Inactive)
REMARK    1  A    between atoms: N1_2  and  C2_5 
REMARK    2  A    between atoms: C2_5  and  C3_6 
REMARK    3  A    between atoms: C3_6  and  N2_7 
REMARK    4  A    between atoms: N2_7  and  C5_9 
REMARK    5  A    between atoms: C5_9  and  C6_10 
REMARK    6  A    between atoms: C7_13  and  N4_14 
ROOT
HETATM    1  C6  UNL     1      -2.117   0.423  -0.063  1.00  0.00     0.140 A 
HETATM    2  N3  UNL     1      -3.115   0.688  -0.911  1.00  0.00    -0.176 N 
ATOM      3  H3  UNL     1      -3.006   1.113  -1.832  1.00  0.00     0.185 HD
HETATM    4  C7  UNL     1      -4.286   0.309  -0.365  1.00  0.00     0.691 A 
HETATM    5  N5  UNL     1      -4.004  -0.202   0.850  1.00  0.00    -0.131 N 
ATOM      6  H5  UNL     1      -4.676  -0.578   1.519  1.00  0.00     0.205 HD
HETATM    7  N6  UNL     1      -2.693  -0.125   1.014  1.00  0.00    -0.273 N 
ATOM      8  H6  UNL     1      -2.192  -0.439   1.845  1.00  0.00     0.189 HD
ENDROOT
BRANCH   1   9
HETATM    9  C5  UNL     1      -0.664   0.689  -0.281  1.00  0.00     0.350 C 
BRANCH   9  10
HETATM   10  N2  UNL     1       0.017  -0.419  -0.858  1.00  0.00     0.092 N 
HETATM   11  C4  UNL     1      -0.224  -1.670  -0.186  1.00  0.00     0.310 C 
BRANCH  10  12
HETATM   12  C3  UNL     1       1.391  -0.122  -1.065  1.00  0.00     0.299 C 
BRANCH  12  13
HETATM   13  C2  UNL     1       2.185   0.170   0.187  1.00  0.00     0.262 C 
BRANCH  13  14
HETATM   14  N1  UNL     1       3.562   0.435  -0.268  1.00  0.00    -0.077 N 
HETATM   15  C1  UNL     1       4.418   0.735   0.857  1.00  0.00     0.267 C 
ATOM     16  H12 UNL     1       3.593   1.170  -0.975  1.00  0.00     0.276 HD
ATOM     17  H11 UNL     1       3.930  -0.332  -0.830  1.00  0.00     0.276 HD
ENDBRANCH  13  14
ENDBRANCH  12  13
ENDBRANCH  10  12
ENDBRANCH   9  10
ENDBRANCH   1   9
BRANCH   4  18
HETATM   18  N4  UNL     1      -5.471   0.399  -0.870  1.00  0.00    -0.233 N 
ATOM     19  H42 UNL     1      -5.684   0.786  -1.789  1.00  0.00     0.174 HD
ATOM     20  H41 UNL     1      -6.358   0.112  -0.456  1.00  0.00     0.174 HD
ENDBRANCH   4  18
TORSDOF 6
