REMARK  5 active torsions:
REMARK  status: ('A' for Active; 'I' for Inactive)
REMARK    1  A    between atoms: C2_2  and  C3_3 
REMARK    2  A    between atoms: C3_3  and  C4_4 
REMARK    3  A    between atoms: C4_4  and  N1_5 
REMARK    4  A    between atoms: N1_5  and  C5_7 
REMARK    5  A    between atoms: N2_8  and  N3_10 
ROOT
HETATM    1  N3  UNL     1      -0.961   0.024  -0.979  1.00  0.00    -0.269 N 
ATOM      2  H3  UNL     1      -0.680  -0.023  -1.959  1.00  0.00     0.190 HD
HETATM    3  C6  UNL     1      -2.206   0.144  -0.650  1.00  0.00     0.209 C 
HETATM    4  N4  UNL     1      -2.613   0.212   0.722  1.00  0.00    -0.358 N 
ATOM      5  H4  UNL     1      -1.982   0.003   1.496  1.00  0.00     0.162 HD
HETATM    6  C7  UNL     1      -4.003   0.604   0.920  1.00  0.00     0.144 C 
HETATM    7  C8  UNL     1      -4.891  -0.228   0.030  1.00  0.00     0.159 C 
HETATM    8  N5  UNL     1      -4.480  -0.308  -1.330  1.00  0.00    -0.332 N 
ATOM      9  H5  UNL     1      -5.070  -0.730  -2.047  1.00  0.00     0.180 HD
HETATM   10  N6  UNL     1      -3.239   0.217  -1.623  1.00  0.00    -0.274 N 
ATOM     11  H6  UNL     1      -3.064   0.653  -2.528  1.00  0.00     0.189 HD
ENDROOT
BRANCH   1  12
HETATM   12  N2  UNL     1      -0.022  -0.039   0.031  1.00  0.00    -0.294 N 
HETATM   13  C5  UNL     1       1.211   0.305  -0.101  1.00  0.00     0.192 C 
ATOM     14  H2  UNL     1      -0.326  -0.381   0.943  1.00  0.00     0.187 HD
BRANCH  13  15
HETATM   15  N1  UNL     1       2.082   0.196   1.012  1.00  0.00    -0.385 N 
ATOM     16  H1  UNL     1       2.171   0.948   1.695  1.00  0.00     0.160 HD
BRANCH  15  17
HETATM   17  C4  UNL     1       2.846  -1.041   1.137  1.00  0.00     0.124 C 
BRANCH  17  18
HETATM   18  C3  UNL     1       3.846  -1.028  -0.027  1.00  0.00     0.046 C 
BRANCH  18  19
HETATM   19  C2  UNL     1       4.682   0.180   0.143  1.00  0.00    -0.035 C 
HETATM   20  C1  UNL     1       4.747   1.147  -0.757  1.00  0.00     0.007 C 
ENDBRANCH  18  19
ENDBRANCH  17  18
ENDBRANCH  15  17
ENDBRANCH  13  15
ENDBRANCH   1  12
TORSDOF 5
