REMARK  6 active torsions:
REMARK  status: ('A' for Active; 'I' for Inactive)
REMARK    1  A    between atoms: N1_2  and  C2_4 
REMARK    2  A    between atoms: C2_4  and  C3_5 
REMARK    3  A    between atoms: C3_5  and  C4_6 
REMARK    4  A    between atoms: C4_6  and  C5_7 
REMARK    5  A    between atoms: C8_13  and  C9_14 
REMARK    6  A    between atoms: C9_14  and  N3_15 
ROOT
HETATM    1  C5  UNL     1      -0.153  -0.651  -0.623  1.00  0.00     0.212 C 
HETATM    2  C6  UNL     1      -0.814  -1.786   0.089  1.00  0.00     0.265 C 
HETATM    3  N2  UNL     1      -2.148  -2.039  -0.341  1.00  0.00    -0.071 N 
ATOM      4  H21 UNL     1      -2.664  -2.591   0.345  1.00  0.00     0.277 HD
ATOM      5  H22 UNL     1      -2.171  -2.696  -1.121  1.00  0.00     0.277 HD
HETATM    6  C7  UNL     1      -2.840  -0.809  -0.662  1.00  0.00     0.267 C 
HETATM    7  C8  UNL     1      -2.149   0.305   0.085  1.00  0.00     0.237 C 
HETATM    8  N4  UNL     1      -0.921   0.575  -0.647  1.00  0.00    -0.062 N 
ATOM      9  H41 UNL     1      -1.082   0.933  -1.588  1.00  0.00     0.278 HD
ATOM     10  H42 UNL     1      -0.407   1.381  -0.291  1.00  0.00     0.278 HD
ENDROOT
BRANCH   1  11
HETATM   11  C4  UNL     1       1.167  -0.300   0.047  1.00  0.00     0.040 C 
BRANCH  11  12
HETATM   12  C3  UNL     1       1.796   0.826  -0.678  1.00  0.00     0.046 C 
BRANCH  12  13
HETATM   13  C2  UNL     1       3.083   1.351  -0.174  1.00  0.00     0.055 C 
BRANCH  13  14
HETATM   14  N1  UNL     1       4.199   0.493  -0.112  1.00  0.00    -0.406 N 
HETATM   15  C1  UNL     1       4.162  -0.537   0.860  1.00  0.00     0.145 C 
ATOM     16  H1  UNL     1       4.996   0.608  -0.738  1.00  0.00     0.158 HD
ENDBRANCH  13  14
ENDBRANCH  12  13
ENDBRANCH  11  12
ENDBRANCH   1  11
BRANCH   7  17
HETATM   17  C9  UNL     1      -3.030   1.505   0.196  1.00  0.00     0.264 C 
BRANCH  17  18
HETATM   18  N3  UNL     1      -4.227   1.131   0.909  1.00  0.00    -0.077 N 
ATOM     19  H33 UNL     1      -4.702   0.335   0.485  1.00  0.00     0.274 HD
ATOM     20  H32 UNL     1      -4.026   0.708   1.815  1.00  0.00     0.274 HD
ATOM     21  H31 UNL     1      -4.829   1.951   0.985  1.00  0.00     0.274 HD
ENDBRANCH  17  18
ENDBRANCH   7  17
TORSDOF 6
