REMARK  7 active torsions:
REMARK  status: ('A' for Active; 'I' for Inactive)
REMARK       I    between atoms: C1_2  and  N3_7 
REMARK    1  A    between atoms: N2_3  and  O1_5 
REMARK    2  A    between atoms: N3_7  and  C2_9 
REMARK    3  A    between atoms: N5_15  and  S1_16 
REMARK    4  A    between atoms: C5_20  and  C6_21 
REMARK    5  A    between atoms: C5_20  and  C7_24 
REMARK    6  A    between atoms: C8_30  and  C9_31 
REMARK    7  A    between atoms: C10_40  and  O10_41 
ROOT
HETATM    1  C2  UNL     1       1.697  -0.314   0.771  1.00  0.00     0.218 C 
HETATM    2  N4  UNL     1       1.461  -0.891  -0.539  1.00  0.00    -0.336 N 
ATOM      3  H4  UNL     1       1.898  -1.773  -0.806  1.00  0.00     0.164 HD
HETATM    4  C3  UNL     1       0.608  -0.202  -1.443  1.00  0.00     0.246 C 
HETATM    5  O2  UNL     1       0.976   0.008  -2.644  1.00  0.00    -0.271 OA
HETATM    6  C4  UNL     1      -0.693   0.237  -0.883  1.00  0.00     0.240 C 
HETATM    7  N5  UNL     1      -1.573  -0.795  -0.493  1.00  0.00    -0.222 N 
HETATM    8  C5  UNL     1      -2.441  -0.384   0.478  1.00  0.00     0.388 C 
HETATM    9  N6  UNL     1      -1.617   0.533   1.299  1.00  0.00    -0.005 N 
ATOM     10  H61 UNL     1      -1.311   0.123   2.181  1.00  0.00     0.283 HD
ATOM     11  H62 UNL     1      -2.147   1.307   1.699  1.00  0.00     0.283 HD
HETATM   12  C8  UNL     1      -0.518   0.963   0.448  1.00  0.00     0.248 C 
HETATM   13  C10 UNL     1       0.827   0.856   1.059  1.00  0.00     0.207 C 
ENDROOT
BRANCH  12  14
HETATM   14  C9  UNL     1      -0.727   2.437   0.235  1.00  0.00     0.155 A 
HETATM   15  N7  UNL     1      -1.533   3.219   0.938  1.00  0.00    -0.270 N 
HETATM   16  N8  UNL     1      -1.481   4.459   0.502  1.00  0.00    -0.227 N 
ATOM     17  H7  UNL     1      -2.115   2.902   1.713  1.00  0.00     0.190 HD
HETATM   18  N9  UNL     1      -0.602   4.459  -0.527  1.00  0.00    -0.227 N 
ATOM     19  H8  UNL     1      -1.999   5.259   0.866  1.00  0.00     0.210 HD
HETATM   20  N10 UNL     1      -0.161   3.225  -0.670  1.00  0.00    -0.270 N 
ATOM     21  H9  UNL     1      -0.331   5.266  -1.089  1.00  0.00     0.210 HD
ATOM     22  H10 UNL     1       0.514   2.921  -1.371  1.00  0.00     0.190 HD
ENDBRANCH  12  14
BRANCH  13  23
HETATM   23  O10 UNL     1       1.535   2.049   0.710  1.00  0.00    -0.389 OA
ATOM     24  H10 UNL     1       0.979   2.797   0.894  1.00  0.00     0.210 HD
ENDBRANCH  13  23
BRANCH   7  25
HETATM   25  S1  UNL     1      -1.739  -2.169  -1.361  1.00  0.00     0.210 S 
HETATM   26  O3  UNL     1      -1.371  -3.425  -0.591  1.00  0.00    -0.578 OA
HETATM   27  O4  UNL     1      -0.833  -2.180  -2.587  1.00  0.00    -0.578 OA
HETATM   28  O5  UNL     1      -3.282  -2.396  -1.982  1.00  0.00    -0.578 OA
ENDBRANCH   7  25
BRANCH   8  29
HETATM   29  C6  UNL     1      -3.054  -1.412   1.351  1.00  0.00     0.245 C 
HETATM   30  O6  UNL     1      -2.906  -1.273   2.604  1.00  0.00    -0.644 OA
HETATM   31  O7  UNL     1      -3.772  -2.505   0.926  1.00  0.00    -0.644 OA
ENDBRANCH   8  29
BRANCH   8  32
HETATM   32  C7  UNL     1      -3.590   0.366  -0.103  1.00  0.00     0.245 C 
HETATM   33  O8  UNL     1      -4.234   1.185   0.576  1.00  0.00    -0.644 OA
HETATM   34  O9  UNL     1      -3.961   0.175  -1.411  1.00  0.00    -0.644 OA
ENDBRANCH   8  32
BRANCH   1  35
HETATM   35  N3  UNL     1       3.075   0.143   0.808  1.00  0.00    -0.339 N 
HETATM   36  C1  UNL     1       4.240  -0.561   0.525  1.00  0.00     0.209 C 
HETATM   37  N1  UNL     1       4.344  -1.541  -0.478  1.00  0.00    -0.062 NA
HETATM   38  N2  UNL     1       5.293  -0.288   1.211  1.00  0.00    -0.241 N 
ATOM     39  H2  UNL     1       5.260   0.415   1.950  1.00  0.00     0.197 HD
ATOM     40  H3  UNL     1       3.207   1.117   1.080  1.00  0.00     0.164 HD
BRANCH  38  41
HETATM   41  O1  UNL     1       6.454  -0.950   0.938  1.00  0.00    -0.287 OA
ATOM     42  H1  UNL     1       7.232  -0.748   1.445  1.00  0.00     0.244 HD
ENDBRANCH  38  41
ENDBRANCH   1  35
TORSDOF 7
