REMARK  11 active torsions:
REMARK  status: ('A' for Active; 'I' for Inactive)
REMARK    1  A    between atoms: N1_1  and  C1_4 
REMARK    2  A    between atoms: C2_10  and  N4_11 
REMARK       I    between atoms: N4_11  and  C3_13 
REMARK    3  A    between atoms: C3_13  and  C4_15 
REMARK    4  A    between atoms: C4_15  and  C5_16 
REMARK    5  A    between atoms: C5_16  and  N5_17 
REMARK    6  A    between atoms: C5_16  and  O3_21 
REMARK    7  A    between atoms: C7_27  and  C8_28 
REMARK    8  A    between atoms: C10_32  and  C11_33 
REMARK    9  A    between atoms: C11_33  and  S2_34 
REMARK   10  A    between atoms: S2_34  and  N7_35 
REMARK   11  A    between atoms: C13_42  and  O9_43 
ROOT
HETATM    1  C4  UNL     1      -1.332  -0.992   0.505  1.00  0.00     0.172 C 
HETATM    2  S1  UNL     1      -0.201  -1.509   1.827  1.00  0.00    -0.100 SA
HETATM    3  C6  UNL     1       0.941  -1.246   0.447  1.00  0.00     0.171 C 
HETATM    4  N6  UNL     1       1.834  -2.336   0.235  1.00  0.00    -0.379 N 
ATOM      5  H6  UNL     1       1.696  -3.240   0.686  1.00  0.00     0.156 HD
HETATM    6  C7  UNL     1       2.922  -2.095  -0.636  1.00  0.00     0.204 C 
HETATM    7  C9  UNL     1       3.236  -0.707  -0.928  1.00  0.00     0.020 C 
HETATM    8  C10 UNL     1       2.672   0.368  -0.348  1.00  0.00     0.006 C 
HETATM    9  C12 UNL     1       1.636   0.054   0.621  1.00  0.00     0.197 C 
HETATM   10  O8  UNL     1       1.374   0.845   1.525  1.00  0.00    -0.289 OA
HETATM   11  C13 UNL     1      -0.242  -1.247  -0.484  1.00  0.00     0.197 C 
ENDROOT
BRANCH   1  12
HETATM   12  C3  UNL     1      -1.764   0.424   0.591  1.00  0.00     0.249 C 
HETATM   13  N4  UNL     1      -2.510   0.957   1.636  1.00  0.00    -0.307 N 
ATOM     14  H4  UNL     1      -2.086   0.815   2.553  1.00  0.00     0.170 HD
HETATM   15  O2  UNL     1      -1.426   1.192  -0.350  1.00  0.00    -0.271 OA
BRANCH  13  16
HETATM   16  C2  UNL     1      -3.592   1.573   1.679  1.00  0.00     0.176 A 
HETATM   17  C1  UNL     1      -4.432   1.941   0.667  1.00  0.00     0.167 A 
HETATM   18  N2  UNL     1      -5.481   2.595   1.246  1.00  0.00    -0.222 N 
HETATM   19  O1  UNL     1      -5.276   2.614   2.509  1.00  0.00    -0.153 OA
ATOM     20  H2  UNL     1      -6.283   2.996   0.760  1.00  0.00     0.198 HD
HETATM   21  N3  UNL     1      -4.164   2.018   2.821  1.00  0.00    -0.222 N 
ATOM     22  H3  UNL     1      -3.788   1.905   3.763  1.00  0.00     0.198 HD
BRANCH  17  23
HETATM   23  N1  UNL     1      -4.336   1.754  -0.581  1.00  0.00    -0.381 N 
ATOM     24  H12 UNL     1      -4.963   2.029  -1.337  1.00  0.00     0.157 HD
ATOM     25  H11 UNL     1      -3.552   1.265  -1.014  1.00  0.00     0.157 HD
ENDBRANCH  17  23
ENDBRANCH  13  16
ENDBRANCH   1  12
BRANCH   1  26
HETATM   26  C5  UNL     1      -2.513  -1.915   0.451  1.00  0.00     0.347 C 
BRANCH  26  27
HETATM   27  N5  UNL     1      -2.094  -3.303   0.371  1.00  0.00    -0.051 N 
ATOM     28  H53 UNL     1      -1.461  -3.458  -0.414  1.00  0.00     0.277 HD
ATOM     29  H52 UNL     1      -1.462  -3.548   1.133  1.00  0.00     0.277 HD
ATOM     30  H51 UNL     1      -2.897  -3.931   0.334  1.00  0.00     0.277 HD
ENDBRANCH  26  27
BRANCH  26  31
HETATM   31  O3  UNL     1      -3.306  -1.621  -0.670  1.00  0.00    -0.368 OA
ATOM     32  H3  UNL     1      -4.054  -2.206  -0.704  1.00  0.00     0.212 HD
ENDBRANCH  26  31
ENDBRANCH   1  26
BRANCH  11  33
HETATM   33  O9  UNL     1      -0.054  -0.330  -1.492  1.00  0.00    -0.389 OA
ATOM     34  H9  UNL     1       0.639  -0.492  -2.121  1.00  0.00     0.210 HD
ENDBRANCH  11  33
BRANCH   6  35
HETATM   35  C8  UNL     1       2.843  -2.838  -1.919  1.00  0.00     0.200 C 
HETATM   36  O4  UNL     1       1.877  -3.601  -2.151  1.00  0.00    -0.646 OA
HETATM   37  O5  UNL     1       3.816  -2.721  -2.893  1.00  0.00    -0.646 OA
ENDBRANCH   6  35
BRANCH   8  38
HETATM   38  C11 UNL     1       3.107   1.698  -0.758  1.00  0.00     0.205 C 
BRANCH  38  39
HETATM   39  S2  UNL     1       3.854   2.713   0.452  1.00  0.00     0.228 S 
HETATM   40  O6  UNL     1       3.008   3.046   1.629  1.00  0.00    -0.206 OA
HETATM   41  O7  UNL     1       5.138   2.035   0.902  1.00  0.00    -0.206 OA
BRANCH  39  42
HETATM   42  N7  UNL     1       4.332   4.254  -0.254  1.00  0.00    -0.328 N 
ATOM     43  H72 UNL     1       4.186   4.504  -1.232  1.00  0.00     0.168 HD
ATOM     44  H71 UNL     1       4.768   4.847   0.452  1.00  0.00     0.168 HD
ENDBRANCH  39  42
ENDBRANCH  38  39
ENDBRANCH   8  38
TORSDOF 11
