REMARK  8 active torsions:
REMARK  status: ('A' for Active; 'I' for Inactive)
REMARK    1  A    between atoms: N1_1  and  C1_5 
REMARK    2  A    between atoms: C1_5  and  C2_6 
REMARK    3  A    between atoms: C2_6  and  C3_7 
REMARK    4  A    between atoms: C3_7  and  C4_8 
REMARK    5  A    between atoms: C7_14  and  C8_15 
REMARK    6  A    between atoms: C8_15  and  N3_16 
REMARK    7  A    between atoms: C15_38  and  C16_39 
REMARK    8  A    between atoms: C16_39  and  N10_40 
ROOT
HETATM    1  C4  UNL     1      -2.531   0.410  -0.317  1.00  0.00     0.169 C 
HETATM    2  N2  UNL     1      -1.404   1.222  -0.645  1.00  0.00    -0.407 N 
ATOM      3  H2  UNL     1      -0.789   1.012  -1.432  1.00  0.00     0.154 HD
HETATM    4  C5  UNL     1      -1.198   2.353   0.210  1.00  0.00     0.141 C 
HETATM    5  C6  UNL     1       0.151   2.955  -0.122  1.00  0.00     0.188 C 
HETATM    6  O1  UNL     1       1.045   1.930  -0.291  1.00  0.00    -0.373 OA
HETATM    7  C7  UNL     1       2.131   2.288  -1.104  1.00  0.00     0.238 C 
HETATM    8  C9  UNL     1       2.882   1.133  -1.622  1.00  0.00     0.249 C 
HETATM    9  O2  UNL     1       2.283   0.565  -2.621  1.00  0.00    -0.271 OA
HETATM   10  N4  UNL     1       4.089   0.574  -1.227  1.00  0.00    -0.336 N 
ATOM     11  H4  UNL     1       4.809   0.584  -1.950  1.00  0.00     0.164 HD
HETATM   12  C10 UNL     1       4.511  -0.015   0.009  1.00  0.00     0.236 C 
HETATM   13  N5  UNL     1       5.156   0.894   0.926  1.00  0.00    -0.101 NA
HETATM   14  N6  UNL     1       4.982   0.332   2.173  1.00  0.00    -0.036 NA
HETATM   15  N7  UNL     1       3.795  -0.361   2.184  1.00  0.00    -0.101 NA
HETATM   16  C11 UNL     1       3.462  -0.701   0.816  1.00  0.00     0.236 C 
HETATM   17  N8  UNL     1       3.538  -2.147   0.670  1.00  0.00    -0.337 N 
ATOM     18  H8  UNL     1       4.439  -2.552   0.418  1.00  0.00     0.164 HD
HETATM   19  C12 UNL     1       2.449  -3.027   0.854  1.00  0.00     0.236 C 
HETATM   20  O3  UNL     1       2.699  -4.164   1.332  1.00  0.00    -0.272 OA
HETATM   21  C13 UNL     1       1.042  -2.706   0.525  1.00  0.00     0.225 C 
HETATM   22  N9  UNL     1       0.861  -2.714  -0.935  1.00  0.00    -0.350 N 
ATOM     23  H9  UNL     1       1.623  -3.029  -1.535  1.00  0.00     0.163 HD
HETATM   24  C14 UNL     1      -0.358  -2.290  -1.519  1.00  0.00     0.242 C 
HETATM   25  O4  UNL     1      -0.286  -1.667  -2.609  1.00  0.00    -0.271 OA
HETATM   26  C15 UNL     1      -1.694  -2.528  -0.943  1.00  0.00     0.202 C 
HETATM   27  N11 UNL     1      -1.882  -1.982   0.365  1.00  0.00    -0.344 N 
ATOM     28  H11 UNL     1      -1.860  -2.632   1.150  1.00  0.00     0.163 HD
HETATM   29  C17 UNL     1      -2.096  -0.618   0.661  1.00  0.00     0.240 C 
HETATM   30  O5  UNL     1      -1.906  -0.235   1.843  1.00  0.00    -0.271 OA
ENDROOT
BRANCH   1  31
HETATM   31  C3  UNL     1      -3.625   1.297   0.255  1.00  0.00     0.036 C 
BRANCH  31  32
HETATM   32  C2  UNL     1      -4.808   0.406   0.593  1.00  0.00     0.030 C 
BRANCH  32  33
HETATM   33  C1  UNL     1      -5.950   1.210   1.172  1.00  0.00     0.230 C 
BRANCH  33  34
HETATM   34  N1  UNL     1      -5.585   1.899   2.384  1.00  0.00    -0.079 N 
ATOM     35  H13 UNL     1      -5.207   1.250   3.074  1.00  0.00     0.274 HD
ATOM     36  H12 UNL     1      -4.762   2.484   2.239  1.00  0.00     0.274 HD
ATOM     37  H11 UNL     1      -6.355   2.441   2.775  1.00  0.00     0.274 HD
ENDBRANCH  33  34
ENDBRANCH  32  33
ENDBRANCH  31  32
ENDBRANCH   1  31
BRANCH  26  38
HETATM   38  C16 UNL     1      -2.018  -4.029  -0.907  1.00  0.00     0.264 C 
BRANCH  38  39
HETATM   39  N10 UNL     1      -3.331  -4.250  -0.340  1.00  0.00    -0.077 N 
ATOM     40 3H10 UNL     1      -3.424  -3.820   0.580  1.00  0.00     0.274 HD
ATOM     41 2H10 UNL     1      -4.050  -3.718  -0.830  1.00  0.00     0.274 HD
ATOM     42 1H10 UNL     1      -3.546  -5.247  -0.316  1.00  0.00     0.274 HD
ENDBRANCH  38  39
ENDBRANCH  26  38
BRANCH   7  43
HETATM   43  C8  UNL     1       2.917   3.321  -0.372  1.00  0.00     0.271 C 
BRANCH  43  44
HETATM   44  N3  UNL     1       4.081   3.778  -1.114  1.00  0.00    -0.076 N 
ATOM     45  H33 UNL     1       4.673   2.992  -1.383  1.00  0.00     0.274 HD
ATOM     46  H32 UNL     1       3.815   4.111  -2.041  1.00  0.00     0.274 HD
ATOM     47  H31 UNL     1       4.619   4.485  -0.613  1.00  0.00     0.274 HD
ENDBRANCH  43  44
ENDBRANCH   7  43
TORSDOF 8
