REMARK  9 active torsions:
REMARK  status: ('A' for Active; 'I' for Inactive)
REMARK    1  A    between atoms: N1_1  and  N2_4 
REMARK    2  A    between atoms: N2_4  and  N3_5 
REMARK       I    between atoms: N3_5  and  C1_7 
REMARK    3  A    between atoms: C1_7  and  C2_9 
REMARK    4  A    between atoms: C3_11  and  O3_12 
REMARK    5  A    between atoms: C4_14  and  N4_15 
REMARK       I    between atoms: N4_15  and  C5_17 
REMARK    6  A    between atoms: C5_17  and  C6_19 
REMARK    7  A    between atoms: C6_19  and  N5_20 
REMARK    8  A    between atoms: C6_19  and  C7_24 
REMARK    9  A    between atoms: C10_29  and  C11_30 
ROOT
HETATM    1  N4  UNL     1      -0.829  -1.557  -0.054  1.00  0.00    -0.334 N 
ATOM      2  H4  UNL     1      -0.503  -2.513   0.089  1.00  0.00     0.164 HD
HETATM    3  C5  UNL     1       0.059  -0.576  -0.544  1.00  0.00     0.251 C 
HETATM    4  O4  UNL     1      -0.361   0.592  -0.715  1.00  0.00    -0.271 OA
ENDROOT
BRANCH   1   5
HETATM    5  C4  UNL     1      -2.186  -1.213   0.242  1.00  0.00     0.242 C 
HETATM    6  C3  UNL     1      -3.063  -2.009  -0.742  1.00  0.00     0.301 C 
HETATM    7  O2  UNL     1      -4.389  -1.725  -0.561  1.00  0.00    -0.333 OA
HETATM    8  C2  UNL     1      -4.902  -1.888   0.688  1.00  0.00     0.309 C 
HETATM    9  C13 UNL     1      -3.923  -1.986   1.782  1.00  0.00     0.258 C 
HETATM   10  N7  UNL     1      -2.568  -1.704   1.544  1.00  0.00    -0.333 N 
HETATM   11  O8  UNL     1      -4.253  -2.320   2.944  1.00  0.00    -0.270 OA
ATOM     12  H7  UNL     1      -1.870  -1.843   2.275  1.00  0.00     0.164 HD
BRANCH   6  13
HETATM   13  O3  UNL     1      -2.683  -1.607  -2.023  1.00  0.00    -0.367 OA
ATOM     14  H3  UNL     1      -1.762  -1.804  -2.149  1.00  0.00     0.212 HD
ENDBRANCH   6  13
BRANCH   8  15
HETATM   15  C1  UNL     1      -5.767  -0.696   1.022  1.00  0.00     0.273 C 
HETATM   16  N3  UNL     1      -5.917   0.337   0.062  1.00  0.00    -0.252 N 
ATOM     17  H3  UNL     1      -5.439   0.256  -0.835  1.00  0.00     0.187 HD
HETATM   18  O1  UNL     1      -6.349  -0.614   2.136  1.00  0.00    -0.269 OA
BRANCH  16  19
HETATM   19  N2  UNL     1      -6.701   1.459   0.315  1.00  0.00    -0.027 NA
BRANCH  19  20
HETATM   20  N1  UNL     1      -6.084   2.654  -0.024  1.00  0.00    -0.329 N 
ATOM     21  H12 UNL     1      -5.145   2.690  -0.420  1.00  0.00     0.174 HD
ATOM     22  H11 UNL     1      -6.658   3.476   0.161  1.00  0.00     0.174 HD
ENDBRANCH  19  20
ENDBRANCH  16  19
ENDBRANCH   8  15
ENDBRANCH   1   5
BRANCH   3  23
HETATM   23  C6  UNL     1       1.465  -0.935  -0.852  1.00  0.00     0.288 C 
BRANCH  23  24
HETATM   24  N5  UNL     1       1.756  -2.304  -0.496  1.00  0.00    -0.066 N 
ATOM     25  H53 UNL     1       1.530  -2.491   0.481  1.00  0.00     0.275 HD
ATOM     26  H52 UNL     1       1.102  -2.950  -0.937  1.00  0.00     0.275 HD
ATOM     27  H51 UNL     1       2.723  -2.551  -0.708  1.00  0.00     0.275 HD
ENDBRANCH  23  24
BRANCH  23  28
HETATM   28  C7  UNL     1       2.382   0.052  -0.215  1.00  0.00     0.127 C 
HETATM   29  C8  UNL     1       2.257   0.112   1.287  1.00  0.00     0.103 C 
HETATM   30  S1  UNL     1       2.818   1.756   1.873  1.00  0.00    -0.097 SA
HETATM   31  S2  UNL     1       3.205   3.038   0.226  1.00  0.00    -0.095 SA
HETATM   32  C9  UNL     1       4.962   2.999  -0.219  1.00  0.00     0.122 C 
HETATM   33  C10 UNL     1       5.536   1.678   0.229  1.00  0.00     0.195 C 
HETATM   34  N6  UNL     1       4.973   0.591  -0.539  1.00  0.00    -0.345 N 
HETATM   35  C12 UNL     1       3.794  -0.175  -0.571  1.00  0.00     0.225 C 
ATOM     36  H6  UNL     1       5.618   0.293  -1.270  1.00  0.00     0.163 HD
HETATM   37  O7  UNL     1       3.970  -1.360  -1.012  1.00  0.00    -0.273 OA
BRANCH  33  38
HETATM   38  C11 UNL     1       7.022   1.678   0.168  1.00  0.00     0.197 C 
HETATM   39  O5  UNL     1       7.572   0.767  -0.510  1.00  0.00    -0.646 OA
HETATM   40  O6  UNL     1       7.821   2.596   0.796  1.00  0.00    -0.646 OA
ENDBRANCH  33  38
ENDBRANCH  23  28
ENDBRANCH   3  23
TORSDOF 9
