REMARK  9 active torsions:
REMARK  status: ('A' for Active; 'I' for Inactive)
REMARK    1  A    between atoms: C2_2  and  O1_3 
REMARK    2  A    between atoms: C2_2  and  C3_5 
REMARK    3  A    between atoms: C3_5  and  C4_7 
REMARK    4  A    between atoms: C4_7  and  N1_8 
REMARK    5  A    between atoms: N1_8  and  C5_11 
REMARK    6  A    between atoms: C5_11  and  N2_12 
REMARK    7  A    between atoms: C5_11  and  C6_16 
REMARK    8  A    between atoms: C13_29  and  N5_30 
REMARK    9  A    between atoms: C14_34  and  N6_35 
ROOT
HETATM    1  C6  UNL     1      -1.980  -0.001   1.026  1.00  0.00     0.136 C 
HETATM    2  C7  UNL     1      -1.618  -1.189   0.160  1.00  0.00     0.018 C 
HETATM    3  C8  UNL     1      -0.764  -2.108   1.029  1.00  0.00     0.002 C 
HETATM    4  C9  UNL     1      -0.063  -3.155   0.228  1.00  0.00     0.027 C 
HETATM    5  C10 UNL     1       1.402  -2.779   0.112  1.00  0.00     0.232 C 
HETATM    6  N3  UNL     1       1.975  -2.675   1.424  1.00  0.00    -0.074 N 
ATOM      7  H31 UNL     1       2.172  -3.601   1.803  1.00  0.00     0.277 HD
ATOM      8  H32 UNL     1       1.276  -2.359   2.096  1.00  0.00     0.277 HD
HETATM    9  C11 UNL     1       3.142  -1.848   1.487  1.00  0.00     0.259 C 
HETATM   10  C12 UNL     1       4.090  -2.076   0.340  1.00  0.00     0.262 C 
HETATM   11  N4  UNL     1       5.161  -1.112   0.448  1.00  0.00    -0.041 N 
ATOM     12  H41 UNL     1       5.841  -1.398   1.153  1.00  0.00     0.279 HD
ATOM     13  H42 UNL     1       4.833  -0.247   0.877  1.00  0.00     0.279 HD
HETATM   14  C13 UNL     1       5.804  -0.851  -0.814  1.00  0.00     0.429 C 
HETATM   15  C14 UNL     1       5.582   0.560  -1.301  1.00  0.00     0.342 C 
HETATM   16  N7  UNL     1       4.285   0.670  -1.909  1.00  0.00    -0.329 N 
ATOM     17  H7  UNL     1       3.931  -0.146  -2.408  1.00  0.00     0.164 HD
HETATM   18  C15 UNL     1       3.458   1.820  -1.872  1.00  0.00     0.237 C 
HETATM   19  O3  UNL     1       2.842   2.212  -2.902  1.00  0.00    -0.272 OA
HETATM   20  C16 UNL     1       3.241   2.653  -0.655  1.00  0.00     0.225 C 
HETATM   21  N8  UNL     1       1.968   3.341  -0.683  1.00  0.00    -0.351 N 
ATOM     22  H8  UNL     1       1.948   4.282  -0.290  1.00  0.00     0.163 HD
HETATM   23  C17 UNL     1       0.762   2.848  -1.194  1.00  0.00     0.235 C 
HETATM   24  O4  UNL     1       0.061   3.600  -1.946  1.00  0.00    -0.272 OA
HETATM   25  C18 UNL     1       0.208   1.488  -0.934  1.00  0.00     0.225 C 
HETATM   26  N9  UNL     1       0.258   1.143   0.464  1.00  0.00    -0.352 N 
ATOM     27  H9  UNL     1       1.185   1.075   0.883  1.00  0.00     0.162 HD
HETATM   28  C19 UNL     1      -0.835   0.890   1.312  1.00  0.00     0.226 C 
HETATM   29  O5  UNL     1      -0.848   1.485   2.445  1.00  0.00    -0.273 OA
ENDROOT
BRANCH   1  30
HETATM   30  C5  UNL     1      -3.185   0.749   0.484  1.00  0.00     0.393 C 
BRANCH  30  31
HETATM   31  N1  UNL     1      -4.308  -0.182   0.454  1.00  0.00    -0.039 N 
ATOM     32  H12 UNL     1      -4.491  -0.623   1.355  1.00  0.00     0.280 HD
ATOM     33  H11 UNL     1      -4.111  -1.036  -0.068  1.00  0.00     0.280 HD
BRANCH  31  34
HETATM   34  C4  UNL     1      -5.443   0.558  -0.064  1.00  0.00     0.315 C 
BRANCH  34  35
HETATM   35  C3  UNL     1      -6.661  -0.258  -0.151  1.00  0.00     0.180 C 
HETATM   36  O2  UNL     1      -6.651  -1.406   0.186  1.00  0.00    -0.293 OA
BRANCH  35  37
HETATM   37  C2  UNL     1      -7.911   0.355  -0.663  1.00  0.00     0.185 C 
HETATM   38  C1  UNL     1      -8.933   0.364   0.481  1.00  0.00     0.047 C 
BRANCH  37  39
HETATM   39  O1  UNL     1      -7.724   1.697  -1.007  1.00  0.00    -0.388 OA
ATOM     40  H1  UNL     1      -7.091   1.691  -1.715  1.00  0.00     0.210 HD
ENDBRANCH  37  39
ENDBRANCH  35  37
ENDBRANCH  34  35
ENDBRANCH  31  34
ENDBRANCH  30  31
BRANCH  30  41
HETATM   41  N2  UNL     1      -3.539   1.815   1.377  1.00  0.00    -0.049 N 
ATOM     42  H23 UNL     1      -4.422   2.263   1.133  1.00  0.00     0.276 HD
ATOM     43  H22 UNL     1      -3.809   1.486   2.304  1.00  0.00     0.276 HD
ATOM     44  H21 UNL     1      -2.754   2.466   1.398  1.00  0.00     0.276 HD
ENDBRANCH  30  41
ENDBRANCH   1  30
BRANCH  14  45
HETATM   45  N5  UNL     1       7.216  -1.166  -0.674  1.00  0.00    -0.046 N 
ATOM     46  H53 UNL     1       7.655  -0.671   0.102  1.00  0.00     0.276 HD
ATOM     47  H52 UNL     1       7.377  -2.116  -0.339  1.00  0.00     0.276 HD
ATOM     48  H51 UNL     1       7.671  -0.981  -1.568  1.00  0.00     0.276 HD
ENDBRANCH  14  45
BRANCH  15  49
HETATM   49  N6  UNL     1       5.796   1.501  -0.228  1.00  0.00    -0.054 N 
ATOM     50  H63 UNL     1       5.222   1.285   0.587  1.00  0.00     0.276 HD
ATOM     51  H62 UNL     1       6.715   1.387   0.200  1.00  0.00     0.276 HD
ATOM     52  H61 UNL     1       5.646   2.455  -0.557  1.00  0.00     0.276 HD
ENDBRANCH  15  49
TORSDOF 9
