REMARK  8 active torsions:
REMARK  status: ('A' for Active; 'I' for Inactive)
REMARK    1  A    between atoms: N1_1  and  C1_4 
REMARK    2  A    between atoms: N3_9  and  C3_10 
REMARK    3  A    between atoms: C4_14  and  C5_15 
REMARK    4  A    between atoms: C5_15  and  N5_16 
REMARK       I    between atoms: N5_16  and  C6_18 
REMARK    5  A    between atoms: C6_18  and  C7_20 
REMARK       I    between atoms: C7_20  and  N6_22 
REMARK    6  A    between atoms: C9_27  and  C10_28 
REMARK    7  A    between atoms: C13_36  and  O6_37 
REMARK    8  A    between atoms: C14_39  and  O7_40 
ROOT
HETATM    1  C3  UNL     1      -3.761  -0.303   0.788  1.00  0.00     0.344 C 
HETATM    2  N4  UNL     1      -2.642   0.639   0.982  1.00  0.00    -0.042 N 
ATOM      3  H41 UNL     1      -2.903   1.571   1.303  1.00  0.00     0.280 HD
ATOM      4  H42 UNL     1      -2.188   0.964   0.128  1.00  0.00     0.280 HD
HETATM    5  C4  UNL     1      -1.809  -0.112   1.877  1.00  0.00     0.237 C 
HETATM    6  C13 UNL     1      -1.885  -1.532   1.405  1.00  0.00     0.183 C 
HETATM    7  C14 UNL     1      -2.987  -1.508   0.330  1.00  0.00     0.200 C 
ENDROOT
BRANCH   5   8
HETATM    8  C5  UNL     1      -0.398   0.408   1.955  1.00  0.00     0.159 C 
BRANCH   8   9
HETATM    9  N5  UNL     1       0.271   0.376   0.673  1.00  0.00    -0.351 N 
HETATM   10  C6  UNL     1       1.612   0.829   0.605  1.00  0.00     0.310 C 
HETATM   11  O2  UNL     1       2.226   1.257   1.608  1.00  0.00    -0.262 OA
ATOM     12  H5  UNL     1      -0.210   0.036  -0.160  1.00  0.00     0.162 HD
BRANCH  10  13
HETATM   13  C7  UNL     1       2.296   0.793  -0.675  1.00  0.00     0.327 C 
HETATM   14  O3  UNL     1       1.673   0.370  -1.716  1.00  0.00    -0.261 OA
HETATM   15  N6  UNL     1       3.633   1.219  -0.769  1.00  0.00    -0.151 N 
HETATM   16  C8  UNL     1       4.604   0.504  -0.336  1.00  0.00     0.688 A 
ATOM     17  H6  UNL     1       3.836   2.124  -1.194  1.00  0.00     0.188 HD
HETATM   18  N7  UNL     1       5.895   0.947  -0.441  1.00  0.00    -0.186 N 
HETATM   19  N9  UNL     1       4.329  -0.689   0.212  1.00  0.00    -0.156 N 
HETATM   20  C9  UNL     1       6.908   0.203  -0.000  1.00  0.00     0.119 A 
ATOM     21  H7  UNL     1       6.083   1.857  -0.862  1.00  0.00     0.184 HD
HETATM   22  C11 UNL     1       6.644  -1.029   0.568  1.00  0.00     0.110 A 
HETATM   23  C12 UNL     1       5.333  -1.460   0.665  1.00  0.00     0.261 A 
HETATM   24  O5  UNL     1       5.062  -2.575   1.178  1.00  0.00    -0.268 OA
ATOM     25  H9  UNL     1       3.363  -1.010   0.285  1.00  0.00     0.187 HD
BRANCH  20  26
HETATM   26  C10 UNL     1       8.282   0.682  -0.125  1.00  0.00     0.282 C 
HETATM   27  N8  UNL     1       9.366  -0.098   0.329  1.00  0.00    -0.056 NA
HETATM   28  O4  UNL     1       8.491   1.816  -0.651  1.00  0.00    -0.269 OA
ENDBRANCH  20  26
ENDBRANCH  10  13
ENDBRANCH   8   9
ENDBRANCH   5   8
BRANCH   6  29
HETATM   29  O6  UNL     1      -0.716  -2.067   0.928  1.00  0.00    -0.391 OA
ATOM     30  H6  UNL     1      -0.764  -2.967   0.629  1.00  0.00     0.210 HD
ENDBRANCH   6  29
BRANCH   1  31
HETATM   31  N3  UNL     1      -4.748   0.196  -0.086  1.00  0.00    -0.095 N 
HETATM   32  C2  UNL     1      -6.036   0.142   0.273  1.00  0.00     0.357 A 
HETATM   33  N2  UNL     1      -6.985   0.622  -0.541  1.00  0.00    -0.139 N 
HETATM   34  O1  UNL     1      -6.359  -0.358   1.374  1.00  0.00    -0.245 OA
HETATM   35  C1  UNL     1      -6.648   1.163  -1.729  1.00  0.00     0.717 A 
ATOM     36  H2  UNL     1      -7.965   0.578  -0.262  1.00  0.00     0.189 HD
HETATM   37  N12 UNL     1      -5.337   1.222  -2.102  1.00  0.00     0.107 N 
HETATM   38  C15 UNL     1      -4.424   0.738  -1.275  1.00  0.00     0.744 A 
HETATM   39  N11 UNL     1      -4.396   1.553  -2.969  1.00  0.00    -0.192 N 
HETATM   40  N10 UNL     1      -3.473   1.079  -2.165  1.00  0.00    -0.113 N 
ATOM     41  H10 UNL     1      -2.457   1.001  -2.200  1.00  0.00     0.207 HD
ATOM     42  H11 UNL     1      -4.390   1.996  -3.888  1.00  0.00     0.210 HD
BRANCH  35  43
HETATM   43  N1  UNL     1      -7.516   1.635  -2.535  1.00  0.00    -0.232 N 
ATOM     44  H12 UNL     1      -8.496   1.591  -2.256  1.00  0.00     0.174 HD
ATOM     45  H11 UNL     1      -7.261   2.044  -3.434  1.00  0.00     0.174 HD
ENDBRANCH  35  43
ENDBRANCH   1  31
BRANCH   7  46
HETATM   46  O7  UNL     1      -3.749  -2.641   0.379  1.00  0.00    -0.389 OA
ATOM     47  H7  UNL     1      -3.260  -3.402   0.090  1.00  0.00     0.210 HD
ENDBRANCH   7  46
TORSDOF 8
