REMARK  9 active torsions:
REMARK  status: ('A' for Active; 'I' for Inactive)
REMARK    1  A    between atoms: N1_1  and  N2_4 
REMARK    2  A    between atoms: N2_4  and  N3_5 
REMARK    3  A    between atoms: N3_5  and  O1_6 
REMARK    4  A    between atoms: N3_5  and  N4_8 
REMARK    5  A    between atoms: C2_16  and  N8_17 
REMARK    6  A    between atoms: N8_17  and  N9_19 
REMARK    7  A    between atoms: C7_27  and  N11_28 
REMARK    8  A    between atoms: N11_28  and  N12_30 
REMARK    9  A    between atoms: N12_30  and  C8_32 
ROOT
HETATM    1  N9  UNL     1      -0.275  -0.439   0.962  1.00  0.00    -0.287 N 
ATOM      2  H9  UNL     1       0.264   0.106   1.635  1.00  0.00     0.187 HD
HETATM    3  C3  UNL     1       0.328  -1.282   0.213  1.00  0.00     0.071 C 
HETATM    4  C4  UNL     1      -0.449  -2.071  -0.758  1.00  0.00     0.064 C 
HETATM    5  C5  UNL     1       0.039  -3.506  -0.707  1.00  0.00     0.026 C 
HETATM    6  C6  UNL     1       1.519  -3.613  -0.778  1.00  0.00     0.121 C 
HETATM    7  N10 UNL     1       2.264  -2.561  -0.166  1.00  0.00    -0.374 N 
ATOM      8  H10 UNL     1       3.275  -2.679  -0.095  1.00  0.00     0.161 HD
HETATM    9  C7  UNL     1       1.760  -1.477   0.302  1.00  0.00     0.140 C 
ENDROOT
BRANCH   1  10
HETATM   10  N8  UNL     1      -1.661  -0.249   0.878  1.00  0.00    -0.128 N 
ATOM     11  H8  UNL     1      -2.299  -1.036   0.995  1.00  0.00     0.205 HD
BRANCH  10  12
HETATM   12  C2  UNL     1      -2.165   1.059   0.627  1.00  0.00     0.748 A 
HETATM   13  N4  UNL     1      -3.572   1.207   0.369  1.00  0.00     0.019 N 
HETATM   14  N5  UNL     1      -4.074   2.480   0.122  1.00  0.00    -0.259 N 
HETATM   15  C1  UNL     1      -3.185   3.582   0.132  1.00  0.00     0.216 A 
ATOM     16  H5  UNL     1      -5.067   2.618  -0.064  1.00  0.00     0.190 HD
HETATM   17  N6  UNL     1      -1.940   3.364   0.371  1.00  0.00    -0.281 N 
HETATM   18  N7  UNL     1      -1.401   2.101   0.623  1.00  0.00    -0.127 N 
ATOM     19  H6  UNL     1      -1.307   4.164   0.377  1.00  0.00     0.188 HD
ATOM     20  H7  UNL     1      -0.402   2.001   0.804  1.00  0.00     0.206 HD
BRANCH  13  21
HETATM   21  N3  UNL     1      -4.360   0.081   0.380  1.00  0.00     0.124 NA
BRANCH  21  22
HETATM   22  N2  UNL     1      -5.664   0.442   0.334  1.00  0.00    -0.221 NA
BRANCH  22  23
HETATM   23  N1  UNL     1      -6.765   0.724   0.299  1.00  0.00    -0.262 N 
ATOM     24  H12 UNL     1      -6.251  -0.145   0.440  1.00  0.00     0.193 HD
ATOM     25  H11 UNL     1      -7.747   0.996   0.264  1.00  0.00     0.193 HD
ENDBRANCH  22  23
ENDBRANCH  21  22
BRANCH  21  26
HETATM   26  O1  UNL     1      -4.120  -0.760  -0.660  1.00  0.00    -0.262 OA
ATOM     27  H1  UNL     1      -3.205  -1.013  -0.628  1.00  0.00     0.242 HD
ENDBRANCH  21  26
ENDBRANCH  13  21
ENDBRANCH  10  12
ENDBRANCH   1  10
BRANCH   9  28
HETATM   28  N11 UNL     1       2.599  -0.472   0.903  1.00  0.00    -0.282 N 
ATOM     29  H11 UNL     1       2.312  -0.037   1.780  1.00  0.00     0.188 HD
BRANCH  28  30
HETATM   30  N12 UNL     1       3.777  -0.091   0.314  1.00  0.00    -0.282 N 
ATOM     31  H12 UNL     1       4.413  -0.821  -0.008  1.00  0.00     0.188 HD
BRANCH  30  32
HETATM   32  C8  UNL     1       4.163   1.274   0.126  1.00  0.00     0.153 A 
HETATM   33  C9  UNL     1       5.324   1.731  -0.455  1.00  0.00     0.159 A 
HETATM   34  N13 UNL     1       5.316   3.087  -0.445  1.00  0.00    -0.294 N 
HETATM   35  N14 UNL     1       4.188   3.430   0.123  1.00  0.00    -0.241 N 
ATOM     36  H13 UNL     1       6.039   3.710  -0.805  1.00  0.00     0.187 HD
HETATM   37  N15 UNL     1       3.478   2.371   0.475  1.00  0.00    -0.269 N 
ATOM     38  H14 UNL     1       3.893   4.394   0.275  1.00  0.00     0.208 HD
ATOM     39  H15 UNL     1       2.567   2.387   0.933  1.00  0.00     0.190 HD
ENDBRANCH  30  32
ENDBRANCH  28  30
ENDBRANCH   9  28
TORSDOF 9
