REMARK  8 active torsions:
REMARK  status: ('A' for Active; 'I' for Inactive)
REMARK    1  A    between atoms: O1_2  and  C2_3 
REMARK    2  A    between atoms: C2_3  and  C3_5 
REMARK    3  A    between atoms: C4_8  and  C5_9 
REMARK       I    between atoms: C5_9  and  N2_11 
REMARK    4  A    between atoms: N2_11  and  N3_13 
REMARK    5  A    between atoms: C6_20  and  C7_21 
REMARK    6  A    between atoms: C8_23  and  N6_24 
REMARK    7  A    between atoms: C9_29  and  C10_30 
REMARK       I    between atoms: C10_30  and  N8_32 
REMARK    8  A    between atoms: N8_32  and  N9_34 
ROOT
HETATM    1  C3  UNL     1      -1.155  -0.882  -0.353  1.00  0.00     0.140 A 
HETATM    2  N1  UNL     1      -2.374  -0.248  -0.332  1.00  0.00    -0.330 N 
ATOM      3  H1  UNL     1      -3.177  -0.693  -0.776  1.00  0.00     0.168 HD
HETATM    4  C4  UNL     1      -2.528   0.947   0.262  1.00  0.00     0.191 A 
HETATM    5  N4  UNL     1      -1.473   1.530   0.844  1.00  0.00    -0.280 N 
ATOM      6  H4  UNL     1      -1.575   2.438   1.298  1.00  0.00     0.188 HD
HETATM    7  N5  UNL     1      -0.341   0.945   0.828  1.00  0.00    -0.295 N 
ATOM      8  H5  UNL     1       0.447   1.411   1.278  1.00  0.00     0.187 HD
HETATM    9  C6  UNL     1      -0.120  -0.272   0.243  1.00  0.00     0.100 A 
ENDROOT
BRANCH   9  10
HETATM   10  C7  UNL     1       1.205  -0.843   0.532  1.00  0.00     0.071 A 
HETATM   11  S1  UNL     1       1.575  -2.467   0.959  1.00  0.00    -0.050 SA
HETATM   12  C8  UNL     1       3.255  -2.336   1.105  1.00  0.00     0.143 A 
HETATM   13  N7  UNL     1       3.467  -1.056   0.821  1.00  0.00    -0.331 N 
HETATM   14  C9  UNL     1       2.449  -0.277   0.526  1.00  0.00     0.124 A 
ATOM     15  H7  UNL     1       4.415  -0.679   0.832  1.00  0.00     0.168 HD
BRANCH  12  16
HETATM   16  N6  UNL     1       4.155  -3.252   1.421  1.00  0.00    -0.380 N 
ATOM     17  H62 UNL     1       3.992  -4.235   1.639  1.00  0.00     0.158 HD
ATOM     18  H61 UNL     1       5.168  -3.173   1.509  1.00  0.00     0.158 HD
ENDBRANCH  12  16
BRANCH  14  19
HETATM   19  C10 UNL     1       2.693   1.129   0.105  1.00  0.00     0.287 C 
HETATM   20  O4  UNL     1       1.839   1.710  -0.572  1.00  0.00    -0.264 OA
HETATM   21  N8  UNL     1       3.892   1.818   0.469  1.00  0.00    -0.271 N 
ATOM     22  H8  UNL     1       4.592   1.331   1.028  1.00  0.00     0.189 HD
BRANCH  21  23
HETATM   23  N9  UNL     1       4.131   3.134   0.082  1.00  0.00    -0.342 N 
ATOM     24  H92 UNL     1       3.420   3.606  -0.477  1.00  0.00     0.176 HD
ATOM     25  H91 UNL     1       4.986   3.625   0.342  1.00  0.00     0.176 HD
ENDBRANCH  21  23
ENDBRANCH  14  19
ENDBRANCH   9  10
BRANCH   1  26
HETATM   26  C2  UNL     1      -1.068  -2.132  -1.067  1.00  0.00     0.312 C 
HETATM   27  O2  UNL     1      -0.041  -2.788  -1.242  1.00  0.00    -0.258 OA
BRANCH  26  28
HETATM   28  O1  UNL     1      -2.219  -2.711  -1.639  1.00  0.00    -0.321 OA
HETATM   29  C1  UNL     1      -2.152  -3.937  -2.342  1.00  0.00     0.213 C 
ENDBRANCH  26  28
ENDBRANCH   1  26
BRANCH   4  30
HETATM   30  C5  UNL     1      -3.813   1.633   0.295  1.00  0.00     0.304 C 
HETATM   31  O3  UNL     1      -4.807   1.087  -0.251  1.00  0.00    -0.263 OA
HETATM   32  N2  UNL     1      -3.991   2.888   0.914  1.00  0.00    -0.270 N 
ATOM     33  H2  UNL     1      -3.192   3.340   1.358  1.00  0.00     0.189 HD
BRANCH  32  34
HETATM   34  N3  UNL     1      -5.231   3.529   0.935  1.00  0.00    -0.342 N 
ATOM     35  H32 UNL     1      -6.020   3.063   0.486  1.00  0.00     0.176 HD
ATOM     36  H31 UNL     1      -5.360   4.436   1.383  1.00  0.00     0.176 HD
ENDBRANCH  32  34
ENDBRANCH   4  30
TORSDOF 8
