REMARK  2 active torsions:
REMARK  status: ('A' for Active; 'I' for Inactive)
REMARK    1  A    between atoms: N2_4  and  N3_6 
REMARK    2  A    between atoms: N3_6  and  C1_8 
ROOT
HETATM    1  C1  UNL     1       0.426   0.196   0.093  1.00  0.00     0.137 C 
HETATM    2  C2  UNL     1       0.445  -0.853  -1.020  1.00  0.00     0.148 C 
HETATM    3  N4  UNL     1      -0.607  -1.831  -0.703  1.00  0.00    -0.383 N 
ATOM      4  H4  UNL     1      -0.438  -2.800  -0.971  1.00  0.00     0.160 HD
HETATM    5  C3  UNL     1      -1.726  -1.568  -0.114  1.00  0.00     0.192 C 
HETATM    6  N5  UNL     1      -2.211  -0.312   0.363  1.00  0.00    -0.301 N 
ATOM      7  H5  UNL     1      -2.833  -0.331   1.171  1.00  0.00     0.187 HD
HETATM    8  N6  UNL     1      -1.913   0.925  -0.171  1.00  0.00    -0.334 N 
ATOM      9  H6  UNL     1      -2.640   1.543  -0.532  1.00  0.00     0.180 HD
HETATM   10  C4  UNL     1      -0.541   1.293  -0.191  1.00  0.00     0.167 C 
ENDROOT
BRANCH   1  11
HETATM   11  N3  UNL     1       1.752   0.699   0.294  1.00  0.00    -0.315 N 
ATOM     12  H3  UNL     1       1.930   1.695   0.162  1.00  0.00     0.182 HD
BRANCH  11  13
HETATM   13  N2  UNL     1       2.809  -0.138   0.666  1.00  0.00    -0.253 N 
HETATM   14  N1  UNL     1       2.996  -0.333   1.905  1.00  0.00    -0.331 N 
ATOM     15  H12 UNL     1       2.388   0.112   2.593  1.00  0.00     0.178 HD
ATOM     16  H11 UNL     1       3.767  -0.943   2.176  1.00  0.00     0.178 HD
ATOM     17  H2  UNL     1       3.408  -0.576  -0.034  1.00  0.00     0.207 HD
ENDBRANCH  11  13
ENDBRANCH   1  11
TORSDOF 2
