REMARK  4 active torsions:
REMARK  status: ('A' for Active; 'I' for Inactive)
REMARK    1  A    between atoms: C2_5  and  N3_6 
REMARK    2  A    between atoms: C4_12  and  C5_13 
REMARK    3  A    between atoms: C5_13  and  C6_14 
REMARK    4  A    between atoms: C6_14  and  N5_15 
ROOT
HETATM    1  C1  UNL     1      -0.685   2.188  -0.504  1.00  0.00     0.178 C 
HETATM    2  N1  UNL     1      -0.976   0.795  -0.290  1.00  0.00    -0.285 N 
HETATM    3  N2  UNL     1      -2.142   0.290  -0.701  1.00  0.00    -0.130 N 
ATOM      4  H2  UNL     1      -2.814   0.900  -1.167  1.00  0.00     0.206 HD
HETATM    5  C2  UNL     1      -2.448  -1.004  -0.514  1.00  0.00     0.690 A 
HETATM    6  N4  UNL     1      -1.562  -1.803   0.100  1.00  0.00    -0.199 N 
ATOM      7  H4  UNL     1      -1.782  -2.788   0.249  1.00  0.00     0.183 HD
HETATM    8  C3  UNL     1      -0.388  -1.308   0.518  1.00  0.00     0.132 A 
HETATM    9  C4  UNL     1      -0.077   0.014   0.325  1.00  0.00     0.046 A 
ENDROOT
BRANCH   9  10
HETATM   10  C5  UNL     1       1.252   0.516   0.807  1.00  0.00     0.087 C 
BRANCH  10  11
HETATM   11  C6  UNL     1       2.303   0.362  -0.248  1.00  0.00     0.235 C 
BRANCH  11  12
HETATM   12  N5  UNL     1       2.496  -1.011  -0.650  1.00  0.00    -0.079 N 
ATOM     13  H53 UNL     1       2.698  -1.602   0.156  1.00  0.00     0.274 HD
ATOM     14  H52 UNL     1       1.616  -1.432  -0.947  1.00  0.00     0.274 HD
ATOM     15  H51 UNL     1       3.212  -1.116  -1.369  1.00  0.00     0.274 HD
ENDBRANCH  11  12
ENDBRANCH  10  11
ENDBRANCH   9  10
BRANCH   5  16
HETATM   16  N3  UNL     1      -3.582  -1.520  -0.907  1.00  0.00    -0.233 N 
ATOM     17  H32 UNL     1      -4.256  -0.913  -1.374  1.00  0.00     0.174 HD
ATOM     18  H31 UNL     1      -3.814  -2.503  -0.765  1.00  0.00     0.174 HD
ENDBRANCH   5  16
TORSDOF 4
