REMARK  2 active torsions:
REMARK  status: ('A' for Active; 'I' for Inactive)
REMARK    1  A    between atoms: C1_4  and  C2_6 
REMARK    2  A    between atoms: C5_11  and  N4_12 
ROOT
HETATM    1  C2  UNL     1      -0.559   0.287  -0.952  1.00  0.00     0.119 C 
HETATM    2  C3  UNL     1      -1.049  -0.949  -1.679  1.00  0.00     0.039 C 
HETATM    3  C4  UNL     1      -0.549  -2.035  -0.747  1.00  0.00     0.122 C 
HETATM    4  N3  UNL     1       0.647  -1.424  -0.182  1.00  0.00    -0.379 N 
ATOM      5  H3  UNL     1       1.398  -1.961   0.252  1.00  0.00     0.160 HD
HETATM    6  C5  UNL     1       0.664  -0.161  -0.282  1.00  0.00     0.088 C 
ENDROOT
BRANCH   1   7
HETATM    7  C1  UNL     1      -1.589   0.782   0.004  1.00  0.00     0.098 C 
HETATM    8  N1  UNL     1      -2.033   1.981  -0.177  1.00  0.00    -0.390 N 
ATOM      9  H12 UNL     1      -2.738   2.320   0.477  1.00  0.00     0.157 HD
ATOM     10  H11 UNL     1      -1.687   2.557  -0.944  1.00  0.00     0.157 HD
HETATM   11  N2  UNL     1      -2.070  -0.019   1.071  1.00  0.00    -0.087 NA
ENDBRANCH   1   7
BRANCH   6  12
HETATM   12  N4  UNL     1       1.720   0.683   0.190  1.00  0.00    -0.344 N 
HETATM   13  C6  UNL     1       2.372   0.468   1.269  1.00  0.00     0.191 C 
HETATM   14  N5  UNL     1       3.396   1.399   1.606  1.00  0.00    -0.097 NA
ATOM     15  H4  UNL     1       1.966   1.502  -0.366  1.00  0.00     0.167 HD
ENDBRANCH   6  12
TORSDOF 2
