REMARK  10 active torsions:
REMARK  status: ('A' for Active; 'I' for Inactive)
REMARK    1  A    between atoms: C2_3  and  N2_4 
REMARK       I    between atoms: N2_4  and  C3_6 
REMARK    2  A    between atoms: C3_6  and  C4_8 
REMARK    3  A    between atoms: C4_8  and  S1_9 
REMARK    4  A    between atoms: S1_9  and  C5_10 
REMARK    5  A    between atoms: C6_11  and  O2_12 
REMARK    6  A    between atoms: C6_11  and  N3_14 
REMARK    7  A    between atoms: N3_14  and  N4_16 
REMARK    8  A    between atoms: N4_16  and  C7_17 
REMARK    9  A    between atoms: C7_17  and  O3_18 
REMARK   10  A    between atoms: C7_17  and  C8_20 
ROOT
HETATM    1  N1  UNL     1      -4.268  -0.936   2.702  1.00  0.00    -0.195 NA
HETATM    2  C1  UNL     1      -4.315  -0.628   1.595  1.00  0.00     0.091 C 
HETATM    3  C2  UNL     1      -4.380  -0.203   0.186  1.00  0.00     0.122 C 
HETATM    4  C12 UNL     1      -4.828  -1.376  -0.671  1.00  0.00     0.046 C 
HETATM    5  C13 UNL     1      -6.327  -1.377  -0.340  1.00  0.00     0.004 C 
HETATM    6  C14 UNL     1      -6.651   0.065  -0.653  1.00  0.00     0.004 C 
HETATM    7  C15 UNL     1      -5.480   0.794   0.019  1.00  0.00     0.046 C 
ENDROOT
BRANCH   3   8
HETATM    8  N2  UNL     1      -3.094   0.289  -0.213  1.00  0.00    -0.338 N 
HETATM    9  C3  UNL     1      -1.891  -0.505  -0.185  1.00  0.00     0.228 C 
HETATM   10  O1  UNL     1      -1.918  -1.684   0.177  1.00  0.00    -0.273 OA
ATOM     11  H2  UNL     1      -3.026   1.255  -0.535  1.00  0.00     0.164 HD
BRANCH   9  12
HETATM   12  C4  UNL     1      -0.625   0.216  -0.607  1.00  0.00     0.181 C 
BRANCH  12  13
HETATM   13  S1  UNL     1      -0.146   1.413   0.612  1.00  0.00    -0.128 SA
BRANCH  13  14
HETATM   14  C5  UNL     1       1.322   2.336   0.400  1.00  0.00     0.103 C 
HETATM   15  C6  UNL     1       2.576   1.687   0.659  1.00  0.00     0.171 C 
BRANCH  15  16
HETATM   16  O2  UNL     1       3.577   2.519   0.931  1.00  0.00    -0.344 OA
ATOM     17  H2  UNL     1       4.407   2.090   1.102  1.00  0.00     0.219 HD
ENDBRANCH  15  16
BRANCH  15  18
HETATM   18  N3  UNL     1       2.911   0.317   0.684  1.00  0.00    -0.210 N 
ATOM     19  H3  UNL     1       2.227  -0.408   0.469  1.00  0.00     0.204 HD
BRANCH  18  20
HETATM   20  N4  UNL     1       4.221   0.010   1.017  1.00  0.00    -0.295 NA
BRANCH  20  21
HETATM   21  C7  UNL     1       5.434  -0.275   1.332  1.00  0.00     0.272 C 
BRANCH  21  22
HETATM   22  O3  UNL     1       5.861  -0.456   2.567  1.00  0.00    -0.332 OA
ATOM     23  H3  UNL     1       6.758  -0.667   2.800  1.00  0.00     0.220 HD
ENDBRANCH  21  22
BRANCH  21  24
HETATM   24  C8  UNL     1       6.569  -0.464   0.355  1.00  0.00     0.142 A 
HETATM   25  C9  UNL     1       6.507  -0.562  -0.999  1.00  0.00     0.045 A 
HETATM   26  C10 UNL     1       7.803  -0.738  -1.496  1.00  0.00     0.027 A 
HETATM   27  C11 UNL     1       8.597  -0.729  -0.372  1.00  0.00     0.143 A 
HETATM   28  O4  UNL     1       7.852  -0.566   0.688  1.00  0.00    -0.317 OA
ENDBRANCH  21  24
ENDBRANCH  20  21
ENDBRANCH  18  20
ENDBRANCH  15  18
ENDBRANCH  13  14
ENDBRANCH  12  13
ENDBRANCH   9  12
ENDBRANCH   3   8
TORSDOF 10
