REMARK  8 active torsions:
REMARK  status: ('A' for Active; 'I' for Inactive)
REMARK    1  A    between atoms: C2_2  and  C3_3 
REMARK    2  A    between atoms: C6_8  and  O3_9 
REMARK    3  A    between atoms: O3_9  and  C7_10 
REMARK    4  A    between atoms: C12_15  and  O4_16 
REMARK    5  A    between atoms: O4_16  and  C13_17 
REMARK    6  A    between atoms: C15_19  and  O5_20 
REMARK    7  A    between atoms: C16_22  and  C17_23 
REMARK    8  A    between atoms: C17_23  and  O6_24 
ROOT
HETATM    1  C1  UNL     1       0.074   1.893  -3.072  1.00  0.00     0.029 C 
HETATM    2  C2  UNL     1       0.005   0.387  -2.884  1.00  0.00     0.073 C 
HETATM    3  C4  UNL     1       1.162  -0.303  -3.521  1.00  0.00     0.025 C 
HETATM    4  C5  UNL     1       2.244  -0.192  -2.470  1.00  0.00     0.036 C 
HETATM    5  C6  UNL     1       1.561  -0.136  -1.151  1.00  0.00     0.152 C 
HETATM    6  C12 UNL     1       0.080   0.041  -1.444  1.00  0.00     0.172 C 
ENDROOT
BRANCH   6   7
HETATM    7  O4  UNL     1      -0.437   1.101  -0.692  1.00  0.00    -0.352 OA
BRANCH   7   8
HETATM    8  C13 UNL     1      -1.495   0.742   0.105  1.00  0.00     0.263 C 
HETATM    9  C14 UNL     1      -2.750   1.537  -0.119  1.00  0.00     0.095 C 
HETATM   10  C15 UNL     1      -3.391   1.431   1.273  1.00  0.00     0.154 C 
HETATM   11  C16 UNL     1      -2.135   1.555   2.113  1.00  0.00     0.177 C 
HETATM   12  O7  UNL     1      -1.143   0.901   1.441  1.00  0.00    -0.351 OA
BRANCH  10  13
HETATM   13  O5  UNL     1      -4.305   2.427   1.503  1.00  0.00    -0.393 OA
ATOM     14  H5  UNL     1      -4.701   2.361   2.364  1.00  0.00     0.210 HD
ENDBRANCH  10  13
BRANCH  11  15
HETATM   15  C17 UNL     1      -2.364   1.084   3.519  1.00  0.00     0.198 C 
BRANCH  15  16
HETATM   16  O6  UNL     1      -2.712  -0.246   3.554  1.00  0.00    -0.398 OA
ATOM     17  H6  UNL     1      -2.857  -0.544   4.444  1.00  0.00     0.209 HD
ENDBRANCH  15  16
ENDBRANCH  11  15
ENDBRANCH   7   8
ENDBRANCH   6   7
BRANCH   2  18
HETATM   18  C3  UNL     1      -1.236  -0.090  -3.529  1.00  0.00     0.184 C 
HETATM   19  O1  UNL     1      -2.082  -0.724  -2.866  1.00  0.00    -0.647 OA
HETATM   20  O2  UNL     1      -1.461   0.163  -4.867  1.00  0.00    -0.647 OA
ENDBRANCH   2  18
BRANCH   5  21
HETATM   21  O3  UNL     1       1.692  -1.285  -0.395  1.00  0.00    -0.378 OA
BRANCH  21  22
HETATM   22  C7  UNL     1       2.199  -1.096   0.860  1.00  0.00     0.122 C 
HETATM   23  C8  UNL     1       3.561  -1.796   0.908  1.00  0.00     0.032 C 
HETATM   24  C9  UNL     1       3.579  -2.621   2.147  1.00  0.00     0.002 C 
HETATM   25  C10 UNL     1       2.356  -2.318   2.948  1.00  0.00     0.002 C 
HETATM   26  C11 UNL     1       1.393  -1.673   1.970  1.00  0.00     0.032 C 
ENDBRANCH  21  22
ENDBRANCH   5  21
TORSDOF 8
