REMARK  5 active torsions:
REMARK  status: ('A' for Active; 'I' for Inactive)
REMARK    1  A    between atoms: N1_1  and  C1_4 
REMARK    2  A    between atoms: C2_9  and  C3_10 
REMARK    3  A    between atoms: C3_10  and  C4_11 
REMARK    4  A    between atoms: C4_11  and  C5_12 
REMARK    5  A    between atoms: C6_17  and  N6_18 
ROOT
HETATM    1  C5  UNL     1       1.130  -0.071  -0.066  1.00  0.00     0.092 A 
HETATM    2  N4  UNL     1       0.477  -1.211   0.128  1.00  0.00    -0.292 N 
ATOM      3  H4  UNL     1       0.997  -2.080   0.251  1.00  0.00     0.187 HD
HETATM    4  N5  UNL     1      -0.784  -1.223   0.161  1.00  0.00    -0.279 N 
ATOM      5  H5  UNL     1      -1.282  -2.101   0.310  1.00  0.00     0.189 HD
HETATM    6  C6  UNL     1      -1.464  -0.093   0.002  1.00  0.00     0.163 A 
HETATM    7  S1  UNL     1      -0.191   1.027  -0.204  1.00  0.00    -0.034 SA
ENDROOT
BRANCH   1   8
HETATM    8  C4  UNL     1       2.574   0.180  -0.141  1.00  0.00     0.041 C 
BRANCH   8   9
HETATM    9  C3  UNL     1       3.362  -0.842  -0.001  1.00  0.00     0.041 C 
BRANCH   9  10
HETATM   10  C2  UNL     1       4.821  -0.587  -0.078  1.00  0.00     0.092 A 
HETATM   11  N3  UNL     1       5.818  -1.450   0.032  1.00  0.00    -0.292 N 
HETATM   12  N2  UNL     1       7.021  -1.055  -0.060  1.00  0.00    -0.279 N 
ATOM     13  H3  UNL     1       5.619  -2.438   0.192  1.00  0.00     0.187 HD
HETATM   14  C1  UNL     1       7.250   0.250  -0.268  1.00  0.00     0.159 A 
ATOM     15  H2  UNL     1       7.795  -1.714   0.022  1.00  0.00     0.189 HD
HETATM   16  S2  UNL     1       5.664   0.878  -0.327  1.00  0.00    -0.034 SA
BRANCH  14  17
HETATM   17  N1  UNL     1       8.415   0.846  -0.390  1.00  0.00    -0.379 N 
ATOM     18  H12 UNL     1       9.363   0.471  -0.355  1.00  0.00     0.158 HD
ATOM     19  H11 UNL     1       8.589   1.838  -0.548  1.00  0.00     0.158 HD
ENDBRANCH  14  17
ENDBRANCH   9  10
ENDBRANCH   8   9
ENDBRANCH   1   8
BRANCH   6  20
HETATM   20  N6  UNL     1      -2.877   0.076   0.011  1.00  0.00    -0.357 N 
HETATM   21  C7  UNL     1      -3.466   1.372  -0.176  1.00  0.00     0.144 C 
HETATM   22  C8  UNL     1      -4.758   1.417   0.600  1.00  0.00     0.133 C 
HETATM   23  N7  UNL     1      -5.707   0.427   0.205  1.00  0.00    -0.418 N 
HETATM   24  C9  UNL     1      -5.147  -0.794  -0.278  1.00  0.00     0.133 C 
ATOM     25  H7  UNL     1      -6.714   0.581   0.264  1.00  0.00     0.153 HD
HETATM   26  C10 UNL     1      -3.746  -1.061   0.210  1.00  0.00     0.144 C 
ENDBRANCH   6  20
TORSDOF 5
