REMARK  4 active torsions:
REMARK  status: ('A' for Active; 'I' for Inactive)
REMARK    1  A    between atoms: C2_2  and  C3_3 
REMARK       I    between atoms: C3_3  and  N1_5 
REMARK    2  A    between atoms: N1_5  and  C4_7 
REMARK    3  A    between atoms: C6_13  and  N4_14 
REMARK    4  A    between atoms: C11_22  and  N6_23 
ROOT
HETATM    1  C4  UNL     1       2.301  -0.903  -0.593  1.00  0.00     0.701 A 
HETATM    2  N2  UNL     1       1.150  -1.143  -1.237  1.00  0.00    -0.131 N 
ATOM      3  H2  UNL     1       1.167  -1.744  -2.061  1.00  0.00     0.205 HD
HETATM    4  N3  UNL     1      -0.007  -0.633  -0.848  1.00  0.00    -0.280 N 
ATOM      5  H3  UNL     1      -0.850  -0.852  -1.379  1.00  0.00     0.188 HD
HETATM    6  C5  UNL     1      -0.100   0.171   0.235  1.00  0.00     0.138 A 
HETATM    7  C6  UNL     1      -1.269   0.723   0.677  1.00  0.00     0.151 A 
HETATM    8  N5  UNL     1      -1.314   1.533   1.784  1.00  0.00    -0.174 N 
ATOM      9  H5  UNL     1      -2.194   1.938   2.103  1.00  0.00     0.186 HD
HETATM   10  C11 UNL     1      -0.162   1.778   2.437  1.00  0.00     0.679 A 
HETATM   11  N7  UNL     1       0.986   1.238   2.004  1.00  0.00    -0.174 N 
ATOM     12  H7  UNL     1       1.843   1.442   2.519  1.00  0.00     0.186 HD
HETATM   13  C12 UNL     1       1.063   0.442   0.926  1.00  0.00     0.168 A 
HETATM   14  N8  UNL     1       2.223  -0.093   0.503  1.00  0.00    -0.172 N 
ATOM     15  H8  UNL     1       3.077   0.115   1.021  1.00  0.00     0.186 HD
ENDROOT
BRANCH   1  16
HETATM   16  N1  UNL     1       3.552  -1.444  -0.991  1.00  0.00    -0.155 N 
HETATM   17  C3  UNL     1       4.756  -1.180  -0.319  1.00  0.00     0.258 C 
HETATM   18  O1  UNL     1       4.799  -0.425   0.714  1.00  0.00    -0.268 OA
ATOM     19  H1  UNL     1       3.577  -2.056  -1.807  1.00  0.00     0.187 HD
BRANCH  17  20
HETATM   20  C2  UNL     1       6.015  -1.751  -0.764  1.00  0.00     0.065 C 
HETATM   21  C1  UNL     1       7.156  -1.504  -0.128  1.00  0.00     0.017 C 
ENDBRANCH  17  20
ENDBRANCH   1  16
BRANCH   7  22
HETATM   22  N4  UNL     1      -2.458   0.438  -0.022  1.00  0.00    -0.361 N 
HETATM   23  C7  UNL     1      -2.721   1.097  -1.276  1.00  0.00     0.150 C 
HETATM   24  C8  UNL     1      -3.883   0.355  -1.958  1.00  0.00     0.187 C 
HETATM   25  O2  UNL     1      -5.003   0.438  -1.156  1.00  0.00    -0.388 OA
HETATM   26  C9  UNL     1      -4.837  -0.017   0.121  1.00  0.00     0.187 C 
HETATM   27  C10 UNL     1      -3.451  -0.491   0.467  1.00  0.00     0.150 C 
ENDBRANCH   7  22
BRANCH  10  28
HETATM   28  N6  UNL     1      -0.200   2.558   3.499  1.00  0.00    -0.234 N 
ATOM     29  H62 UNL     1      -1.074   2.969   3.828  1.00  0.00     0.174 HD
ATOM     30  H61 UNL     1       0.673   2.744   3.994  1.00  0.00     0.174 HD
ENDBRANCH  10  28
TORSDOF 4
