REMARK  7 active torsions:
REMARK  status: ('A' for Active; 'I' for Inactive)
REMARK    1  A    between atoms: O1_2  and  C2_3 
REMARK    2  A    between atoms: C3_4  and  C4_5 
REMARK    3  A    between atoms: C5_6  and  O2_7 
REMARK    4  A    between atoms: C10_15  and  C11_16 
REMARK    5  A    between atoms: C11_16  and  O5_17 
REMARK    6  A    between atoms: C11_16  and  O6_19 
REMARK    7  A    between atoms: N1_22  and  O8_23 
ROOT
HETATM    1  C2  UNL     1      -1.921   0.279   1.094  1.00  0.00     0.209 A 
HETATM    2  C3  UNL     1      -0.999   0.424   0.080  1.00  0.00     0.074 A 
HETATM    3  C10 UNL     1      -1.424   1.452  -0.731  1.00  0.00     0.149 A 
HETATM    4  O7  UNL     1      -2.546   1.881  -0.204  1.00  0.00    -0.206 OA
HETATM    5  N1  UNL     1      -2.856   1.213   0.859  1.00  0.00    -0.096 N 
ENDROOT
BRANCH   2   6
HETATM    6  C4  UNL     1       0.198  -0.356  -0.105  1.00  0.00     0.075 A 
HETATM    7  C5  UNL     1       0.289  -1.519  -0.832  1.00  0.00     0.197 A 
HETATM    8  O3  UNL     1       1.535  -1.943  -0.776  1.00  0.00    -0.289 OA
HETATM    9  C6  UNL     1       2.256  -1.133  -0.062  1.00  0.00     0.092 A 
HETATM   10  C7  UNL     1       1.459  -0.106   0.390  1.00  0.00     0.114 A 
HETATM   11  C9  UNL     1       3.639  -0.878   0.469  1.00  0.00     0.095 C 
HETATM   12  O4  UNL     1       2.253   0.761   1.160  1.00  0.00    -0.347 OA
HETATM   13  C8  UNL     1       3.563   0.637   0.636  1.00  0.00     0.182 C 
BRANCH   7  14
HETATM   14  O2  UNL     1      -0.677  -2.219  -1.539  1.00  0.00    -0.340 OA
ATOM     15  H2  UNL     1      -0.614  -3.023  -2.041  1.00  0.00     0.220 HD
ENDBRANCH   7  14
ENDBRANCH   2   6
BRANCH   1  16
HETATM   16  O1  UNL     1      -1.896  -0.647   2.152  1.00  0.00    -0.337 OA
HETATM   17  C1  UNL     1      -2.594  -1.874   2.080  1.00  0.00     0.212 C 
ENDBRANCH   1  16
BRANCH   3  18
HETATM   18  C11 UNL     1      -0.766   1.993  -1.964  1.00  0.00     0.316 C 
BRANCH  18  19
HETATM   19  O5  UNL     1      -0.329   0.989  -2.811  1.00  0.00    -0.365 OA
ATOM     20  H5  UNL     1       0.088   1.332  -3.593  1.00  0.00     0.213 HD
ENDBRANCH  18  19
BRANCH  18  21
HETATM   21  O6  UNL     1       0.204   2.930  -1.670  1.00  0.00    -0.365 OA
ATOM     22  H6  UNL     1       0.621   3.273  -2.452  1.00  0.00     0.213 HD
ENDBRANCH  18  21
ENDBRANCH   3  18
BRANCH   5  23
HETATM   23  O8  UNL     1      -3.958   1.396   1.655  1.00  0.00    -0.261 OA
ATOM     24  H8  UNL     1      -4.620   2.057   1.489  1.00  0.00     0.247 HD
ENDBRANCH   5  23
TORSDOF 7
