REMARK  4 active torsions:
REMARK  status: ('A' for Active; 'I' for Inactive)
REMARK    1  A    between atoms: C3_5  and  N2_6 
REMARK    2  A    between atoms: C4_9  and  N3_10 
REMARK    3  A    between atoms: N3_10  and  C5_12 
REMARK    4  A    between atoms: C7_22  and  C8_23 
ROOT
HETATM    1  C1  UNL     1      -3.898   0.769   1.120  1.00  0.00     0.068 C 
HETATM    2  C2  UNL     1      -2.531   0.740   0.567  1.00  0.00     0.014 A 
HETATM    3  N1  UNL     1      -1.752   1.828   0.538  1.00  0.00    -0.339 N 
ATOM      4  H1  UNL     1      -2.109   2.709   0.909  1.00  0.00     0.167 HD
HETATM    5  C3  UNL     1      -0.486   1.782   0.021  1.00  0.00     0.202 A 
HETATM    6  C4  UNL     1       0.023   0.604  -0.489  1.00  0.00     0.102 A 
HETATM    7  C7  UNL     1      -0.758  -0.526  -0.471  1.00  0.00     0.079 A 
HETATM    8  C9  UNL     1      -2.040  -0.443   0.063  1.00  0.00    -0.020 A 
HETATM    9  C10 UNL     1      -2.858  -1.660   0.072  1.00  0.00     0.051 C 
ENDROOT
BRANCH   6  10
HETATM   10  N3  UNL     1       1.330   0.491  -1.040  1.00  0.00    -0.334 N 
ATOM     11  H3  UNL     1       1.470   0.610  -2.043  1.00  0.00     0.168 HD
BRANCH  10  12
HETATM   12  C5  UNL     1       2.349   0.236  -0.269  1.00  0.00     0.174 A 
HETATM   13  N4  UNL     1       2.379   0.046   1.061  1.00  0.00    -0.222 N 
HETATM   14  O3  UNL     1       3.600  -0.181   1.420  1.00  0.00    -0.153 OA
ATOM     15  H4  UNL     1       1.572   0.076   1.684  1.00  0.00     0.198 HD
HETATM   16  N5  UNL     1       4.403  -0.156   0.404  1.00  0.00    -0.222 N 
HETATM   17  C6  UNL     1       3.651   0.107  -0.700  1.00  0.00     0.167 A 
ATOM     18  H5  UNL     1       5.412  -0.306   0.427  1.00  0.00     0.198 HD
HETATM   19  N6  UNL     1       4.059   0.216  -1.908  1.00  0.00    -0.381 N 
ATOM     20  H62 UNL     1       3.496   0.413  -2.735  1.00  0.00     0.157 HD
ATOM     21  H61 UNL     1       5.023   0.120  -2.227  1.00  0.00     0.157 HD
ENDBRANCH  10  12
ENDBRANCH   6  10
BRANCH   5  22
HETATM   22  N2  UNL     1       0.353   2.925  -0.015  1.00  0.00    -0.095 N 
HETATM   23  O1  UNL     1       1.157   3.013  -0.960  1.00  0.00    -0.530 OA
HETATM   24  O2  UNL     1       0.301   3.899   0.929  1.00  0.00    -0.530 OA
ENDBRANCH   5  22
BRANCH   7  25
HETATM   25  C8  UNL     1      -0.248  -1.776  -1.001  1.00  0.00     0.212 C 
HETATM   26  O4  UNL     1      -0.462  -1.993  -2.239  1.00  0.00    -0.644 OA
HETATM   27  O5  UNL     1       0.434  -2.714  -0.266  1.00  0.00    -0.644 OA
ENDBRANCH   7  25
TORSDOF 4
