REMARK  6 active torsions:
REMARK  status: ('A' for Active; 'I' for Inactive)
REMARK    1  A    between atoms: C2_2  and  C4_4 
REMARK    2  A    between atoms: C2_2  and  O3_12 
REMARK    3  A    between atoms: C4_4  and  O1_5 
REMARK    4  A    between atoms: O1_5  and  C5_6 
REMARK    5  A    between atoms: C5_6  and  C6_8 
REMARK    6  A    between atoms: O3_12  and  C10_13 
REMARK       I    between atoms: C10_13  and  N1_15 
ROOT
HETATM    1  C10 UNL     1       2.474   0.502   0.070  1.00  0.00     0.400 C 
HETATM    2  O4  UNL     1       2.022   1.544   0.603  1.00  0.00    -0.235 OA
HETATM    3  N1  UNL     1       3.869   0.469  -0.311  1.00  0.00    -0.120 N 
HETATM    4  N2  UNL     1       4.418  -0.671  -0.909  1.00  0.00    -0.284 N 
ATOM      5  H2  UNL     1       3.777  -1.353  -1.314  1.00  0.00     0.188 HD
HETATM    6  C11 UNL     1       5.683  -0.915  -0.981  1.00  0.00     0.158 C 
HETATM    7  C12 UNL     1       6.582   0.073  -0.395  1.00  0.00     0.129 C 
HETATM    8  N3  UNL     1       7.858  -0.110  -0.433  1.00  0.00    -0.384 N 
ATOM      9  H31 UNL     1       8.487   0.581  -0.023  1.00  0.00     0.157 HD
ATOM     10  H32 UNL     1       8.282  -0.932  -0.863  1.00  0.00     0.157 HD
HETATM   11  N4  UNL     1       5.992   1.218   0.203  1.00  0.00    -0.267 N 
ATOM     12  H4  UNL     1       6.542   1.789   0.845  1.00  0.00     0.186 HD
HETATM   13  N5  UNL     1       4.655   1.578  -0.077  1.00  0.00     0.007 NA
ENDROOT
BRANCH   1  14
HETATM   14  O3  UNL     1       1.642  -0.558  -0.132  1.00  0.00    -0.289 OA
BRANCH  14  15
HETATM   15  C2  UNL     1       0.254  -0.625   0.197  1.00  0.00     0.087 C 
HETATM   16  C1  UNL     1      -0.127  -2.059  -0.203  1.00  0.00     0.048 C 
HETATM   17  C3  UNL     1      -0.031  -0.477   1.651  1.00  0.00     0.048 C 
BRANCH  15  18
HETATM   18  C4  UNL     1      -0.546   0.346  -0.597  1.00  0.00     0.216 C 
BRANCH  18  19
HETATM   19  O1  UNL     1      -1.877   0.490  -0.357  1.00  0.00    -0.318 OA
BRANCH  19  20
HETATM   20  C5  UNL     1      -3.001  -0.207  -0.488  1.00  0.00     0.266 C 
HETATM   21  O2  UNL     1      -2.976  -1.353  -0.977  1.00  0.00    -0.264 OA
BRANCH  20  22
HETATM   22  C6  UNL     1      -4.307   0.405  -0.039  1.00  0.00     0.037 C 
HETATM   23  C7  UNL     1      -4.573   1.675  -0.815  1.00  0.00     0.025 C 
HETATM   24  C8  UNL     1      -5.421  -0.584  -0.118  1.00  0.00     0.025 C 
HETATM   25  C9  UNL     1      -4.085   0.813   1.408  1.00  0.00     0.025 C 
ENDBRANCH  20  22
ENDBRANCH  19  20
ENDBRANCH  18  19
ENDBRANCH  15  18
ENDBRANCH  14  15
ENDBRANCH   1  14
TORSDOF 6
