REMARK  8 active torsions:
REMARK  status: ('A' for Active; 'I' for Inactive)
REMARK    1  A    between atoms: C3_7  and  C4_8 
REMARK    2  A    between atoms: C4_8  and  N3_9 
REMARK    3  A    between atoms: N3_9  and  N4_11 
REMARK    4  A    between atoms: N4_11  and  C5_13 
REMARK    5  A    between atoms: C6_16  and  N6_17 
REMARK    6  A    between atoms: C9_24  and  N8_25 
REMARK    7  A    between atoms: C10_30  and  N10_31 
REMARK    8  A    between atoms: N10_31  and  C11_33 
ROOT
HETATM    1  C5  UNL     1       0.119  -0.088  -0.222  1.00  0.00     0.153 A 
HETATM    2  N5  UNL     1       0.438   1.156   0.126  1.00  0.00    -0.174 N 
ATOM      3  H5  UNL     1       1.422   1.418   0.175  1.00  0.00     0.186 HD
HETATM    4  C6  UNL     1      -0.504   2.085   0.417  1.00  0.00     0.679 A 
HETATM    5  N7  UNL     1      -1.832   1.812   0.372  1.00  0.00    -0.175 N 
ATOM      6  H7  UNL     1      -2.519   2.532   0.596  1.00  0.00     0.186 HD
HETATM    7  C7  UNL     1      -2.224   0.572   0.026  1.00  0.00     0.156 A 
HETATM    8  C8  UNL     1      -1.250  -0.380  -0.272  1.00  0.00     0.099 A 
HETATM    9  C9  UNL     1      -1.608  -1.660  -0.626  1.00  0.00     0.132 A 
HETATM   10  N9  UNL     1      -2.901  -1.929  -0.667  1.00  0.00    -0.176 N 
ATOM     11  H9  UNL     1      -3.192  -2.872  -0.927  1.00  0.00     0.186 HD
HETATM   12  C10 UNL     1      -3.884  -0.993  -0.374  1.00  0.00     0.689 A 
HETATM   13  N11 UNL     1      -3.548   0.263  -0.026  1.00  0.00    -0.171 N 
HETATM   14  C12 UNL     1      -4.570   1.257   0.273  1.00  0.00     0.177 C 
ENDROOT
BRANCH   1  15
HETATM   15  N4  UNL     1       0.926  -0.984  -0.500  1.00  0.00    -0.288 N 
ATOM     16  H4  UNL     1       0.435  -1.846  -0.736  1.00  0.00     0.188 HD
BRANCH  15  17
HETATM   17  N3  UNL     1       2.254  -1.161  -0.584  1.00  0.00    -0.329 N 
ATOM     18  H3  UNL     1       2.550  -2.077  -0.921  1.00  0.00     0.180 HD
BRANCH  17  19
HETATM   19  C4  UNL     1       3.321  -0.250  -0.269  1.00  0.00     0.200 C 
BRANCH  19  20
HETATM   20  C3  UNL     1       4.646  -0.874  -0.504  1.00  0.00     0.074 A 
HETATM   21  C2  UNL     1       5.880  -0.295  -0.308  1.00  0.00     0.095 A 
HETATM   22  C1  UNL     1       6.115   1.092   0.184  1.00  0.00     0.081 C 
HETATM   23  O1  UNL     1       6.804  -1.185  -0.634  1.00  0.00    -0.227 OA
HETATM   24  N1  UNL     1       6.191  -2.276  -1.017  1.00  0.00     0.027 NA
HETATM   25  N2  UNL     1       4.876  -2.115  -0.948  1.00  0.00    -0.278 N 
ATOM     26  H2  UNL     1       4.170  -2.810  -1.189  1.00  0.00     0.184 HD
ENDBRANCH  19  20
ENDBRANCH  17  19
ENDBRANCH  15  17
ENDBRANCH   1  15
BRANCH   4  27
HETATM   27  N6  UNL     1      -0.170   3.283   0.752  1.00  0.00    -0.234 N 
ATOM     28  H62 UNL     1       0.829   3.488   0.786  1.00  0.00     0.174 HD
ATOM     29  H61 UNL     1      -0.879   3.982   0.971  1.00  0.00     0.174 HD
ENDBRANCH   4  27
BRANCH   9  30
HETATM   30  N8  UNL     1      -0.691  -2.552  -0.906  1.00  0.00    -0.384 N 
ATOM     31  H82 UNL     1       0.307  -2.344  -0.874  1.00  0.00     0.157 HD
ATOM     32  H81 UNL     1      -0.956  -3.501  -1.169  1.00  0.00     0.157 HD
ENDBRANCH   9  30
BRANCH  12  33
HETATM   33  N10 UNL     1      -5.050  -1.407  -0.452  1.00  0.00    -0.167 N 
ATOM     34  H10 UNL     1      -5.062  -2.389  -0.727  1.00  0.00     0.186 HD
BRANCH  33  35
HETATM   35  C11 UNL     1      -6.301  -0.952  -0.284  1.00  0.00     0.368 C 
HETATM   36  O2  UNL     1      -7.047  -0.766  -1.314  1.00  0.00    -0.283 OA
ENDBRANCH  33  35
ENDBRANCH  12  33
TORSDOF 8
