REMARK  8 active torsions:
REMARK  status: ('A' for Active; 'I' for Inactive)
REMARK    1  A    between atoms: C2_2  and  O1_3 
REMARK    2  A    between atoms: O1_3  and  C3_4 
REMARK    3  A    between atoms: C5_11  and  C6_12 
REMARK    4  A    between atoms: N4_13  and  N5_15 
REMARK    5  A    between atoms: N5_15  and  C7_17 
REMARK    6  A    between atoms: C8_20  and  S1_21 
REMARK    7  A    between atoms: S1_21  and  N7_22 
REMARK    8  A    between atoms: C9_29  and  N9_30 
ROOT
HETATM    1  C7  UNL     1       2.272  -0.274  -0.025  1.00  0.00     0.713 A 
HETATM    2  N6  UNL     1       3.493  -0.150   0.521  1.00  0.00    -0.162 N 
ATOM      3  H6  UNL     1       3.759  -0.756   1.297  1.00  0.00     0.186 HD
HETATM    4  C8  UNL     1       4.377   0.767   0.058  1.00  0.00     0.252 A 
HETATM    5  N8  UNL     1       3.962   1.531  -0.964  1.00  0.00    -0.164 N 
ATOM      6  H8  UNL     1       4.602   2.232  -1.337  1.00  0.00     0.186 HD
HETATM    7  C9  UNL     1       2.739   1.416  -1.521  1.00  0.00     0.692 A 
HETATM    8  N10 UNL     1       1.880   0.503  -1.048  1.00  0.00    -0.021 N 
ATOM      9  H10 UNL     1       0.950   0.400  -1.455  1.00  0.00     0.203 HD
ENDROOT
BRANCH   1  10
HETATM   10  N5  UNL     1       1.439  -1.149   0.424  1.00  0.00    -0.132 N 
ATOM     11  H5  UNL     1       1.741  -1.736   1.201  1.00  0.00     0.205 HD
BRANCH  10  12
HETATM   12  N4  UNL     1       0.171  -1.346  -0.072  1.00  0.00    -0.297 N 
HETATM   13  C6  UNL     1      -0.821  -0.617   0.283  1.00  0.00     0.127 C 
ATOM     14  H4  UNL     1       0.016  -2.097  -0.744  1.00  0.00     0.186 HD
BRANCH  13  15
HETATM   15  C5  UNL     1      -2.166  -0.853  -0.266  1.00  0.00     0.075 A 
HETATM   16  C3  UNL     1      -3.323  -0.176   0.001  1.00  0.00     0.172 A 
HETATM   17  N1  UNL     1      -4.293  -0.736  -0.722  1.00  0.00    -0.278 N 
HETATM   18  N2  UNL     1      -3.814  -1.730  -1.433  1.00  0.00    -0.285 N 
ATOM     19  H1  UNL     1      -5.268  -0.435  -0.723  1.00  0.00     0.189 HD
HETATM   20  C4  UNL     1      -2.499  -1.842  -1.184  1.00  0.00     0.146 A 
ATOM     21  H2  UNL     1      -4.351  -2.319  -2.069  1.00  0.00     0.188 HD
HETATM   22  N3  UNL     1      -1.546  -2.760  -1.708  1.00  0.00    -0.080 NA
BRANCH  16  23
HETATM   23  O1  UNL     1      -3.468   0.886   0.857  1.00  0.00    -0.334 OA
BRANCH  23  24
HETATM   24  C2  UNL     1      -4.698   1.545   1.090  1.00  0.00     0.173 C 
HETATM   25  C1  UNL     1      -5.750   0.637   1.640  1.00  0.00     0.034 C 
ENDBRANCH  23  24
ENDBRANCH  16  23
ENDBRANCH  13  15
ENDBRANCH  10  12
ENDBRANCH   1  10
BRANCH   4  26
HETATM   26  S1  UNL     1       5.978   0.949   0.754  1.00  0.00     0.289 S 
HETATM   27  O2  UNL     1       6.970   0.737  -0.332  1.00  0.00    -0.198 OA
HETATM   28  O3  UNL     1       6.105   2.336   1.313  1.00  0.00    -0.198 OA
BRANCH  26  29
HETATM   29  N7  UNL     1       6.182  -0.184   2.043  1.00  0.00    -0.322 N 
ATOM     30  H72 UNL     1       5.470  -0.851   2.342  1.00  0.00     0.169 HD
ATOM     31  H71 UNL     1       7.112  -0.078   2.447  1.00  0.00     0.169 HD
ENDBRANCH  26  29
ENDBRANCH   4  26
BRANCH   7  32
HETATM   32  N9  UNL     1       2.367   2.168  -2.506  1.00  0.00    -0.234 N 
ATOM     33  H92 UNL     1       3.021   2.863  -2.866  1.00  0.00     0.174 HD
ATOM     34  H91 UNL     1       1.442   2.081  -2.927  1.00  0.00     0.174 HD
ENDBRANCH   7  32
TORSDOF 8
