REMARK  8 active torsions:
REMARK  status: ('A' for Active; 'I' for Inactive)
REMARK    1  A    between atoms: C2_2  and  C3_3 
REMARK    2  A    between atoms: C3_3  and  C4_4 
REMARK    3  A    between atoms: C4_4  and  N1_5 
REMARK    4  A    between atoms: N1_5  and  C5_7 
REMARK    5  A    between atoms: N3_11  and  N4_13 
REMARK    6  A    between atoms: C8_24  and  C9_25 
REMARK    7  A    between atoms: C10_28  and  C11_29 
REMARK    8  A    between atoms: C11_29  and  N10_30 
ROOT
HETATM    1  C5  UNL     1       1.284   1.115  -1.168  1.00  0.00     0.147 A 
HETATM    2  N2  UNL     1       1.817   2.322  -1.262  1.00  0.00    -0.173 N 
ATOM      3  H2  UNL     1       2.684   2.418  -1.790  1.00  0.00     0.186 HD
HETATM    4  C6  UNL     1       1.290   3.439  -0.705  1.00  0.00     0.699 A 
HETATM    5  N3  UNL     1       1.867   4.517  -0.880  1.00  0.00    -0.138 N 
ATOM      6  H3  UNL     1       2.724   4.471  -1.431  1.00  0.00     0.205 HD
HETATM    7  N5  UNL     1       0.121   3.306   0.000  1.00  0.00    -0.171 N 
ATOM      8  H5  UNL     1      -0.295   4.136   0.422  1.00  0.00     0.186 HD
HETATM    9  C7  UNL     1      -0.496   2.122   0.155  1.00  0.00     0.168 A 
HETATM   10  N6  UNL     1      -1.653   2.057   0.842  1.00  0.00    -0.260 N 
ATOM     11  H6  UNL     1      -2.055   2.887   1.278  1.00  0.00     0.191 HD
HETATM   12  N7  UNL     1      -2.253   0.874   0.933  1.00  0.00    -0.177 N 
HETATM   13  N8  UNL     1      -3.348   0.522   1.550  1.00  0.00    -0.272 N 
ATOM     14  H8  UNL     1      -3.953   1.156   2.073  1.00  0.00     0.189 HD
HETATM   15  C8  UNL     1      -3.564  -0.796   1.397  1.00  0.00     0.126 A 
HETATM   16  C10 UNL     1      -2.537  -1.306   0.630  1.00  0.00     0.048 A 
HETATM   17  C12 UNL     1      -1.717  -0.246   0.350  1.00  0.00     0.156 A 
HETATM   18  N11 UNL     1      -0.566  -0.141  -0.313  1.00  0.00    -0.333 N 
ATOM     19  H11 UNL     1      -0.173  -0.980  -0.740  1.00  0.00     0.168 HD
HETATM   20  C13 UNL     1       0.110   1.032  -0.447  1.00  0.00     0.125 A 
ENDROOT
BRANCH   1  21
HETATM   21  N1  UNL     1       1.934   0.149  -1.638  1.00  0.00    -0.374 N 
ATOM     22  H1  UNL     1       2.794   0.511  -2.050  1.00  0.00     0.161 HD
BRANCH  21  23
HETATM   23  C4  UNL     1       1.916  -1.241  -1.806  1.00  0.00     0.121 C 
BRANCH  23  24
HETATM   24  C3  UNL     1       3.287  -1.769  -1.263  1.00  0.00     0.019 C 
BRANCH  24  25
HETATM   25  C2  UNL     1       3.367  -1.240   0.180  1.00  0.00    -0.003 C 
HETATM   26  C1  UNL     1       4.682  -1.624   0.779  1.00  0.00     0.005 C 
ENDBRANCH  24  25
ENDBRANCH  23  24
ENDBRANCH  21  23
ENDBRANCH   1  21
BRANCH   5  27
HETATM   27  N4  UNL     1       1.518   5.764  -0.438  1.00  0.00    -0.331 N 
ATOM     28  H42 UNL     1       0.659   5.789   0.111  1.00  0.00     0.177 HD
ATOM     29  H41 UNL     1       1.994   6.654  -0.583  1.00  0.00     0.177 HD
ENDBRANCH   5  27
BRANCH  16  30
HETATM   30  C11 UNL     1      -2.380  -2.700   0.101  1.00  0.00     0.274 C 
BRANCH  30  31
HETATM   31  N10 UNL     1      -3.368  -2.926  -0.949  1.00  0.00    -0.075 N 
ATOM     32 3H10 UNL     1      -4.319  -2.735  -0.634  1.00  0.00     0.274 HD
ATOM     33 2H10 UNL     1      -3.318  -2.223  -1.687  1.00  0.00     0.274 HD
ATOM     34 1H10 UNL     1      -3.261  -3.874  -1.309  1.00  0.00     0.274 HD
ENDBRANCH  30  31
ENDBRANCH  16  30
BRANCH  15  35
HETATM   35  C9  UNL     1      -4.733  -1.558   1.890  1.00  0.00     0.283 C 
HETATM   36  N9  UNL     1      -5.685  -0.891   2.691  1.00  0.00    -0.056 NA
HETATM   37  O1  UNL     1      -4.872  -2.724   1.603  1.00  0.00    -0.269 OA
ENDBRANCH  15  35
TORSDOF 8
