REMARK  7 active torsions:
REMARK  status: ('A' for Active; 'I' for Inactive)
REMARK    1  A    between atoms: C2_2  and  C3_3 
REMARK    2  A    between atoms: C3_3  and  N1_4 
REMARK    3  A    between atoms: C4_5  and  N2_6 
REMARK    4  A    between atoms: C5_11  and  C6_12 
REMARK    5  A    between atoms: N4_14  and  N5_16 
REMARK    6  A    between atoms: N5_16  and  N6_18 
REMARK    7  A    between atoms: N6_18  and  C8_20 
ROOT
HETATM    1  N1  UNL     1      -2.383   0.892  -0.472  1.00  0.00    -0.166 N 
HETATM    2  C4  UNL     1      -1.263   1.409   0.056  1.00  0.00     0.680 A 
HETATM    3  N3  UNL     1      -0.121   0.741   0.093  1.00  0.00    -0.189 N 
ATOM      4  H3  UNL     1       0.693   1.193   0.509  1.00  0.00     0.184 HD
HETATM    5  C5  UNL     1       0.021  -0.550  -0.410  1.00  0.00     0.092 A 
HETATM    6  C9  UNL     1      -1.132  -1.069  -0.951  1.00  0.00     0.108 A 
HETATM    7  C10 UNL     1      -1.407  -2.246  -1.556  1.00  0.00     0.276 A 
HETATM    8  O1  UNL     1      -0.625  -3.196  -1.754  1.00  0.00    -0.266 OA
HETATM    9  N11 UNL     1      -2.710  -2.226  -1.928  1.00  0.00    -0.264 N 
ATOM     10  H11 UNL     1      -3.184  -2.992  -2.407  1.00  0.00     0.190 HD
HETATM   11  N12 UNL     1      -3.277  -1.107  -1.596  1.00  0.00    -0.281 N 
ATOM     12  H12 UNL     1      -4.248  -0.846  -1.764  1.00  0.00     0.188 HD
HETATM   13  C11 UNL     1      -2.338  -0.356  -0.987  1.00  0.00     0.156 A 
ENDROOT
BRANCH   5  14
HETATM   14  C6  UNL     1       1.289  -1.186  -0.257  1.00  0.00     0.051 C 
HETATM   15  C7  UNL     1       1.815  -2.512  -0.472  1.00  0.00     0.072 C 
HETATM   16  N4  UNL     1       2.215  -0.351   0.251  1.00  0.00    -0.288 N 
ATOM     17  H4  UNL     1       1.930   0.605   0.465  1.00  0.00     0.188 HD
BRANCH  16  18
HETATM   18  N5  UNL     1       3.504  -0.700   0.497  1.00  0.00    -0.228 N 
ATOM     19  H5  UNL     1       3.700  -1.310   1.291  1.00  0.00     0.209 HD
BRANCH  18  20
HETATM   20  N6  UNL     1       4.571  -0.263  -0.285  1.00  0.00    -0.115 N 
ATOM     21  H6  UNL     1       4.640  -0.624  -1.236  1.00  0.00     0.207 HD
BRANCH  20  22
HETATM   22  C8  UNL     1       5.462   0.552   0.102  1.00  0.00     0.729 A 
HETATM   23  N7  UNL     1       5.527   1.121   1.314  1.00  0.00    -0.114 N 
HETATM   24  N8  UNL     1       6.584   1.916   1.376  1.00  0.00    -0.213 N 
ATOM     25  H7  UNL     1       4.863   0.965   2.073  1.00  0.00     0.207 HD
HETATM   26  N9  UNL     1       7.197   1.859   0.212  1.00  0.00    -0.213 N 
ATOM     27  H8  UNL     1       6.872   2.473   2.181  1.00  0.00     0.210 HD
HETATM   28  N10 UNL     1       6.518   1.025  -0.579  1.00  0.00    -0.114 N 
ATOM     29  H9  UNL     1       8.045   2.365  -0.042  1.00  0.00     0.210 HD
ATOM     30  H10 UNL     1       6.761   0.787  -1.541  1.00  0.00     0.207 HD
ENDBRANCH  20  22
ENDBRANCH  18  20
ENDBRANCH  16  18
ENDBRANCH   5  14
BRANCH   2  31
HETATM   31  N2  UNL     1      -1.375   2.623   0.536  1.00  0.00    -0.234 N 
ATOM     32  H22 UNL     1      -2.255   3.138   0.507  1.00  0.00     0.174 HD
ATOM     33  H21 UNL     1      -0.524   3.016   0.937  1.00  0.00     0.174 HD
ENDBRANCH   2  31
BRANCH   1  34
HETATM   34  C3  UNL     1      -3.597   1.657  -0.503  1.00  0.00     0.149 C 
BRANCH  34  35
HETATM   35  C2  UNL     1      -4.428   1.569   0.745  1.00  0.00     0.016 C 
HETATM   36  C1  UNL     1      -4.881   0.189   1.105  1.00  0.00     0.006 C 
ENDBRANCH  34  35
ENDBRANCH   1  34
TORSDOF 7
