REMARK  5 active torsions:
REMARK  status: ('A' for Active; 'I' for Inactive)
REMARK    1  A    between atoms: C2_3  and  C3_4 
REMARK    2  A    between atoms: C3_4  and  O1_5 
REMARK    3  A    between atoms: C3_4  and  O2_7 
REMARK    4  A    between atoms: C5_11  and  N2_12 
REMARK    5  A    between atoms: C8_15  and  N3_16 
ROOT
HETATM    1  N1  UNL     1      -2.652   2.919  -1.213  1.00  0.00    -0.191 NA
HETATM    2  C1  UNL     1      -2.480   1.861  -0.781  1.00  0.00     0.134 C 
HETATM    3  C2  UNL     1      -2.238   0.528  -0.228  1.00  0.00     0.310 C 
HETATM    4  O3  UNL     1      -2.142  -0.448  -1.194  1.00  0.00    -0.335 OA
HETATM    5  C4  UNL     1      -0.776  -0.672  -1.422  1.00  0.00     0.227 C 
HETATM    6  C5  UNL     1      -0.127   0.452  -0.631  1.00  0.00     0.260 C 
HETATM    7  O5  UNL     1      -1.011   0.582   0.433  1.00  0.00    -0.312 OA
ENDROOT
BRANCH   3   8
HETATM    8  C3  UNL     1      -3.372   0.186   0.709  1.00  0.00     0.334 C 
BRANCH   8   9
HETATM    9  O1  UNL     1      -3.145  -1.044   1.325  1.00  0.00    -0.366 OA
ATOM     10  H1  UNL     1      -3.858  -1.259   1.914  1.00  0.00     0.212 HD
ENDBRANCH   8   9
BRANCH   8  11
HETATM   11  O2  UNL     1      -4.530   0.054  -0.055  1.00  0.00    -0.366 OA
ATOM     12  H2  UNL     1      -5.243  -0.161   0.534  1.00  0.00     0.212 HD
ENDBRANCH   8  11
ENDBRANCH   3   8
BRANCH   6  13
HETATM   13  N2  UNL     1       1.208   0.120  -0.201  1.00  0.00    -0.280 N 
HETATM   14  C6  UNL     1       1.564  -0.036   1.067  1.00  0.00     0.102 A 
HETATM   15  C7  UNL     1       2.864  -0.354   1.402  1.00  0.00     0.065 A 
HETATM   16  C8  UNL     1       3.832  -0.519   0.422  1.00  0.00     0.103 A 
HETATM   17  N4  UNL     1       3.422  -0.350  -0.849  1.00  0.00    -0.295 N 
HETATM   18  C9  UNL     1       2.148  -0.040  -1.145  1.00  0.00     0.330 A 
ATOM     19  H4  UNL     1       4.096  -0.460  -1.607  1.00  0.00     0.172 HD
HETATM   20  O4  UNL     1       1.857   0.098  -2.365  1.00  0.00    -0.246 OA
BRANCH  16  21
HETATM   21  N3  UNL     1       5.046  -0.813   0.690  1.00  0.00    -0.385 N 
ATOM     22  H32 UNL     1       5.357  -0.941   1.653  1.00  0.00     0.157 HD
ATOM     23  H31 UNL     1       5.758  -0.934  -0.031  1.00  0.00     0.157 HD
ENDBRANCH  16  21
ENDBRANCH   6  13
TORSDOF 5
