REMARK  4 active torsions:
REMARK  status: ('A' for Active; 'I' for Inactive)
REMARK    1  A    between atoms: C2_3  and  N2_4 
REMARK    2  A    between atoms: C5_12  and  C6_13 
REMARK       I    between atoms: C6_13  and  N4_15 
REMARK    3  A    between atoms: N4_15  and  N5_17 
REMARK    4  A    between atoms: C7_22  and  N7_23 
ROOT
HETATM    1  C1  UNL     1      -2.804  -0.948   0.128  1.00  0.00     0.177 C 
HETATM    2  N1  UNL     1      -1.359  -1.131   0.059  1.00  0.00    -0.168 N 
HETATM    3  C2  UNL     1      -0.462  -0.134  -0.040  1.00  0.00     0.187 A 
HETATM    4  C5  UNL     1       0.788  -0.717  -0.078  1.00  0.00     0.165 A 
HETATM    5  N6  UNL     1       0.580  -2.058   0.001  1.00  0.00    -0.182 N 
ATOM      6  H6  UNL     1       1.316  -2.764  -0.003  1.00  0.00     0.184 HD
HETATM    7  C7  UNL     1      -0.737  -2.318   0.085  1.00  0.00     0.680 A 
ENDROOT
BRANCH   3   8
HETATM    8  N2  UNL     1      -0.778   1.263  -0.093  1.00  0.00    -0.164 N 
HETATM    9  O1  UNL     1      -0.679   2.006  -1.146  1.00  0.00    -0.169 OA
HETATM   10  C3  UNL     1      -1.040   3.250  -0.889  1.00  0.00     0.389 A 
HETATM   11  O2  UNL     1      -1.045   4.192  -1.727  1.00  0.00    -0.236 OA
HETATM   12  N3  UNL     1      -1.395   3.312   0.414  1.00  0.00    -0.276 N 
HETATM   13  C4  UNL     1      -1.224   2.066   0.889  1.00  0.00     0.209 A 
ATOM     14  H3  UNL     1      -1.723   4.130   0.927  1.00  0.00     0.173 HD
HETATM   15  S1  UNL     1      -1.501   1.557   2.416  1.00  0.00    -0.038 SA
ENDBRANCH   3   8
BRANCH   4  16
HETATM   16  C6  UNL     1       2.053  -0.010  -0.182  1.00  0.00     0.290 C 
HETATM   17  O3  UNL     1       2.067   1.241  -0.246  1.00  0.00    -0.264 OA
HETATM   18  N4  UNL     1       3.279  -0.762  -0.211  1.00  0.00    -0.271 N 
ATOM     19  H4  UNL     1       3.254  -1.780  -0.159  1.00  0.00     0.189 HD
BRANCH  18  20
HETATM   20  N5  UNL     1       4.490  -0.104  -0.310  1.00  0.00    -0.342 N 
ATOM     21  H52 UNL     1       4.497   0.915  -0.362  1.00  0.00     0.176 HD
ATOM     22  H51 UNL     1       5.359  -0.637  -0.331  1.00  0.00     0.176 HD
ENDBRANCH  18  20
ENDBRANCH   4  16
BRANCH   7  23
HETATM   23  N7  UNL     1      -1.286  -3.484   0.173  1.00  0.00    -0.234 N 
ATOM     24  H72 UNL     1      -2.285  -3.681   0.237  1.00  0.00     0.174 HD
ATOM     25  H71 UNL     1      -0.813  -4.387   0.193  1.00  0.00     0.174 HD
ENDBRANCH   7  23
TORSDOF 4
