REMARK  4 active torsions:
REMARK  status: ('A' for Active; 'I' for Inactive)
REMARK    1  A    between atoms: N1_1  and  C1_4 
REMARK    2  A    between atoms: C2_10  and  C3_11 
REMARK    3  A    between atoms: C4_14  and  N5_15 
REMARK    4  A    between atoms: N6_18  and  N7_19 
ROOT
HETATM    1  C3  UNL     1       2.071  -0.411   0.080  1.00  0.00     0.126 A 
HETATM    2  N4  UNL     1       1.218  -1.490   0.003  1.00  0.00    -0.183 N 
ATOM      3  H4  UNL     1       1.616  -2.429   0.025  1.00  0.00     0.184 HD
HETATM    4  C4  UNL     1      -0.106  -1.361  -0.099  1.00  0.00     0.713 A 
HETATM    5  N6  UNL     1      -0.687  -0.154  -0.132  1.00  0.00    -0.021 N 
HETATM    6  N8  UNL     1       0.098   0.895  -0.061  1.00  0.00    -0.248 N 
ATOM      7  H8  UNL     1      -0.323   1.824  -0.085  1.00  0.00     0.191 HD
HETATM    8  C9  UNL     1       1.470   0.793   0.045  1.00  0.00     0.146 A 
HETATM    9  N9  UNL     1       2.115   1.874   0.104  1.00  0.00    -0.382 N 
ATOM     10  H91 UNL     1       1.660   2.786   0.077  1.00  0.00     0.157 HD
ATOM     11  H92 UNL     1       3.129   1.799   0.182  1.00  0.00     0.157 HD
ENDROOT
BRANCH   1  12
HETATM   12  C2  UNL     1       3.474  -0.677   0.187  1.00  0.00     0.133 A 
HETATM   13  C1  UNL     1       4.601   0.059   0.283  1.00  0.00     0.152 A 
HETATM   14  N2  UNL     1       5.684  -0.793   0.359  1.00  0.00    -0.224 N 
HETATM   15  O1  UNL     1       5.242  -1.984   0.313  1.00  0.00    -0.155 OA
ATOM     16  H2  UNL     1       6.663  -0.517   0.438  1.00  0.00     0.198 HD
HETATM   17  N3  UNL     1       3.959  -1.981   0.212  1.00  0.00    -0.236 N 
ATOM     18  H3  UNL     1       3.378  -2.818   0.158  1.00  0.00     0.197 HD
BRANCH  13  19
HETATM   19  N1  UNL     1       4.684   1.330   0.302  1.00  0.00    -0.382 N 
ATOM     20  H12 UNL     1       5.536   1.886   0.375  1.00  0.00     0.157 HD
ATOM     21  H11 UNL     1       3.884   1.960   0.246  1.00  0.00     0.157 HD
ENDBRANCH  13  19
ENDBRANCH   1  12
BRANCH   4  22
HETATM   22  N5  UNL     1      -0.840  -2.438  -0.162  1.00  0.00    -0.232 N 
ATOM     23  H52 UNL     1      -0.398  -3.357  -0.137  1.00  0.00     0.174 HD
ATOM     24  H51 UNL     1      -1.852  -2.339  -0.240  1.00  0.00     0.174 HD
ENDBRANCH   4  22
BRANCH   5  25
HETATM   25  N7  UNL     1      -2.068   0.043  -0.247  1.00  0.00    -0.292 N 
HETATM   26  C5  UNL     1      -2.714   1.361  -0.227  1.00  0.00     0.145 C 
HETATM   27  C6  UNL     1      -4.128   1.025   0.217  1.00  0.00     0.023 C 
HETATM   28  C7  UNL     1      -4.386  -0.232  -0.570  1.00  0.00     0.023 C 
HETATM   29  C8  UNL     1      -3.064  -0.985  -0.406  1.00  0.00     0.145 C 
ENDBRANCH   5  25
TORSDOF 4
