REMARK  5 active torsions:
REMARK  status: ('A' for Active; 'I' for Inactive)
REMARK    1  A    between atoms: N1_1  and  N2_4 
REMARK    2  A    between atoms: N2_4  and  C1_6 
REMARK    3  A    between atoms: C2_12  and  N5_13 
REMARK    4  A    between atoms: N5_13  and  C3_15 
REMARK    5  A    between atoms: N7_20  and  C6_21 
ROOT
HETATM    1  C3  UNL     1       0.785  -0.895  -0.672  1.00  0.00     0.125 A 
HETATM    2  C4  UNL     1       1.475  -2.087  -0.684  1.00  0.00     0.068 A 
HETATM    3  C5  UNL     1       0.568  -3.064  -0.348  1.00  0.00     0.111 A 
HETATM    4  N6  UNL     1      -0.601  -2.430  -0.152  1.00  0.00    -0.308 N 
ATOM      5  H6  UNL     1      -1.467  -2.900   0.111  1.00  0.00     0.186 HD
HETATM    6  N7  UNL     1      -0.496  -1.137  -0.339  1.00  0.00    -0.270 N 
ENDROOT
BRANCH   1   7
HETATM    7  N5  UNL     1       1.248   0.260  -0.925  1.00  0.00    -0.323 N 
ATOM      8  H5  UNL     1       0.599   1.045  -0.870  1.00  0.00     0.169 HD
BRANCH   7   9
HETATM    9  C2  UNL     1       2.579   0.551  -1.275  1.00  0.00     0.176 A 
HETATM   10  C1  UNL     1       3.529   0.996  -0.380  1.00  0.00     0.188 A 
HETATM   11  N3  UNL     1       4.649   1.157  -1.080  1.00  0.00    -0.221 N 
HETATM   12  O1  UNL     1       4.402   0.834  -2.314  1.00  0.00    -0.153 OA
ATOM     13  H3  UNL     1       5.545   1.478  -0.712  1.00  0.00     0.198 HD
HETATM   14  N4  UNL     1       3.188   0.466  -2.487  1.00  0.00    -0.222 N 
ATOM     15  H4  UNL     1       2.761   0.167  -3.364  1.00  0.00     0.198 HD
BRANCH  10  16
HETATM   16  N2  UNL     1       3.321   1.203   0.895  1.00  0.00    -0.287 N 
ATOM     17  H2  UNL     1       2.393   1.029   1.282  1.00  0.00     0.188 HD
BRANCH  16  18
HETATM   18  N1  UNL     1       4.323   1.650   1.728  1.00  0.00    -0.343 N 
ATOM     19  H12 UNL     1       5.245   1.819   1.325  1.00  0.00     0.176 HD
ATOM     20  H11 UNL     1       4.161   1.811   2.722  1.00  0.00     0.176 HD
ENDBRANCH  16  18
ENDBRANCH  10  16
ENDBRANCH   7   9
ENDBRANCH   1   7
BRANCH   6  21
HETATM   21  C6  UNL     1      -1.533  -0.154  -0.218  1.00  0.00     0.135 C 
HETATM   22  C7  UNL     1      -2.892  -0.618  -0.570  1.00  0.00     0.030 C 
HETATM   23  C8  UNL     1      -3.993  -0.018   0.261  1.00  0.00     0.029 C 
HETATM   24  C9  UNL     1      -3.728   1.335   0.782  1.00  0.00     0.232 C 
HETATM   25  N8  UNL     1      -2.373   1.669   1.038  1.00  0.00    -0.073 N 
HETATM   26  C10 UNL     1      -1.585   0.444   1.186  1.00  0.00     0.259 C 
ATOM     27  H82 UNL     1      -1.989   2.290   0.326  1.00  0.00     0.277 HD
ATOM     28  H81 UNL     1      -2.275   2.289   1.842  1.00  0.00     0.277 HD
ENDBRANCH   6  21
TORSDOF 5
