REMARK  11 active torsions:
REMARK  status: ('A' for Active; 'I' for Inactive)
REMARK    1  A    between atoms: C2_2  and  C3_3 
REMARK    2  A    between atoms: C3_3  and  C4_4 
REMARK    3  A    between atoms: C4_4  and  N1_5 
REMARK    4  A    between atoms: C6_8  and  N3_9 
REMARK    5  A    between atoms: N3_9  and  C7_10 
REMARK    6  A    between atoms: C9_12  and  O1_13 
REMARK    7  A    between atoms: C9_12  and  C10_15 
REMARK    8  A    between atoms: C11_16  and  N4_17 
REMARK       I    between atoms: N4_17  and  C12_19 
REMARK    9  A    between atoms: C12_19  and  C13_21 
REMARK   10  A    between atoms: C17_26  and  C18_27 
REMARK   11  A    between atoms: C18_27  and  O3_29 
ROOT
HETATM    1  N3  UNL     1       1.405   1.348  -0.204  1.00  0.00    -0.320 N 
HETATM    2  C9  UNL     1       0.120   1.714   0.077  1.00  0.00     0.156 C 
ENDROOT
BRANCH   2   3
HETATM    3  O1  UNL     1      -0.315   0.935   1.128  1.00  0.00    -0.345 OA
ATOM      4  H1  UNL     1      -1.209   1.190   1.324  1.00  0.00     0.219 HD
ENDBRANCH   2   3
BRANCH   2   5
HETATM    5  C10 UNL     1      -0.971   2.632  -0.339  1.00  0.00     0.056 A 
HETATM    6  C11 UNL     1      -2.246   2.332   0.164  1.00  0.00     0.092 A 
HETATM    7  S1  UNL     1      -3.128   3.806  -0.090  1.00  0.00    -0.069 SA
HETATM    8  C17 UNL     1      -1.916   4.749  -0.822  1.00  0.00     0.042 A 
HETATM    9  C20 UNL     1      -0.849   3.903  -0.855  1.00  0.00    -0.025 A 
HETATM   10  C21 UNL     1       0.396   4.366  -1.615  1.00  0.00     0.050 C 
BRANCH   6  11
HETATM   11  N4  UNL     1      -2.913   1.123   0.502  1.00  0.00    -0.320 N 
HETATM   12  C12 UNL     1      -2.730  -0.130  -0.036  1.00  0.00     0.230 C 
HETATM   13  O2  UNL     1      -1.926  -0.358  -0.977  1.00  0.00    -0.272 OA
ATOM     14  H4  UNL     1      -3.617   1.193   1.237  1.00  0.00     0.169 HD
BRANCH  12  15
HETATM   15  C13 UNL     1      -3.495  -1.326   0.475  1.00  0.00     0.030 C 
HETATM   16  C14 UNL     1      -3.252  -1.590   1.921  1.00  0.00     0.025 C 
HETATM   17  C15 UNL     1      -4.959  -1.017   0.292  1.00  0.00     0.025 C 
HETATM   18  C16 UNL     1      -3.131  -2.539  -0.326  1.00  0.00     0.025 C 
ENDBRANCH  12  15
ENDBRANCH   6  11
BRANCH   8  19
HETATM   19  C18 UNL     1      -2.106   6.166  -1.239  1.00  0.00     0.057 C 
HETATM   20  C19 UNL     1      -1.172   7.101  -1.804  1.00  0.00     0.077 C 
BRANCH  19  21
HETATM   21  O3  UNL     1      -3.328   6.589  -1.038  1.00  0.00    -0.364 OA
ATOM     22  H3  UNL     1      -3.449   7.493  -1.304  1.00  0.00     0.217 HD
ENDBRANCH  19  21
ENDBRANCH   8  19
ENDBRANCH   2   5
BRANCH   1  23
HETATM   23  C6  UNL     1       1.905   0.173   0.612  1.00  0.00     0.147 A 
HETATM   24  C5  UNL     1       2.028  -1.066   0.078  1.00  0.00     0.155 A 
HETATM   25  N1  UNL     1       2.497  -2.084   0.886  1.00  0.00    -0.285 N 
HETATM   26  N2  UNL     1       1.685  -1.296  -1.282  1.00  0.00    -0.080 NA
HETATM   27  C23 UNL     1       2.821  -1.854   2.163  1.00  0.00     0.330 A 
HETATM   28  N5  UNL     1       2.695  -0.626   2.679  1.00  0.00    -0.273 N 
HETATM   29  O5  UNL     1       3.257  -2.802   2.912  1.00  0.00    -0.246 OA
HETATM   30  C22 UNL     1       2.228   0.415   1.897  1.00  0.00     0.279 A 
ATOM     31  H5  UNL     1       2.944  -0.457   3.653  1.00  0.00     0.173 HD
HETATM   32  O4  UNL     1       2.127   1.546   2.418  1.00  0.00    -0.265 OA
BRANCH  25  33
HETATM   33  C4  UNL     1       2.630  -3.390   0.315  1.00  0.00     0.135 C 
BRANCH  33  34
HETATM   34  C3  UNL     1       1.329  -4.135   0.508  1.00  0.00     0.020 C 
BRANCH  34  35
HETATM   35  C2  UNL     1       1.378  -5.528  -0.070  1.00  0.00    -0.003 C 
HETATM   36  C1  UNL     1       2.443  -6.376   0.557  1.00  0.00     0.005 C 
ENDBRANCH  34  35
ENDBRANCH  33  34
ENDBRANCH  25  33
ENDBRANCH   1  23
BRANCH   1  37
HETATM   37  C7  UNL     1       2.508   1.749  -1.024  1.00  0.00     0.127 C 
HETATM   38  C8  UNL     1       3.478   2.703  -0.349  1.00  0.00     0.027 C 
ENDBRANCH   1  37
TORSDOF 11
