REMARK  12 active torsions:
REMARK  status: ('A' for Active; 'I' for Inactive)
REMARK    1  A    between atoms: O1_2  and  C2_3 
REMARK    2  A    between atoms: C2_3  and  C3_5 
REMARK    3  A    between atoms: C3_5  and  C4_6 
REMARK    4  A    between atoms: C4_6  and  C5_7 
REMARK    5  A    between atoms: C5_7  and  C6_8 
REMARK    6  A    between atoms: C6_8  and  C7_9 
REMARK    7  A    between atoms: C7_9  and  O3_12 
REMARK    8  A    between atoms: O3_12  and  C10_13 
REMARK    9  A    between atoms: C10_13  and  O4_14 
REMARK   10  A    between atoms: C10_13  and  N1_16 
REMARK   11  A    between atoms: N1_16  and  C11_18 
REMARK   12  A    between atoms: C24_33  and  O6_34 
ROOT
HETATM    1  C11 UNL     1      -0.714   0.638   1.139  1.00  0.00     0.090 C 
HETATM    2  C12 UNL     1      -0.826   1.910   0.345  1.00  0.00     0.026 C 
HETATM    3  C13 UNL     1      -2.324   2.087   0.040  1.00  0.00     0.012 C 
HETATM    4  C14 UNL     1      -2.949   0.897   0.639  1.00  0.00    -0.027 C 
HETATM    5  C15 UNL     1      -2.980   1.171   2.158  1.00  0.00     0.016 C 
HETATM    6  C16 UNL     1      -4.308   0.484   0.232  1.00  0.00     0.044 C 
HETATM    7  C17 UNL     1      -4.888   0.972  -1.023  1.00  0.00     0.095 C 
HETATM    8  C18 UNL     1      -5.254   2.392  -1.116  1.00  0.00     0.139 C 
HETATM    9  O5  UNL     1      -5.112   3.309  -0.437  1.00  0.00    -0.297 OA
HETATM   10  C19 UNL     1      -5.944   2.362  -2.462  1.00  0.00     0.106 C 
HETATM   11  C20 UNL     1      -6.857   1.199  -2.142  1.00  0.00    -0.013 C 
HETATM   12  C21 UNL     1      -6.221   0.364  -1.273  1.00  0.00    -0.038 C 
HETATM   13  C22 UNL     1      -6.743  -0.883  -0.684  1.00  0.00     0.202 C 
HETATM   14  F1  UNL     1      -6.809  -1.830  -1.706  1.00  0.00    -0.245 F 
HETATM   15  C23 UNL     1      -5.911  -1.368   0.448  1.00  0.00     0.080 C 
HETATM   16  C24 UNL     1      -4.426  -1.045   0.185  1.00  0.00     0.066 C 
HETATM   17  C25 UNL     1      -3.638  -1.748   1.215  1.00  0.00     0.039 C 
HETATM   18  C26 UNL     1      -2.175  -1.392   1.224  1.00  0.00     0.015 C 
HETATM   19  C27 UNL     1      -1.862  -0.150   0.473  1.00  0.00    -0.016 C 
HETATM   20  C28 UNL     1      -1.404  -0.371  -0.929  1.00  0.00     0.018 C 
ENDROOT
BRANCH   1  21
HETATM   21  N1  UNL     1       0.495  -0.093   0.850  1.00  0.00    -0.370 N 
ATOM     22  H1  UNL     1       0.480  -1.027   0.440  1.00  0.00     0.158 HD
BRANCH  21  23
HETATM   23  C10 UNL     1       1.710   0.574   1.174  1.00  0.00     0.364 C 
BRANCH  23  24
HETATM   24  O3  UNL     1       2.766  -0.226   0.828  1.00  0.00    -0.334 OA
BRANCH  24  25
HETATM   25  C7  UNL     1       3.637  -0.573   1.811  1.00  0.00     0.058 C 
HETATM   26  C8  UNL     1       4.238   0.567   2.601  1.00  0.00     0.045 C 
HETATM   27  C9  UNL     1       2.919  -1.462   2.873  1.00  0.00     0.045 C 
BRANCH  25  28
HETATM   28  C6  UNL     1       4.752  -1.442   1.315  1.00  0.00     0.037 C 
BRANCH  28  29
HETATM   29  C5  UNL     1       5.778  -0.796   0.451  1.00  0.00     0.004 C 
BRANCH  29  30
HETATM   30  C4  UNL     1       5.160  -0.226  -0.790  1.00  0.00     0.010 C 
BRANCH  30  31
HETATM   31  C3  UNL     1       6.189   0.381  -1.677  1.00  0.00     0.111 C 
BRANCH  31  32
HETATM   32  C2  UNL     1       7.146  -0.616  -2.185  1.00  0.00     0.258 C 
HETATM   33  O2  UNL     1       7.066  -1.860  -2.042  1.00  0.00    -0.265 OA
BRANCH  32  34
HETATM   34  O1  UNL     1       8.285  -0.176  -2.915  1.00  0.00    -0.326 OA
HETATM   35  C1  UNL     1       9.208  -1.119  -3.407  1.00  0.00     0.213 C 
ENDBRANCH  32  34
ENDBRANCH  31  32
ENDBRANCH  30  31
ENDBRANCH  29  30
ENDBRANCH  28  29
ENDBRANCH  25  28
ENDBRANCH  24  25
ENDBRANCH  23  24
BRANCH  23  36
HETATM   36  O4  UNL     1       1.857   1.793   0.508  1.00  0.00    -0.355 OA
ATOM     37  H4  UNL     1       1.124   2.348   0.748  1.00  0.00     0.214 HD
ENDBRANCH  23  36
ENDBRANCH  21  23
ENDBRANCH   1  21
BRANCH  16  38
HETATM   38  O6  UNL     1      -4.252  -1.527  -1.124  1.00  0.00    -0.389 OA
ATOM     39  H6  UNL     1      -4.325  -2.474  -1.153  1.00  0.00     0.210 HD
ENDBRANCH  16  38
TORSDOF 12
