REMARK  11 active torsions:
REMARK  status: ('A' for Active; 'I' for Inactive)
REMARK    1  A    between atoms: N1_2  and  C2_3 
REMARK    2  A    between atoms: N1_2  and  C23_35 
REMARK    3  A    between atoms: C2_3  and  C3_4 
REMARK    4  A    between atoms: C3_4  and  C4_5 
REMARK    5  A    between atoms: C4_5  and  N2_6 
REMARK    6  A    between atoms: N2_6  and  C5_8 
REMARK    7  A    between atoms: C5_8  and  C6_9 
REMARK    8  A    between atoms: C6_9  and  C7_10 
REMARK    9  A    between atoms: C7_10  and  N3_11 
REMARK   10  A    between atoms: C8_12  and  O1_13 
REMARK   11  A    between atoms: C11_17  and  O2_18 
ROOT
HETATM    1  N3  UNL     1      -1.348  -0.477   1.310  1.00  0.00    -0.307 N 
HETATM    2  C8  UNL     1      -1.613   0.825   1.313  1.00  0.00     0.161 A 
HETATM    3  C9  UNL     1      -2.869   1.032   0.786  1.00  0.00     0.098 A 
HETATM    4  C10 UNL     1      -3.356  -0.226   0.456  1.00  0.00     0.062 A 
HETATM    5  C11 UNL     1      -2.381  -1.169   0.796  1.00  0.00     0.156 A 
HETATM    6  C12 UNL     1      -4.671  -0.108  -0.157  1.00  0.00     0.147 A 
HETATM    7  C13 UNL     1      -4.473  -0.467  -1.652  1.00  0.00     0.070 C 
HETATM    8  N4  UNL     1      -5.724  -0.922   0.363  1.00  0.00    -0.321 N 
HETATM    9  C14 UNL     1      -5.486  -2.026   1.232  1.00  0.00     0.156 C 
HETATM   10  C15 UNL     1      -7.087  -0.598  -0.019  1.00  0.00     0.258 C 
HETATM   11  O3  UNL     1      -7.981  -1.471   0.019  1.00  0.00    -0.267 OA
HETATM   12  C16 UNL     1      -7.391   0.767  -0.448  1.00  0.00     0.059 A 
HETATM   13  C17 UNL     1      -8.673   1.094  -0.812  1.00  0.00     0.019 A 
HETATM   14  C18 UNL     1      -8.872   2.413  -1.203  1.00  0.00     0.001 A 
HETATM   15  C19 UNL     1      -7.875   3.358  -1.235  1.00  0.00     0.002 A 
HETATM   16  C20 UNL     1      -6.586   2.972  -0.854  1.00  0.00     0.031 A 
HETATM   17  C21 UNL     1      -6.352   1.690  -0.465  1.00  0.00     0.056 A 
HETATM   18  N5  UNL     1      -5.020   1.293  -0.067  1.00  0.00    -0.281 N 
HETATM   19  C22 UNL     1      -3.917   1.987   0.451  1.00  0.00     0.266 A 
HETATM   20  O4  UNL     1      -3.828   3.237   0.609  1.00  0.00    -0.267 OA
ENDROOT
BRANCH   1  21
HETATM   21  C7  UNL     1      -0.130  -1.075   1.777  1.00  0.00     0.138 C 
BRANCH  21  22
HETATM   22  C6  UNL     1       0.864  -1.240   0.617  1.00  0.00     0.065 C 
BRANCH  22  23
HETATM   23  C5  UNL     1       2.100  -1.873   1.201  1.00  0.00     0.061 C 
BRANCH  23  24
HETATM   24  N2  UNL     1       3.141  -2.160   0.304  1.00  0.00    -0.382 N 
ATOM     25  H2  UNL     1       3.381  -3.130   0.100  1.00  0.00     0.163 HD
BRANCH  24  26
HETATM   26  C4  UNL     1       3.857  -1.117  -0.316  1.00  0.00     0.062 C 
BRANCH  26  27
HETATM   27  C3  UNL     1       4.691  -0.340   0.691  1.00  0.00     0.074 C 
BRANCH  27  28
HETATM   28  C2  UNL     1       5.497   0.734   0.033  1.00  0.00     0.279 C 
BRANCH  28  29
HETATM   29  N1  UNL     1       6.475   0.259  -0.926  1.00  0.00     0.108 N 
HETATM   30  C1  UNL     1       6.990   1.509  -1.538  1.00  0.00     0.312 C 
BRANCH  29  31
HETATM   31  C23 UNL     1       7.604  -0.390  -0.309  1.00  0.00     0.227 C 
HETATM   32  C24 UNL     1       8.253   0.342   0.806  1.00  0.00     0.067 C 
HETATM   33  C25 UNL     1       8.677  -0.497  -1.413  1.00  0.00     0.067 C 
HETATM   34 CL1  UNL     1       7.307  -2.065   0.180  1.00  0.00    -0.086 Cl
ENDBRANCH  29  31
ENDBRANCH  28  29
ENDBRANCH  27  28
ENDBRANCH  26  27
ENDBRANCH  24  26
ENDBRANCH  23  24
ENDBRANCH  22  23
ENDBRANCH  21  22
ENDBRANCH   1  21
BRANCH   2  35
HETATM   35  O1  UNL     1      -0.770   1.820   1.772  1.00  0.00    -0.345 OA
ATOM     36  H1  UNL     1      -0.959   2.751   1.774  1.00  0.00     0.219 HD
ENDBRANCH   2  35
BRANCH   5  37
HETATM   37  O2  UNL     1      -2.389  -2.544   0.664  1.00  0.00    -0.345 OA
ATOM     38  H2  UNL     1      -3.118  -3.033   0.301  1.00  0.00     0.219 HD
ENDBRANCH   5  37
TORSDOF 11
