REMARK  11 active torsions:
REMARK  status: ('A' for Active; 'I' for Inactive)
REMARK    1  A    between atoms: S1_2  and  C2_3 
REMARK    2  A    between atoms: C2_3  and  N2_7 
REMARK    3  A    between atoms: N2_7  and  C3_9 
REMARK    4  A    between atoms: C6_12  and  N3_13 
REMARK    5  A    between atoms: N4_16  and  C9_17 
REMARK    6  A    between atoms: C9_17  and  C10_18 
REMARK    7  A    between atoms: C10_18  and  O1_19 
REMARK    8  A    between atoms: O1_19  and  C11_20 
REMARK    9  A    between atoms: C11_20  and  C12_21 
REMARK       I    between atoms: C12_21  and  N5_23 
REMARK   10  A    between atoms: C20_31  and  N6_32 
REMARK   11  A    between atoms: C21_34  and  C22_35 
ROOT
HETATM    1  C3  UNL     1      -3.716  -1.196   0.708  1.00  0.00     0.061 A 
HETATM    2  C4  UNL     1      -2.860  -2.276   0.765  1.00  0.00     0.034 A 
HETATM    3  C5  UNL     1      -1.568  -2.209   0.301  1.00  0.00     0.031 A 
HETATM    4  C6  UNL     1      -1.104  -1.043  -0.236  1.00  0.00     0.032 A 
HETATM    5  C19 UNL     1      -1.937   0.057  -0.307  1.00  0.00     0.061 A 
HETATM    6  C20 UNL     1      -3.233  -0.048   0.171  1.00  0.00     0.060 A 
ENDROOT
BRANCH   4   7
HETATM    7  N3  UNL     1       0.211  -0.907  -0.766  1.00  0.00    -0.378 N 
HETATM    8  C7  UNL     1       0.926   0.351  -0.758  1.00  0.00     0.142 C 
HETATM    9  C8  UNL     1       2.289   0.155  -0.133  1.00  0.00     0.136 C 
HETATM   10  N4  UNL     1       2.478  -1.220   0.151  1.00  0.00    -0.407 N 
HETATM   11  C17 UNL     1       2.291  -2.112  -0.939  1.00  0.00     0.136 C 
HETATM   12  C18 UNL     1       0.846  -2.063  -1.370  1.00  0.00     0.142 C 
BRANCH  10  13
HETATM   13  C9  UNL     1       3.565  -1.538   1.024  1.00  0.00     0.143 C 
BRANCH  13  14
HETATM   14  C10 UNL     1       4.870  -1.238   0.316  1.00  0.00     0.187 C 
BRANCH  14  15
HETATM   15  O1  UNL     1       5.941  -1.559   1.116  1.00  0.00    -0.380 OA
BRANCH  15  16
HETATM   16  C11 UNL     1       5.994  -0.806   2.248  1.00  0.00     0.270 C 
BRANCH  16  17
HETATM   17  C12 UNL     1       6.333   0.597   1.978  1.00  0.00     0.243 C 
HETATM   18  O2  UNL     1       5.874   1.440   2.838  1.00  0.00    -0.271 OA
HETATM   19  N5  UNL     1       7.097   1.020   0.889  1.00  0.00    -0.350 N 
HETATM   20  C13 UNL     1       7.754   0.243  -0.127  1.00  0.00     0.126 C 
HETATM   21  C16 UNL     1       7.357   2.438   0.621  1.00  0.00     0.126 C 
HETATM   22  C14 UNL     1       9.017   1.087  -0.371  1.00  0.00     0.021 C 
HETATM   23  C15 UNL     1       8.402   2.461  -0.465  1.00  0.00     0.021 C 
ENDBRANCH  16  17
ENDBRANCH  15  16
ENDBRANCH  14  15
ENDBRANCH  13  14
ENDBRANCH  10  13
ENDBRANCH   4   7
BRANCH   6  24
HETATM   24  N6  UNL     1      -4.069   1.111   0.074  1.00  0.00    -0.367 N 
HETATM   25  C21 UNL     1      -4.989   1.172  -0.826  1.00  0.00     0.066 C 
ATOM     26  H6  UNL     1      -3.936   1.890   0.719  1.00  0.00     0.165 HD
BRANCH  25  27
HETATM   27  C22 UNL     1      -5.875   2.338  -0.971  1.00  0.00     0.024 C 
HETATM   28  C23 UNL     1      -7.281   1.871  -1.206  1.00  0.00     0.010 C 
HETATM   29  C24 UNL     1      -8.154   2.750  -0.323  1.00  0.00     0.001 C 
HETATM   30  C25 UNL     1      -7.264   3.850   0.179  1.00  0.00     0.001 C 
HETATM   31  C26 UNL     1      -5.881   3.216   0.250  1.00  0.00     0.010 C 
ENDBRANCH  25  27
ENDBRANCH   6  24
BRANCH   1  32
HETATM   32  N2  UNL     1      -5.052  -1.312   1.202  1.00  0.00    -0.335 N 
ATOM     33  H2  UNL     1      -5.663  -0.497   1.157  1.00  0.00     0.168 HD
BRANCH  32  34
HETATM   34  C2  UNL     1      -5.558  -2.508   1.749  1.00  0.00     0.138 C 
HETATM   35  N1  UNL     1      -5.749  -2.590   3.020  1.00  0.00    -0.380 N 
ATOM     36  H12 UNL     1      -6.115  -3.456   3.416  1.00  0.00     0.158 HD
ATOM     37  H11 UNL     1      -5.527  -1.782   3.601  1.00  0.00     0.158 HD
BRANCH  34  38
HETATM   38  S1  UNL     1      -5.945  -3.914   0.738  1.00  0.00    -0.099 SA
HETATM   39  C1  UNL     1      -5.607  -3.574  -1.017  1.00  0.00     0.099 C 
ENDBRANCH  34  38
ENDBRANCH  32  34
ENDBRANCH   1  32
TORSDOF 11
