REMARK  4 active torsions:
REMARK  status: ('A' for Active; 'I' for Inactive)
REMARK    1  A    between atoms: N1_1  and  C1_5 
REMARK    2  A    between atoms: C1_5  and  N2_6 
REMARK    3  A    between atoms: C1_5  and  C2_10 
REMARK    4  A    between atoms: C5_19  and  N5_20 
ROOT
HETATM    1  C2  UNL     1      -0.038  -0.238   0.431  1.00  0.00     0.110 A 
HETATM    2  N3  UNL     1      -0.549  -1.489   0.467  1.00  0.00    -0.306 N 
ATOM      3  H3  UNL     1       0.019  -2.272   0.790  1.00  0.00     0.170 HD
HETATM    4  C3  UNL     1      -1.810  -1.681   0.072  1.00  0.00     0.327 A 
HETATM    5  O1  UNL     1      -2.247  -2.883   0.126  1.00  0.00    -0.247 OA
HETATM    6  N4  UNL     1      -2.567  -0.684  -0.352  1.00  0.00    -0.273 N 
ATOM      7  H4  UNL     1      -3.526  -0.868  -0.647  1.00  0.00     0.173 HD
HETATM    8  C4  UNL     1      -2.091   0.557  -0.398  1.00  0.00     0.284 A 
HETATM    9  O2  UNL     1      -2.789   1.518  -0.796  1.00  0.00    -0.265 OA
HETATM   10  C5  UNL     1      -0.788   0.812   0.002  1.00  0.00     0.197 A 
ENDROOT
BRANCH   1  11
HETATM   11  C1  UNL     1       1.367  -0.081   0.841  1.00  0.00     0.430 C 
BRANCH  11  12
HETATM   12  N1  UNL     1       2.094  -1.222   0.246  1.00  0.00    -0.045 N 
ATOM     13  H13 UNL     1       2.136  -1.162  -0.771  1.00  0.00     0.277 HD
ATOM     14  H12 UNL     1       3.095  -1.181   0.438  1.00  0.00     0.277 HD
ATOM     15  H11 UNL     1       1.678  -2.098   0.562  1.00  0.00     0.277 HD
ENDBRANCH  11  12
BRANCH  11  16
HETATM   16  N2  UNL     1       1.951   1.149   0.398  1.00  0.00    -0.045 N 
ATOM     17  H23 UNL     1       2.952   1.190   0.590  1.00  0.00     0.277 HD
ATOM     18  H22 UNL     1       1.993   1.209  -0.619  1.00  0.00     0.277 HD
ATOM     19  H21 UNL     1       1.449   1.936   0.809  1.00  0.00     0.277 HD
ENDBRANCH  11  16
ENDBRANCH   1  11
BRANCH  10  20
HETATM   20  N5  UNL     1      -0.356   2.159  -0.067  1.00  0.00    -0.108 N 
HETATM   21  O3  UNL     1      -0.314   2.871   0.940  1.00  0.00    -0.531 OA
HETATM   22  O4  UNL     1      -0.009   2.689  -1.270  1.00  0.00    -0.531 OA
ENDBRANCH  10  20
TORSDOF 4
