REMARK  3 active torsions:
REMARK  status: ('A' for Active; 'I' for Inactive)
REMARK    1  A    between atoms: N1_1  and  C1_4 
REMARK    2  A    between atoms: C2_7  and  N3_8 
REMARK       I    between atoms: N3_8  and  C3_10 
REMARK    3  A    between atoms: C4_17  and  N7_18 
ROOT
HETATM    1  C1  UNL     1      -1.811  -0.653  -0.012  1.00  0.00     0.167 A 
HETATM    2  N2  UNL     1      -0.578  -1.091  -0.402  1.00  0.00    -0.172 N 
ATOM      3  H2  UNL     1      -0.509  -2.013  -0.833  1.00  0.00     0.186 HD
HETATM    4  C2  UNL     1       0.547  -0.379  -0.251  1.00  0.00     0.702 A 
HETATM    5  N5  UNL     1       0.469   0.835   0.314  1.00  0.00    -0.130 N 
ATOM      6  H5  UNL     1       1.312   1.395   0.439  1.00  0.00     0.205 HD
HETATM    7  N6  UNL     1      -0.698   1.302   0.707  1.00  0.00    -0.263 N 
ATOM      8  H6  UNL     1      -0.736   2.227   1.134  1.00  0.00     0.189 HD
HETATM    9  C4  UNL     1      -1.863   0.595   0.565  1.00  0.00     0.233 A 
ENDROOT
BRANCH   4  10
HETATM   10  N3  UNL     1       1.707  -0.847  -0.644  1.00  0.00    -0.142 N 
HETATM   11  C3  UNL     1       2.880  -0.096  -0.483  1.00  0.00     0.347 C 
HETATM   12  N4  UNL     1       3.880  -0.365   0.499  1.00  0.00    -0.039 NA
HETATM   13  O1  UNL     1       3.090   0.900  -1.253  1.00  0.00    -0.250 OA
ATOM     14  H3  UNL     1       1.757  -1.771  -1.073  1.00  0.00     0.189 HD
ENDBRANCH   4  10
BRANCH   1  15
HETATM   15  N1  UNL     1      -2.810  -1.425  -0.218  1.00  0.00    -0.382 N 
ATOM     16  H12 UNL     1      -2.771  -2.350  -0.646  1.00  0.00     0.157 HD
ATOM     17  H11 UNL     1      -3.731  -1.098   0.073  1.00  0.00     0.157 HD
ENDBRANCH   1  15
BRANCH   9  18
HETATM   18  N7  UNL     1      -3.075   1.177   1.014  1.00  0.00    -0.092 N 
HETATM   19  O2  UNL     1      -3.154   2.434   1.007  1.00  0.00    -0.530 OA
HETATM   20  O3  UNL     1      -4.170   0.499   1.452  1.00  0.00    -0.530 OA
ENDBRANCH   9  18
TORSDOF 3
