REMARK  6 active torsions:
REMARK  status: ('A' for Active; 'I' for Inactive)
REMARK    1  A    between atoms: N1_1  and  C1_5 
REMARK    2  A    between atoms: C1_5  and  C2_6 
REMARK    3  A    between atoms: C2_6  and  C3_7 
REMARK       I    between atoms: C3_7  and  N2_9 
REMARK    4  A    between atoms: N2_9  and  C4_11 
REMARK    5  A    between atoms: C4_11  and  C5_12 
REMARK    6  A    between atoms: C5_12  and  N3_13 
ROOT
HETATM    1  N3  UNL     1       0.829   1.129  -0.812  1.00  0.00    -0.358 N 
ATOM      2  H3  UNL     1       1.026   1.558  -1.716  1.00  0.00     0.166 HD
HETATM    3  C6  UNL     1      -0.390   1.245  -0.412  1.00  0.00     0.084 C 
HETATM    4  C7  UNL     1      -0.713   0.630   0.900  1.00  0.00     0.104 C 
HETATM    5  C8  UNL     1      -0.730  -0.850   0.959  1.00  0.00     0.240 C 
HETATM    6  N4  UNL     1      -1.853  -1.426   1.736  1.00  0.00    -0.073 N 
ATOM      7  H41 UNL     1      -1.604  -1.595   2.711  1.00  0.00     0.277 HD
ATOM      8  H42 UNL     1      -2.055  -2.390   1.471  1.00  0.00     0.277 HD
HETATM    9  C9  UNL     1      -2.977  -0.588   1.607  1.00  0.00     0.259 C 
HETATM   10  C10 UNL     1      -4.347  -1.243   1.501  1.00  0.00     0.260 C 
HETATM   11  N5  UNL     1      -5.202  -0.099   1.109  1.00  0.00    -0.069 N 
ATOM     12  H51 UNL     1      -5.123   0.661   1.785  1.00  0.00     0.277 HD
ATOM     13  H52 UNL     1      -6.189  -0.327   1.227  1.00  0.00     0.277 HD
HETATM   14  C11 UNL     1      -4.944   0.371  -0.217  1.00  0.00     0.276 C 
HETATM   15  C12 UNL     1      -4.340   1.754  -0.302  1.00  0.00     0.090 C 
HETATM   16  N6  UNL     1      -3.689   2.113  -1.464  1.00  0.00    -0.343 N 
ATOM     17  H6  UNL     1      -4.142   2.822  -2.041  1.00  0.00     0.167 HD
HETATM   18  C13 UNL     1      -2.474   1.607  -1.933  1.00  0.00     0.193 C 
HETATM   19  N7  UNL     1      -2.518   0.229  -2.419  1.00  0.00    -0.063 NA
HETATM   20  N8  UNL     1      -1.262   1.976  -1.264  1.00  0.00    -0.320 N 
ATOM     21  H8  UNL     1      -0.972   2.940  -1.429  1.00  0.00     0.169 HD
ENDROOT
BRANCH   1  22
HETATM   22  C5  UNL     1       1.925   0.509  -0.205  1.00  0.00     0.082 C 
BRANCH  22  23
HETATM   23  C4  UNL     1       2.313  -0.737  -0.977  1.00  0.00     0.167 C 
BRANCH  23  24
HETATM   24  N2  UNL     1       3.432  -1.418  -0.381  1.00  0.00    -0.356 N 
HETATM   25  C3  UNL     1       4.712  -0.859  -0.222  1.00  0.00     0.219 C 
HETATM   26  O1  UNL     1       5.025   0.291  -0.584  1.00  0.00    -0.274 OA
ATOM     27  H2  UNL     1       3.286  -2.372  -0.051  1.00  0.00     0.162 HD
BRANCH  25  28
HETATM   28  C2  UNL     1       5.765  -1.710   0.427  1.00  0.00     0.130 C 
BRANCH  28  29
HETATM   29  C1  UNL     1       7.035  -0.897   0.482  1.00  0.00     0.238 C 
BRANCH  29  30
HETATM   30  N1  UNL     1       6.821   0.310   1.257  1.00  0.00    -0.079 N 
ATOM     31  H13 UNL     1       6.034   0.855   0.905  1.00  0.00     0.274 HD
ATOM     32  H12 UNL     1       6.458   0.106   2.188  1.00  0.00     0.274 HD
ATOM     33  H11 UNL     1       7.679   0.860   1.294  1.00  0.00     0.274 HD
ENDBRANCH  29  30
ENDBRANCH  28  29
ENDBRANCH  25  28
ENDBRANCH  23  24
ENDBRANCH  22  23
ENDBRANCH   1  22
TORSDOF 6
