REMARK  7 active torsions:
REMARK  status: ('A' for Active; 'I' for Inactive)
REMARK    1  A    between atoms: C4_7  and  N3_8 
REMARK    2  A    between atoms: N5_14  and  N6_16 
REMARK    3  A    between atoms: N7_20  and  C7_22 
REMARK    4  A    between atoms: C7_22  and  C8_23 
REMARK    5  A    between atoms: C8_23  and  N8_24 
REMARK       I    between atoms: N8_24  and  C9_26 
REMARK    6  A    between atoms: C9_26  and  C10_28 
REMARK    7  A    between atoms: C10_28  and  N9_29 
ROOT
HETATM    1  C1  UNL     1      -2.535   2.348  -2.148  1.00  0.00     0.158 C 
HETATM    2  N1  UNL     1      -2.831   2.010  -0.776  1.00  0.00    -0.332 N 
HETATM    3  C2  UNL     1      -3.658   2.705   0.003  1.00  0.00     0.184 A 
HETATM    4  N2  UNL     1      -3.724   2.139   1.221  1.00  0.00    -0.346 N 
ATOM      5  H2  UNL     1      -4.283   2.467   2.009  1.00  0.00     0.167 HD
HETATM    6  C3  UNL     1      -2.918   1.061   1.210  1.00  0.00     0.122 A 
HETATM    7  C4  UNL     1      -2.736   0.234   2.294  1.00  0.00     0.131 C 
HETATM    8  N4  UNL     1      -2.053  -0.941   2.307  1.00  0.00    -0.323 N 
ATOM      9  H4  UNL     1      -2.121  -1.471   3.176  1.00  0.00     0.169 HD
HETATM   10  C5  UNL     1      -1.299  -1.514   1.347  1.00  0.00     0.166 C 
HETATM   11  N5  UNL     1      -0.940  -2.715   1.613  1.00  0.00    -0.289 N 
ATOM     12  H5  UNL     1      -1.234  -3.140   2.492  1.00  0.00     0.188 HD
HETATM   13  C6  UNL     1      -0.905  -0.933   0.165  1.00  0.00     0.149 C 
HETATM   14  N7  UNL     1       0.164  -1.418  -0.342  1.00  0.00    -0.372 N 
ATOM     15  H7  UNL     1       0.626  -2.177   0.159  1.00  0.00     0.161 HD
HETATM   16  N10 UNL     1      -1.490   0.070  -0.526  1.00  0.00    -0.324 N 
ATOM     17  H10 UNL     1      -1.247   0.141  -1.514  1.00  0.00     0.169 HD
HETATM   18  C11 UNL     1      -2.357   0.985  -0.056  1.00  0.00     0.140 A 
ENDROOT
BRANCH  14  19
HETATM   19  C7  UNL     1       0.759  -0.966  -1.572  1.00  0.00     0.141 C 
BRANCH  19  20
HETATM   20  C8  UNL     1       2.111  -1.627  -1.711  1.00  0.00     0.142 C 
BRANCH  20  21
HETATM   21  N8  UNL     1       3.011  -1.316  -0.631  1.00  0.00    -0.358 N 
HETATM   22  C9  UNL     1       3.421   0.009  -0.330  1.00  0.00     0.243 C 
HETATM   23  O1  UNL     1       2.979   0.952  -1.035  1.00  0.00    -0.272 OA
ATOM     24  H8  UNL     1       3.369  -2.080  -0.058  1.00  0.00     0.162 HD
BRANCH  22  25
HETATM   25  C10 UNL     1       4.346   0.275   0.789  1.00  0.00     0.331 C 
BRANCH  25  26
HETATM   26  N9  UNL     1       4.658   1.657   0.959  1.00  0.00    -0.071 N 
ATOM     27  H93 UNL     1       5.019   2.054   0.091  1.00  0.00     0.274 HD
ATOM     28  H92 UNL     1       3.806   2.209   1.057  1.00  0.00     0.274 HD
ATOM     29  H91 UNL     1       5.297   1.841   1.732  1.00  0.00     0.274 HD
ENDBRANCH  25  26
ENDBRANCH  22  25
ENDBRANCH  20  21
ENDBRANCH  19  20
ENDBRANCH  14  19
BRANCH  11  30
HETATM   30  N6  UNL     1      -0.157  -3.453   0.727  1.00  0.00    -0.344 N 
ATOM     31  H62 UNL     1       0.128  -3.013  -0.148  1.00  0.00     0.176 HD
ATOM     32  H61 UNL     1       0.129  -4.409   0.939  1.00  0.00     0.176 HD
ENDBRANCH  11  30
BRANCH   7  33
HETATM   33  N3  UNL     1      -3.268   0.620   3.396  1.00  0.00    -0.383 N 
ATOM     34  H32 UNL     1      -3.781   1.502   3.386  1.00  0.00     0.157 HD
ATOM     35  H31 UNL     1      -3.133   0.007   4.200  1.00  0.00     0.157 HD
ENDBRANCH   7  33
TORSDOF 7
