REMARK  8 active torsions:
REMARK  status: ('A' for Active; 'I' for Inactive)
REMARK    1  A    between atoms: O1_2  and  C2_3 
REMARK    2  A    between atoms: C2_3  and  N1_4 
REMARK    3  A    between atoms: C5_8  and  N3_9 
REMARK    4  A    between atoms: N3_9  and  C6_11 
REMARK    5  A    between atoms: C6_11  and  C7_12 
REMARK    6  A    between atoms: C7_12  and  N4_13 
REMARK    7  A    between atoms: N4_13  and  C8_15 
REMARK    8  A    between atoms: C9_20  and  N7_21 
ROOT
HETATM    1  C6  UNL     1       1.155  -1.120  -0.795  1.00  0.00     0.141 C 
ENDROOT
BRANCH   1   2
HETATM    2  N3  UNL     1       0.451   0.075  -0.376  1.00  0.00    -0.375 N 
ATOM      3  H3  UNL     1       0.908   0.987  -0.367  1.00  0.00     0.161 HD
BRANCH   2   4
HETATM    4  C5  UNL     1      -0.777  -0.065  -0.015  1.00  0.00     0.108 A 
HETATM    5  C4  UNL     1      -1.477   1.046   0.389  1.00  0.00     0.094 A 
HETATM    6  C3  UNL     1      -2.787   0.894   0.772  1.00  0.00     0.131 A 
HETATM    7  N1  UNL     1      -3.417  -0.324   0.765  1.00  0.00    -0.242 N 
HETATM    8  N2  UNL     1      -3.571   1.998   1.201  1.00  0.00    -0.082 NA
HETATM    9  C10 UNL     1      -2.701  -1.374   0.367  1.00  0.00     0.335 A 
HETATM   10  N9  UNL     1      -1.417  -1.248  -0.013  1.00  0.00    -0.294 N 
HETATM   11  O2  UNL     1      -3.220  -2.507   0.343  1.00  0.00    -0.246 OA
ATOM     12  H9  UNL     1      -0.909  -2.081  -0.311  1.00  0.00     0.172 HD
BRANCH   7  13
HETATM   13  C2  UNL     1      -4.777  -0.454   1.191  1.00  0.00     0.238 C 
BRANCH  13  14
HETATM   14  O1  UNL     1      -5.728  -0.232   0.244  1.00  0.00    -0.351 OA
HETATM   15  C1  UNL     1      -5.709  -1.063  -0.855  1.00  0.00     0.210 C 
ENDBRANCH  13  14
ENDBRANCH   7  13
ENDBRANCH   2   4
ENDBRANCH   1   2
BRANCH   1  16
HETATM   16  C7  UNL     1       2.625  -0.844  -1.028  1.00  0.00     0.157 C 
BRANCH  16  17
HETATM   17  N4  UNL     1       3.252  -0.366   0.175  1.00  0.00    -0.223 N 
ATOM     18  H4  UNL     1       2.787  -0.543   1.066  1.00  0.00     0.177 HD
BRANCH  17  19
HETATM   19  C8  UNL     1       4.370   0.274   0.186  1.00  0.00     0.707 A 
HETATM   20  N5  UNL     1       5.178   0.634  -0.826  1.00  0.00    -0.117 N 
HETATM   21  N6  UNL     1       6.229   1.280  -0.362  1.00  0.00    -0.118 N 
ATOM     22  H5  UNL     1       5.003   0.436  -1.811  1.00  0.00     0.206 HD
HETATM   23  C9  UNL     1       6.118   1.354   0.995  1.00  0.00     0.705 A 
ATOM     24  H6  UNL     1       6.993   1.659  -0.921  1.00  0.00     0.206 HD
HETATM   25  N8  UNL     1       4.959   0.723   1.303  1.00  0.00    -0.020 N 
ATOM     26  H8  UNL     1       4.589   0.607   2.246  1.00  0.00     0.203 HD
BRANCH  23  27
HETATM   27  N7  UNL     1       6.928   1.899   1.809  1.00  0.00    -0.233 N 
ATOM     28  H72 UNL     1       7.800   2.374   1.577  1.00  0.00     0.174 HD
ATOM     29  H71 UNL     1       6.845   1.954   2.824  1.00  0.00     0.174 HD
ENDBRANCH  23  27
ENDBRANCH  17  19
ENDBRANCH  16  17
ENDBRANCH   1  16
TORSDOF 8
