REMARK  8 active torsions:
REMARK  status: ('A' for Active; 'I' for Inactive)
REMARK    1  A    between atoms: N1_1  and  C1_4 
REMARK    2  A    between atoms: N5_19  and  C7_20 
REMARK    3  A    between atoms: C7_20  and  C8_21 
REMARK    4  A    between atoms: C8_21  and  C9_22 
REMARK    5  A    between atoms: C9_22  and  C10_23 
REMARK    6  A    between atoms: C10_23  and  N6_24 
REMARK    7  A    between atoms: C10_23  and  C11_28 
REMARK    8  A    between atoms: C11_28  and  N7_29 
ROOT
HETATM    1  C1  UNL     1      -4.423  -0.895  -1.052  1.00  0.00     0.679 A 
HETATM    2  N2  UNL     1      -3.412  -0.325  -1.732  1.00  0.00    -0.154 N 
ATOM      3  H2  UNL     1      -3.463  -0.289  -2.750  1.00  0.00     0.187 HD
HETATM    4  C2  UNL     1      -2.320   0.207  -1.108  1.00  0.00     0.289 A 
HETATM    5  O1  UNL     1      -1.403   0.725  -1.755  1.00  0.00    -0.265 OA
HETATM    6  C3  UNL     1      -2.282   0.142   0.262  1.00  0.00     0.141 A 
HETATM    7  C4  UNL     1      -3.357  -0.462   0.948  1.00  0.00     0.149 A 
HETATM    8  N3  UNL     1      -4.409  -0.971   0.290  1.00  0.00    -0.184 N 
ATOM      9  H3  UNL     1      -5.181  -1.406   0.796  1.00  0.00     0.184 HD
HETATM   10  C5  UNL     1      -3.363  -0.549   2.320  1.00  0.00     0.279 A 
HETATM   11  O2  UNL     1      -4.321  -1.087   2.936  1.00  0.00    -0.265 OA
HETATM   12  N4  UNL     1      -2.294  -0.032   2.988  1.00  0.00    -0.273 N 
ATOM     13  H4  UNL     1      -2.277  -0.086   4.006  1.00  0.00     0.173 HD
HETATM   14  C6  UNL     1      -1.280   0.536   2.364  1.00  0.00     0.330 A 
HETATM   15  O3  UNL     1      -0.299   1.011   2.976  1.00  0.00    -0.246 OA
HETATM   16  N5  UNL     1      -1.263   0.629   0.992  1.00  0.00    -0.292 N 
ENDROOT
BRANCH  16  17
HETATM   17  C7  UNL     1      -0.110   1.264   0.397  1.00  0.00     0.134 C 
BRANCH  17  18
HETATM   18  C8  UNL     1       1.010   0.293   0.096  1.00  0.00     0.022 C 
BRANCH  18  19
HETATM   19  C9  UNL     1       2.196   0.999  -0.543  1.00  0.00     0.036 C 
BRANCH  19  20
HETATM   20  C10 UNL     1       3.317   0.057  -0.852  1.00  0.00     0.208 C 
BRANCH  20  21
HETATM   21  N6  UNL     1       4.383   0.869  -1.460  1.00  0.00    -0.073 N 
ATOM     22  H63 UNL     1       4.071   1.407  -2.269  1.00  0.00     0.274 HD
ATOM     23  H62 UNL     1       4.667   1.662  -0.884  1.00  0.00     0.274 HD
ATOM     24  H61 UNL     1       5.147   0.227  -1.671  1.00  0.00     0.274 HD
ENDBRANCH  20  21
BRANCH  20  25
HETATM   25  C11 UNL     1       3.934  -0.530   0.415  1.00  0.00     0.262 C 
BRANCH  25  26
HETATM   26  N7  UNL     1       5.011  -1.431   0.075  1.00  0.00    -0.077 N 
ATOM     27  H73 UNL     1       4.709  -2.158  -0.574  1.00  0.00     0.274 HD
ATOM     28  H72 UNL     1       5.710  -0.983  -0.517  1.00  0.00     0.274 HD
ATOM     29  H71 UNL     1       5.423  -1.823   0.922  1.00  0.00     0.274 HD
ENDBRANCH  25  26
ENDBRANCH  20  25
ENDBRANCH  19  20
ENDBRANCH  18  19
ENDBRANCH  17  18
ENDBRANCH  16  17
BRANCH   1  30
HETATM   30  N1  UNL     1      -5.417  -1.371  -1.745  1.00  0.00    -0.234 N 
ATOM     31  H12 UNL     1      -5.428  -1.313  -2.763  1.00  0.00     0.174 HD
ATOM     32  H11 UNL     1      -6.184  -1.803  -1.229  1.00  0.00     0.174 HD
ENDBRANCH   1  30
TORSDOF 8
