REMARK  8 active torsions:
REMARK  status: ('A' for Active; 'I' for Inactive)
REMARK    1  A    between atoms: N1_1  and  C1_4 
REMARK    2  A    between atoms: N4_16  and  C6_17 
REMARK    3  A    between atoms: C6_17  and  C7_18 
REMARK    4  A    between atoms: C7_18  and  C8_19 
REMARK    5  A    between atoms: C8_19  and  C9_20 
REMARK    6  A    between atoms: C9_20  and  C10_21 
REMARK    7  A    between atoms: C10_21  and  N5_22 
REMARK    8  A    between atoms: C10_21  and  N6_26 
ROOT
HETATM    1  C1  UNL     1      -2.818  -0.296   1.907  1.00  0.00     0.680 A 
HETATM    2  N2  UNL     1      -4.122  -0.183   1.587  1.00  0.00    -0.155 N 
ATOM      3  H2  UNL     1      -4.828  -0.212   2.323  1.00  0.00     0.187 HD
HETATM    4  C2  UNL     1      -4.506  -0.031   0.289  1.00  0.00     0.279 A 
HETATM    5  O1  UNL     1      -5.722   0.075  -0.026  1.00  0.00    -0.266 OA
HETATM    6  C3  UNL     1      -3.507  -0.000  -0.661  1.00  0.00     0.145 A 
HETATM    7  C4  UNL     1      -3.852   0.156  -1.987  1.00  0.00     0.269 A 
HETATM    8  O2  UNL     1      -5.070   0.260  -2.276  1.00  0.00    -0.267 OA
HETATM    9  N3  UNL     1      -2.869   0.189  -2.916  1.00  0.00    -0.274 N 
ATOM     10  H3  UNL     1      -3.120   0.304  -3.898  1.00  0.00     0.173 HD
HETATM   11  C5  UNL     1      -1.579   0.076  -2.586  1.00  0.00     0.331 A 
HETATM   12  O3  UNL     1      -0.661   0.106  -3.440  1.00  0.00    -0.246 OA
HETATM   13  N4  UNL     1      -1.232  -0.078  -1.280  1.00  0.00    -0.284 N 
HETATM   14  C11 UNL     1      -2.154  -0.120  -0.303  1.00  0.00     0.148 A 
HETATM   15  N7  UNL     1      -1.841  -0.267   0.990  1.00  0.00    -0.175 N 
ATOM     16  H7  UNL     1      -0.866  -0.356   1.275  1.00  0.00     0.186 HD
ENDROOT
BRANCH  13  17
HETATM   17  C6  UNL     1       0.181  -0.194  -0.988  1.00  0.00     0.135 C 
BRANCH  17  18
HETATM   18  C7  UNL     1       0.754   1.187  -0.710  1.00  0.00     0.020 C 
BRANCH  18  19
HETATM   19  C8  UNL     1       2.207   1.165  -0.400  1.00  0.00     0.005 C 
BRANCH  19  20
HETATM   20  C9  UNL     1       2.560   0.343   0.810  1.00  0.00     0.062 C 
BRANCH  20  21
HETATM   21  C10 UNL     1       4.054   0.377   1.051  1.00  0.00     0.378 C 
BRANCH  21  22
HETATM   22  N5  UNL     1       4.378  -0.413   2.211  1.00  0.00    -0.051 N 
ATOM     23  H53 UNL     1       3.850  -0.122   3.034  1.00  0.00     0.276 HD
ATOM     24  H52 UNL     1       4.023  -1.366   2.138  1.00  0.00     0.276 HD
ATOM     25  H51 UNL     1       5.385  -0.390   2.373  1.00  0.00     0.276 HD
ENDBRANCH  21  22
BRANCH  21  26
HETATM   26  N6  UNL     1       4.809  -0.130  -0.062  1.00  0.00    -0.051 N 
ATOM     27  H63 UNL     1       4.501  -1.069  -0.315  1.00  0.00     0.276 HD
ATOM     28  H62 UNL     1       4.566   0.361  -0.922  1.00  0.00     0.276 HD
ATOM     29  H61 UNL     1       5.816  -0.107   0.100  1.00  0.00     0.276 HD
ENDBRANCH  21  26
ENDBRANCH  20  21
ENDBRANCH  19  20
ENDBRANCH  18  19
ENDBRANCH  17  18
ENDBRANCH  13  17
BRANCH   1  30
HETATM   30  N1  UNL     1      -2.494  -0.436   3.127  1.00  0.00    -0.234 N 
ATOM     31  H12 UNL     1      -3.238  -0.458   3.825  1.00  0.00     0.174 HD
ATOM     32  H11 UNL     1      -1.507  -0.522   3.369  1.00  0.00     0.174 HD
ENDBRANCH   1  30
TORSDOF 8
