REMARK  7 active torsions:
REMARK  status: ('A' for Active; 'I' for Inactive)
REMARK    1  A    between atoms: C3_4  and  O1_5 
REMARK    2  A    between atoms: O1_5  and  C4_6 
REMARK    3  A    between atoms: C4_6  and  C5_7 
REMARK    4  A    between atoms: C5_7  and  O2_8 
REMARK    5  A    between atoms: O2_8  and  C6_9 
REMARK    6  A    between atoms: C6_9  and  N2_10 
REMARK    7  A    between atoms: C9_22  and  N7_23 
ROOT
HETATM    1  C4  UNL     1      -0.367  -0.064  -0.156  1.00  0.00     0.194 C 
ENDROOT
BRANCH   1   2
HETATM    2  O1  UNL     1      -1.506  -0.845  -0.264  1.00  0.00    -0.380 OA
BRANCH   2   3
HETATM    3  C3  UNL     1      -2.671  -0.109  -0.396  1.00  0.00     0.177 C 
HETATM    4  C2  UNL     1      -3.419  -0.397  -1.657  1.00  0.00     0.158 C 
HETATM    5  N1  UNL     1      -4.805  -0.333  -1.241  1.00  0.00    -0.371 N 
HETATM    6  C1  UNL     1      -5.929   0.098  -2.067  1.00  0.00     0.151 C 
HETATM    7  C10 UNL     1      -4.877  -0.761   0.102  1.00  0.00     0.106 C 
HETATM    8  C9  UNL     1      -3.573  -0.482   0.763  1.00  0.00     0.280 C 
HETATM    9  N8  UNL     1      -5.940  -1.303   0.618  1.00  0.00    -0.387 N 
ATOM     10  H82 UNL     1      -6.834  -1.494   0.165  1.00  0.00     0.157 HD
ATOM     11  H81 UNL     1      -5.992  -1.612   1.589  1.00  0.00     0.157 HD
BRANCH   8  12
HETATM   12  N7  UNL     1      -3.684   0.676   1.637  1.00  0.00    -0.066 N 
ATOM     13  H73 UNL     1      -2.777   1.029   1.941  1.00  0.00     0.275 HD
ATOM     14  H72 UNL     1      -3.999   1.513   1.146  1.00  0.00     0.275 HD
ATOM     15  H71 UNL     1      -4.291   0.425   2.417  1.00  0.00     0.275 HD
ENDBRANCH   8  12
ENDBRANCH   2   3
ENDBRANCH   1   2
BRANCH   1  16
HETATM   16  C5  UNL     1       0.811  -1.003  -0.020  1.00  0.00     0.196 C 
BRANCH  16  17
HETATM   17  O2  UNL     1       1.960  -0.227   0.089  1.00  0.00    -0.368 OA
BRANCH  17  18
HETATM   18  C6  UNL     1       3.065  -1.069   0.217  1.00  0.00     0.319 C 
BRANCH  18  19
HETATM   19  N2  UNL     1       4.291  -0.325   0.334  1.00  0.00    -0.202 N 
HETATM   20  N3  UNL     1       5.015   0.021  -0.809  1.00  0.00     0.001 NA
HETATM   21  N4  UNL     1       5.524   1.312  -0.746  1.00  0.00    -0.116 N 
HETATM   22  C7  UNL     1       6.056   1.776   0.485  1.00  0.00     0.693 C 
ATOM     23  H4  UNL     1       5.516   1.915  -1.569  1.00  0.00     0.203 HD
HETATM   24  N5  UNL     1       6.876   2.768   0.445  1.00  0.00    -0.233 N 
HETATM   25  N6  UNL     1       5.674   1.141   1.715  1.00  0.00    -0.139 N 
ATOM     26  H52 UNL     1       7.147   3.219  -0.429  1.00  0.00     0.174 HD
ATOM     27  H51 UNL     1       7.258   3.102   1.330  1.00  0.00     0.174 HD
HETATM   28  C8  UNL     1       4.759   0.055   1.615  1.00  0.00     0.355 C 
ATOM     29  H6  UNL     1       6.040   1.452   2.615  1.00  0.00     0.189 HD
HETATM   30  O3  UNL     1       4.398  -0.532   2.674  1.00  0.00    -0.245 OA
ENDBRANCH  18  19
ENDBRANCH  17  18
ENDBRANCH  16  17
ENDBRANCH   1  16
TORSDOF 7
