REMARK  9 active torsions:
REMARK  status: ('A' for Active; 'I' for Inactive)
REMARK    1  A    between atoms: N1_1  and  C1_5 
REMARK    2  A    between atoms: C1_5  and  C2_6 
REMARK    3  A    between atoms: C2_6  and  C3_7 
REMARK    4  A    between atoms: C3_7  and  C4_8 
REMARK    5  A    between atoms: C4_8  and  N2_9 
REMARK    6  A    between atoms: C4_8  and  C5_13 
REMARK    7  A    between atoms: C5_13  and  N3_14 
REMARK    8  A    between atoms: C5_13  and  N4_18 
REMARK    9  A    between atoms: C5_13  and  N5_22 
ROOT
HETATM    1  C5  UNL     1       0.123   0.174   0.242  1.00  0.00     0.388 C 
ENDROOT
BRANCH   1   2
HETATM    2  C4  UNL     1       1.469  -0.168  -0.369  1.00  0.00     0.269 C 
BRANCH   2   3
HETATM    3  C3  UNL     1       2.490   0.671   0.403  1.00  0.00     0.041 C 
BRANCH   3   4
HETATM    4  C2  UNL     1       3.891   0.461  -0.112  1.00  0.00     0.029 C 
BRANCH   4   5
HETATM    5  C1  UNL     1       4.788   1.350   0.745  1.00  0.00     0.229 C 
BRANCH   5   6
HETATM    6  N1  UNL     1       6.176   1.254   0.363  1.00  0.00    -0.079 N 
ATOM      7  H13 UNL     1       6.496   0.286   0.376  1.00  0.00     0.274 HD
ATOM      8  H12 UNL     1       6.300   1.453  -0.630  1.00  0.00     0.274 HD
ATOM      9  H11 UNL     1       6.775   1.848   0.936  1.00  0.00     0.274 HD
ENDBRANCH   5   6
ENDBRANCH   4   5
ENDBRANCH   3   4
ENDBRANCH   2   3
BRANCH   2  10
HETATM   10  N2  UNL     1       1.833  -1.542  -0.206  1.00  0.00    -0.069 N 
ATOM     11  H23 UNL     1       2.796  -1.734  -0.482  1.00  0.00     0.275 HD
ATOM     12  H22 UNL     1       1.917  -1.818   0.772  1.00  0.00     0.275 HD
ATOM     13  H21 UNL     1       1.153  -2.101  -0.721  1.00  0.00     0.275 HD
ENDBRANCH   2  10
ENDBRANCH   1   2
BRANCH   1  14
HETATM   14  N3  UNL     1       0.228  -0.200   1.653  1.00  0.00    -0.024 N 
ATOM     15  H33 UNL     1       0.511  -1.169   1.801  1.00  0.00     0.279 HD
ATOM     16  H32 UNL     1       1.018   0.231   2.134  1.00  0.00     0.279 HD
ATOM     17  H31 UNL     1      -0.677   0.030   2.064  1.00  0.00     0.279 HD
ENDBRANCH   1  14
BRANCH   1  18
HETATM   18  N4  UNL     1      -0.097   1.613   0.234  1.00  0.00    -0.024 N 
ATOM     19  H43 UNL     1       0.664   2.114   0.693  1.00  0.00     0.279 HD
ATOM     20  H42 UNL     1       0.003   2.005  -0.702  1.00  0.00     0.279 HD
ATOM     21  H41 UNL     1      -1.002   1.843   0.645  1.00  0.00     0.279 HD
ENDBRANCH   1  18
BRANCH   1  22
HETATM   22  N5  UNL     1      -0.987  -0.442  -0.379  1.00  0.00    -0.320 N 
HETATM   23  C6  UNL     1      -1.272  -0.162  -1.716  1.00  0.00     0.164 C 
HETATM   24  C7  UNL     1      -2.444   0.710  -1.982  1.00  0.00     0.256 C 
HETATM   25  O1  UNL     1      -2.720   0.882  -3.207  1.00  0.00    -0.267 OA
HETATM   26  N6  UNL     1      -3.243   1.336  -0.996  1.00  0.00    -0.355 N 
HETATM   27  C8  UNL     1      -3.769   0.651   0.171  1.00  0.00     0.142 C 
ATOM     28  H6  UNL     1      -3.462   2.325  -1.112  1.00  0.00     0.162 HD
HETATM   29  C9  UNL     1      -4.632  -0.504  -0.180  1.00  0.00     0.142 C 
HETATM   30  N7  UNL     1      -4.028  -1.802  -0.152  1.00  0.00    -0.358 N 
HETATM   31  C10 UNL     1      -2.692  -2.161  -0.410  1.00  0.00     0.235 C 
ATOM     32  H7  UNL     1      -4.652  -2.572   0.088  1.00  0.00     0.162 HD
HETATM   33  O2  UNL     1      -2.487  -3.070  -1.297  1.00  0.00    -0.272 OA
HETATM   34  C11 UNL     1      -1.479  -1.622   0.216  1.00  0.00     0.229 C 
ENDBRANCH   1  22
TORSDOF 9
