REMARK  12 active torsions:
REMARK  status: ('A' for Active; 'I' for Inactive)
REMARK    1  A    between atoms: C4_4  and  C5_5 
REMARK    2  A    between atoms: C5_5  and  N1_6 
REMARK    3  A    between atoms: C6_10  and  N2_11 
REMARK    4  A    between atoms: C7_15  and  O1_16 
REMARK    5  A    between atoms: C8_18  and  O2_19 
REMARK    6  A    between atoms: N3_22  and  C10_23 
REMARK    7  A    between atoms: N3_22  and  C12_29 
REMARK    8  A    between atoms: C10_23  and  C11_24 
REMARK    9  A    between atoms: C11_24  and  N4_25 
REMARK   10  A    between atoms: C12_29  and  C13_30 
REMARK   11  A    between atoms: C13_30  and  C14_31 
REMARK   12  A    between atoms: C14_31  and  N5_32 
ROOT
HETATM    1  C1  UNL     1      -3.481   3.912   3.101  1.00  0.00     0.027 C 
HETATM    2  C2  UNL     1      -2.899   3.149   2.369  1.00  0.00    -0.026 C 
HETATM    3  C3  UNL     1      -2.230   2.242   1.514  1.00  0.00    -0.011 C 
HETATM    4  C4  UNL     1      -1.666   1.451   0.762  1.00  0.00    -0.021 C 
ENDROOT
BRANCH   4   5
HETATM    5  C5  UNL     1      -1.014   0.518  -0.172  1.00  0.00     0.381 C 
HETATM    6  C6  UNL     1      -1.996  -0.563  -0.568  1.00  0.00     0.292 C 
HETATM    7  C7  UNL     1      -1.338  -1.316  -1.722  1.00  0.00     0.184 C 
HETATM    8  C8  UNL     1       0.004  -1.870  -1.267  1.00  0.00     0.175 C 
HETATM    9  C9  UNL     1       0.309  -1.441   0.149  1.00  0.00     0.276 C 
HETATM   10  N3  UNL     1       0.244   0.006   0.328  1.00  0.00    -0.015 N 
BRANCH   5  11
HETATM   11  N1  UNL     1      -0.830   1.276  -1.427  1.00  0.00    -0.031 N 
ATOM     12  H13 UNL     1      -1.692   1.683  -1.790  1.00  0.00     0.278 HD
ATOM     13  H12 UNL     1      -0.324   2.153  -1.305  1.00  0.00     0.278 HD
ATOM     14  H11 UNL     1      -0.378   0.630  -2.074  1.00  0.00     0.278 HD
ENDBRANCH   5  11
BRANCH   6  15
HETATM   15  N2  UNL     1      -3.177   0.109  -1.064  1.00  0.00    -0.067 N 
ATOM     16  H23 UNL     1      -3.565   0.782  -0.403  1.00  0.00     0.275 HD
ATOM     17  H22 UNL     1      -2.979   0.768  -1.817  1.00  0.00     0.275 HD
ATOM     18  H21 UNL     1      -3.839  -0.620  -1.331  1.00  0.00     0.275 HD
ENDBRANCH   6  15
BRANCH   7  19
HETATM   19  O1  UNL     1      -2.162  -2.273  -2.282  1.00  0.00    -0.391 OA
ATOM     20  H1  UNL     1      -1.753  -2.741  -3.000  1.00  0.00     0.210 HD
ENDBRANCH   7  19
BRANCH   8  21
HETATM   21  O2  UNL     1      -0.117  -3.259  -1.251  1.00  0.00    -0.391 OA
ATOM     22  H2  UNL     1       0.721  -3.605  -0.967  1.00  0.00     0.210 HD
ENDBRANCH   8  21
BRANCH  10  23
HETATM   23  C10 UNL     1       0.615   0.408   1.633  1.00  0.00     0.269 C 
BRANCH  23  24
HETATM   24  C11 UNL     1       0.412  -0.534   2.770  1.00  0.00     0.257 C 
BRANCH  24  25
HETATM   25  N4  UNL     1      -0.954  -0.938   3.006  1.00  0.00    -0.078 N 
ATOM     26  H43 UNL     1      -1.546  -0.116   3.124  1.00  0.00     0.274 HD
ATOM     27  H42 UNL     1      -1.355  -1.328   2.153  1.00  0.00     0.274 HD
ATOM     28  H41 UNL     1      -1.093  -1.583   3.784  1.00  0.00     0.274 HD
ENDBRANCH  24  25
ENDBRANCH  23  24
ENDBRANCH  10  23
BRANCH  10  29
HETATM   29  C12 UNL     1       1.237   0.530  -0.597  1.00  0.00     0.243 C 
BRANCH  29  30
HETATM   30  C13 UNL     1       2.621   0.040  -0.501  1.00  0.00     0.055 C 
BRANCH  30  31
HETATM   31  C14 UNL     1       3.387   0.798  -1.618  1.00  0.00     0.231 C 
BRANCH  31  32
HETATM   32  N5  UNL     1       4.757   0.387  -1.606  1.00  0.00    -0.079 N 
ATOM     33  H53 UNL     1       5.190   0.505  -0.690  1.00  0.00     0.274 HD
ATOM     34  H52 UNL     1       4.859  -0.625  -1.683  1.00  0.00     0.274 HD
ATOM     35  H51 UNL     1       5.260   0.885  -2.340  1.00  0.00     0.274 HD
ENDBRANCH  31  32
ENDBRANCH  30  31
ENDBRANCH  29  30
ENDBRANCH  10  29
ENDBRANCH   4   5
TORSDOF 12
