REMARK  7 active torsions:
REMARK  status: ('A' for Active; 'I' for Inactive)
REMARK       I    between atoms: C1_4  and  N3_6 
REMARK    1  A    between atoms: N3_6  and  C2_8 
REMARK    2  A    between atoms: C2_8  and  C3_9 
REMARK    3  A    between atoms: C3_9  and  N4_10 
REMARK    4  A    between atoms: N4_10  and  C4_13 
REMARK    5  A    between atoms: C4_13  and  C5_14 
REMARK       I    between atoms: C5_14  and  N5_16 
REMARK    6  A    between atoms: N5_16  and  C6_18 
REMARK    7  A    between atoms: C12_32  and  O4_33 
ROOT
HETATM    1  C6  UNL     1      -1.575   1.001  -0.023  1.00  0.00     0.176 C 
HETATM    2  C7  UNL     1      -2.043  -0.043  -0.972  1.00  0.00     0.156 C 
HETATM    3  N6  UNL     1      -3.013   0.354  -1.939  1.00  0.00    -0.351 N 
ATOM      4  H6  UNL     1      -2.845   1.219  -2.454  1.00  0.00     0.162 HD
HETATM    5  C8  UNL     1      -4.198  -0.374  -2.234  1.00  0.00     0.309 C 
HETATM    6  O2  UNL     1      -4.665  -0.280  -3.397  1.00  0.00    -0.262 OA
HETATM    7  C9  UNL     1      -4.889  -1.212  -1.279  1.00  0.00     0.309 C 
HETATM    8  O3  UNL     1      -5.726  -2.046  -1.781  1.00  0.00    -0.262 OA
HETATM    9  N7  UNL     1      -4.757  -1.225   0.106  1.00  0.00    -0.351 N 
ATOM     10  H7  UNL     1      -4.552  -2.134   0.520  1.00  0.00     0.162 HD
HETATM   11  C10 UNL     1      -4.871  -0.128   1.037  1.00  0.00     0.142 C 
HETATM   12  C11 UNL     1      -5.068   1.215   0.445  1.00  0.00     0.141 C 
HETATM   13  N8  UNL     1      -3.902   2.072   0.436  1.00  0.00    -0.371 N 
ATOM     14  H8  UNL     1      -4.102   3.046   0.209  1.00  0.00     0.161 HD
HETATM   15  C12 UNL     1      -2.568   1.812   0.678  1.00  0.00     0.136 C 
ENDROOT
BRANCH   1  16
HETATM   16  N5  UNL     1      -0.663   0.328   0.915  1.00  0.00    -0.346 N 
HETATM   17  C5  UNL     1       0.736   0.241   0.693  1.00  0.00     0.244 C 
HETATM   18  O1  UNL     1       1.252   0.755  -0.335  1.00  0.00    -0.272 OA
ATOM     19  H5  UNL     1      -1.052  -0.093   1.759  1.00  0.00     0.163 HD
BRANCH  17  20
HETATM   20  C4  UNL     1       1.566  -0.457   1.677  1.00  0.00     0.334 C 
BRANCH  20  21
HETATM   21  N4  UNL     1       2.939  -0.515   1.251  1.00  0.00    -0.065 N 
ATOM     22  H42 UNL     1       3.554  -0.756   2.028  1.00  0.00     0.277 HD
ATOM     23  H41 UNL     1       3.297   0.417   1.041  1.00  0.00     0.277 HD
BRANCH  21  24
HETATM   24  C3  UNL     1       3.140  -1.425   0.118  1.00  0.00     0.252 C 
BRANCH  24  25
HETATM   25  C2  UNL     1       4.675  -1.510  -0.010  1.00  0.00     0.150 C 
BRANCH  25  26
HETATM   26  N3  UNL     1       5.173  -0.179  -0.268  1.00  0.00    -0.363 N 
HETATM   27  C1  UNL     1       6.582   0.032  -0.163  1.00  0.00     0.181 C 
HETATM   28  N1  UNL     1       7.407  -0.942  -0.163  1.00  0.00    -0.374 N 
HETATM   29  N2  UNL     1       7.050   1.372  -0.045  1.00  0.00    -0.064 NA
ATOM     30  H12 UNL     1       8.413  -0.791  -0.088  1.00  0.00     0.158 HD
ATOM     31  H11 UNL     1       7.072  -1.902  -0.248  1.00  0.00     0.158 HD
ATOM     32  H3  UNL     1       4.542   0.583  -0.516  1.00  0.00     0.162 HD
ENDBRANCH  25  26
ENDBRANCH  24  25
ENDBRANCH  21  24
ENDBRANCH  20  21
ENDBRANCH  17  20
ENDBRANCH   1  16
BRANCH  15  33
HETATM   33  O4  UNL     1      -2.045   2.383   1.725  1.00  0.00    -0.348 OA
ATOM     34  H4  UNL     1      -2.691   2.910   2.181  1.00  0.00     0.219 HD
ENDBRANCH  15  33
TORSDOF 7
