REMARK  7 active torsions:
REMARK  status: ('A' for Active; 'I' for Inactive)
REMARK    1  A    between atoms: N1_1  and  N2_4 
REMARK       I    between atoms: N2_4  and  C1_6 
REMARK       I    between atoms: C1_6  and  N3_8 
REMARK    2  A    between atoms: N3_8  and  C2_10 
REMARK    3  A    between atoms: C2_10  and  C3_11 
REMARK    4  A    between atoms: C3_11  and  N4_12 
REMARK       I    between atoms: N4_12  and  C4_14 
REMARK       I    between atoms: C4_14  and  N5_16 
REMARK    5  A    between atoms: N5_16  and  N6_18 
REMARK    6  A    between atoms: N6_18  and  C5_19 
REMARK    7  A    between atoms: C5_19  and  C6_20 
REMARK       I    between atoms: C6_20  and  N7_22 
ROOT
HETATM    1  N4  UNL     1       2.057  -0.693  -0.725  1.00  0.00    -0.341 N 
ATOM      2  H4  UNL     1       2.726  -0.256  -1.359  1.00  0.00     0.164 HD
HETATM    3  C4  UNL     1       0.682  -0.253  -0.689  1.00  0.00     0.331 C 
HETATM    4  O2  UNL     1      -0.096  -0.836   0.113  1.00  0.00    -0.246 OA
HETATM    5  N5  UNL     1       0.315   0.798  -1.556  1.00  0.00    -0.255 N 
ATOM      6  H5  UNL     1       1.052   1.178  -2.150  1.00  0.00     0.187 HD
ENDROOT
BRANCH   1   7
HETATM    7  C3  UNL     1       2.463  -1.753   0.144  1.00  0.00     0.144 C 
BRANCH   7   8
HETATM    8  C2  UNL     1       3.926  -2.072  -0.048  1.00  0.00     0.144 C 
BRANCH   8   9
HETATM    9  N3  UNL     1       4.694  -0.874   0.244  1.00  0.00    -0.340 N 
HETATM   10  C1  UNL     1       6.104  -0.847   0.153  1.00  0.00     0.334 C 
HETATM   11  N2  UNL     1       6.815   0.338   0.443  1.00  0.00    -0.258 N 
HETATM   12  O1  UNL     1       6.724  -1.891  -0.191  1.00  0.00    -0.246 OA
ATOM     13  H2  UNL     1       6.301   1.174   0.721  1.00  0.00     0.191 HD
ATOM     14  H3  UNL     1       4.200  -0.026   0.523  1.00  0.00     0.164 HD
BRANCH  11  15
HETATM   15  N1  UNL     1       8.192   0.387   0.357  1.00  0.00    -0.341 N 
ATOM     16  H12 UNL     1       8.690  -0.458   0.077  1.00  0.00     0.177 HD
ATOM     17  H11 UNL     1       8.706   1.243   0.566  1.00  0.00     0.177 HD
ENDBRANCH  11  15
ENDBRANCH   8   9
ENDBRANCH   7   8
ENDBRANCH   1   7
BRANCH   5  18
HETATM   18  N6  UNL     1      -0.922   1.360  -1.684  1.00  0.00    -0.128 NA
BRANCH  18  19
HETATM   19  C5  UNL     1      -1.904   0.831  -0.815  1.00  0.00     0.238 C 
BRANCH  19  20
HETATM   20  C6  UNL     1      -3.239   1.506  -1.046  1.00  0.00     0.243 C 
HETATM   21  O3  UNL     1      -3.305   2.402  -1.926  1.00  0.00    -0.271 OA
HETATM   22  N7  UNL     1      -4.328   1.090  -0.265  1.00  0.00    -0.278 N 
HETATM   23  C7  UNL     1      -4.162   0.057   0.717  1.00  0.00     0.155 C 
HETATM   24  C10 UNL     1      -5.593   1.726  -0.480  1.00  0.00     0.318 C 
HETATM   25  C8  UNL     1      -5.421  -0.526   1.257  1.00  0.00     0.143 C 
HETATM   26  N8  UNL     1      -6.578  -0.340   0.399  1.00  0.00    -0.351 N 
HETATM   27  C9  UNL     1      -6.787   0.970  -0.130  1.00  0.00     0.309 C 
ATOM     28  H8  UNL     1      -7.212  -1.110   0.184  1.00  0.00     0.162 HD
HETATM   29  O4  UNL     1      -7.961   1.399  -0.265  1.00  0.00    -0.262 OA
HETATM   30  O5  UNL     1      -5.710   2.884  -0.949  1.00  0.00    -0.262 OA
ENDBRANCH  19  20
ENDBRANCH  18  19
ENDBRANCH   5  18
TORSDOF 7
