REMARK  8 active torsions:
REMARK  status: ('A' for Active; 'I' for Inactive)
REMARK    1  A    between atoms: N1_1  and  N2_4 
REMARK       I    between atoms: N2_4  and  C1_6 
REMARK       I    between atoms: C1_6  and  N3_8 
REMARK    2  A    between atoms: N3_8  and  C2_10 
REMARK    3  A    between atoms: C2_10  and  C3_11 
REMARK       I    between atoms: C3_11  and  N4_13 
REMARK    4  A    between atoms: N4_13  and  C4_15 
REMARK    5  A    between atoms: C4_15  and  C5_16 
REMARK       I    between atoms: C5_16  and  N5_18 
REMARK    6  A    between atoms: N5_18  and  C6_20 
REMARK    7  A    between atoms: C8_27  and  N8_28 
REMARK    8  A    between atoms: N8_28  and  C9_30 
ROOT
HETATM    1  C5  UNL     1      -0.513   1.649  -0.191  1.00  0.00     0.253 C 
HETATM    2  O3  UNL     1      -0.181   1.226  -1.321  1.00  0.00    -0.271 OA
HETATM    3  N5  UNL     1      -1.901   2.030  -0.081  1.00  0.00    -0.158 N 
ATOM      4  H5  UNL     1      -2.152   3.019  -0.077  1.00  0.00     0.187 HD
ENDROOT
BRANCH   1   5
HETATM    5  C4  UNL     1       0.393   1.773   0.975  1.00  0.00     0.226 C 
BRANCH   5   6
HETATM    6  N4  UNL     1       1.737   1.366   0.673  1.00  0.00    -0.351 N 
HETATM    7  C3  UNL     1       2.479   2.066  -0.308  1.00  0.00     0.235 C 
HETATM    8  O2  UNL     1       1.898   3.067  -0.878  1.00  0.00    -0.272 OA
ATOM      9  H4  UNL     1       2.155   0.576   1.164  1.00  0.00     0.163 HD
BRANCH   7  10
HETATM   10  C2  UNL     1       3.854   1.759  -0.737  1.00  0.00     0.227 C 
BRANCH  10  11
HETATM   11  N3  UNL     1       4.448   0.603  -0.143  1.00  0.00    -0.333 N 
HETATM   12  C1  UNL     1       3.905  -0.675  -0.389  1.00  0.00     0.334 C 
HETATM   13  N2  UNL     1       4.487  -1.809   0.210  1.00  0.00    -0.258 N 
HETATM   14  O1  UNL     1       2.913  -0.801  -1.132  1.00  0.00    -0.246 OA
ATOM     15  H2  UNL     1       5.299  -1.715   0.820  1.00  0.00     0.191 HD
ATOM     16  H3  UNL     1       5.265   0.702   0.459  1.00  0.00     0.164 HD
BRANCH  13  17
HETATM   17  N1  UNL     1       3.932  -3.067  -0.047  1.00  0.00    -0.341 N 
ATOM     18  H12 UNL     1       3.120  -3.144  -0.660  1.00  0.00     0.177 HD
ATOM     19  H11 UNL     1       4.354  -3.888   0.387  1.00  0.00     0.177 HD
ENDBRANCH  13  17
ENDBRANCH  10  11
ENDBRANCH   7  10
ENDBRANCH   5   6
ENDBRANCH   1   5
BRANCH   3  20
HETATM   20  C6  UNL     1      -2.815   1.150   0.011  1.00  0.00     0.703 A 
HETATM   21  N6  UNL     1      -4.090   1.580   0.111  1.00  0.00    -0.140 N 
HETATM   22  C7  UNL     1      -5.066   0.671   0.208  1.00  0.00     0.352 A 
ATOM     23  H6  UNL     1      -4.305   2.577   0.113  1.00  0.00     0.189 HD
HETATM   24  O4  UNL     1      -6.269   1.025   0.303  1.00  0.00    -0.246 OA
HETATM   25  N7  UNL     1      -4.796  -0.646   0.208  1.00  0.00    -0.140 N 
HETATM   26  C8  UNL     1      -3.530  -1.090   0.109  1.00  0.00     0.703 A 
ATOM     27  H7  UNL     1      -5.561  -1.317   0.284  1.00  0.00     0.189 HD
HETATM   28  N9  UNL     1      -2.549  -0.183   0.011  1.00  0.00    -0.021 N 
ATOM     29  H9  UNL     1      -1.582  -0.499  -0.065  1.00  0.00     0.203 HD
BRANCH  26  30
HETATM   30  N8  UNL     1      -3.240  -2.355   0.106  1.00  0.00    -0.167 N 
ATOM     31  H8  UNL     1      -2.264  -2.642   0.029  1.00  0.00     0.186 HD
BRANCH  30  32
HETATM   32  C9  UNL     1      -4.243  -3.344   0.207  1.00  0.00     0.368 C 
HETATM   33  O5  UNL     1      -4.747  -3.814  -0.833  1.00  0.00    -0.283 OA
ENDBRANCH  30  32
ENDBRANCH  26  30
ENDBRANCH   3  20
TORSDOF 8
