REMARK  6 active torsions:
REMARK  status: ('A' for Active; 'I' for Inactive)
REMARK    1  A    between atoms: N3_4  and  C2_6 
REMARK    2  A    between atoms: C2_6  and  C3_7 
REMARK    3  A    between atoms: C3_7  and  C4_8 
REMARK    4  A    between atoms: C4_8  and  C5_9 
REMARK    5  A    between atoms: C9_19  and  C10_20 
REMARK    6  A    between atoms: C10_20  and  N6_21 
ROOT
HETATM    1  C5  UNL     1       0.859  -0.752   0.729  1.00  0.00     0.176 C 
HETATM    2  N4  UNL     1       0.058  -1.294   1.823  1.00  0.00    -0.346 N 
ATOM      3  H4  UNL     1      -0.265  -0.673   2.565  1.00  0.00     0.163 HD
HETATM    4  C6  UNL     1      -0.276  -2.663   1.869  1.00  0.00     0.236 C 
HETATM    5  O1  UNL     1      -0.526  -3.180   2.982  1.00  0.00    -0.272 OA
HETATM    6  C7  UNL     1      -0.334  -3.475   0.652  1.00  0.00     0.225 C 
HETATM    7  N5  UNL     1      -1.556  -3.293  -0.106  1.00  0.00    -0.350 N 
ATOM      8  H5  UNL     1      -1.705  -3.946  -0.875  1.00  0.00     0.163 HD
HETATM    9  C8  UNL     1      -2.553  -2.337   0.085  1.00  0.00     0.242 C 
HETATM   10  O2  UNL     1      -3.758  -2.766   0.204  1.00  0.00    -0.271 OA
HETATM   11  C9  UNL     1      -2.387  -0.864   0.167  1.00  0.00     0.194 C 
HETATM   12  N9  UNL     1      -1.304  -0.357  -0.620  1.00  0.00    -0.344 N 
ATOM     13  H9  UNL     1      -1.550   0.324  -1.338  1.00  0.00     0.163 HD
HETATM   14  C12 UNL     1       0.056  -0.686  -0.520  1.00  0.00     0.241 C 
HETATM   15  O3  UNL     1       0.662  -0.955  -1.604  1.00  0.00    -0.271 OA
ENDROOT
BRANCH   1  16
HETATM   16  C4  UNL     1       1.349   0.632   1.050  1.00  0.00     0.036 C 
BRANCH  16  17
HETATM   17  C3  UNL     1       2.202   1.211  -0.043  1.00  0.00     0.022 C 
BRANCH  17  18
HETATM   18  C2  UNL     1       3.463   0.440  -0.308  1.00  0.00     0.122 C 
BRANCH  18  19
HETATM   19  N3  UNL     1       4.231   1.050  -1.379  1.00  0.00    -0.367 N 
HETATM   20  C1  UNL     1       5.438   1.473  -1.206  1.00  0.00     0.196 C 
HETATM   21  N1  UNL     1       6.160   2.062  -2.269  1.00  0.00    -0.067 NA
HETATM   22  N2  UNL     1       6.011   1.327   0.087  1.00  0.00    -0.067 NA
ATOM     23  H3  UNL     1       3.802   1.147  -2.299  1.00  0.00     0.161 HD
ENDBRANCH  18  19
ENDBRANCH  17  18
ENDBRANCH  16  17
ENDBRANCH   1  16
BRANCH  11  24
HETATM   24  C10 UNL     1      -3.693  -0.206  -0.317  1.00  0.00     0.156 C 
BRANCH  24  25
HETATM   25  N6  UNL     1      -3.608   1.219  -0.265  1.00  0.00    -0.364 N 
HETATM   26  C11 UNL     1      -4.708   1.899  -0.301  1.00  0.00     0.197 C 
HETATM   27  N7  UNL     1      -5.986   1.278  -0.390  1.00  0.00    -0.067 NA
HETATM   28  N8  UNL     1      -4.692   3.330  -0.254  1.00  0.00    -0.067 NA
ATOM     29  H6  UNL     1      -2.704   1.688  -0.201  1.00  0.00     0.161 HD
ENDBRANCH  24  25
ENDBRANCH  11  24
TORSDOF 6
