REMARK  9 active torsions:
REMARK  status: ('A' for Active; 'I' for Inactive)
REMARK    1  A    between atoms: N1_1  and  C1_5 
REMARK    2  A    between atoms: C1_5  and  C2_6 
REMARK    3  A    between atoms: C2_6  and  N2_7 
REMARK    4  A    between atoms: N2_7  and  C3_9 
REMARK    5  A    between atoms: C4_12  and  N4_13 
REMARK       I    between atoms: N4_13  and  C5_15 
REMARK    6  A    between atoms: N6_17  and  C6_19 
REMARK    7  A    between atoms: C6_19  and  C7_20 
REMARK    8  A    between atoms: C7_20  and  N7_21 
REMARK    9  A    between atoms: N7_21  and  N8_23 
ROOT
HETATM    1  C3  UNL     1      -3.564  -0.490   0.584  1.00  0.00     0.695 C 
HETATM    2  N3  UNL     1      -2.254  -0.364   0.900  1.00  0.00    -0.022 N 
ATOM      3  H3  UNL     1      -2.082   0.069   1.808  1.00  0.00     0.203 HD
HETATM    4  C4  UNL     1      -1.147  -0.704   0.238  1.00  0.00     0.702 C 
HETATM    5  N11 UNL     1      -1.054  -1.078  -1.049  1.00  0.00    -0.151 N 
ATOM      6  H11 UNL     1      -0.117  -1.018  -1.448  1.00  0.00     0.188 HD
HETATM    7  C9  UNL     1      -2.016  -1.525  -1.906  1.00  0.00     0.328 C 
HETATM    8  O1  UNL     1      -1.642  -2.004  -3.007  1.00  0.00    -0.261 OA
HETATM    9  C10 UNL     1      -3.366  -1.479  -1.631  1.00  0.00     0.328 C 
HETATM   10  O2  UNL     1      -4.111  -1.742  -2.597  1.00  0.00    -0.261 OA
HETATM   11  N12 UNL     1      -4.009  -1.194  -0.472  1.00  0.00    -0.151 N 
ATOM     12  H12 UNL     1      -4.957  -1.563  -0.390  1.00  0.00     0.188 HD
ENDROOT
BRANCH   4  13
HETATM   13  N4  UNL     1      -0.071  -0.656   0.949  1.00  0.00    -0.163 N 
HETATM   14  C5  UNL     1       1.147  -1.007   0.304  1.00  0.00     0.202 C 
HETATM   15  N5  UNL     1       1.467  -2.377   0.103  1.00  0.00    -0.063 NA
HETATM   16  N6  UNL     1       1.917  -0.045  -0.076  1.00  0.00    -0.362 N 
ATOM     17  H6  UNL     1       1.621   0.915   0.101  1.00  0.00     0.162 HD
ATOM     18  H4  UNL     1      -0.093  -0.379   1.930  1.00  0.00     0.187 HD
BRANCH  16  19
HETATM   19  C6  UNL     1       3.182  -0.268  -0.742  1.00  0.00     0.143 C 
BRANCH  19  20
HETATM   20  C7  UNL     1       4.207  -0.621   0.308  1.00  0.00     0.159 C 
BRANCH  20  21
HETATM   21  N7  UNL     1       4.277   0.518   1.226  1.00  0.00    -0.333 N 
ATOM     22  H7  UNL     1       4.063   0.414   2.218  1.00  0.00     0.180 HD
BRANCH  21  23
HETATM   23  N8  UNL     1       4.648   1.747   0.690  1.00  0.00    -0.280 N 
HETATM   24  C8  UNL     1       5.891   2.036   0.585  1.00  0.00     0.215 C 
HETATM   25  N9  UNL     1       6.860   1.103   1.016  1.00  0.00    -0.065 NA
HETATM   26  N10 UNL     1       6.274   3.292   0.037  1.00  0.00    -0.065 NA
ATOM     27  H8  UNL     1       3.937   2.411   0.384  1.00  0.00     0.189 HD
ENDBRANCH  21  23
ENDBRANCH  20  21
ENDBRANCH  19  20
ENDBRANCH  16  19
ENDBRANCH   4  13
BRANCH   1  28
HETATM   28  N2  UNL     1      -4.359   0.110   1.367  1.00  0.00    -0.224 N 
ATOM     29  H2  UNL     1      -3.912   0.611   2.135  1.00  0.00     0.177 HD
BRANCH  28  30
HETATM   30  C2  UNL     1      -5.778   0.193   1.341  1.00  0.00     0.165 C 
BRANCH  30  31
HETATM   31  C1  UNL     1      -6.322   1.361   0.549  1.00  0.00     0.249 C 
BRANCH  31  32
HETATM   32  N1  UNL     1      -5.935   1.349  -0.836  1.00  0.00    -0.078 N 
ATOM     33  H13 UNL     1      -4.920   1.294  -0.926  1.00  0.00     0.274 HD
ATOM     34  H12 UNL     1      -6.193   0.465  -1.275  1.00  0.00     0.274 HD
ATOM     35  H11 UNL     1      -6.302   2.137  -1.370  1.00  0.00     0.274 HD
ENDBRANCH  31  32
ENDBRANCH  30  31
ENDBRANCH  28  30
ENDBRANCH   1  28
TORSDOF 9
