REMARK  7 active torsions:
REMARK  status: ('A' for Active; 'I' for Inactive)
REMARK       I    between atoms: C1_4  and  N3_6 
REMARK    1  A    between atoms: N3_6  and  C2_8 
REMARK    2  A    between atoms: C2_8  and  C3_9 
REMARK    3  A    between atoms: C3_9  and  C4_10 
REMARK    4  A    between atoms: C4_10  and  N4_11 
REMARK       I    between atoms: C5_13  and  N6_15 
REMARK    5  A    between atoms: N6_15  and  S1_17 
REMARK    6  A    between atoms: S1_17  and  N7_20 
REMARK    7  A    between atoms: N7_20  and  C6_22 
ROOT
HETATM    1  N4  UNL     1       1.504  -1.394  -0.301  1.00  0.00    -0.364 N 
ATOM      2  H4  UNL     1       2.045  -2.255  -0.378  1.00  0.00     0.162 HD
HETATM    3  C5  UNL     1       0.301  -1.411   0.151  1.00  0.00     0.199 C 
HETATM    4  N5  UNL     1      -0.232  -2.668   0.532  1.00  0.00    -0.063 NA
HETATM    5  N6  UNL     1      -0.526  -0.266   0.297  1.00  0.00    -0.240 N 
ATOM      6  H6  UNL     1      -0.253   0.606  -0.157  1.00  0.00     0.183 HD
ENDROOT
BRANCH   5   7
HETATM    7  S1  UNL     1      -1.999  -0.313   1.234  1.00  0.00     0.339 S 
HETATM    8  O1  UNL     1      -1.836  -1.448   2.253  1.00  0.00    -0.182 OA
HETATM    9  O2  UNL     1      -2.045   0.937   2.011  1.00  0.00    -0.182 OA
BRANCH   7  10
HETATM   10  N7  UNL     1      -3.316  -0.684   0.267  1.00  0.00    -0.099 N 
ATOM     11  H7  UNL     1      -3.235  -1.590  -0.194  1.00  0.00     0.199 HD
BRANCH  10  12
HETATM   12  C6  UNL     1      -4.381  -0.080  -0.009  1.00  0.00     0.701 A 
HETATM   13  N8  UNL     1      -4.727   1.119   0.463  1.00  0.00    -0.140 N 
HETATM   14  C7  UNL     1      -5.899   1.651   0.096  1.00  0.00     0.342 A 
ATOM     15  H8  UNL     1      -4.106   1.624   1.096  1.00  0.00     0.189 HD
HETATM   16  O3  UNL     1      -6.211   2.784   0.550  1.00  0.00    -0.246 OA
HETATM   17  N9  UNL     1      -6.754   1.021  -0.741  1.00  0.00    -0.260 N 
HETATM   18  C8  UNL     1      -6.424  -0.188  -1.228  1.00  0.00     0.342 A 
ATOM     19  H9  UNL     1      -7.639   1.458  -1.000  1.00  0.00     0.175 HD
HETATM   20  O4  UNL     1      -7.214  -0.797  -2.015  1.00  0.00    -0.246 OA
HETATM   21  N10 UNL     1      -5.253  -0.723  -0.862  1.00  0.00    -0.140 N 
ATOM     22  H10 UNL     1      -4.996  -1.640  -1.227  1.00  0.00     0.189 HD
ENDBRANCH  10  12
ENDBRANCH   7  10
ENDBRANCH   5   7
BRANCH   1  23
HETATM   23  C4  UNL     1       2.067  -0.134  -0.695  1.00  0.00     0.124 C 
BRANCH  23  24
HETATM   24  C3  UNL     1       3.426  -0.257  -1.328  1.00  0.00     0.039 C 
BRANCH  24  25
HETATM   25  C2  UNL     1       4.462  -0.875  -0.442  1.00  0.00     0.123 C 
BRANCH  25  26
HETATM   26  N3  UNL     1       4.609  -0.047   0.753  1.00  0.00    -0.365 N 
HETATM   27  C1  UNL     1       5.163   1.252   0.700  1.00  0.00     0.181 C 
HETATM   28  N1  UNL     1       4.489   2.319   0.952  1.00  0.00    -0.374 N 
HETATM   29  N2  UNL     1       6.524   1.406   0.352  1.00  0.00    -0.064 NA
ATOM     30  H12 UNL     1       4.889   3.257   0.914  1.00  0.00     0.158 HD
ATOM     31  H11 UNL     1       3.507   2.208   1.203  1.00  0.00     0.158 HD
ATOM     32  H3  UNL     1       4.303  -0.418   1.652  1.00  0.00     0.162 HD
ENDBRANCH  25  26
ENDBRANCH  24  25
ENDBRANCH  23  24
ENDBRANCH   1  23
TORSDOF 7
