REMARK  9 active torsions:
REMARK  status: ('A' for Active; 'I' for Inactive)
REMARK       I    between atoms: C1_2  and  N1_3 
REMARK    1  A    between atoms: C1_2  and  C12_23 
REMARK    2  A    between atoms: N1_3  and  C2_5 
REMARK    3  A    between atoms: C2_5  and  C3_6 
REMARK    4  A    between atoms: C3_6  and  N2_7 
REMARK    5  A    between atoms: N3_10  and  C6_11 
REMARK    6  A    between atoms: C6_11  and  O2_12 
REMARK    7  A    between atoms: C9_16  and  C10_17 
REMARK    8  A    between atoms: C10_17  and  O3_18 
REMARK    9  A    between atoms: C11_20  and  O4_21 
ROOT
HETATM    1  N2  UNL     1      -0.769  -1.147   0.088  1.00  0.00    -0.034 N 
HETATM    2  C4  UNL     1      -0.357   0.006   0.848  1.00  0.00     0.268 C 
HETATM    3  C5  UNL     1      -1.622   0.615   1.437  1.00  0.00     0.268 C 
HETATM    4  N3  UNL     1      -2.783   0.275   0.599  1.00  0.00    -0.033 N 
HETATM    5  C7  UNL     1      -3.083  -1.096   0.889  1.00  0.00     0.268 C 
HETATM    6  C8  UNL     1      -1.763  -1.834   0.933  1.00  0.00     0.268 C 
HETATM    7  C9  UNL     1      -2.393   0.451  -0.784  1.00  0.00     0.272 C 
HETATM    8  C11 UNL     1      -1.401  -0.640  -1.121  1.00  0.00     0.357 C 
ENDROOT
BRANCH   1   9
HETATM    9  C3  UNL     1       0.228  -2.111  -0.199  1.00  0.00     0.260 C 
BRANCH   9  10
HETATM   10  C2  UNL     1       1.170  -1.830  -1.306  1.00  0.00     0.150 C 
BRANCH  10  11
HETATM   11  N1  UNL     1       1.997  -0.658  -1.152  1.00  0.00    -0.359 N 
HETATM   12  C1  UNL     1       2.915  -0.539  -0.072  1.00  0.00     0.230 C 
HETATM   13  O1  UNL     1       3.058  -1.433   0.797  1.00  0.00    -0.272 OA
ATOM     14  H1  UNL     1       1.922   0.100  -1.831  1.00  0.00     0.162 HD
BRANCH  12  15
HETATM   15  C12 UNL     1       3.737   0.688   0.035  1.00  0.00     0.138 C 
HETATM   16  C13 UNL     1       4.564   0.784  -1.226  1.00  0.00    -0.010 C 
HETATM   17  C14 UNL     1       5.636   1.571  -1.234  1.00  0.00    -0.010 C 
HETATM   18  C15 UNL     1       5.942   2.308   0.023  1.00  0.00     0.146 C 
HETATM   19  N4  UNL     1       5.710   1.393   1.131  1.00  0.00    -0.398 N 
HETATM   20  C16 UNL     1       4.686   0.628   1.156  1.00  0.00     0.073 C 
ATOM     21  H4  UNL     1       6.377   1.362   1.902  1.00  0.00     0.158 HD
ENDBRANCH  12  15
ENDBRANCH  10  11
ENDBRANCH   9  10
ENDBRANCH   1   9
BRANCH   8  22
HETATM   22  O4  UNL     1      -1.929  -1.639  -1.903  1.00  0.00    -0.368 OA
ATOM     23  H4  UNL     1      -2.342  -1.308  -2.692  1.00  0.00     0.212 HD
ENDBRANCH   8  22
BRANCH   7  24
HETATM   24  C10 UNL     1      -3.501   0.607  -1.751  1.00  0.00     0.202 C 
BRANCH  24  25
HETATM   25  O3  UNL     1      -4.399  -0.427  -1.850  1.00  0.00    -0.399 OA
ATOM     26  H3  UNL     1      -5.111  -0.327  -2.471  1.00  0.00     0.209 HD
ENDBRANCH  24  25
ENDBRANCH   7  24
BRANCH   4  27
HETATM   27  C6  UNL     1      -3.821   1.196   0.971  1.00  0.00     0.402 C 
BRANCH  27  28
HETATM   28  O2  UNL     1      -3.778   1.458   2.334  1.00  0.00    -0.374 OA
ATOM     29  H2  UNL     1      -4.464   2.067   2.580  1.00  0.00     0.211 HD
ENDBRANCH  27  28
ENDBRANCH   4  27
TORSDOF 9
