REMARK  6 active torsions:
REMARK  status: ('A' for Active; 'I' for Inactive)
REMARK    1  A    between atoms: C3_5  and  C4_6 
REMARK    2  A    between atoms: C4_6  and  N2_7 
REMARK    3  A    between atoms: C4_6  and  C5_13 
REMARK    4  A    between atoms: N2_7  and  S1_9 
REMARK    5  A    between atoms: C10_21  and  N4_22 
REMARK    6  A    between atoms: N4_22  and  N5_24 
ROOT
HETATM    1  C1  UNL     1       3.768  -0.986  -1.697  1.00  0.00     0.155 C 
HETATM    2  N1  UNL     1       2.589  -0.472  -0.996  1.00  0.00    -0.334 N 
HETATM    3  C2  UNL     1       1.485  -1.296  -0.534  1.00  0.00     0.227 C 
HETATM    4  O1  UNL     1       1.592  -2.502  -0.313  1.00  0.00    -0.273 OA
HETATM    5  C3  UNL     1       0.362  -0.311  -0.439  1.00  0.00     0.107 C 
HETATM    6  C9  UNL     1       1.160   0.757   0.341  1.00  0.00     0.064 C 
HETATM    7  C10 UNL     1       2.330   0.906  -0.652  1.00  0.00     0.204 C 
ENDROOT
BRANCH   5   8
HETATM    8  C4  UNL     1      -0.854  -0.768   0.225  1.00  0.00     0.131 C 
BRANCH   8   9
HETATM    9  N2  UNL     1      -1.417  -1.994  -0.422  1.00  0.00    -0.293 N 
ATOM     10  H2  UNL     1      -1.553  -2.138  -1.423  1.00  0.00     0.175 HD
BRANCH   9  11
HETATM   11  S1  UNL     1      -1.791  -3.112   0.818  1.00  0.00     0.204 S 
HETATM   12  O2  UNL     1      -1.883  -2.399   2.169  1.00  0.00    -0.578 OA
HETATM   13  O3  UNL     1      -3.170  -3.708   0.625  1.00  0.00    -0.578 OA
HETATM   14  O4  UNL     1      -0.704  -4.342   1.019  1.00  0.00    -0.578 OA
ENDBRANCH   9  11
ENDBRANCH   8   9
BRANCH   8  15
HETATM   15  C5  UNL     1      -2.011   0.206   0.278  1.00  0.00     0.109 C 
HETATM   16  C6  UNL     1      -1.877   1.505   0.940  1.00  0.00     0.036 C 
HETATM   17  C7  UNL     1      -3.393   1.917   0.861  1.00  0.00     0.105 C 
HETATM   18  C8  UNL     1      -3.588   1.552  -0.595  1.00  0.00     0.218 C 
HETATM   19  O5  UNL     1      -4.480   2.063  -1.296  1.00  0.00    -0.274 OA
HETATM   20  N3  UNL     1      -2.598   0.565  -0.971  1.00  0.00    -0.354 N 
ATOM     21  H3  UNL     1      -2.375   0.213  -1.902  1.00  0.00     0.162 HD
ENDBRANCH   8  15
ENDBRANCH   5   8
BRANCH   7  22
HETATM   22  N4  UNL     1       3.398   1.521   0.068  1.00  0.00    -0.299 N 
ATOM     23  H4  UNL     1       4.239   0.988   0.290  1.00  0.00     0.184 HD
BRANCH  22  24
HETATM   24  N5  UNL     1       3.288   2.846   0.465  1.00  0.00    -0.252 N 
HETATM   25  N6  UNL     1       3.577   3.255   1.641  1.00  0.00    -0.331 N 
ATOM     26  H62 UNL     1       3.904   2.558   2.310  1.00  0.00     0.178 HD
ATOM     27  H61 UNL     1       3.496   4.229   1.933  1.00  0.00     0.178 HD
ATOM     28  H5  UNL     1       2.959   3.529  -0.217  1.00  0.00     0.207 HD
ENDBRANCH  22  24
ENDBRANCH   7  22
TORSDOF 6
