REMARK  10 active torsions:
REMARK  status: ('A' for Active; 'I' for Inactive)
REMARK    1  A    between atoms: C1_2  and  C2_3 
REMARK    2  A    between atoms: C2_3  and  C3_4 
REMARK    3  A    between atoms: C2_3  and  N3_13 
REMARK    4  A    between atoms: C3_4  and  C4_5 
REMARK    5  A    between atoms: N3_13  and  C7_15 
REMARK    6  A    between atoms: C7_15  and  C8_16 
REMARK    7  A    between atoms: C7_15  and  C10_20 
REMARK    8  A    between atoms: C8_16  and  C9_17 
REMARK    9  A    between atoms: C9_17  and  O3_18 
REMARK   10  A    between atoms: C13_23  and  C14_24 
ROOT
HETATM    1  C7  UNL     1      -0.152  -1.522  -0.055  1.00  0.00     0.034 C 
ENDROOT
BRANCH   1   2
HETATM    2  N3  UNL     1       0.744  -1.642   1.039  1.00  0.00    -0.380 N 
ATOM      3  H3  UNL     1       0.469  -2.250   1.810  1.00  0.00     0.160 HD
BRANCH   2   4
HETATM    4  C2  UNL     1       2.015  -0.968   1.141  1.00  0.00     0.148 C 
BRANCH   4   5
HETATM    5  C1  UNL     1       2.674  -1.358   2.421  1.00  0.00     0.256 C 
HETATM    6  O1  UNL     1       2.134  -2.152   3.178  1.00  0.00    -0.305 OA
ENDBRANCH   4   5
BRANCH   4   7
HETATM    7  C3  UNL     1       1.876   0.509   1.004  1.00  0.00     0.090 C 
BRANCH   7   8
HETATM    8  C4  UNL     1       3.154   1.254   0.974  1.00  0.00     0.031 A 
HETATM    9  C5  UNL     1       3.172   2.657   0.988  1.00  0.00     0.118 A 
HETATM   10  N1  UNL     1       4.452   3.044   0.929  1.00  0.00    -0.317 N 
HETATM   11  C6  UNL     1       5.246   1.970   0.878  1.00  0.00     0.324 A 
ATOM     12  H1  UNL     1       4.773   4.012   0.924  1.00  0.00     0.170 HD
HETATM   13  O2  UNL     1       6.502   1.887   0.815  1.00  0.00    -0.247 OA
HETATM   14  N2  UNL     1       4.423   0.881   0.906  1.00  0.00    -0.311 N 
ATOM     15  H2  UNL     1       4.742  -0.087   0.878  1.00  0.00     0.170 HD
ENDBRANCH   7   8
ENDBRANCH   4   7
ENDBRANCH   2   4
ENDBRANCH   1   2
BRANCH   1  16
HETATM   16  C8  UNL     1      -0.022  -2.284  -1.313  1.00  0.00     0.085 C 
BRANCH  16  17
HETATM   17  C9  UNL     1       1.308  -2.874  -1.594  1.00  0.00     0.170 C 
BRANCH  17  18
HETATM   18  O3  UNL     1       1.694  -3.802  -0.623  1.00  0.00    -0.400 OA
ATOM     19  H3  UNL     1       2.547  -4.180  -0.803  1.00  0.00     0.209 HD
ENDBRANCH  17  18
ENDBRANCH  16  17
ENDBRANCH   1  16
BRANCH   1  20
HETATM   20  C10 UNL     1      -1.185  -0.715   0.072  1.00  0.00     0.055 A 
HETATM   21  C11 UNL     1      -1.543   0.055   1.143  1.00  0.00     0.034 A 
HETATM   22  C12 UNL     1      -2.701   0.759   0.847  1.00  0.00     0.032 A 
HETATM   23  C13 UNL     1      -3.036   0.391  -0.438  1.00  0.00     0.038 A 
HETATM   24  N5  UNL     1      -2.115  -0.482  -0.862  1.00  0.00    -0.354 N 
ATOM     25  H5  UNL     1      -2.121  -0.917  -1.785  1.00  0.00     0.166 HD
BRANCH  23  26
HETATM   26  C14 UNL     1      -4.069   0.810  -1.142  1.00  0.00    -0.003 C 
HETATM   27  C15 UNL     1      -5.213   1.750  -0.919  1.00  0.00     0.270 C 
HETATM   28  N4  UNL     1      -5.967   0.938  -1.874  1.00  0.00    -0.068 N 
HETATM   29  C16 UNL     1      -4.670   0.610  -2.482  1.00  0.00     0.270 C 
ATOM     30  H42 UNL     1      -6.610   0.210  -1.564  1.00  0.00     0.277 HD
ATOM     31  H41 UNL     1      -6.730   1.333  -2.424  1.00  0.00     0.277 HD
ENDBRANCH  23  26
ENDBRANCH   1  20
TORSDOF 10
