REMARK  5 active torsions:
REMARK  status: ('A' for Active; 'I' for Inactive)
REMARK    1  A    between atoms: N1_4  and  C4_5 
REMARK    2  A    between atoms: C4_5  and  C5_6 
REMARK    3  A    between atoms: C5_6  and  N2_7 
REMARK       I    between atoms: N2_7  and  C6_9 
REMARK    4  A    between atoms: C6_9  and  C7_11 
REMARK    5  A    between atoms: C7_11  and  N3_12 
ROOT
HETATM    1  C1  UNL     1      -4.768  -0.140  -2.598  1.00  0.00     0.021 C 
HETATM    2  C2  UNL     1      -4.003   0.660  -1.529  1.00  0.00     0.100 C 
HETATM    3  C3  UNL     1      -2.754  -0.051  -1.233  1.00  0.00     0.253 C 
HETATM    4  N1  UNL     1      -2.198   0.006   0.057  1.00  0.00    -0.039 N 
HETATM    5  C12 UNL     1      -2.311   1.276   0.724  1.00  0.00     0.468 C 
HETATM    6  N5  UNL     1      -3.218   1.167   1.819  1.00  0.00    -0.043 N 
ATOM      7  H51 UNL     1      -4.037   1.766   1.711  1.00  0.00     0.279 HD
ATOM      8  H52 UNL     1      -2.852   1.585   2.675  1.00  0.00     0.279 HD
HETATM    9  C13 UNL     1      -3.563  -0.213   1.984  1.00  0.00     0.231 C 
HETATM   10  C14 UNL     1      -5.074  -0.341   1.779  1.00  0.00     0.157 C 
HETATM   11  N6  UNL     1      -5.440   0.599   0.780  1.00  0.00    -0.359 N 
ATOM     12  H6  UNL     1      -6.274   1.125   1.041  1.00  0.00     0.162 HD
HETATM   13  C15 UNL     1      -4.942   0.994  -0.489  1.00  0.00     0.223 C 
HETATM   14  O2  UNL     1      -5.587   2.060  -0.824  1.00  0.00    -0.273 OA
HETATM   15  C16 UNL     1      -2.938  -0.975   0.870  1.00  0.00     0.274 C 
ENDROOT
BRANCH   4  16
HETATM   16  C4  UNL     1      -0.828  -0.452   0.062  1.00  0.00     0.259 C 
BRANCH  16  17
HETATM   17  C5  UNL     1      -0.110  -0.425  -1.236  1.00  0.00     0.150 C 
BRANCH  17  18
HETATM   18  N2  UNL     1       1.237  -0.902  -1.051  1.00  0.00    -0.358 N 
HETATM   19  C6  UNL     1       2.219  -0.310  -0.220  1.00  0.00     0.246 C 
HETATM   20  O1  UNL     1       2.005   0.731   0.462  1.00  0.00    -0.272 OA
ATOM     21  H2  UNL     1       1.507  -1.741  -1.564  1.00  0.00     0.162 HD
BRANCH  19  22
HETATM   22  C7  UNL     1       3.570  -0.905  -0.118  1.00  0.00     0.374 C 
BRANCH  22  23
HETATM   23  N3  UNL     1       4.427  -0.176   0.746  1.00  0.00     0.100 N 
HETATM   24  C8  UNL     1       4.796   1.091   0.226  1.00  0.00     0.300 C 
HETATM   25  C9  UNL     1       6.158   1.102  -0.440  1.00  0.00     0.262 C 
HETATM   26  N4  UNL     1       7.153   0.339   0.251  1.00  0.00    -0.072 N 
HETATM   27  C10 UNL     1       6.647  -1.028   0.372  1.00  0.00     0.262 C 
ATOM     28  H42 UNL     1       8.071   0.387  -0.192  1.00  0.00     0.277 HD
ATOM     29  H41 UNL     1       7.417   0.747   1.148  1.00  0.00     0.277 HD
HETATM   30  C11 UNL     1       5.477  -0.958   1.316  1.00  0.00     0.300 C 
ENDBRANCH  22  23
ENDBRANCH  19  22
ENDBRANCH  17  18
ENDBRANCH  16  17
ENDBRANCH   4  16
TORSDOF 5
