REMARK  4 active torsions:
REMARK  status: ('A' for Active; 'I' for Inactive)
REMARK    1  A    between atoms: C3_5  and  S1_6 
REMARK    2  A    between atoms: S1_6  and  C4_7 
REMARK    3  A    between atoms: C4_7  and  C6_9 
REMARK    4  A    between atoms: N3_18  and  C12_19 
ROOT
HETATM    1  C1  UNL     1       1.755   4.735  -0.851  1.00  0.00     0.069 C 
HETATM    2  C2  UNL     1       1.800   3.307  -0.479  1.00  0.00     0.018 A 
HETATM    3  N1  UNL     1       0.698   2.634  -0.195  1.00  0.00    -0.340 N 
ATOM      4  H1  UNL     1      -0.194   3.127  -0.239  1.00  0.00     0.167 HD
HETATM    5  C3  UNL     1       0.691   1.327   0.150  1.00  0.00     0.150 A 
HETATM    6  N3  UNL     1       1.825   0.609   0.229  1.00  0.00    -0.289 N 
HETATM    7  C18 UNL     1       2.958   1.275  -0.058  1.00  0.00     0.257 A 
HETATM    8  O2  UNL     1       4.041   0.657  -0.001  1.00  0.00    -0.267 OA
HETATM    9  C19 UNL     1       2.998   2.601  -0.411  1.00  0.00     0.029 A 
HETATM   10  C20 UNL     1       4.246   3.342  -0.729  1.00  0.00     0.056 C 
ENDROOT
BRANCH   5  11
HETATM   11  S1  UNL     1      -0.895   0.621   0.531  1.00  0.00    -0.087 SA
BRANCH  11  12
HETATM   12  C4  UNL     1      -1.824   0.046  -0.870  1.00  0.00     0.079 C 
HETATM   13  C5  UNL     1      -1.157  -1.132  -1.515  1.00  0.00     0.024 C 
BRANCH  12  14
HETATM   14  C6  UNL     1      -3.266  -0.282  -0.540  1.00  0.00     0.042 C 
HETATM   15  C7  UNL     1      -3.911  -0.744  -1.831  1.00  0.00     0.039 C 
HETATM   16  C8  UNL     1      -3.997   0.875   0.059  1.00  0.00     0.032 C 
HETATM   17  C9  UNL     1      -5.120   0.534   0.975  1.00  0.00     0.012 C 
HETATM   18  C10 UNL     1      -5.754  -0.815   0.726  1.00  0.00     0.103 C 
HETATM   19  C11 UNL     1      -4.655  -1.812   0.774  1.00  0.00     0.218 C 
HETATM   20  O1  UNL     1      -4.812  -3.002   1.142  1.00  0.00    -0.274 OA
HETATM   21  N2  UNL     1      -3.353  -1.402   0.385  1.00  0.00    -0.351 N 
ATOM     22  H2  UNL     1      -2.518  -1.870   0.737  1.00  0.00     0.163 HD
ENDBRANCH  12  14
ENDBRANCH  11  12
ENDBRANCH   5  11
BRANCH   6  23
HETATM   23  C12 UNL     1       1.901  -0.781   0.629  1.00  0.00     0.095 C 
HETATM   24  C13 UNL     1       2.540  -0.937   1.996  1.00  0.00     0.026 C 
HETATM   25  C14 UNL     1       2.643  -2.436   2.264  1.00  0.00     0.002 C 
HETATM   26  C15 UNL     1       3.785  -2.912   1.397  1.00  0.00     0.000 C 
HETATM   27  C16 UNL     1       3.628  -2.535  -0.035  1.00  0.00     0.002 C 
HETATM   28  C17 UNL     1       2.478  -1.692  -0.401  1.00  0.00     0.026 C 
ENDBRANCH   6  23
TORSDOF 4
