REMARK  6 active torsions:
REMARK  status: ('A' for Active; 'I' for Inactive)
REMARK    1  A    between atoms: C2_2  and  O1_3 
REMARK    2  A    between atoms: O1_3  and  C3_4 
REMARK    3  A    between atoms: C8_9  and  O2_10 
REMARK    4  A    between atoms: C15_20  and  O5_21 
REMARK    5  A    between atoms: O5_21  and  C16_22 
REMARK    6  A    between atoms: C16_22  and  C17_23 
ROOT
HETATM    1  C3  UNL     1      -2.732  -1.717   0.549  1.00  0.00     0.158 C 
HETATM    2  C4  UNL     1      -1.486  -2.583   0.769  1.00  0.00     0.042 C 
HETATM    3  C5  UNL     1      -0.433  -1.873  -0.096  1.00  0.00     0.045 C 
HETATM    4  C6  UNL     1      -0.782  -0.448   0.114  1.00  0.00    -0.010 A 
HETATM    5  C7  UNL     1      -2.092  -0.365   0.486  1.00  0.00     0.014 A 
HETATM    6  C8  UNL     1      -2.686   0.876   0.754  1.00  0.00     0.088 A 
HETATM    7  C9  UNL     1      -1.969   2.033   0.650  1.00  0.00     0.041 A 
HETATM    8  C10 UNL     1      -2.599   3.252   0.926  1.00  0.00    -0.040 A 
HETATM    9  C11 UNL     1      -4.012   3.374   1.330  1.00  0.00     0.049 C 
HETATM   10  C12 UNL     1      -1.773   4.363   0.787  1.00  0.00     0.090 A 
HETATM   11  C13 UNL     1      -0.460   4.226   0.409  1.00  0.00     0.288 A 
HETATM   12  O3  UNL     1       0.308   5.237   0.278  1.00  0.00    -0.260 OA
HETATM   13  O4  UNL     1       0.077   3.057   0.163  1.00  0.00    -0.272 OA
HETATM   14  C14 UNL     1      -0.645   1.942   0.273  1.00  0.00     0.127 A 
HETATM   15  C15 UNL     1      -0.041   0.728   0.004  1.00  0.00     0.110 A 
ENDROOT
BRANCH  15  16
HETATM   16  O5  UNL     1       1.276   0.637  -0.370  1.00  0.00    -0.347 OA
BRANCH  16  17
HETATM   17  C16 UNL     1       2.343   0.492   0.555  1.00  0.00     0.180 C 
BRANCH  17  18
HETATM   18  C17 UNL     1       3.627   0.430  -0.261  1.00  0.00     0.010 C 
HETATM   19  C18 UNL     1       4.762   0.276   0.702  1.00  0.00     0.007 C 
HETATM   20  C19 UNL     1       6.031  -0.218   0.060  1.00  0.00     0.000 C 
HETATM   21  C20 UNL     1       5.710  -1.574  -0.535  1.00  0.00     0.000 C 
HETATM   22  C21 UNL     1       4.749  -1.330  -1.664  1.00  0.00     0.000 C 
HETATM   23  C22 UNL     1       3.486  -0.671  -1.250  1.00  0.00     0.007 C 
ENDBRANCH  17  18
ENDBRANCH  16  17
ENDBRANCH  15  16
BRANCH   1  24
HETATM   24  O1  UNL     1      -3.314  -1.982  -0.663  1.00  0.00    -0.381 OA
BRANCH  24  25
HETATM   25  C2  UNL     1      -4.647  -2.304  -0.644  1.00  0.00     0.164 C 
HETATM   26  C1  UNL     1      -5.050  -2.558  -2.101  1.00  0.00     0.033 C 
ENDBRANCH  24  25
ENDBRANCH   1  24
BRANCH   6  27
HETATM   27  O2  UNL     1      -4.004   0.936   1.128  1.00  0.00    -0.359 OA
ATOM     28  H2  UNL     1      -4.407   1.777   1.310  1.00  0.00     0.217 HD
ENDBRANCH   6  27
TORSDOF 6
