REMARK  4 active torsions:
REMARK  status: ('A' for Active; 'I' for Inactive)
REMARK       I    between atoms: C1_2  and  N1_3 
REMARK    1  A    between atoms: C1_2  and  C6_14 
REMARK    2  A    between atoms: N1_3  and  S1_5 
REMARK    3  A    between atoms: S1_5  and  O4_8 
REMARK    4  A    between atoms: O4_8  and  C2_9 
ROOT
HETATM    1  O1  UNL     1       1.903   1.171   0.498  1.00  0.00    -0.267 OA
HETATM    2  C1  UNL     1       1.543   0.318  -0.336  1.00  0.00     0.258 C 
HETATM    3  N1  UNL     1       2.556  -0.275  -1.135  1.00  0.00    -0.227 N 
ATOM      4  H1  UNL     1       2.289  -0.976  -1.826  1.00  0.00     0.184 HD
ENDROOT
BRANCH   2   5
HETATM    5  C6  UNL     1       0.104  -0.005  -0.422  1.00  0.00    -0.011 C 
HETATM    6  C7  UNL     1      -0.376  -0.890   0.693  1.00  0.00     0.040 C 
HETATM    7  C8  UNL     1      -0.969  -2.186   0.282  1.00  0.00     0.004 C 
HETATM    8  C9  UNL     1      -2.293  -2.151  -0.371  1.00  0.00     0.000 C 
HETATM    9  C10 UNL     1      -3.429  -1.680   0.483  1.00  0.00     0.000 C 
HETATM   10  C11 UNL     1      -4.364  -0.866  -0.381  1.00  0.00     0.000 C 
HETATM   11  C12 UNL     1      -5.151   0.160   0.338  1.00  0.00     0.000 C 
HETATM   12  C13 UNL     1      -4.380   1.168   1.115  1.00  0.00     0.000 C 
HETATM   13  C14 UNL     1      -3.519   2.071   0.233  1.00  0.00     0.000 C 
HETATM   14  C15 UNL     1      -2.238   2.299   0.942  1.00  0.00     0.000 C 
HETATM   15  C16 UNL     1      -0.985   2.242   0.132  1.00  0.00     0.004 C 
HETATM   16  C17 UNL     1      -0.788   1.135  -0.787  1.00  0.00     0.040 C 
ENDBRANCH   2   5
BRANCH   3  17
HETATM   17  S1  UNL     1       4.209   0.143  -0.982  1.00  0.00     0.369 S 
HETATM   18  O2  UNL     1       4.967  -0.296  -2.201  1.00  0.00    -0.175 OA
HETATM   19  O3  UNL     1       4.388   1.628  -0.870  1.00  0.00    -0.175 OA
BRANCH  17  20
HETATM   20  O4  UNL     1       4.923  -0.631   0.347  1.00  0.00    -0.216 OA
BRANCH  20  21
HETATM   21  C2  UNL     1       6.348  -0.702   0.451  1.00  0.00     0.098 A 
HETATM   22  C3  UNL     1       7.105   0.211   1.071  1.00  0.00     0.046 A 
HETATM   23  C4  UNL     1       8.456   0.009   1.089  1.00  0.00     0.052 A 
HETATM   24  S2  UNL     1       8.635  -1.455   0.238  1.00  0.00    -0.111 SA
HETATM   25  C5  UNL     1       6.997  -1.771  -0.117  1.00  0.00     0.087 A 
ENDBRANCH  20  21
ENDBRANCH  17  20
ENDBRANCH   3  17
TORSDOF 4
