REMARK  5 active torsions:
REMARK  status: ('A' for Active; 'I' for Inactive)
REMARK    1  A    between atoms: O1_2  and  C2_3 
REMARK    2  A    between atoms: C4_5  and  N1_6 
REMARK    3  A    between atoms: N1_6  and  C5_8 
REMARK    4  A    between atoms: C8_11  and  C9_12 
REMARK    5  A    between atoms: C9_12  and  N2_13 
ROOT
HETATM    1  C5  UNL     1       2.661  -0.579  -0.122  1.00  0.00     0.149 A 
HETATM    2  C6  UNL     1       2.047  -0.448  -1.341  1.00  0.00     0.059 A 
HETATM    3  C7  UNL     1       0.726  -0.188  -1.042  1.00  0.00     0.043 A 
HETATM    4  C8  UNL     1       0.582  -0.169   0.329  1.00  0.00     0.093 A 
HETATM    5  O2  UNL     1       1.782  -0.411   0.801  1.00  0.00    -0.292 OA
ENDROOT
BRANCH   4   6
HETATM    6  C9  UNL     1      -0.669   0.074   1.086  1.00  0.00     0.128 C 
BRANCH   6   7
HETATM    7  N2  UNL     1      -1.869  -0.222   0.432  1.00  0.00    -0.358 N 
HETATM    8  C10 UNL     1      -2.038  -1.577   0.083  1.00  0.00     0.064 C 
HETATM    9  C11 UNL     1      -2.262  -2.498   1.261  1.00  0.00     0.044 C 
HETATM   10  C12 UNL     1      -3.472  -2.174   2.070  1.00  0.00     0.005 C 
HETATM   11  C13 UNL     1      -3.417  -0.888   2.804  1.00  0.00     0.003 C 
HETATM   12  C14 UNL     1      -3.624   0.355   2.069  1.00  0.00     0.031 C 
HETATM   13  C15 UNL     1      -3.019   0.528   0.728  1.00  0.00     0.036 C 
HETATM   14  C16 UNL     1      -2.760   2.026   0.558  1.00  0.00     0.031 C 
HETATM   15  C20 UNL     1      -4.095   0.235  -0.321  1.00  0.00     0.031 C 
HETATM   16  C17 UNL     1      -2.443   2.442  -0.829  1.00  0.00     0.002 C 
HETATM   17  C18 UNL     1      -3.562   2.070  -1.797  1.00  0.00     0.000 C 
HETATM   18  C19 UNL     1      -3.643   0.538  -1.709  1.00  0.00     0.002 C 
ENDBRANCH   6   7
ENDBRANCH   4   6
BRANCH   1  19
HETATM   19  N1  UNL     1       4.063  -0.858   0.042  1.00  0.00    -0.330 N 
ATOM     20  H1  UNL     1       4.381  -1.552   0.718  1.00  0.00     0.168 HD
BRANCH  19  21
HETATM   21  C4  UNL     1       4.924  -0.198  -0.699  1.00  0.00     0.096 A 
HETATM   22  C3  UNL     1       6.288  -0.317  -0.695  1.00  0.00     0.095 A 
HETATM   23  C2  UNL     1       6.967   0.465  -1.544  1.00  0.00     0.150 A 
HETATM   24  N3  UNL     1       6.266   1.293  -2.322  1.00  0.00    -0.305 N 
HETATM   25  S1  UNL     1       4.670   0.998  -1.888  1.00  0.00     0.006 SA
ATOM     26  H3  UNL     1       6.617   1.951  -3.018  1.00  0.00     0.176 HD
BRANCH  23  27
HETATM   27  O1  UNL     1       8.386   0.436  -1.635  1.00  0.00    -0.340 OA
HETATM   28  C1  UNL     1       9.179  -0.408  -0.848  1.00  0.00     0.211 C 
ENDBRANCH  23  27
ENDBRANCH  19  21
ENDBRANCH   1  19
TORSDOF 5
