REMARK  5 active torsions:
REMARK  status: ('A' for Active; 'I' for Inactive)
REMARK    1  A    between atoms: C4_4  and  C5_5 
REMARK    2  A    between atoms: C5_5  and  N1_6 
REMARK    3  A    between atoms: C5_5  and  C16_22 
REMARK       I    between atoms: N1_6  and  C6_8 
REMARK    4  A    between atoms: C6_8  and  C7_10 
REMARK    5  A    between atoms: N3_15  and  C10_16 
ROOT
HETATM    1  N1  UNL     1      -0.762   0.513   0.845  1.00  0.00    -0.346 N 
ATOM      2  H1  UNL     1      -0.483   1.029   1.679  1.00  0.00     0.163 HD
HETATM    3  C6  UNL     1       0.282  -0.059   0.106  1.00  0.00     0.256 C 
HETATM    4  O1  UNL     1       0.061  -0.700  -0.967  1.00  0.00    -0.267 OA
ENDROOT
BRANCH   1   5
HETATM    5  C5  UNL     1      -2.168   0.469   0.584  1.00  0.00     0.140 C 
BRANCH   5   6
HETATM    6  C4  UNL     1      -2.659   1.710  -0.053  1.00  0.00     0.058 A 
HETATM    7  C3  UNL     1      -3.815   2.392   0.314  1.00  0.00     0.063 A 
HETATM    8  C2  UNL     1      -3.895   3.467  -0.517  1.00  0.00     0.074 A 
HETATM    9  C1  UNL     1      -4.975   4.519  -0.519  1.00  0.00     0.079 C 
HETATM   10  O2  UNL     1      -2.869   3.433  -1.320  1.00  0.00    -0.243 OA
HETATM   11  N4  UNL     1      -2.130   2.412  -1.066  1.00  0.00    -0.263 N 
ATOM     12  H4  UNL     1      -1.271   2.172  -1.560  1.00  0.00     0.194 HD
ENDBRANCH   5   6
BRANCH   5  13
HETATM   13  C16 UNL     1      -2.631  -0.770  -0.161  1.00  0.00     0.014 C 
HETATM   14  C17 UNL     1      -2.147  -1.988   0.548  1.00  0.00     0.007 C 
HETATM   15  C18 UNL     1      -3.250  -2.689   1.322  1.00  0.00     0.000 C 
HETATM   16  C19 UNL     1      -4.284  -3.252   0.370  1.00  0.00     0.000 C 
HETATM   17  C20 UNL     1      -4.569  -2.190  -0.669  1.00  0.00     0.000 C 
HETATM   18  C21 UNL     1      -4.154  -0.810  -0.140  1.00  0.00     0.007 C 
ENDBRANCH   5  13
ENDBRANCH   1   5
BRANCH   3  19
HETATM   19  C7  UNL     1       1.688   0.017   0.467  1.00  0.00     0.079 A 
HETATM   20  C8  UNL     1       2.252   0.317   1.668  1.00  0.00     0.040 A 
HETATM   21  C9  UNL     1       1.619   0.593   3.006  1.00  0.00     0.071 C 
HETATM   22  N2  UNL     1       3.586   0.305   1.486  1.00  0.00    -0.301 N 
HETATM   23  N3  UNL     1       3.933   0.018   0.256  1.00  0.00    -0.287 N 
ATOM     24  H2  UNL     1       4.257   0.499   2.229  1.00  0.00     0.187 HD
HETATM   25  C14 UNL     1       2.778  -0.167  -0.407  1.00  0.00     0.043 A 
HETATM   26  C15 UNL     1       2.585  -0.507  -1.823  1.00  0.00     0.071 C 
BRANCH  23  27
HETATM   27  C10 UNL     1       5.266  -0.078  -0.274  1.00  0.00     0.043 C 
HETATM   28  C11 UNL     1       6.246   0.036   0.912  1.00  0.00     0.039 C 
HETATM   29  C12 UNL     1       5.648   1.104  -1.144  1.00  0.00     0.039 C 
HETATM   30  C13 UNL     1       5.579  -1.387  -0.920  1.00  0.00     0.039 C 
ENDBRANCH  23  27
ENDBRANCH   3  19
TORSDOF 5
