REMARK  8 active torsions:
REMARK  status: ('A' for Active; 'I' for Inactive)
REMARK    1  A    between atoms: C4_4  and  O1_5 
REMARK    2  A    between atoms: C5_7  and  C6_8 
REMARK    3  A    between atoms: C6_8  and  C7_9 
REMARK    4  A    between atoms: C7_9  and  C8_10 
REMARK    5  A    between atoms: C8_10  and  O2_12 
REMARK    6  A    between atoms: C8_10  and  C10_14 
REMARK    7  A    between atoms: C13_18  and  O4_19 
REMARK    8  A    between atoms: C18_25  and  O5_26 
ROOT
HETATM    1  C1  UNL     1       4.567   2.334   0.091  1.00  0.00     0.036 C 
HETATM    2  C2  UNL     1       3.329   2.180  -0.704  1.00  0.00    -0.025 C 
HETATM    3  C3  UNL     1       2.527   1.123  -0.565  1.00  0.00    -0.049 C 
HETATM    4  C4  UNL     1       1.343   1.089  -1.402  1.00  0.00     0.152 C 
HETATM    5  C5  UNL     1       0.201   0.184  -0.904  1.00  0.00     0.027 C 
HETATM    6  C14 UNL     1       0.834  -0.975  -0.183  1.00  0.00    -0.037 C 
HETATM    7  C15 UNL     1      -0.017  -2.033   0.389  1.00  0.00     0.015 C 
HETATM    8  C16 UNL     1       1.767  -1.659  -1.184  1.00  0.00     0.012 C 
HETATM    9  C17 UNL     1       3.032  -2.153  -0.545  1.00  0.00     0.033 C 
HETATM   10  C18 UNL     1       3.856  -0.948  -0.109  1.00  0.00     0.126 C 
HETATM   11  C19 UNL     1       2.937   0.110   0.424  1.00  0.00     0.046 C 
HETATM   12  C20 UNL     1       1.708  -0.499   0.997  1.00  0.00     0.021 C 
ENDROOT
BRANCH   5  13
HETATM   13  C6  UNL     1      -0.671   1.071  -0.092  1.00  0.00     0.011 C 
BRANCH  13  14
HETATM   14  C7  UNL     1      -1.937   0.585   0.462  1.00  0.00     0.043 C 
BRANCH  14  15
HETATM   15  C8  UNL     1      -3.039   0.264  -0.510  1.00  0.00     0.086 C 
HETATM   16  C9  UNL     1      -3.453   1.486  -1.311  1.00  0.00     0.051 C 
BRANCH  15  17
HETATM   17  O2  UNL     1      -2.708  -0.696  -1.446  1.00  0.00    -0.385 OA
ATOM     18  H2  UNL     1      -3.404  -0.899  -2.060  1.00  0.00     0.211 HD
ENDBRANCH  15  17
BRANCH  15  19
HETATM   19  C10 UNL     1      -4.237  -0.227   0.213  1.00  0.00     0.036 A 
HETATM   20  C11 UNL     1      -4.310  -0.462   1.575  1.00  0.00     0.039 A 
HETATM   21  C12 UNL     1      -5.586  -0.906   1.852  1.00  0.00     0.145 A 
HETATM   22  O3  UNL     1      -6.251  -0.937   0.707  1.00  0.00    -0.300 OA
HETATM   23  C13 UNL     1      -5.483  -0.542  -0.279  1.00  0.00     0.192 A 
BRANCH  23  24
HETATM   24  O4  UNL     1      -5.828  -0.438  -1.638  1.00  0.00    -0.340 OA
ATOM     25  H4  UNL     1      -6.688  -0.655  -1.978  1.00  0.00     0.220 HD
ENDBRANCH  23  24
ENDBRANCH  15  19
ENDBRANCH  14  15
ENDBRANCH  13  14
ENDBRANCH   5  13
BRANCH   4  26
HETATM   26  O1  UNL     1       0.875   2.426  -1.502  1.00  0.00    -0.391 OA
ATOM     27  H1  UNL     1       0.099   2.404  -2.050  1.00  0.00     0.210 HD
ENDBRANCH   4  26
BRANCH  10  28
HETATM   28  O5  UNL     1       4.749  -1.433   0.857  1.00  0.00    -0.395 OA
ATOM     29  H5  UNL     1       5.263  -0.682   1.129  1.00  0.00     0.210 HD
ENDBRANCH  10  28
TORSDOF 8
