REMARK  6 active torsions:
REMARK  status: ('A' for Active; 'I' for Inactive)
REMARK    1  A    between atoms: C5_5  and  N1_6 
REMARK    2  A    between atoms: N1_6  and  C6_8 
REMARK    3  A    between atoms: C8_14  and  N4_15 
REMARK    4  A    between atoms: C14_21  and  C15_22 
REMARK    5  A    between atoms: C15_22  and  O1_23 
REMARK    6  A    between atoms: N5_25  and  O2_27 
ROOT
HETATM    1  C6  UNL     1       1.307  -0.574   0.388  1.00  0.00     0.136 A 
HETATM    2  N2  UNL     1       1.046   0.736   0.420  1.00  0.00    -0.284 N 
ATOM      3  H2  UNL     1       1.750   1.464   0.541  1.00  0.00     0.188 HD
HETATM    4  N3  UNL     1      -0.247   0.959   0.273  1.00  0.00    -0.295 N 
ATOM      5  H3  UNL     1      -0.677   1.884   0.265  1.00  0.00     0.187 HD
HETATM    6  C7  UNL     1      -0.934  -0.220   0.132  1.00  0.00     0.097 A 
HETATM    7  C8  UNL     1      -2.196  -0.659  -0.044  1.00  0.00     0.082 A 
HETATM    8  C14 UNL     1      -2.394  -2.006  -0.134  1.00  0.00     0.087 A 
HETATM    9  S1  UNL     1      -0.794  -2.630   0.031  1.00  0.00    -0.077 SA
HETATM   10  C16 UNL     1       0.052  -1.165   0.206  1.00  0.00     0.081 A 
ENDROOT
BRANCH   1  11
HETATM   11  N1  UNL     1       2.421  -1.215   0.492  1.00  0.00    -0.369 N 
ATOM     12  H1  UNL     1       2.450  -2.234   0.445  1.00  0.00     0.161 HD
BRANCH  11  13
HETATM   13  C5  UNL     1       3.619  -0.445   0.676  1.00  0.00     0.083 C 
HETATM   14  C4  UNL     1       4.772  -1.273   1.188  1.00  0.00     0.025 C 
HETATM   15  C3  UNL     1       5.987  -0.523   0.731  1.00  0.00     0.006 C 
HETATM   16  C2  UNL     1       5.544   0.564  -0.193  1.00  0.00    -0.017 C 
HETATM   17  C1  UNL     1       6.466   0.810  -1.343  1.00  0.00     0.010 C 
HETATM   18  C17 UNL     1       4.177   0.061  -0.651  1.00  0.00     0.029 C 
ENDBRANCH  11  13
ENDBRANCH   1  11
BRANCH   7  19
HETATM   19  N4  UNL     1      -3.336   0.237  -0.137  1.00  0.00    -0.378 N 
HETATM   20  C9  UNL     1      -4.097   0.635   1.019  1.00  0.00     0.123 C 
HETATM   21  C10 UNL     1      -4.422   2.137   0.959  1.00  0.00     0.020 C 
HETATM   22  C11 UNL     1      -5.031   2.489  -0.365  1.00  0.00     0.003 C 
HETATM   23  C12 UNL     1      -4.009   2.196  -1.444  1.00  0.00     0.020 C 
HETATM   24  C13 UNL     1      -3.640   0.724  -1.469  1.00  0.00     0.123 C 
ENDBRANCH   7  19
BRANCH   8  25
HETATM   25  C15 UNL     1      -3.604  -2.809  -0.310  1.00  0.00     0.179 C 
HETATM   26  N5  UNL     1      -3.509  -4.083  -0.369  1.00  0.00    -0.246 N 
ATOM     27  H5  UNL     1      -4.349  -4.649  -0.492  1.00  0.00     0.196 HD
BRANCH  25  28
HETATM   28  O1  UNL     1      -4.870  -2.270  -0.420  1.00  0.00    -0.344 OA
ATOM     29  H1  UNL     1      -5.656  -2.791  -0.534  1.00  0.00     0.219 HD
ENDBRANCH  25  28
BRANCH  26  30
HETATM   30  O2  UNL     1      -2.297  -4.687  -0.269  1.00  0.00    -0.288 OA
ATOM     31  H2  UNL     1      -2.226  -5.633  -0.313  1.00  0.00     0.244 HD
ENDBRANCH  26  30
ENDBRANCH   8  25
TORSDOF 6
