REMARK  6 active torsions:
REMARK  status: ('A' for Active; 'I' for Inactive)
REMARK    1  A    between atoms: C2_2  and  C3_3 
REMARK    2  A    between atoms: C3_3  and  C4_5 
REMARK    3  A    between atoms: C4_5  and  O2_6 
REMARK    4  A    between atoms: C4_5  and  C5_8 
REMARK    5  A    between atoms: C14_17  and  O3_18 
REMARK    6  A    between atoms: C17_22  and  O4_24 
ROOT
HETATM    1  C5  UNL     1       1.680   0.293   1.016  1.00  0.00    -0.007 C 
HETATM    2  C6  UNL     1       1.520  -0.832   2.016  1.00  0.00     0.018 C 
HETATM    3  C7  UNL     1       1.771   1.542   1.941  1.00  0.00     0.012 C 
HETATM    4  C8  UNL     1       0.836   2.635   1.472  1.00  0.00     0.002 C 
HETATM    5  C9  UNL     1      -0.521   1.960   1.747  1.00  0.00     0.010 C 
HETATM    6  C10 UNL     1      -0.698   1.071   0.519  1.00  0.00    -0.035 C 
HETATM    7  C11 UNL     1      -1.228   2.042  -0.528  1.00  0.00     0.016 C 
HETATM    8  C12 UNL     1      -1.713   0.062   0.956  1.00  0.00     0.003 C 
HETATM    9  C13 UNL     1      -2.651   0.552   2.039  1.00  0.00     0.037 C 
HETATM   10  C14 UNL     1      -3.803  -0.462   1.977  1.00  0.00     0.119 C 
HETATM   11  C15 UNL     1      -3.508  -1.374   0.801  1.00  0.00     0.039 C 
HETATM   12  C16 UNL     1      -2.661  -0.415  -0.065  1.00  0.00     0.027 C 
HETATM   13  C17 UNL     1      -2.124  -1.174  -1.196  1.00  0.00     0.058 C 
HETATM   14  C18 UNL     1      -3.152  -1.234  -2.317  1.00  0.00     0.046 C 
HETATM   15  C19 UNL     1      -0.788  -0.749  -1.741  1.00  0.00     0.038 C 
HETATM   16  C20 UNL     1       0.265  -0.859  -0.664  1.00  0.00     0.009 C 
HETATM   17  C21 UNL     1       0.580   0.435   0.034  1.00  0.00     0.005 C 
ENDROOT
BRANCH   1  18
HETATM   18  C4  UNL     1       3.063   0.290   0.410  1.00  0.00     0.196 C 
BRANCH  18  19
HETATM   19  C3  UNL     1       3.576  -0.841  -0.288  1.00  0.00     0.155 C 
HETATM   20  O1  UNL     1       3.623  -2.010   0.086  1.00  0.00    -0.295 OA
BRANCH  19  21
HETATM   21  C2  UNL     1       4.158  -0.662  -1.663  1.00  0.00     0.076 C 
HETATM   22  C1  UNL     1       5.513  -1.389  -1.613  1.00  0.00     0.013 C 
ENDBRANCH  19  21
ENDBRANCH  18  19
BRANCH  18  23
HETATM   23  O2  UNL     1       3.221   1.439  -0.419  1.00  0.00    -0.387 OA
ATOM     24  H2  UNL     1       2.879   2.193   0.046  1.00  0.00     0.210 HD
ENDBRANCH  18  23
ENDBRANCH   1  18
BRANCH  13  25
HETATM   25  O4  UNL     1      -1.947  -2.521  -0.787  1.00  0.00    -0.390 OA
ATOM     26  H4  UNL     1      -1.599  -3.013  -1.521  1.00  0.00     0.210 HD
ENDBRANCH  13  25
BRANCH  10  27
HETATM   27  O3  UNL     1      -5.007   0.182   1.738  1.00  0.00    -0.396 OA
ATOM     28  H3  UNL     1      -5.720  -0.445   1.700  1.00  0.00     0.210 HD
ENDBRANCH  10  27
TORSDOF 6
