REMARK  6 active torsions:
REMARK  status: ('A' for Active; 'I' for Inactive)
REMARK    1  A    between atoms: C5_5  and  C6_6 
REMARK    2  A    between atoms: C6_6  and  S1_7 
REMARK    3  A    between atoms: C9_12  and  O2_13 
REMARK    4  A    between atoms: C11_16  and  C12_17 
REMARK    5  A    between atoms: C12_17  and  O3_18 
REMARK    6  A    between atoms: C13_20  and  O4_21 
ROOT
HETATM    1  C1  UNL     1       1.199   0.078  -2.070  1.00  0.00     0.018 C 
HETATM    2  C2  UNL     1       0.714  -0.275  -0.662  1.00  0.00    -0.010 C 
HETATM    3  C3  UNL     1       1.338  -1.647  -0.359  1.00  0.00     0.015 C 
HETATM    4  C4  UNL     1       2.820  -1.506  -0.732  1.00  0.00     0.034 C 
HETATM    5  C5  UNL     1       3.441  -0.455   0.125  1.00  0.00     0.132 C 
HETATM    6  O1  UNL     1       2.749   0.718   0.187  1.00  0.00    -0.379 OA
HETATM    7  C7  UNL     1       1.403   0.647   0.357  1.00  0.00     0.133 C 
HETATM    8  C8  UNL     1       0.816   2.008   0.122  1.00  0.00     0.065 C 
HETATM    9  C9  UNL     1      -0.620   2.053   0.441  1.00  0.00     0.126 C 
HETATM   10  C10 UNL     1      -1.348   0.715   0.412  1.00  0.00     0.032 C 
HETATM   11  C11 UNL     1      -2.805   0.918   0.321  1.00  0.00     0.045 C 
HETATM   12  C13 UNL     1      -3.545   0.380  -0.844  1.00  0.00     0.124 C 
HETATM   13  C14 UNL     1      -2.801  -0.377  -1.867  1.00  0.00     0.033 C 
HETATM   14  C15 UNL     1      -1.360   0.059  -1.914  1.00  0.00     0.013 C 
HETATM   15  C16 UNL     1      -0.759  -0.263  -0.558  1.00  0.00    -0.028 C 
HETATM   16  C17 UNL     1      -1.217  -1.662  -0.204  1.00  0.00     0.016 C 
ENDROOT
BRANCH   5  17
HETATM   17  C6  UNL     1       3.805  -1.010   1.508  1.00  0.00     0.118 C 
BRANCH  17  18
HETATM   18  S1  UNL     1       4.991  -2.381   1.299  1.00  0.00    -0.083 SA
HETATM   19  S2  UNL     1       6.833  -1.666   0.528  1.00  0.00    -0.013 SA
ENDBRANCH  17  18
ENDBRANCH   5  17
BRANCH   9  20
HETATM   20  O2  UNL     1      -1.317   2.972  -0.379  1.00  0.00    -0.395 OA
ATOM     21  H2  UNL     1      -2.244   3.001  -0.173  1.00  0.00     0.210 HD
ENDBRANCH   9  20
BRANCH  11  22
HETATM   22  C12 UNL     1      -3.539   0.523   1.619  1.00  0.00     0.171 C 
BRANCH  22  23
HETATM   23  O3  UNL     1      -3.088   1.275   2.689  1.00  0.00    -0.400 OA
ATOM     24  H3  UNL     1      -3.540   1.032   3.488  1.00  0.00     0.209 HD
ENDBRANCH  22  23
ENDBRANCH  11  22
BRANCH  12  25
HETATM   25  O4  UNL     1      -4.315   1.374  -1.503  1.00  0.00    -0.395 OA
ATOM     26  H4  UNL     1      -4.790   1.029  -2.250  1.00  0.00     0.210 HD
ENDBRANCH  12  25
TORSDOF 6
