REMARK  4 active torsions:
REMARK  status: ('A' for Active; 'I' for Inactive)
REMARK    1  A    between atoms: C4_5  and  C5_6 
REMARK    2  A    between atoms: C5_6  and  S1_7 
REMARK    3  A    between atoms: S1_7  and  C6_8 
REMARK    4  A    between atoms: C7_11  and  C8_12 
ROOT
HETATM    1  C6  UNL     1       1.314  -1.107   0.249  1.00  0.00     0.160 A 
HETATM    2  N1  UNL     1       2.547  -0.958   0.818  1.00  0.00    -0.324 N 
ATOM      3  H1  UNL     1       2.856  -1.341   1.712  1.00  0.00     0.169 HD
HETATM    4  C7  UNL     1       3.273  -0.210  -0.028  1.00  0.00     0.102 A 
HETATM    5  N2  UNL     1       2.528   0.104  -1.095  1.00  0.00    -0.287 N 
ATOM      6  H2  UNL     1       2.820   0.662  -1.897  1.00  0.00     0.188 HD
HETATM    7  N3  UNL     1       1.348  -0.445  -0.911  1.00  0.00    -0.278 N 
ATOM      8  H3  UNL     1       0.567  -0.375  -1.563  1.00  0.00     0.189 HD
ENDROOT
BRANCH   1   9
HETATM    9  S1  UNL     1      -0.018  -2.027   1.006  1.00  0.00    -0.092 SA
BRANCH   9  10
HETATM   10  C5  UNL     1      -1.517  -1.996   0.023  1.00  0.00     0.089 C 
BRANCH  10  11
HETATM   11  C4  UNL     1      -2.150  -0.607  -0.059  1.00  0.00     0.019 C 
HETATM   12  C3  UNL     1      -3.385  -0.670  -0.891  1.00  0.00     0.172 C 
HETATM   13  O1  UNL     1      -4.501  -0.099  -0.311  1.00  0.00    -0.391 OA
HETATM   14  C2  UNL     1      -4.301   1.169   0.186  1.00  0.00     0.167 C 
HETATM   15  C1  UNL     1      -3.176   1.205   1.201  1.00  0.00     0.027 C 
HETATM   16  C11 UNL     1      -2.585  -0.184   1.353  1.00  0.00     0.009 C 
ENDBRANCH  10  11
ENDBRANCH   9  10
ENDBRANCH   1   9
BRANCH   4  17
HETATM   17  C8  UNL     1       4.684   0.192   0.211  1.00  0.00     0.055 A 
HETATM   18  C9  UNL     1       5.542   0.520  -0.992  1.00  0.00     0.013 A 
HETATM   19  C10 UNL     1       5.068   1.621  -0.105  1.00  0.00     0.013 A 
ENDBRANCH   4  17
TORSDOF 4
