REMARK  4 active torsions:
REMARK  status: ('A' for Active; 'I' for Inactive)
REMARK    1  A    between atoms: C2_2  and  S1_3 
REMARK    2  A    between atoms: C2_2  and  C8_15 
REMARK    3  A    between atoms: S1_3  and  C3_4 
REMARK    4  A    between atoms: C4_7  and  C5_8 
ROOT
HETATM    1  C3  UNL     1       0.781  -0.415   1.348  1.00  0.00     0.161 A 
HETATM    2  N1  UNL     1       1.754  -1.137   0.715  1.00  0.00    -0.324 N 
ATOM      3  H1  UNL     1       1.753  -2.152   0.609  1.00  0.00     0.169 HD
HETATM    4  C4  UNL     1       2.708  -0.318   0.254  1.00  0.00     0.102 A 
HETATM    5  N2  UNL     1       2.343   0.931   0.594  1.00  0.00    -0.287 N 
ATOM      6  H2  UNL     1       2.861   1.785   0.387  1.00  0.00     0.188 HD
HETATM    7  N3  UNL     1       1.196   0.857   1.243  1.00  0.00    -0.278 N 
ATOM      8  H3  UNL     1       0.691   1.661   1.616  1.00  0.00     0.189 HD
ENDROOT
BRANCH   1   9
HETATM    9  S1  UNL     1      -0.671  -1.114   2.105  1.00  0.00    -0.082 SA
BRANCH   9  10
HETATM   10  C2  UNL     1      -2.052  -1.322   1.007  1.00  0.00     0.096 C 
HETATM   11  C1  UNL     1      -1.759  -2.326  -0.096  1.00  0.00     0.028 C 
BRANCH  10  12
HETATM   12  C8  UNL     1      -2.696  -0.092   0.534  1.00  0.00    -0.004 C 
HETATM   13  N4  UNL     1      -3.821   0.366   0.925  1.00  0.00    -0.395 N 
HETATM   14  C9  UNL     1      -4.154   1.579   0.263  1.00  0.00     0.119 C 
ATOM     15  H4  UNL     1      -4.409  -0.083   1.627  1.00  0.00     0.159 HD
HETATM   16  C10 UNL     1      -3.318   1.552  -1.009  1.00  0.00     0.025 C 
HETATM   17  C11 UNL     1      -2.085   0.810  -0.507  1.00  0.00     0.055 C 
ENDBRANCH  10  12
ENDBRANCH   9  10
ENDBRANCH   1   9
BRANCH   4  18
HETATM   18  C5  UNL     1       3.949  -0.724  -0.499  1.00  0.00     0.055 A 
HETATM   19  C6  UNL     1       4.553   0.231  -1.457  1.00  0.00     0.013 A 
HETATM   20  C7  UNL     1       5.155   0.100  -0.117  1.00  0.00     0.013 A 
ENDBRANCH   4  18
TORSDOF 4
