REMARK  4 active torsions:
REMARK  status: ('A' for Active; 'I' for Inactive)
REMARK    1  A    between atoms: C2_2  and  S1_3 
REMARK    2  A    between atoms: S1_3  and  C3_4 
REMARK    3  A    between atoms: C3_4  and  O1_5 
REMARK    4  A    between atoms: O1_5  and  C4_6 
ROOT
HETATM    1  S1  UNL     1      -1.204   1.373  -1.502  1.00  0.00    -0.107 SA
ENDROOT
BRANCH   1   2
HETATM    2  C2  UNL     1      -2.192   0.455  -0.327  1.00  0.00     0.002 C 
HETATM    3  C1  UNL     1      -3.328  -0.133  -0.732  1.00  0.00    -0.009 C 
HETATM    4  C11 UNL     1      -4.168  -0.902   0.224  1.00  0.00     0.055 C 
HETATM    5  C10 UNL     1      -3.951  -0.244   1.592  1.00  0.00     0.236 C 
HETATM    6  N1  UNL     1      -2.535  -0.472   1.899  1.00  0.00    -0.071 N 
HETATM    7  C9  UNL     1      -1.717   0.374   1.071  1.00  0.00     0.277 C 
ATOM      8  H12 UNL     1      -2.277  -1.455   1.816  1.00  0.00     0.277 HD
ATOM      9  H11 UNL     1      -2.333  -0.350   2.891  1.00  0.00     0.277 HD
ENDBRANCH   1   2
BRANCH   1  10
HETATM   10  C3  UNL     1       0.246   2.055  -0.748  1.00  0.00     0.249 C 
BRANCH  10  11
HETATM   11  O1  UNL     1       1.184   1.169  -0.307  1.00  0.00    -0.351 OA
BRANCH  11  12
HETATM   12  C4  UNL     1       1.722   0.343  -1.276  1.00  0.00     0.260 C 
HETATM   13  C5  UNL     1       3.188   0.615  -1.356  1.00  0.00     0.061 C 
HETATM   14  C6  UNL     1       4.014  -0.377  -0.567  1.00  0.00     0.007 C 
HETATM   15  C7  UNL     1       3.191  -0.754   0.645  1.00  0.00     0.026 C 
HETATM   16  C8  UNL     1       1.983  -1.503   0.140  1.00  0.00     0.171 C 
HETATM   17  O2  UNL     1       1.399  -0.945  -0.944  1.00  0.00    -0.361 OA
ENDBRANCH  11  12
ENDBRANCH  10  11
ENDBRANCH   1  10
TORSDOF 4
