REMARK  4 active torsions:
REMARK  status: ('A' for Active; 'I' for Inactive)
REMARK    1  A    between atoms: N3_8  and  C3_9 
REMARK    2  A    between atoms: C3_9  and  C4_10 
REMARK    3  A    between atoms: C4_10  and  C5_11 
REMARK    4  A    between atoms: C5_11  and  N4_12 
ROOT
HETATM    1  C3  UNL     1       1.905  -1.700  -0.495  1.00  0.00     0.153 C 
ENDROOT
BRANCH   1   2
HETATM    2  N3  UNL     1       2.965  -0.684  -0.445  1.00  0.00    -0.266 N 
HETATM    3  C1  UNL     1       4.168  -0.743   0.107  1.00  0.00     0.193 A 
HETATM    4  S1  UNL     1       4.788  -2.040   0.892  1.00  0.00    -0.039 SA
HETATM    5  N1  UNL     1       4.792   0.425  -0.085  1.00  0.00    -0.327 N 
HETATM    6  C2  UNL     1       3.967   1.227  -0.767  1.00  0.00     0.199 A 
ATOM      7  H1  UNL     1       5.732   0.662   0.233  1.00  0.00     0.169 HD
HETATM    8  N2  UNL     1       2.852   0.520  -0.975  1.00  0.00    -0.292 N 
ATOM      9  H2  UNL     1       2.030   0.862  -1.473  1.00  0.00     0.188 HD
ENDBRANCH   1   2
BRANCH   1  10
HETATM   10  C4  UNL     1       0.990  -1.557   0.706  1.00  0.00     0.052 C 
BRANCH  10  11
HETATM   11  C5  UNL     1       0.343  -0.198   0.751  1.00  0.00     0.274 C 
BRANCH  11  12
HETATM   12  N4  UNL     1      -0.451   0.103  -0.396  1.00  0.00     0.088 N 
HETATM   13  C6  UNL     1      -0.981   1.437  -0.405  1.00  0.00     0.272 C 
HETATM   14  C7  UNL     1      -1.864   1.811   0.717  1.00  0.00     0.030 C 
HETATM   15  C8  UNL     1      -3.307   1.448   0.560  1.00  0.00     0.002 C 
HETATM   16  C9  UNL     1      -3.580   0.202  -0.207  1.00  0.00     0.002 C 
HETATM   17  C10 UNL     1      -2.609  -0.912   0.156  1.00  0.00     0.030 C 
HETATM   18  C11 UNL     1      -1.409  -0.897  -0.755  1.00  0.00     0.272 C 
ENDBRANCH  11  12
ENDBRANCH  10  11
ENDBRANCH   1  10
TORSDOF 4
