REMARK  5 active torsions:
REMARK  status: ('A' for Active; 'I' for Inactive)
REMARK    1  A    between atoms: C2_2  and  C4_4 
REMARK    2  A    between atoms: C2_2  and  C9_12 
REMARK    3  A    between atoms: C4_4  and  N1_5 
REMARK    4  A    between atoms: N1_5  and  C5_8 
REMARK    5  A    between atoms: C9_12  and  N2_13 
ROOT
HETATM    1  N2  UNL     1      -2.986   0.589   0.760  1.00  0.00    -0.333 N 
HETATM    2  C10 UNL     1      -3.638  -0.097   1.713  1.00  0.00     0.183 A 
HETATM    3  N3  UNL     1      -4.946  -0.123   1.429  1.00  0.00    -0.359 N 
ATOM      4  H3  UNL     1      -5.672  -0.576   1.984  1.00  0.00     0.166 HD
HETATM    5  C11 UNL     1      -5.131   0.548   0.291  1.00  0.00     0.130 A 
HETATM    6  C12 UNL     1      -3.895   0.997  -0.130  1.00  0.00     0.132 A 
HETATM    7  C13 UNL     1      -3.734   1.773  -1.320  1.00  0.00     0.119 C 
HETATM    8  N4  UNL     1      -3.581   2.401  -2.279  1.00  0.00    -0.190 NA
ENDROOT
BRANCH   1   9
HETATM    9  C9  UNL     1      -1.583   0.809   0.723  1.00  0.00     0.141 C 
BRANCH   9  10
HETATM   10  C2  UNL     1      -0.755  -0.274   0.089  1.00  0.00    -0.007 C 
HETATM   11  C1  UNL     1      -0.955  -1.585   0.861  1.00  0.00     0.018 C 
HETATM   12  C3  UNL     1      -1.180  -0.539  -1.312  1.00  0.00     0.018 C 
BRANCH  10  13
HETATM   13  C4  UNL     1       0.686   0.192   0.180  1.00  0.00     0.243 C 
BRANCH  13  14
HETATM   14  N1  UNL     1       1.620  -0.738  -0.352  1.00  0.00    -0.067 N 
ATOM     15  H12 UNL     1       1.544  -1.657   0.083  1.00  0.00     0.278 HD
ATOM     16  H11 UNL     1       1.393  -1.014  -1.307  1.00  0.00     0.278 HD
BRANCH  14  17
HETATM   17  C5  UNL     1       2.951  -0.183  -0.240  1.00  0.00     0.115 C 
HETATM   18  C6  UNL     1       3.113   1.089  -1.047  1.00  0.00     0.045 C 
HETATM   19  C7  UNL     1       4.003  -1.155  -0.751  1.00  0.00     0.045 C 
HETATM   20  C8  UNL     1       3.246   0.105   1.199  1.00  0.00     0.045 C 
ENDBRANCH  14  17
ENDBRANCH  13  14
ENDBRANCH  10  13
ENDBRANCH   9  10
ENDBRANCH   1   9
TORSDOF 5
