REMARK  4 active torsions:
REMARK  status: ('A' for Active; 'I' for Inactive)
REMARK    1  A    between atoms: C2_3  and  C3_4 
REMARK    2  A    between atoms: C3_4  and  N2_5 
REMARK    3  A    between atoms: N2_5  and  N3_6 
REMARK    4  A    between atoms: N2_5  and  C9_15 
ROOT
HETATM    1  N1  UNL     1      -3.727  -4.886  -0.061  1.00  0.00    -0.197 NA
HETATM    2  C1  UNL     1      -2.986  -4.019   0.144  1.00  0.00     0.060 C 
HETATM    3  C2  UNL     1      -2.045  -2.936   0.425  1.00  0.00     0.146 C 
ENDROOT
BRANCH   3   4
HETATM    4  C3  UNL     1      -2.158  -1.828  -0.600  1.00  0.00     0.182 C 
BRANCH   4   5
HETATM    5  N2  UNL     1      -1.204  -0.753  -0.297  1.00  0.00    -0.121 N 
BRANCH   5   6
HETATM    6  N3  UNL     1       0.114  -1.029  -0.261  1.00  0.00    -0.273 N 
HETATM    7  C4  UNL     1       1.194  -0.407  -0.175  1.00  0.00     0.092 C 
HETATM    8  C5  UNL     1       2.472  -1.208  -0.177  1.00  0.00     0.077 C 
HETATM    9  N4  UNL     1       1.383   0.995  -0.070  1.00  0.00    -0.379 N 
HETATM   10  C6  UNL     1       3.612  -0.453   0.394  1.00  0.00     0.009 C 
HETATM   11  C7  UNL     1       3.801   0.941  -0.121  1.00  0.00     0.020 C 
HETATM   12  C8  UNL     1       2.556   1.552  -0.702  1.00  0.00     0.121 C 
ATOM     13  H4  UNL     1       0.718   1.585   0.431  1.00  0.00     0.160 HD
ATOM     14  H3  UNL     1       0.277  -2.034  -0.321  1.00  0.00     0.189 HD
ENDBRANCH   5   6
BRANCH   5  15
HETATM   15  C9  UNL     1      -1.731   0.534  -0.059  1.00  0.00     0.698 A 
HETATM   16  N5  UNL     1      -2.117   0.924   1.191  1.00  0.00    -0.200 N 
HETATM   17  C10 UNL     1      -2.631   2.139   1.435  1.00  0.00     0.107 A 
ATOM     18  H5  UNL     1      -2.011   0.269   1.966  1.00  0.00     0.183 HD
HETATM   19  C11 UNL     1      -2.767   3.016   0.374  1.00  0.00     0.035 A 
HETATM   20  C12 UNL     1      -2.385   2.646  -0.895  1.00  0.00     0.107 A 
HETATM   21  N6  UNL     1      -1.880   1.425  -1.084  1.00  0.00    -0.200 N 
ATOM     22  H6  UNL     1      -1.596   1.148  -2.024  1.00  0.00     0.183 HD
ENDBRANCH   5  15
ENDBRANCH   4   5
ENDBRANCH   3   4
TORSDOF 4
