REMARK  14 active torsions:
REMARK  status: ('A' for Active; 'I' for Inactive)
REMARK    1  A    between atoms: C4_7  and  C5_8 
REMARK    2  A    between atoms: C5_8  and  C6_9 
REMARK    3  A    between atoms: C5_8  and  C16_40 
REMARK    4  A    between atoms: C6_9  and  N2_10 
REMARK    5  A    between atoms: N4_17  and  C9_18 
REMARK    6  A    between atoms: C9_18  and  C10_19 
REMARK    7  A    between atoms: C10_19  and  O4_20 
REMARK    8  A    between atoms: C10_19  and  N5_22 
REMARK    9  A    between atoms: N5_22  and  C11_25 
REMARK   10  A    between atoms: N6_32  and  O7_34 
REMARK       I    between atoms: C16_40  and  N8_42 
REMARK   11  A    between atoms: N8_42  and  C17_44 
REMARK   12  A    between atoms: C17_44  and  O10_45 
REMARK   13  A    between atoms: C17_44  and  C18_47 
REMARK   14  A    between atoms: C20_54  and  O12_55 
ROOT
HETATM    1  N2  UNL     1      -0.400   0.198  -0.293  1.00  0.00    -0.250 N 
HETATM    2  C7  UNL     1      -0.390   0.597   0.978  1.00  0.00     0.334 A 
HETATM    3  O2  UNL     1      -1.220   1.406   1.463  1.00  0.00    -0.246 OA
HETATM    4  N3  UNL     1       0.554   0.131   1.841  1.00  0.00    -0.260 N 
ATOM      5  H3  UNL     1       0.562   0.436   2.814  1.00  0.00     0.175 HD
HETATM    6  C8  UNL     1       1.474  -0.737   1.390  1.00  0.00     0.334 A 
HETATM    7  O3  UNL     1       2.331  -1.141   2.238  1.00  0.00    -0.246 OA
HETATM    8  N4  UNL     1       1.509  -1.171   0.118  1.00  0.00    -0.247 N 
HETATM    9  C15 UNL     1       0.538  -0.669  -0.702  1.00  0.00     0.336 A 
HETATM   10  O8  UNL     1       0.556  -1.070  -1.914  1.00  0.00    -0.246 OA
ENDROOT
BRANCH   1  11
HETATM   11  C6  UNL     1      -1.392   0.666  -1.206  1.00  0.00     0.153 C 
BRANCH  11  12
HETATM   12  C5  UNL     1      -2.596  -0.186  -1.321  1.00  0.00     0.109 C 
BRANCH  12  13
HETATM   13  C4  UNL     1      -3.559   0.397  -2.331  1.00  0.00     0.094 C 
HETATM   14  C1  UNL     1      -2.843   0.465  -3.647  1.00  0.00     0.222 C 
HETATM   15  O1  UNL     1      -2.248   1.436  -4.175  1.00  0.00    -0.273 OA
HETATM   16  N1  UNL     1      -2.993  -0.865  -4.186  1.00  0.00    -0.361 N 
HETATM   17  C2  UNL     1      -4.284  -1.397  -3.807  1.00  0.00     0.123 C 
ATOM     18  H1  UNL     1      -2.296  -1.355  -4.748  1.00  0.00     0.162 HD
HETATM   19  C3  UNL     1      -4.697  -0.571  -2.620  1.00  0.00     0.034 C 
ENDBRANCH  12  13
BRANCH  12  20
HETATM   20  C16 UNL     1      -3.276  -0.553  -0.068  1.00  0.00     0.226 C 
HETATM   21  O9  UNL     1      -2.824  -1.466   0.660  1.00  0.00    -0.273 OA
HETATM   22  N8  UNL     1      -4.479   0.101   0.387  1.00  0.00    -0.329 N 
ATOM     23  H8  UNL     1      -4.891   0.851  -0.168  1.00  0.00     0.165 HD
BRANCH  22  24
HETATM   24  C17 UNL     1      -5.101  -0.304   1.625  1.00  0.00     0.276 C 
BRANCH  24  25
HETATM   25  O10 UNL     1      -6.028  -1.356   1.361  1.00  0.00    -0.371 OA
ATOM     26  H10 UNL     1      -6.437  -1.623   2.176  1.00  0.00     0.212 HD
ENDBRANCH  24  25
BRANCH  24  27
HETATM   27  C18 UNL     1      -5.822   0.751   2.345  1.00  0.00     0.113 A 
HETATM   28  N9  UNL     1      -7.051   0.627   2.935  1.00  0.00    -0.304 N 
HETATM   29  C19 UNL     1      -7.347   1.786   3.481  1.00  0.00     0.326 A 
ATOM     30  H9  UNL     1      -7.631  -0.212   2.949  1.00  0.00     0.170 HD
HETATM   31  O11 UNL     1      -8.397   2.076   4.120  1.00  0.00    -0.247 OA
HETATM   32  N10 UNL     1      -6.371   2.680   3.282  1.00  0.00    -0.287 N 
HETATM   33  C20 UNL     1      -5.418   2.031   2.571  1.00  0.00     0.171 A 
ATOM     34  H10 UNL     1      -6.349   3.649   3.600  1.00  0.00     0.172 HD
BRANCH  33  35
HETATM   35  O12 UNL     1      -4.222   2.659   2.168  1.00  0.00    -0.344 OA
ATOM     36  H12 UNL     1      -3.940   3.552   2.326  1.00  0.00     0.219 HD
ENDBRANCH  33  35
ENDBRANCH  24  27
ENDBRANCH  22  24
ENDBRANCH  12  20
ENDBRANCH  11  12
ENDBRANCH   1  11
BRANCH   8  37
HETATM   37  C9  UNL     1       2.494  -2.093  -0.354  1.00  0.00     0.200 C 
BRANCH  37  38
HETATM   38  C10 UNL     1       3.733  -1.483  -0.932  1.00  0.00     0.339 C 
BRANCH  38  39
HETATM   39  O4  UNL     1       4.555  -2.552  -1.331  1.00  0.00    -0.368 OA
ATOM     40  H4  UNL     1       5.341  -2.165  -1.698  1.00  0.00     0.212 HD
ENDBRANCH  38  39
BRANCH  38  41
HETATM   41  N5  UNL     1       4.344  -0.581  -0.020  1.00  0.00    -0.026 N 
ATOM     42  H52 UNL     1       3.636  -0.100   0.535  1.00  0.00     0.282 HD
ATOM     43  H51 UNL     1       4.826  -1.093   0.719  1.00  0.00     0.282 HD
BRANCH  41  44
HETATM   44  C11 UNL     1       5.237   0.375  -0.638  1.00  0.00     0.302 C 
HETATM   45  C12 UNL     1       6.440  -0.209  -1.294  1.00  0.00     0.195 C 
HETATM   46  S1  UNL     1       7.640  -0.762  -0.137  1.00  0.00     0.154 S 
HETATM   47  O5  UNL     1       7.421  -2.140   0.382  1.00  0.00    -0.227 OA
HETATM   48  O6  UNL     1       8.986  -0.794  -0.853  1.00  0.00    -0.227 OA
HETATM   49  C13 UNL     1       7.752   0.432   1.170  1.00  0.00     0.218 C 
HETATM   50  C14 UNL     1       6.526   1.213   1.328  1.00  0.00     0.113 C 
HETATM   51  N6  UNL     1       6.269   1.724   2.509  1.00  0.00    -0.256 N 
HETATM   52  N7  UNL     1       5.608   1.441   0.262  1.00  0.00    -0.349 N 
ATOM     53  H6  UNL     1       5.418   2.272   2.636  1.00  0.00     0.195 HD
ATOM     54  H7  UNL     1       5.208   2.370   0.133  1.00  0.00     0.163 HD
BRANCH  51  55
HETATM   55  O7  UNL     1       7.102   1.545   3.568  1.00  0.00    -0.288 OA
ATOM     56  H7  UNL     1       6.916   1.915   4.423  1.00  0.00     0.244 HD
ENDBRANCH  51  55
ENDBRANCH  41  44
ENDBRANCH  38  41
ENDBRANCH  37  38
ENDBRANCH   8  37
TORSDOF 14
