REMARK  15 active torsions:
REMARK  status: ('A' for Active; 'I' for Inactive)
REMARK    1  A    between atoms: N1_1  and  C1_4 
REMARK    2  A    between atoms: N5_14  and  C4_15 
REMARK    3  A    between atoms: C4_15  and  C5_16 
REMARK    4  A    between atoms: C5_16  and  C6_17 
REMARK    5  A    between atoms: C6_17  and  N6_18 
REMARK       I    between atoms: N6_18  and  C7_20 
REMARK    6  A    between atoms: C7_20  and  C8_22 
REMARK    7  A    between atoms: C8_22  and  C9_23 
REMARK    8  A    between atoms: C11_28  and  N8_29 
REMARK    9  A    between atoms: N9_31  and  N10_33 
REMARK   10  A    between atoms: C12_36  and  O3_37 
REMARK   11  A    between atoms: O3_37  and  C13_38 
REMARK   12  A    between atoms: C15_40  and  O4_41 
REMARK   13  A    between atoms: C16_43  and  N11_44 
REMARK   14  A    between atoms: C22_54  and  O7_55 
REMARK   15  A    between atoms: C23_57  and  O8_58 
ROOT
HETATM    1  C9  UNL     1       0.702   0.431   1.077  1.00  0.00     0.225 C 
HETATM    2  N7  UNL     1       0.474  -0.640   1.986  1.00  0.00    -0.066 N 
ATOM      3  H71 UNL     1      -0.227  -0.389   2.683  1.00  0.00     0.277 HD
ATOM      4  H72 UNL     1       1.274  -0.777   2.603  1.00  0.00     0.277 HD
HETATM    5  C10 UNL     1       0.130  -1.838   1.324  1.00  0.00     0.262 C 
HETATM    6  C11 UNL     1      -1.050  -1.673   0.383  1.00  0.00     0.158 C 
HETATM    7  C12 UNL     1      -1.669  -0.297   0.562  1.00  0.00     0.178 C 
HETATM    8  C23 UNL     1      -0.583   0.730   0.343  1.00  0.00     0.180 C 
ENDROOT
BRANCH   1   9
HETATM    9  C8  UNL     1       1.751   0.060   0.085  1.00  0.00     0.138 C 
BRANCH   9  10
HETATM   10  C7  UNL     1       3.067  -0.269   0.694  1.00  0.00     0.219 C 
HETATM   11  N6  UNL     1       4.174  -0.707  -0.055  1.00  0.00    -0.361 N 
ATOM     12  H6  UNL     1       4.058  -0.799  -1.064  1.00  0.00     0.162 HD
HETATM   13  O2  UNL     1       3.200  -0.154   1.928  1.00  0.00    -0.274 OA
BRANCH  11  14
HETATM   14  C6  UNL     1       5.448  -1.032   0.498  1.00  0.00     0.124 C 
BRANCH  14  15
HETATM   15  C5  UNL     1       6.137   0.076   1.212  1.00  0.00     0.041 C 
BRANCH  15  16
HETATM   16  C4  UNL     1       7.476  -0.321   1.794  1.00  0.00     0.154 C 
BRANCH  16  17
HETATM   17  N5  UNL     1       8.414  -0.776   0.793  1.00  0.00    -0.260 N 
HETATM   18  N4  UNL     1       8.566  -2.032   0.390  1.00  0.00    -0.238 N 
HETATM   19  N3  UNL     1       9.489  -2.131  -0.522  1.00  0.00    -0.278 N 
ATOM     20  H4  UNL     1       8.027  -2.820   0.750  1.00  0.00     0.208 HD
HETATM   21  C3  UNL     1       9.978  -0.921  -0.749  1.00  0.00     0.164 A 
ATOM     22  H3  UNL     1       9.785  -2.992  -0.983  1.00  0.00     0.189 HD
HETATM   23  C2  UNL     1      10.964  -0.416  -1.600  1.00  0.00     0.291 A 
HETATM   24  C24 UNL     1       9.298  -0.050   0.085  1.00  0.00     0.172 A 
HETATM   25  N2  UNL     1      11.227   0.900  -1.587  1.00  0.00    -0.154 N 
HETATM   26  O1  UNL     1      11.563  -1.232  -2.346  1.00  0.00    -0.265 OA
HETATM   27  C1  UNL     1      10.534   1.707  -0.752  1.00  0.00     0.680 A 
ATOM     28  H2  UNL     1      11.943   1.288  -2.201  1.00  0.00     0.187 HD
HETATM   29  N13 UNL     1       9.591   1.252   0.067  1.00  0.00    -0.173 N 
ATOM     30  H13 UNL     1       9.092   1.897   0.680  1.00  0.00     0.186 HD
BRANCH  27  31
HETATM   31  N1  UNL     1      10.815   2.956  -0.768  1.00  0.00    -0.234 N 
ATOM     32  H12 UNL     1      11.539   3.305  -1.396  1.00  0.00     0.174 HD
ATOM     33  H11 UNL     1      10.292   3.565  -0.138  1.00  0.00     0.174 HD
ENDBRANCH  27  31
ENDBRANCH  16  17
ENDBRANCH  15  16
ENDBRANCH  14  15
ENDBRANCH  11  14
ENDBRANCH   9  10
ENDBRANCH   1   9
BRANCH   8  34
HETATM   34  O8  UNL     1      -1.036   2.014   0.654  1.00  0.00    -0.391 OA
ATOM     35  H8  UNL     1      -1.845   2.202   0.192  1.00  0.00     0.210 HD
ENDBRANCH   8  34
BRANCH   7  36
HETATM   36  O3  UNL     1      -2.669  -0.030  -0.336  1.00  0.00    -0.373 OA
BRANCH  36  37
HETATM   37  C13 UNL     1      -3.910   0.175   0.232  1.00  0.00     0.153 C 
HETATM   38  C14 UNL     1      -4.358   1.638   0.110  1.00  0.00     0.068 C 
HETATM   39  C15 UNL     1      -5.893   1.634   0.197  1.00  0.00     0.144 C 
HETATM   40  C16 UNL     1      -6.323   1.122  -1.179  1.00  0.00     0.125 C 
HETATM   41  C21 UNL     1      -5.868  -0.274  -1.321  1.00  0.00     0.062 C 
HETATM   42  C22 UNL     1      -4.898  -0.784  -0.304  1.00  0.00     0.149 C 
BRANCH  39  43
HETATM   43  O4  UNL     1      -6.382   2.893   0.450  1.00  0.00    -0.393 OA
ATOM     44  H4  UNL     1      -7.330   2.891   0.504  1.00  0.00     0.210 HD
ENDBRANCH  39  43
BRANCH  40  45
HETATM   45  N11 UNL     1      -7.690   1.401  -1.486  1.00  0.00    -0.302 N 
HETATM   46  C17 UNL     1      -8.041   2.281  -2.445  1.00  0.00     0.102 A 
HETATM   47  C18 UNL     1      -9.335   2.591  -2.787  1.00  0.00     0.092 A 
HETATM   48  C19 UNL     1     -10.370   1.964  -2.105  1.00  0.00     0.250 A 
HETATM   49  O5  UNL     1     -11.571   2.220  -2.386  1.00  0.00    -0.268 OA
HETATM   50  N12 UNL     1     -10.020   1.087  -1.149  1.00  0.00    -0.275 N 
HETATM   51  C20 UNL     1      -8.731   0.812  -0.846  1.00  0.00     0.329 A 
ATOM     52  H12 UNL     1     -10.757   0.609  -0.630  1.00  0.00     0.173 HD
HETATM   53  O6  UNL     1      -8.539  -0.013   0.054  1.00  0.00    -0.246 OA
ENDBRANCH  40  45
BRANCH  42  54
HETATM   54  O7  UNL     1      -5.557  -1.468   0.749  1.00  0.00    -0.393 OA
ATOM     55  H7  UNL     1      -6.192  -2.085   0.404  1.00  0.00     0.210 HD
ENDBRANCH  42  54
ENDBRANCH  36  37
ENDBRANCH   7  36
BRANCH   6  56
HETATM   56  N8  UNL     1      -1.965  -2.748   0.675  1.00  0.00    -0.314 N 
HETATM   57  N9  UNL     1      -2.171  -3.748  -0.038  1.00  0.00    -0.253 N 
ATOM     58  H9  UNL     1      -1.668  -3.857  -0.918  1.00  0.00     0.207 HD
ATOM     59  H8  UNL     1      -2.492  -2.684   1.546  1.00  0.00     0.182 HD
BRANCH  57  60
HETATM   60  N10 UNL     1      -3.085  -4.717   0.362  1.00  0.00    -0.331 N 
ATOM     61 2H10 UNL     1      -3.580  -4.593   1.245  1.00  0.00     0.178 HD
ATOM     62 1H10 UNL     1      -3.254  -5.536  -0.222  1.00  0.00     0.178 HD
ENDBRANCH  57  60
ENDBRANCH   6  56
TORSDOF 15
