REMARK  14 active torsions:
REMARK  status: ('A' for Active; 'I' for Inactive)
REMARK    1  A    between atoms: C2_2  and  C3_3 
REMARK    2  A    between atoms: C4_4  and  C5_5 
REMARK    3  A    between atoms: C5_5  and  O2_7 
REMARK    4  A    between atoms: O2_7  and  C6_8 
REMARK    5  A    between atoms: C7_9  and  O3_10 
REMARK    6  A    between atoms: C8_12  and  O4_13 
REMARK    7  A    between atoms: O4_13  and  C9_14 
REMARK    8  A    between atoms: C10_16  and  S1_17 
REMARK    9  A    between atoms: C12_19  and  O6_20 
REMARK   10  A    between atoms: C13_22  and  O7_23 
REMARK   11  A    between atoms: C14_25  and  O8_26 
REMARK   12  A    between atoms: C15_28  and  O9_29 
REMARK   13  A    between atoms: C16_31  and  O10_32 
REMARK   14  A    between atoms: C17_34  and  C18_35 
ROOT
HETATM    1  C6  UNL     1       1.899  -0.281   0.499  1.00  0.00     0.170 C 
HETATM    2  C7  UNL     1       1.302   0.864   1.345  1.00  0.00     0.179 C 
HETATM    3  C8  UNL     1      -0.090   0.659   1.720  1.00  0.00     0.187 C 
HETATM    4  C15 UNL     1      -0.285  -0.685   2.372  1.00  0.00     0.179 C 
HETATM    5  C16 UNL     1       1.016  -1.409   2.470  1.00  0.00     0.156 C 
HETATM    6  C17 UNL     1       1.557  -1.621   1.097  1.00  0.00     0.052 C 
ENDROOT
BRANCH   3   7
HETATM    7  O4  UNL     1      -1.092   0.857   0.876  1.00  0.00    -0.348 OA
BRANCH   7   8
HETATM    8  C9  UNL     1      -2.088   1.718   1.000  1.00  0.00     0.293 C 
HETATM    9  O5  UNL     1      -3.269   0.961   1.128  1.00  0.00    -0.340 OA
HETATM   10  C10 UNL     1      -3.303   0.058   0.069  1.00  0.00     0.217 C 
HETATM   11  C12 UNL     1      -3.645   0.763  -1.227  1.00  0.00     0.188 C 
HETATM   12  C13 UNL     1      -3.547   2.236  -0.998  1.00  0.00     0.183 C 
HETATM   13  C14 UNL     1      -2.334   2.633  -0.180  1.00  0.00     0.204 C 
BRANCH  10  14
HETATM   14  S1  UNL     1      -4.488  -1.254   0.429  1.00  0.00    -0.139 SA
HETATM   15  C11 UNL     1      -6.190  -0.662   0.501  1.00  0.00     0.092 C 
ENDBRANCH  10  14
BRANCH  11  16
HETATM   16  O6  UNL     1      -2.825   0.356  -2.275  1.00  0.00    -0.389 OA
ATOM     17  H6  UNL     1      -3.040   0.798  -3.088  1.00  0.00     0.210 HD
ENDBRANCH  11  16
BRANCH  12  18
HETATM   18  O7  UNL     1      -4.742   2.634  -0.357  1.00  0.00    -0.390 OA
ATOM     19  H7  UNL     1      -4.680   3.571  -0.211  1.00  0.00     0.210 HD
ENDBRANCH  12  18
BRANCH  13  20
HETATM   20  O8  UNL     1      -2.582   3.962   0.238  1.00  0.00    -0.388 OA
ATOM     21  H8  UNL     1      -2.736   4.536  -0.503  1.00  0.00     0.210 HD
ENDBRANCH  13  20
ENDBRANCH   7   8
ENDBRANCH   3   7
BRANCH   2  22
HETATM   22  O3  UNL     1       1.566   2.016   0.597  1.00  0.00    -0.390 OA
ATOM     23  H3  UNL     1       1.199   2.721   1.118  1.00  0.00     0.210 HD
ENDBRANCH   2  22
BRANCH   4  24
HETATM   24  O9  UNL     1      -0.915  -0.585   3.624  1.00  0.00    -0.390 OA
ATOM     25  H9  UNL     1      -1.038  -1.433   4.035  1.00  0.00     0.210 HD
ENDBRANCH   4  24
BRANCH   1  26
HETATM   26  O2  UNL     1       3.278  -0.066   0.317  1.00  0.00    -0.309 OA
BRANCH  26  27
HETATM   27  C5  UNL     1       3.865   0.314  -0.897  1.00  0.00     0.283 C 
HETATM   28  O1  UNL     1       3.072   0.460  -1.832  1.00  0.00    -0.260 OA
BRANCH  27  29
HETATM   29  C4  UNL     1       5.284   0.517  -1.031  1.00  0.00     0.082 C 
HETATM   30  C3  UNL     1       5.924   0.866  -2.100  1.00  0.00     0.005 C 
BRANCH  30  31
HETATM   31  C2  UNL     1       5.410   1.141  -3.411  1.00  0.00    -0.010 C 
HETATM   32  C1  UNL     1       6.221   1.495  -4.418  1.00  0.00     0.011 C 
ENDBRANCH  30  31
ENDBRANCH  27  29
ENDBRANCH  26  27
ENDBRANCH   1  26
BRANCH   5  33
HETATM   33  O10 UNL     1       0.907  -2.596   3.205  1.00  0.00    -0.392 OA
ATOM     34  H10 UNL     1       1.735  -3.057   3.267  1.00  0.00     0.210 HD
ENDBRANCH   5  33
BRANCH   6  35
HETATM   35  C18 UNL     1       0.669  -2.350   0.166  1.00  0.00    -0.013 C 
HETATM   36  C19 UNL     1       1.308  -2.599  -1.185  1.00  0.00     0.010 C 
HETATM   37  C20 UNL     1       0.191  -3.691   0.661  1.00  0.00     0.010 C 
ENDBRANCH   6  35
TORSDOF 14
