REMARK  14 active torsions:
REMARK  status: ('A' for Active; 'I' for Inactive)
REMARK    1  A    between atoms: C2_2  and  C3_3 
REMARK    2  A    between atoms: C3_3  and  C4_4 
REMARK    3  A    between atoms: C4_4  and  O1_5 
REMARK    4  A    between atoms: O1_5  and  C5_6 
REMARK    5  A    between atoms: C7_9  and  C8_10 
REMARK    6  A    between atoms: C11_13  and  O3_14 
REMARK    7  A    between atoms: C14_18  and  O4_19 
REMARK    8  A    between atoms: O4_19  and  C15_20 
REMARK    9  A    between atoms: C16_22  and  C17_23 
REMARK   10  A    between atoms: C17_23  and  O6_24 
REMARK   11  A    between atoms: C18_26  and  O7_27 
REMARK   12  A    between atoms: C19_29  and  O8_30 
REMARK   13  A    between atoms: C20_32  and  O9_33 
REMARK   14  A    between atoms: C21_35  and  O10_36 
ROOT
HETATM    1  C5  UNL     1      -1.720   1.513   0.327  1.00  0.00     0.291 C 
HETATM    2  O2  UNL     1      -2.296   0.320   0.764  1.00  0.00    -0.352 OA
HETATM    3  C6  UNL     1      -1.375  -0.346   1.478  1.00  0.00     0.137 A 
HETATM    4  C7  UNL     1      -0.805  -1.661   1.412  1.00  0.00     0.028 A 
HETATM    5  C13 UNL     1      -0.392  -0.821   0.356  1.00  0.00     0.054 A 
HETATM    6  C14 UNL     1       0.547   0.327   0.299  1.00  0.00     0.165 C 
HETATM    7  C21 UNL     1      -0.299   1.542   0.007  1.00  0.00     0.202 C 
ENDROOT
BRANCH   6   8
HETATM    8  O4  UNL     1       1.493   0.075  -0.692  1.00  0.00    -0.350 OA
BRANCH   8   9
HETATM    9  C15 UNL     1       2.779   0.038  -0.219  1.00  0.00     0.292 C 
HETATM   10  O5  UNL     1       3.413  -1.178  -0.431  1.00  0.00    -0.348 OA
HETATM   11  C16 UNL     1       4.763  -1.144  -0.212  1.00  0.00     0.179 C 
HETATM   12  C18 UNL     1       5.278   0.073   0.476  1.00  0.00     0.180 C 
HETATM   13  C19 UNL     1       4.809   1.369  -0.090  1.00  0.00     0.183 C 
HETATM   14  C20 UNL     1       3.549   1.170  -0.868  1.00  0.00     0.204 C 
BRANCH  11  15
HETATM   15  C17 UNL     1       5.097  -2.339   0.692  1.00  0.00     0.198 C 
BRANCH  15  16
HETATM   16  O6  UNL     1       4.750  -3.530   0.103  1.00  0.00    -0.398 OA
ATOM     17  H6  UNL     1       4.957  -4.269   0.662  1.00  0.00     0.209 HD
ENDBRANCH  15  16
ENDBRANCH  11  15
BRANCH  12  18
HETATM   18  O7  UNL     1       5.081   0.017   1.874  1.00  0.00    -0.390 OA
ATOM     19  H7  UNL     1       5.409   0.793   2.313  1.00  0.00     0.210 HD
ENDBRANCH  12  18
BRANCH  13  20
HETATM   20  O8  UNL     1       5.798   2.041  -0.803  1.00  0.00    -0.390 OA
ATOM     21  H8  UNL     1       5.499   2.867  -1.164  1.00  0.00     0.210 HD
ENDBRANCH  13  20
BRANCH  14  22
HETATM   22  O9  UNL     1       3.776   0.939  -2.221  1.00  0.00    -0.388 OA
ATOM     23  H9  UNL     1       4.259   1.649  -2.628  1.00  0.00     0.210 HD
ENDBRANCH  14  22
ENDBRANCH   8   9
ENDBRANCH   6   8
BRANCH   7  24
HETATM   24  O10 UNL     1       0.360   2.632   0.614  1.00  0.00    -0.388 OA
ATOM     25  H10 UNL     1       1.287   2.651   0.405  1.00  0.00     0.210 HD
ENDBRANCH   7  24
BRANCH   4  26
HETATM   26  C8  UNL     1      -1.695  -2.844   1.173  1.00  0.00    -0.005 C 
HETATM   27  C9  UNL     1      -0.951  -4.167   1.157  1.00  0.00     0.007 C 
HETATM   28  C10 UNL     1      -1.845  -5.150   0.458  1.00  0.00     0.032 C 
HETATM   29  C11 UNL     1      -2.852  -4.315  -0.325  1.00  0.00     0.118 C 
HETATM   30  C12 UNL     1      -2.354  -2.878  -0.182  1.00  0.00     0.037 C 
BRANCH  29  31
HETATM   31  O3  UNL     1      -4.090  -4.502   0.258  1.00  0.00    -0.396 OA
ATOM     32  H3  UNL     1      -4.717  -3.982  -0.230  1.00  0.00     0.210 HD
ENDBRANCH  29  31
ENDBRANCH   4  26
BRANCH   1  33
HETATM   33  O1  UNL     1      -2.513   1.955  -0.728  1.00  0.00    -0.359 OA
BRANCH  33  34
HETATM   34  C4  UNL     1      -3.219   3.077  -0.389  1.00  0.00     0.171 C 
BRANCH  34  35
HETATM   35  C3  UNL     1      -4.096   3.591  -1.510  1.00  0.00     0.026 C 
BRANCH  35  36
HETATM   36  C2  UNL     1      -4.797   4.828  -0.959  1.00  0.00    -0.002 C 
HETATM   37  C1  UNL     1      -5.711   5.469  -1.942  1.00  0.00     0.005 C 
ENDBRANCH  35  36
ENDBRANCH  34  35
ENDBRANCH  33  34
ENDBRANCH   1  33
TORSDOF 14
