REMARK  16 active torsions:
REMARK  status: ('A' for Active; 'I' for Inactive)
REMARK    1  A    between atoms: N1_1  and  C1_4 
REMARK    2  A    between atoms: C3_8  and  N3_9 
REMARK    3  A    between atoms: C6_16  and  C7_17 
REMARK       I    between atoms: C7_17  and  N6_19 
REMARK    4  A    between atoms: N6_19  and  C8_21 
REMARK    5  A    between atoms: C8_21  and  C9_22 
REMARK    6  A    between atoms: C8_21  and  C12_29 
REMARK    7  A    between atoms: C9_22  and  C10_23 
REMARK    8  A    between atoms: C10_23  and  C11_24 
REMARK    9  A    between atoms: C11_24  and  N7_25 
REMARK       I    between atoms: C12_29  and  N8_31 
REMARK   10  A    between atoms: N8_31  and  C13_33 
REMARK   11  A    between atoms: C13_33  and  C14_34 
REMARK   12  A    between atoms: C13_33  and  C15_37 
REMARK   13  A    between atoms: C14_34  and  O3_35 
REMARK   14  A    between atoms: C15_37  and  O4_38 
REMARK   15  A    between atoms: O4_38  and  S1_39 
REMARK   16  A    between atoms: N9_43  and  N10_45 
ROOT
HETATM    1  C7  UNL     1      -1.193   2.063   0.518  1.00  0.00     0.270 C 
HETATM    2  O1  UNL     1      -0.641   2.803   1.392  1.00  0.00    -0.269 OA
HETATM    3  N6  UNL     1      -0.360   1.095  -0.108  1.00  0.00    -0.344 N 
ATOM      4  H6  UNL     1      -0.756   0.475  -0.815  1.00  0.00     0.163 HD
ENDROOT
BRANCH   1   5
HETATM    5  C6  UNL     1      -2.633   2.208   0.175  1.00  0.00     0.395 C 
HETATM    6  N3  UNL     1      -3.330   1.008   0.506  1.00  0.00    -0.251 N 
HETATM    7  N4  UNL     1      -3.885   0.950   1.820  1.00  0.00    -0.134 NA
HETATM    8  C4  UNL     1      -4.978   1.904   1.824  1.00  0.00     0.162 C 
HETATM    9  C5  UNL     1      -4.565   3.230   1.235  1.00  0.00     0.253 C 
HETATM   10  N5  UNL     1      -3.146   3.298   0.976  1.00  0.00    -0.043 N 
ATOM     11  H52 UNL     1      -2.904   4.195   0.554  1.00  0.00     0.280 HD
ATOM     12  H51 UNL     1      -2.627   3.371   1.851  1.00  0.00     0.280 HD
BRANCH   6  13
HETATM   13  C3  UNL     1      -3.535  -0.126  -0.300  1.00  0.00     0.112 A 
HETATM   14  C2  UNL     1      -3.107  -1.394   0.079  1.00  0.00     0.141 A 
HETATM   15  N2  UNL     1      -3.319  -2.464  -0.707  1.00  0.00    -0.200 N 
HETATM   16  C1  UNL     1      -3.951  -2.349  -1.888  1.00  0.00     0.677 A 
ATOM     17  H2  UNL     1      -2.994  -3.381  -0.401  1.00  0.00     0.183 HD
HETATM   18  N11 UNL     1      -4.381  -1.143  -2.294  1.00  0.00    -0.173 N 
HETATM   19  C16 UNL     1      -4.177  -0.042  -1.510  1.00  0.00     0.164 A 
ATOM     20  H11 UNL     1      -4.861  -1.049  -3.189  1.00  0.00     0.186 HD
HETATM   21  N9  UNL     1      -4.592   1.115  -1.903  1.00  0.00    -0.290 N 
ATOM     22  H9  UNL     1      -4.440   1.938  -1.320  1.00  0.00     0.188 HD
BRANCH  16  23
HETATM   23  N1  UNL     1      -4.157  -3.381  -2.653  1.00  0.00    -0.234 N 
ATOM     24  H12 UNL     1      -3.830  -4.297  -2.345  1.00  0.00     0.174 HD
ATOM     25  H11 UNL     1      -4.637  -3.294  -3.549  1.00  0.00     0.174 HD
ENDBRANCH  16  23
BRANCH  21  26
HETATM   26  N10 UNL     1      -5.246   1.237  -3.123  1.00  0.00    -0.344 N 
ATOM     27 2H10 UNL     1      -5.390   0.404  -3.694  1.00  0.00     0.176 HD
ATOM     28 1H10 UNL     1      -5.574   2.152  -3.434  1.00  0.00     0.176 HD
ENDBRANCH  21  26
ENDBRANCH   6  13
ENDBRANCH   1   5
BRANCH   3  29
HETATM   29  C8  UNL     1       1.058   0.972   0.245  1.00  0.00     0.176 C 
BRANCH  29  30
HETATM   30  C9  UNL     1       1.806   1.375  -0.989  1.00  0.00     0.036 C 
BRANCH  30  31
HETATM   31  C10 UNL     1       3.286   1.332  -0.923  1.00  0.00     0.030 C 
BRANCH  31  32
HETATM   32  C11 UNL     1       3.795   1.827  -2.296  1.00  0.00     0.230 C 
BRANCH  32  33
HETATM   33  N7  UNL     1       5.226   1.822  -2.335  1.00  0.00    -0.079 N 
ATOM     34  H73 UNL     1       5.627   2.359  -1.566  1.00  0.00     0.274 HD
ATOM     35  H72 UNL     1       5.608   0.907  -2.097  1.00  0.00     0.274 HD
ATOM     36  H71 UNL     1       5.562   2.149  -3.241  1.00  0.00     0.274 HD
ENDBRANCH  32  33
ENDBRANCH  31  32
ENDBRANCH  30  31
ENDBRANCH  29  30
BRANCH  29  37
HETATM   37  C12 UNL     1       1.371  -0.365   0.753  1.00  0.00     0.240 C 
HETATM   38  O2  UNL     1       0.475  -1.282   0.708  1.00  0.00    -0.271 OA
HETATM   39  N8  UNL     1       2.606  -0.767   1.315  1.00  0.00    -0.351 N 
ATOM     40  H8  UNL     1       3.349  -0.071   1.381  1.00  0.00     0.163 HD
BRANCH  39  41
HETATM   41  C13 UNL     1       2.881  -2.091   1.799  1.00  0.00     0.133 C 
BRANCH  41  42
HETATM   42  C14 UNL     1       3.263  -2.109   3.270  1.00  0.00     0.191 C 
BRANCH  42  43
HETATM   43  O3  UNL     1       3.500  -3.448   3.601  1.00  0.00    -0.399 OA
ATOM     44  H3  UNL     1       3.739  -3.459   4.520  1.00  0.00     0.209 HD
ENDBRANCH  42  43
ENDBRANCH  41  42
BRANCH  41  45
HETATM   45  C15 UNL     1       4.013  -2.754   1.039  1.00  0.00     0.218 C 
BRANCH  45  46
HETATM   46  O4  UNL     1       5.162  -1.967   1.194  1.00  0.00    -0.260 OA
BRANCH  46  47
HETATM   47  S1  UNL     1       6.445  -2.675   0.361  1.00  0.00     0.401 S 
HETATM   48  O5  UNL     1       6.523  -2.171  -1.039  1.00  0.00    -0.179 OA
HETATM   49  O6  UNL     1       6.324  -4.160   0.338  1.00  0.00    -0.179 OA
ENDBRANCH  46  47
ENDBRANCH  45  46
ENDBRANCH  41  45
ENDBRANCH  39  41
ENDBRANCH  29  37
ENDBRANCH   3  29
TORSDOF 16
