REMARK  19 active torsions:
REMARK  status: ('A' for Active; 'I' for Inactive)
REMARK    1  A    between atoms: O1_2  and  C2_3 
REMARK    2  A    between atoms: C3_4  and  N1_5 
REMARK    3  A    between atoms: C5_10  and  N2_11 
REMARK    4  A    between atoms: C6_15  and  O2_16 
REMARK    5  A    between atoms: O2_16  and  C7_17 
REMARK    6  A    between atoms: C8_19  and  C9_20 
REMARK    7  A    between atoms: C9_20  and  N3_21 
REMARK       I    between atoms: N3_21  and  C10_22 
REMARK    8  A    between atoms: C10_22  and  C11_24 
REMARK    9  A    between atoms: C11_24  and  C12_25 
REMARK   10  A    between atoms: C12_25  and  C13_26 
REMARK   11  A    between atoms: C13_26  and  C14_27 
REMARK   12  A    between atoms: C14_27  and  C15_28 
REMARK   13  A    between atoms: C15_28  and  N4_29 
REMARK   14  A    between atoms: C16_33  and  N5_34 
REMARK   15  A    between atoms: C18_39  and  N6_40 
REMARK   16  A    between atoms: C19_44  and  O5_45 
REMARK   17  A    between atoms: C20_47  and  N7_48 
REMARK   18  A    between atoms: C21_52  and  O6_53 
REMARK   19  A    between atoms: O6_53  and  N8_54 
ROOT
HETATM    1  C7  UNL     1      -1.237  -1.400  -0.525  1.00  0.00     0.292 C 
HETATM    2  O3  UNL     1      -0.086  -0.885   0.015  1.00  0.00    -0.345 OA
HETATM    3  C8  UNL     1       1.118  -1.387  -0.468  1.00  0.00     0.207 C 
HETATM    4  C16 UNL     1       1.578  -2.427   0.478  1.00  0.00     0.220 C 
HETATM    5  C17 UNL     1       0.876  -3.765   0.342  1.00  0.00     0.071 C 
HETATM    6  C18 UNL     1      -0.596  -3.700   0.186  1.00  0.00     0.219 C 
HETATM    7  C19 UNL     1      -1.079  -2.837  -0.940  1.00  0.00     0.203 C 
ENDROOT
BRANCH   1   8
HETATM    8  O2  UNL     1      -2.204  -1.250   0.495  1.00  0.00    -0.349 OA
BRANCH   8   9
HETATM    9  C6  UNL     1      -3.256  -0.398   0.116  1.00  0.00     0.188 C 
HETATM   10  C5  UNL     1      -4.536  -1.111   0.369  1.00  0.00     0.216 C 
HETATM   11  C4  UNL     1      -5.720  -0.509  -0.314  1.00  0.00     0.071 C 
HETATM   12  C3  UNL     1      -6.136   0.833   0.206  1.00  0.00     0.217 C 
HETATM   13  C2  UNL     1      -5.115   1.849  -0.192  1.00  0.00     0.184 C 
HETATM   14  C21 UNL     1      -3.933   1.991   0.687  1.00  0.00     0.215 C 
HETATM   15  C20 UNL     1      -3.059   0.854   0.938  1.00  0.00     0.248 C 
BRANCH  10  16
HETATM   16  N2  UNL     1      -4.750  -1.282   1.799  1.00  0.00    -0.072 N 
ATOM     17  H23 UNL     1      -5.021  -0.402   2.239  1.00  0.00     0.274 HD
ATOM     18  H22 UNL     1      -5.595  -1.823   1.983  1.00  0.00     0.274 HD
ATOM     19  H21 UNL     1      -3.941  -1.693   2.265  1.00  0.00     0.274 HD
ENDBRANCH  10  16
BRANCH  12  20
HETATM   20  N1  UNL     1      -6.408   0.739   1.601  1.00  0.00    -0.072 N 
ATOM     21  H13 UNL     1      -5.541   0.579   2.114  1.00  0.00     0.274 HD
ATOM     22  H12 UNL     1      -6.669   1.655   1.966  1.00  0.00     0.274 HD
ATOM     23  H11 UNL     1      -7.105   0.046   1.873  1.00  0.00     0.274 HD
ENDBRANCH  12  20
BRANCH  13  24
HETATM   24  O1  UNL     1      -5.738   3.108  -0.393  1.00  0.00    -0.386 OA
HETATM   25  C1  UNL     1      -5.715   3.542  -1.683  1.00  0.00     0.202 C 
ENDBRANCH  13  24
BRANCH  14  26
HETATM   26  O6  UNL     1      -3.152   3.024   0.098  1.00  0.00    -0.277 OA
BRANCH  26  27
HETATM   27  N8  UNL     1      -3.137   4.142   0.815  1.00  0.00    -0.311 N 
ATOM     28  H82 UNL     1      -3.640   4.235   1.697  1.00  0.00     0.184 HD
ATOM     29  H81 UNL     1      -2.577   4.883   0.393  1.00  0.00     0.184 HD
ENDBRANCH  26  27
ENDBRANCH  14  26
BRANCH  15  30
HETATM   30  N7  UNL     1      -3.052   0.557   2.381  1.00  0.00    -0.070 N 
ATOM     31  H73 UNL     1      -3.894   0.054   2.663  1.00  0.00     0.274 HD
ATOM     32  H72 UNL     1      -2.358  -0.154   2.612  1.00  0.00     0.274 HD
ATOM     33  H71 UNL     1      -2.919   1.402   2.936  1.00  0.00     0.274 HD
ENDBRANCH  15  30
ENDBRANCH   8   9
ENDBRANCH   1   8
BRANCH   7  34
HETATM   34  O5  UNL     1      -2.294  -3.395  -1.392  1.00  0.00    -0.389 OA
ATOM     35  H5  UNL     1      -2.194  -4.303  -1.654  1.00  0.00     0.210 HD
ENDBRANCH   7  34
BRANCH   3  36
HETATM   36  C9  UNL     1       2.079  -0.179  -0.426  1.00  0.00     0.193 C 
BRANCH  36  37
HETATM   37  N3  UNL     1       3.360  -0.354  -0.848  1.00  0.00    -0.385 NA
HETATM   38  C10 UNL     1       4.652  -0.531  -1.275  1.00  0.00     0.290 C 
HETATM   39  O4  UNL     1       5.511  -1.310  -0.792  1.00  0.00    -0.257 OA
BRANCH  38  40
HETATM   40  C11 UNL     1       5.175   0.272  -2.454  1.00  0.00     0.119 C 
BRANCH  40  41
HETATM   41  C12 UNL     1       6.654   0.167  -2.609  1.00  0.00     0.010 C 
BRANCH  41  42
HETATM   42  C13 UNL     1       7.458   0.679  -1.457  1.00  0.00     0.002 C 
BRANCH  42  43
HETATM   43  C14 UNL     1       7.148   2.156  -1.188  1.00  0.00     0.027 C 
BRANCH  43  44
HETATM   44  C15 UNL     1       7.993   2.640  -0.005  1.00  0.00     0.229 C 
BRANCH  44  45
HETATM   45  N4  UNL     1       9.397   2.499  -0.287  1.00  0.00    -0.079 N 
ATOM     46  H43 UNL     1       9.634   1.543  -0.554  1.00  0.00     0.274 HD
ATOM     47  H42 UNL     1       9.657   2.970  -1.154  1.00  0.00     0.274 HD
ATOM     48  H41 UNL     1       9.960   2.821   0.501  1.00  0.00     0.274 HD
ENDBRANCH  44  45
ENDBRANCH  43  44
ENDBRANCH  42  43
ENDBRANCH  41  42
ENDBRANCH  40  41
ENDBRANCH  38  40
ENDBRANCH  36  37
ENDBRANCH   3  36
BRANCH   6  49
HETATM   49  N6  UNL     1      -1.303  -3.359   1.394  1.00  0.00    -0.072 N 
ATOM     50  H63 UNL     1      -1.052  -3.999   2.147  1.00  0.00     0.274 HD
ATOM     51  H62 UNL     1      -0.946  -2.486   1.782  1.00  0.00     0.274 HD
ATOM     52  H61 UNL     1      -2.316  -3.314   1.287  1.00  0.00     0.274 HD
ENDBRANCH   6  49
BRANCH   4  53
HETATM   53  N5  UNL     1       1.529  -1.938   1.828  1.00  0.00    -0.072 N 
ATOM     54  H53 UNL     1       2.053  -1.069   1.936  1.00  0.00     0.274 HD
ATOM     55  H52 UNL     1       0.602  -1.588   2.071  1.00  0.00     0.274 HD
ATOM     56  H51 UNL     1       1.846  -2.655   2.480  1.00  0.00     0.274 HD
ENDBRANCH   4  53
TORSDOF 19
