REMARK  17 active torsions:
REMARK  status: ('A' for Active; 'I' for Inactive)
REMARK    1  A    between atoms: O1_2  and  N1_3 
REMARK       I    between atoms: N1_3  and  C2_5 
REMARK    2  A    between atoms: C2_5  and  C3_7 
REMARK    3  A    between atoms: C3_7  and  O3_8 
REMARK    4  A    between atoms: C3_7  and  N2_10 
REMARK    5  A    between atoms: N2_10  and  C4_12 
REMARK    6  A    between atoms: C4_12  and  C5_13 
REMARK    7  A    between atoms: C4_12  and  C14_39 
REMARK       I    between atoms: C5_13  and  N3_15 
REMARK    8  A    between atoms: N3_15  and  C6_17 
REMARK    9  A    between atoms: C6_17  and  C7_18 
REMARK   10  A    between atoms: C6_17  and  C11_32 
REMARK   11  A    between atoms: C7_18  and  O5_19 
REMARK   12  A    between atoms: C7_18  and  C8_21 
REMARK   13  A    between atoms: C8_21  and  C9_23 
REMARK   14  A    between atoms: C9_23  and  N5_28 
REMARK   15  A    between atoms: N4_24  and  O7_26 
REMARK   16  A    between atoms: C11_32  and  O8_33 
REMARK   17  A    between atoms: C16_42  and  N7_43 
ROOT
HETATM    1  N5  UNL     1      -4.210  -1.919   0.420  1.00  0.00    -0.275 N 
ATOM      2  H5  UNL     1      -3.374  -2.110   0.972  1.00  0.00     0.180 HD
HETATM    3  C10 UNL     1      -4.728  -2.897  -0.430  1.00  0.00     0.183 C 
HETATM    4  N6  UNL     1      -5.152  -3.718  -1.113  1.00  0.00    -0.172 NA
ENDROOT
BRANCH   1   5
HETATM    5  C9  UNL     1      -4.857  -0.650   0.512  1.00  0.00     0.183 C 
HETATM    6  N4  UNL     1      -6.131  -0.661   0.344  1.00  0.00    -0.249 N 
ATOM      7  H4  UNL     1      -6.601  -1.545   0.150  1.00  0.00     0.196 HD
BRANCH   5   8
HETATM    8  C8  UNL     1      -4.192   0.589   0.791  1.00  0.00     0.226 C 
HETATM    9  O6  UNL     1      -4.873   1.640   0.880  1.00  0.00    -0.286 OA
BRANCH   8  10
HETATM   10  C7  UNL     1      -2.728   0.733   0.987  1.00  0.00     0.222 C 
BRANCH  10  11
HETATM   11  C6  UNL     1      -1.888   0.396  -0.182  1.00  0.00     0.167 C 
BRANCH  11  12
HETATM   12  N3  UNL     1      -0.507   0.239   0.333  1.00  0.00    -0.348 N 
HETATM   13  C5  UNL     1       0.364  -0.801  -0.060  1.00  0.00     0.246 C 
HETATM   14  O4  UNL     1      -0.072  -1.623  -0.897  1.00  0.00    -0.271 OA
ATOM     15  H3  UNL     1      -0.166   0.921   1.010  1.00  0.00     0.163 HD
BRANCH  13  16
HETATM   16  C4  UNL     1       1.737  -0.878   0.521  1.00  0.00     0.223 C 
BRANCH  16  17
HETATM   17  N2  UNL     1       2.736  -1.195  -0.426  1.00  0.00    -0.372 N 
ATOM     18  H2  UNL     1       3.279  -2.053  -0.328  1.00  0.00     0.157 HD
BRANCH  17  19
HETATM   19  C3  UNL     1       2.983  -0.323  -1.509  1.00  0.00     0.310 C 
BRANCH  19  20
HETATM   20  C2  UNL     1       3.495   0.982  -1.026  1.00  0.00     0.289 C 
HETATM   21  N1  UNL     1       4.831   1.420  -1.329  1.00  0.00    -0.232 N 
ATOM     22  H1  UNL     1       5.426   0.812  -1.892  1.00  0.00     0.197 HD
HETATM   23  O2  UNL     1       2.817   1.799  -0.330  1.00  0.00    -0.266 OA
BRANCH  21  24
HETATM   24  O1  UNL     1       5.330   2.589  -0.907  1.00  0.00    -0.283 OA
HETATM   25  C1  UNL     1       6.444   2.956  -1.639  1.00  0.00     0.237 C 
ENDBRANCH  21  24
ENDBRANCH  19  20
BRANCH  19  26
HETATM   26  O3  UNL     1       3.981  -0.887  -2.311  1.00  0.00    -0.368 OA
ATOM     27  H3  UNL     1       3.653  -1.723  -2.620  1.00  0.00     0.212 HD
ENDBRANCH  19  26
ENDBRANCH  17  19
ENDBRANCH  16  17
BRANCH  16  28
HETATM   28  C14 UNL     1       1.719  -2.006   1.578  1.00  0.00     0.049 A 
HETATM   29  C15 UNL     1       1.814  -3.318   1.180  1.00  0.00     0.081 A 
HETATM   30  S1  UNL     1       1.719  -4.157   2.662  1.00  0.00    -0.064 SA
HETATM   31  C16 UNL     1       1.567  -2.815   3.700  1.00  0.00     0.142 A 
HETATM   32  N8  UNL     1       1.595  -1.779   2.866  1.00  0.00    -0.338 N 
ATOM     33  H8  UNL     1       1.521  -0.825   3.220  1.00  0.00     0.168 HD
BRANCH  31  34
HETATM   34  N7  UNL     1       1.440  -2.787   5.016  1.00  0.00    -0.380 N 
ATOM     35  H72 UNL     1       1.419  -3.581   5.655  1.00  0.00     0.158 HD
ATOM     36  H71 UNL     1       1.349  -1.983   5.638  1.00  0.00     0.158 HD
ENDBRANCH  31  34
ENDBRANCH  16  28
ENDBRANCH  13  16
ENDBRANCH  11  12
BRANCH  11  37
HETATM   37  C11 UNL     1      -1.875   1.247  -1.373  1.00  0.00     0.190 C 
HETATM   38  C12 UNL     1      -1.599   2.680  -1.408  1.00  0.00     0.229 C 
HETATM   39  O9  UNL     1      -2.989   2.986  -1.639  1.00  0.00    -0.315 OA
HETATM   40  C13 UNL     1      -3.162   1.610  -1.948  1.00  0.00     0.298 C 
HETATM   41  O10 UNL     1      -4.120   0.989  -2.521  1.00  0.00    -0.262 OA
BRANCH  37  42
HETATM   42  O8  UNL     1      -1.082   0.572  -2.360  1.00  0.00    -0.376 OA
ATOM     43  H8  UNL     1      -1.074   1.124  -3.133  1.00  0.00     0.211 HD
ENDBRANCH  37  42
ENDBRANCH  11  37
ENDBRANCH  10  11
BRANCH  10  44
HETATM   44  O5  UNL     1      -2.371   1.939   1.588  1.00  0.00    -0.385 OA
ATOM     45  H5  UNL     1      -2.911   2.156   2.339  1.00  0.00     0.210 HD
ENDBRANCH  10  44
ENDBRANCH   8  10
ENDBRANCH   5   8
BRANCH   6  46
HETATM   46  O7  UNL     1      -6.870   0.488   0.420  1.00  0.00    -0.288 OA
ATOM     47  H7  UNL     1      -7.812   0.480   0.296  1.00  0.00     0.244 HD
ENDBRANCH   6  46
ENDBRANCH   1   5
TORSDOF 17
