REMARK  20 active torsions:
REMARK  status: ('A' for Active; 'I' for Inactive)
REMARK    1  A    between atoms: N1_1  and  C1_5 
REMARK    2  A    between atoms: C1_5  and  C2_6 
REMARK    3  A    between atoms: C2_6  and  N2_7 
REMARK    4  A    between atoms: N2_7  and  C3_9 
REMARK    5  A    between atoms: C3_9  and  C4_10 
REMARK    6  A    between atoms: C6_12  and  N3_13 
REMARK    7  A    between atoms: C7_17  and  O1_18 
REMARK    8  A    between atoms: O1_18  and  C8_19 
REMARK    9  A    between atoms: C9_20  and  N4_21 
REMARK   10  A    between atoms: C11_26  and  N5_27 
REMARK   11  A    between atoms: C12_31  and  O2_32 
REMARK   12  A    between atoms: O2_32  and  C13_33 
REMARK   13  A    between atoms: C14_34  and  O3_35 
REMARK   14  A    between atoms: C15_37  and  N6_38 
REMARK   15  A    between atoms: C17_43  and  N7_44 
REMARK   16  A    between atoms: C18_48  and  O4_49 
REMARK   17  A    between atoms: O4_49  and  C19_50 
REMARK   18  A    between atoms: C19_50  and  C20_51 
REMARK   19  A    between atoms: C20_51  and  N8_52 
REMARK   20  A    between atoms: C21_56  and  O5_57 
ROOT
HETATM    1  C8  UNL     1       0.863  -0.954   0.447  1.00  0.00     0.186 C 
HETATM    2  C9  UNL     1       0.616  -1.823   1.625  1.00  0.00     0.217 C 
HETATM    3  C10 UNL     1      -0.324  -2.957   1.445  1.00  0.00     0.071 C 
HETATM    4  C11 UNL     1      -1.063  -2.947   0.152  1.00  0.00     0.217 C 
HETATM    5  C12 UNL     1      -1.489  -1.567  -0.278  1.00  0.00     0.183 C 
HETATM    6  C21 UNL     1      -0.297  -0.657  -0.437  1.00  0.00     0.180 C 
ENDROOT
BRANCH   5   7
HETATM    7  O2  UNL     1      -2.441  -0.949   0.456  1.00  0.00    -0.370 OA
BRANCH   7   8
HETATM    8  C13 UNL     1      -3.654  -0.685  -0.087  1.00  0.00     0.183 C 
HETATM    9  C14 UNL     1      -4.712  -1.344   0.766  1.00  0.00     0.180 C 
HETATM   10  C15 UNL     1      -6.078  -1.293   0.064  1.00  0.00     0.216 C 
HETATM   11  C16 UNL     1      -6.447   0.174  -0.001  1.00  0.00     0.071 C 
HETATM   12  C17 UNL     1      -5.396   0.841  -0.861  1.00  0.00     0.217 C 
HETATM   13  C18 UNL     1      -4.043   0.780  -0.158  1.00  0.00     0.183 C 
BRANCH   9  14
HETATM   14  O3  UNL     1      -4.370  -2.660   0.988  1.00  0.00    -0.391 OA
ATOM     15  H3  UNL     1      -5.035  -3.074   1.525  1.00  0.00     0.210 HD
ENDBRANCH   9  14
BRANCH  10  16
HETATM   16  N6  UNL     1      -7.011  -2.042   0.884  1.00  0.00    -0.072 N 
ATOM     17  H63 UNL     1      -6.697  -2.993   1.079  1.00  0.00     0.274 HD
ATOM     18  H62 UNL     1      -7.046  -1.715   1.849  1.00  0.00     0.274 HD
ATOM     19  H61 UNL     1      -7.918  -2.008   0.418  1.00  0.00     0.274 HD
ENDBRANCH  10  16
BRANCH  12  20
HETATM   20  N7  UNL     1      -5.352   0.131  -2.127  1.00  0.00    -0.072 N 
ATOM     21  H73 UNL     1      -5.197  -0.871  -2.016  1.00  0.00     0.274 HD
ATOM     22  H72 UNL     1      -6.262   0.075  -2.583  1.00  0.00     0.274 HD
ATOM     23  H71 UNL     1      -4.643   0.581  -2.707  1.00  0.00     0.274 HD
ENDBRANCH  12  20
BRANCH  13  24
HETATM   24  O4  UNL     1      -4.235   1.369   1.077  1.00  0.00    -0.379 OA
BRANCH  24  25
HETATM   25  C19 UNL     1      -3.560   2.569   1.192  1.00  0.00     0.195 C 
BRANCH  25  26
HETATM   26  C20 UNL     1      -3.836   3.149   2.582  1.00  0.00     0.255 C 
BRANCH  26  27
HETATM   27  N8  UNL     1      -3.359   2.194   3.536  1.00  0.00    -0.077 N 
ATOM     28  H83 UNL     1      -3.755   1.263   3.404  1.00  0.00     0.274 HD
ATOM     29  H82 UNL     1      -2.381   1.940   3.395  1.00  0.00     0.274 HD
ATOM     30  H81 UNL     1      -3.543   2.580   4.462  1.00  0.00     0.274 HD
ENDBRANCH  26  27
ENDBRANCH  25  26
ENDBRANCH  24  25
ENDBRANCH  13  24
ENDBRANCH   7   8
ENDBRANCH   5   7
BRANCH   4  31
HETATM   31  N5  UNL     1      -0.121  -3.398  -0.898  1.00  0.00    -0.072 N 
ATOM     32  H53 UNL     1       0.738  -2.849  -0.926  1.00  0.00     0.274 HD
ATOM     33  H52 UNL     1       0.306  -4.301  -0.690  1.00  0.00     0.274 HD
ATOM     34  H51 UNL     1      -0.627  -3.391  -1.784  1.00  0.00     0.274 HD
ENDBRANCH   4  31
BRANCH   6  35
HETATM   35  O5  UNL     1      -0.688   0.676  -0.321  1.00  0.00    -0.390 OA
ATOM     36  H5  UNL     1      -1.428   0.866  -0.885  1.00  0.00     0.210 HD
ENDBRANCH   6  35
BRANCH   1  37
HETATM   37  O1  UNL     1       2.000  -1.356  -0.287  1.00  0.00    -0.349 OA
BRANCH  37  38
HETATM   38  C7  UNL     1       3.018  -0.437  -0.229  1.00  0.00     0.291 C 
HETATM   39  C6  UNL     1       4.294  -1.128   0.177  1.00  0.00     0.241 C 
HETATM   40  C5  UNL     1       5.295  -0.113  -0.383  1.00  0.00     0.075 C 
HETATM   41  C4  UNL     1       4.608   0.383  -1.614  1.00  0.00     0.164 C 
HETATM   42  O6  UNL     1       3.256   0.055  -1.502  1.00  0.00    -0.349 OA
BRANCH  39  43
HETATM   43  N3  UNL     1       4.378  -2.359  -0.574  1.00  0.00    -0.070 N 
ATOM     44  H33 UNL     1       4.253  -2.208  -1.575  1.00  0.00     0.274 HD
ATOM     45  H32 UNL     1       5.328  -2.730  -0.599  1.00  0.00     0.274 HD
ATOM     46  H31 UNL     1       3.711  -3.035  -0.201  1.00  0.00     0.274 HD
ENDBRANCH  39  43
BRANCH  41  47
HETATM   47  C3  UNL     1       4.765   1.876  -1.817  1.00  0.00     0.087 C 
BRANCH  47  48
HETATM   48  N2  UNL     1       6.043   2.389  -2.019  1.00  0.00    -0.398 N 
ATOM     49  H2  UNL     1       6.281   2.778  -2.932  1.00  0.00     0.158 HD
BRANCH  48  50
HETATM   50  C2  UNL     1       7.019   2.388  -1.002  1.00  0.00     0.146 C 
BRANCH  50  51
HETATM   51  C1  UNL     1       8.236   3.163  -1.531  1.00  0.00     0.249 C 
BRANCH  51  52
HETATM   52  N1  UNL     1       8.756   2.549  -2.714  1.00  0.00    -0.078 N 
ATOM     53  H13 UNL     1       8.973   1.564  -2.563  1.00  0.00     0.274 HD
ATOM     54  H12 UNL     1       8.037   2.441  -3.430  1.00  0.00     0.274 HD
ATOM     55  H11 UNL     1       9.564   3.063  -3.065  1.00  0.00     0.274 HD
ENDBRANCH  51  52
ENDBRANCH  50  51
ENDBRANCH  48  50
ENDBRANCH  47  48
ENDBRANCH  41  47
ENDBRANCH  37  38
ENDBRANCH   1  37
BRANCH   2  56
HETATM   56  N4  UNL     1       0.294  -1.027   2.826  1.00  0.00    -0.072 N 
ATOM     57  H43 UNL     1       1.016  -0.333   3.019  1.00  0.00     0.274 HD
ATOM     58  H42 UNL     1      -0.489  -0.396   2.657  1.00  0.00     0.274 HD
ATOM     59  H41 UNL     1       0.124  -1.624   3.635  1.00  0.00     0.274 HD
ENDBRANCH   2  56
TORSDOF 20
