REMARK  17 active torsions:
REMARK  status: ('A' for Active; 'I' for Inactive)
REMARK    1  A    between atoms: O1_2  and  C2_3 
REMARK    2  A    between atoms: C2_3  and  C3_5 
REMARK    3  A    between atoms: C3_5  and  N1_6 
REMARK       I    between atoms: N1_6  and  C4_8 
REMARK    4  A    between atoms: C4_8  and  C5_10 
REMARK       I    between atoms: C5_10  and  N2_12 
REMARK    5  A    between atoms: N2_12  and  N3_14 
REMARK    6  A    between atoms: C8_19  and  N4_20 
REMARK    7  A    between atoms: N4_20  and  C9_22 
REMARK    8  A    between atoms: C9_22  and  O5_23 
REMARK    9  A    between atoms: C9_22  and  C10_25 
REMARK   10  A    between atoms: C10_25  and  C11_26 
REMARK   11  A    between atoms: C10_25  and  N5_28 
REMARK   12  A    between atoms: N5_28  and  C12_31 
REMARK   13  A    between atoms: C12_31  and  C13_32 
REMARK   14  A    between atoms: C13_32  and  C14_33 
REMARK   15  A    between atoms: C14_33  and  N6_34 
REMARK   16  A    between atoms: C17_39  and  N8_40 
REMARK   17  A    between atoms: C18_45  and  N10_46 
ROOT
HETATM    1  C10 UNL     1       0.026   0.281  -0.295  1.00  0.00     0.294 C 
ENDROOT
BRANCH   1   2
HETATM    2  C9  UNL     1      -0.863   0.594  -1.423  1.00  0.00     0.251 C 
BRANCH   2   3
HETATM    3  N4  UNL     1      -2.217   0.402  -1.293  1.00  0.00    -0.387 N 
ATOM      4  H4  UNL     1      -2.799   1.239  -1.328  1.00  0.00     0.156 HD
BRANCH   3   5
HETATM    5  C8  UNL     1      -2.890  -0.820  -1.117  1.00  0.00     0.105 C 
HETATM    6  C7  UNL     1      -2.678  -1.452   0.170  1.00  0.00    -0.003 C 
HETATM    7  C6  UNL     1      -3.849  -1.802   0.684  1.00  0.00     0.012 C 
HETATM    8  C3  UNL     1      -4.998  -1.452  -0.195  1.00  0.00     0.141 C 
HETATM    9  C20 UNL     1      -4.391  -0.673  -1.266  1.00  0.00     0.075 C 
BRANCH   8  10
HETATM   10  C2  UNL     1      -5.481  -2.822  -0.658  1.00  0.00     0.291 C 
HETATM   11  O2  UNL     1      -6.577  -3.227  -0.325  1.00  0.00    -0.262 OA
BRANCH  10  12
HETATM   12  O1  UNL     1      -4.634  -3.542  -1.445  1.00  0.00    -0.324 OA
HETATM   13  C1  UNL     1      -4.851  -4.818  -1.979  1.00  0.00     0.213 C 
ENDBRANCH  10  12
ENDBRANCH   8  10
BRANCH   8  14
HETATM   14  N1  UNL     1      -6.055  -0.810   0.540  1.00  0.00    -0.331 N 
HETATM   15  C4  UNL     1      -6.038   0.517   1.032  1.00  0.00     0.312 C 
HETATM   16  O3  UNL     1      -5.053   1.239   0.880  1.00  0.00    -0.262 OA
ATOM     17  H1  UNL     1      -6.893  -1.362   0.723  1.00  0.00     0.164 HD
BRANCH  15  18
HETATM   18  C5  UNL     1      -7.220   1.066   1.745  1.00  0.00     0.327 C 
HETATM   19  O4  UNL     1      -8.253   0.385   1.902  1.00  0.00    -0.261 OA
HETATM   20  N2  UNL     1      -7.194   2.384   2.264  1.00  0.00    -0.268 N 
ATOM     21  H2  UNL     1      -6.360   2.962   2.156  1.00  0.00     0.190 HD
BRANCH  20  22
HETATM   22  N3  UNL     1      -8.312   2.884   2.921  1.00  0.00    -0.342 N 
ATOM     23  H32 UNL     1      -9.137   2.293   3.020  1.00  0.00     0.176 HD
ATOM     24  H31 UNL     1      -8.293   3.833   3.295  1.00  0.00     0.176 HD
ENDBRANCH  20  22
ENDBRANCH  15  18
ENDBRANCH   8  14
ENDBRANCH   3   5
ENDBRANCH   2   3
BRANCH   2  25
HETATM   25  O5  UNL     1      -0.377  -0.078  -2.605  1.00  0.00    -0.375 OA
ATOM     26  H5  UNL     1       0.559   0.055  -2.695  1.00  0.00     0.212 HD
ENDBRANCH   2  25
ENDBRANCH   1   2
BRANCH   1  27
HETATM   27  C11 UNL     1      -0.325   1.129   0.892  1.00  0.00     0.268 C 
HETATM   28  O6  UNL     1       0.475   1.822   1.490  1.00  0.00    -0.304 OA
ENDBRANCH   1  27
BRANCH   1  29
HETATM   29  N5  UNL     1       1.431   0.691  -0.591  1.00  0.00    -0.060 N 
ATOM     30  H52 UNL     1       1.595   0.887  -1.578  1.00  0.00     0.278 HD
ATOM     31  H51 UNL     1       1.664   1.619  -0.237  1.00  0.00     0.278 HD
BRANCH  29  32
HETATM   32  C12 UNL     1       2.281  -0.351  -0.067  1.00  0.00     0.235 C 
BRANCH  32  33
HETATM   33  C13 UNL     1       3.733  -0.133  -0.441  1.00  0.00     0.048 C 
BRANCH  33  34
HETATM   34  C14 UNL     1       4.203   1.192   0.093  1.00  0.00     0.133 C 
BRANCH  34  35
HETATM   35  N6  UNL     1       5.574   1.374  -0.346  1.00  0.00    -0.327 N 
HETATM   36  C15 UNL     1       5.892   1.951  -1.544  1.00  0.00     0.185 A 
HETATM   37  N7  UNL     1       7.223   1.979  -1.690  1.00  0.00    -0.346 N 
HETATM   38  C16 UNL     1       7.771   1.411  -0.568  1.00  0.00     0.123 A 
ATOM     39  H7  UNL     1       7.735   2.354  -2.489  1.00  0.00     0.167 HD
HETATM   40  C17 UNL     1       9.082   1.193  -0.206  1.00  0.00     0.145 A 
HETATM   41  C19 UNL     1       6.715   1.045   0.249  1.00  0.00     0.155 A 
HETATM   42  N9  UNL     1       9.326   0.604   0.984  1.00  0.00    -0.175 N 
HETATM   43  C18 UNL     1       8.285   0.256   1.766  1.00  0.00     0.679 A 
ATOM     44  H9  UNL     1      10.284   0.425   1.287  1.00  0.00     0.186 HD
HETATM   45  N11 UNL     1       7.013   0.455   1.440  1.00  0.00    -0.174 N 
ATOM     46  H11 UNL     1       6.267   0.169   2.075  1.00  0.00     0.186 HD
BRANCH  40  47
HETATM   47  N8  UNL     1      10.021   1.546  -0.982  1.00  0.00    -0.383 N 
ATOM     48  H82 UNL     1       9.837   1.991  -1.881  1.00  0.00     0.157 HD
ATOM     49  H81 UNL     1      10.992   1.385  -0.714  1.00  0.00     0.157 HD
ENDBRANCH  40  47
BRANCH  43  50
HETATM   50  N10 UNL     1       8.554  -0.309   2.923  1.00  0.00    -0.234 N 
ATOM     51 2H10 UNL     1       9.531  -0.462   3.173  1.00  0.00     0.174 HD
ATOM     52 1H10 UNL     1       7.766  -0.572   3.515  1.00  0.00     0.174 HD
ENDBRANCH  43  50
ENDBRANCH  34  35
ENDBRANCH  33  34
ENDBRANCH  32  33
ENDBRANCH  29  32
ENDBRANCH   1  29
TORSDOF 17
