REMARK  13 active torsions:
REMARK  status: ('A' for Active; 'I' for Inactive)
REMARK    1  A    between atoms: C2_2  and  C3_3 
REMARK    2  A    between atoms: C3_3  and  N1_4 
REMARK    3  A    between atoms: N1_4  and  C4_6 
REMARK    4  A    between atoms: C5_7  and  C6_8 
REMARK    5  A    between atoms: C6_8  and  N2_9 
REMARK    6  A    between atoms: N2_9  and  C7_11 
REMARK    7  A    between atoms: C7_11  and  C8_12 
REMARK    8  A    between atoms: C8_12  and  C9_13 
REMARK    9  A    between atoms: C9_13  and  C10_14 
REMARK   10  A    between atoms: C10_14  and  C11_15 
REMARK   11  A    between atoms: C11_15  and  N3_16 
REMARK   12  A    between atoms: C12_20  and  C13_21 
REMARK   13  A    between atoms: N5_29  and  C19_30 
ROOT
HETATM    1  C4  UNL     1      -1.726  -0.808   0.036  1.00  0.00     0.137 A 
HETATM    2  C5  UNL     1      -0.863   0.321   0.160  1.00  0.00     0.053 A 
HETATM    3  C12 UNL     1      -1.608   1.430  -0.045  1.00  0.00     0.074 A 
HETATM    4  N4  UNL     1      -2.897   0.976  -0.290  1.00  0.00    -0.290 N 
ATOM      5  H4  UNL     1      -3.698   1.576  -0.484  1.00  0.00     0.187 HD
HETATM    6  N5  UNL     1      -2.938  -0.321  -0.237  1.00  0.00    -0.239 N 
ENDROOT
BRANCH   2   7
HETATM    7  C6  UNL     1       0.575   0.182   0.387  1.00  0.00     0.100 C 
BRANCH   7   8
HETATM    8  N2  UNL     1       1.376   1.324   0.537  1.00  0.00    -0.398 N 
ATOM      9  H2  UNL     1       1.041   2.286   0.592  1.00  0.00     0.158 HD
BRANCH   8  10
HETATM   10  C7  UNL     1       2.797   0.893   0.602  1.00  0.00     0.119 C 
BRANCH  10  11
HETATM   11  C8  UNL     1       3.316   0.370  -0.684  1.00  0.00     0.020 C 
BRANCH  11  12
HETATM   12  C9  UNL     1       4.770  -0.028  -0.471  1.00  0.00     0.003 C 
BRANCH  12  13
HETATM   13  C10 UNL     1       5.646   1.101  -0.040  1.00  0.00     0.027 C 
BRANCH  13  14
HETATM   14  C11 UNL     1       7.055   0.514   0.118  1.00  0.00     0.229 C 
BRANCH  14  15
HETATM   15  N3  UNL     1       7.044  -0.547   1.119  1.00  0.00    -0.079 N 
ATOM     16  H33 UNL     1       6.660  -0.229   2.009  1.00  0.00     0.274 HD
ATOM     17  H32 UNL     1       6.352  -1.266   0.907  1.00  0.00     0.274 HD
ATOM     18  H31 UNL     1       7.981  -0.937   1.224  1.00  0.00     0.274 HD
ENDBRANCH  14  15
ENDBRANCH  13  14
ENDBRANCH  12  13
ENDBRANCH  11  12
ENDBRANCH  10  11
ENDBRANCH   8  10
ENDBRANCH   7   8
ENDBRANCH   2   7
BRANCH   1  19
HETATM   19  N1  UNL     1      -1.295  -2.131   0.199  1.00  0.00    -0.371 N 
ATOM     20  H1  UNL     1      -0.309  -2.245   0.433  1.00  0.00     0.161 HD
BRANCH  19  21
HETATM   21  C3  UNL     1      -2.043  -3.345   0.084  1.00  0.00     0.148 C 
BRANCH  21  22
HETATM   22  C2  UNL     1      -1.183  -4.547   0.409  1.00  0.00    -0.018 C 
HETATM   23  C1  UNL     1      -1.480  -5.364   1.392  1.00  0.00     0.008 C 
ENDBRANCH  21  22
ENDBRANCH  19  21
ENDBRANCH   1  19
BRANCH   3  24
HETATM   24  C13 UNL     1      -1.341   2.852  -0.103  1.00  0.00    -0.007 A 
HETATM   25  C14 UNL     1      -1.652   3.526  -1.282  1.00  0.00     0.014 A 
HETATM   26  C15 UNL     1      -1.501   4.893  -1.406  1.00  0.00     0.001 A 
HETATM   27  C16 UNL     1      -1.025   5.552  -0.295  1.00  0.00     0.000 A 
HETATM   28  C17 UNL     1      -0.711   4.915   0.875  1.00  0.00     0.001 A 
HETATM   29  C18 UNL     1      -0.877   3.547   0.958  1.00  0.00     0.014 A 
ENDBRANCH   3  24
BRANCH   6  30
HETATM   30  C19 UNL     1      -4.183  -1.015  -0.460  1.00  0.00     0.058 A 
HETATM   31  C20 UNL     1      -5.041  -1.275   0.611  1.00  0.00     0.031 A 
HETATM   32  C21 UNL     1      -6.231  -1.908   0.375  1.00  0.00     0.002 A 
HETATM   33  C22 UNL     1      -6.587  -2.287  -0.894  1.00  0.00     0.000 A 
HETATM   34  C23 UNL     1      -5.714  -2.017  -1.954  1.00  0.00     0.002 A 
HETATM   35  C24 UNL     1      -4.515  -1.384  -1.741  1.00  0.00     0.031 A 
ENDBRANCH   6  30
TORSDOF 13
