REMARK  13 active torsions:
REMARK  status: ('A' for Active; 'I' for Inactive)
REMARK    1  A    between atoms: N1_1  and  C1_5 
REMARK    2  A    between atoms: C1_5  and  C2_6 
REMARK    3  A    between atoms: C2_6  and  C3_7 
REMARK    4  A    between atoms: C3_7  and  C4_8 
REMARK    5  A    between atoms: C4_8  and  N2_9 
REMARK    6  A    between atoms: N2_9  and  C5_11 
REMARK    7  A    between atoms: C5_11  and  O1_12 
REMARK    8  A    between atoms: C5_11  and  C6_14 
REMARK    9  A    between atoms: C9_17  and  C10_18 
REMARK   10  A    between atoms: C10_18  and  C11_19 
REMARK   11  A    between atoms: C11_19  and  C12_20 
REMARK   12  A    between atoms: C12_20  and  C13_21 
REMARK   13  A    between atoms: C13_21  and  C14_22 
ROOT
HETATM    1  C6  UNL     1       2.191   0.315  -1.401  1.00  0.00     0.017 A 
HETATM    2  C7  UNL     1       1.295  -0.656  -1.810  1.00  0.00     0.014 A 
HETATM    3  C8  UNL     1      -0.009  -0.684  -1.378  1.00  0.00     0.009 A 
HETATM    4  C9  UNL     1      -0.458   0.284  -0.502  1.00  0.00    -0.046 A 
HETATM    5  C20 UNL     1       0.389   1.260  -0.072  1.00  0.00    -0.002 A 
HETATM    6  C21 UNL     1      -0.017   2.234   0.778  1.00  0.00     0.015 A 
HETATM    7  C22 UNL     1       0.890   3.209   1.175  1.00  0.00     0.018 A 
HETATM    8  C23 UNL     1       2.193   3.224   0.735  1.00  0.00     0.088 A 
HETATM    9  N3  UNL     1       2.548   2.241  -0.106  1.00  0.00    -0.365 N 
ATOM     10  H3  UNL     1       3.509   2.230  -0.448  1.00  0.00     0.165 HD
HETATM   11  C24 UNL     1       1.720   1.271  -0.527  1.00  0.00     0.053 A 
ENDROOT
BRANCH   1  12
HETATM   12  C5  UNL     1       3.604   0.352  -1.861  1.00  0.00     0.250 C 
BRANCH  12  13
HETATM   13  N2  UNL     1       4.536   0.588  -0.826  1.00  0.00    -0.393 N 
ATOM     14  H2  UNL     1       5.099   1.439  -0.813  1.00  0.00     0.156 HD
BRANCH  13  15
HETATM   15  C4  UNL     1       4.670  -0.386   0.194  1.00  0.00     0.116 C 
BRANCH  15  16
HETATM   16  C3  UNL     1       5.711   0.105   1.172  1.00  0.00     0.021 C 
BRANCH  16  17
HETATM   17  C2  UNL     1       7.012   0.310   0.453  1.00  0.00     0.029 C 
BRANCH  17  18
HETATM   18  C1  UNL     1       7.498  -0.980  -0.153  1.00  0.00     0.229 C 
BRANCH  18  19
HETATM   19  N1  UNL     1       8.777  -0.658  -0.799  1.00  0.00    -0.079 N 
ATOM     20  H13 UNL     1       8.716   0.110  -1.467  1.00  0.00     0.274 HD
ATOM     21  H12 UNL     1       9.453  -0.220  -0.173  1.00  0.00     0.274 HD
ATOM     22  H11 UNL     1       9.106  -1.532  -1.209  1.00  0.00     0.274 HD
ENDBRANCH  18  19
ENDBRANCH  17  18
ENDBRANCH  16  17
ENDBRANCH  15  16
ENDBRANCH  13  15
ENDBRANCH  12  13
BRANCH  12  23
HETATM   23  O1  UNL     1       3.937  -0.807  -2.566  1.00  0.00    -0.373 OA
ATOM     24  H1  UNL     1       3.310  -0.966  -3.262  1.00  0.00     0.212 HD
ENDBRANCH  12  23
ENDBRANCH   1  12
BRANCH   4  25
HETATM   25  C10 UNL     1      -1.881   0.201  -0.009  1.00  0.00     0.039 C 
BRANCH  25  26
HETATM   26  C11 UNL     1      -1.829  -0.461   1.324  1.00  0.00     0.005 C 
BRANCH  26  27
HETATM   27  C12 UNL     1      -3.076  -0.589   2.084  1.00  0.00     0.001 C 
BRANCH  27  28
HETATM   28  C13 UNL     1      -4.219  -1.348   1.585  1.00  0.00     0.004 C 
BRANCH  28  29
HETATM   29  C14 UNL     1      -4.936  -0.918   0.370  1.00  0.00    -0.014 C 
HETATM   30  C15 UNL     1      -5.496   0.490   0.526  1.00  0.00     0.004 C 
HETATM   31  C16 UNL     1      -6.126   0.882  -0.772  1.00  0.00     0.000 C 
HETATM   32  C17 UNL     1      -7.281  -0.039  -1.107  1.00  0.00     0.000 C 
HETATM   33  C18 UNL     1      -6.841  -1.486  -1.049  1.00  0.00     0.000 C 
HETATM   34  C19 UNL     1      -6.206  -1.815   0.263  1.00  0.00     0.004 C 
ENDBRANCH  28  29
ENDBRANCH  27  28
ENDBRANCH  26  27
ENDBRANCH  25  26
ENDBRANCH   4  25
TORSDOF 13
