REMARK  12 active torsions:
REMARK  status: ('A' for Active; 'I' for Inactive)
REMARK    1  A    between atoms: N1_1  and  C1_5 
REMARK    2  A    between atoms: C6_10  and  N2_11 
REMARK    3  A    between atoms: N2_11  and  C7_13 
REMARK    4  A    between atoms: C7_13  and  C8_14 
REMARK    5  A    between atoms: C8_14  and  C9_15 
REMARK    6  A    between atoms: C9_15  and  C10_16 
REMARK    7  A    between atoms: C10_16  and  C11_17 
REMARK    8  A    between atoms: C11_17  and  C12_18 
REMARK    9  A    between atoms: C12_18  and  N3_19 
REMARK   10  A    between atoms: N3_19  and  C13_21 
REMARK   11  A    between atoms: C16_26  and  C17_27 
REMARK   12  A    between atoms: C17_27  and  C18_28 
ROOT
HETATM    1  C11 UNL     1      -0.346  -0.383  -0.097  1.00  0.00     0.020 C 
ENDROOT
BRANCH   1   2
HETATM    2  C10 UNL     1      -0.661   1.033  -0.575  1.00  0.00     0.002 C 
BRANCH   2   3
HETATM    3  C9  UNL     1      -1.137   1.870   0.564  1.00  0.00     0.002 C 
BRANCH   3   4
HETATM    4  C8  UNL     1      -2.388   1.396   1.184  1.00  0.00     0.019 C 
BRANCH   4   5
HETATM    5  C7  UNL     1      -3.555   1.465   0.188  1.00  0.00     0.114 C 
BRANCH   5   6
HETATM    6  N2  UNL     1      -4.771   1.049   0.810  1.00  0.00    -0.415 N 
ATOM      7  H2  UNL     1      -5.491   1.740   1.021  1.00  0.00     0.153 HD
BRANCH   6   8
HETATM    8  C6  UNL     1      -4.986  -0.295   1.134  1.00  0.00     0.106 C 
HETATM    9  C1  UNL     1      -5.142  -1.200  -0.045  1.00  0.00     0.205 C 
HETATM   10  C2  UNL     1      -6.103  -0.510  -0.993  1.00  0.00     0.035 C 
HETATM   11  C3  UNL     1      -7.234   0.166  -0.259  1.00  0.00     0.002 C 
HETATM   12  C4  UNL     1      -7.488  -0.323   1.119  1.00  0.00     0.002 C 
HETATM   13  C5  UNL     1      -6.251  -0.480   1.966  1.00  0.00     0.027 C 
BRANCH   9  14
HETATM   14  N1  UNL     1      -3.920  -1.495  -0.703  1.00  0.00    -0.073 N 
ATOM     15  H13 UNL     1      -4.069  -2.038  -1.554  1.00  0.00     0.274 HD
ATOM     16  H12 UNL     1      -3.506  -0.663  -1.124  1.00  0.00     0.274 HD
ATOM     17  H11 UNL     1      -3.273  -1.959  -0.065  1.00  0.00     0.274 HD
ENDBRANCH   9  14
ENDBRANCH   6   8
ENDBRANCH   5   6
ENDBRANCH   4   5
ENDBRANCH   3   4
ENDBRANCH   2   3
ENDBRANCH   1   2
BRANCH   1  18
HETATM   18  C12 UNL     1       0.718  -0.353   0.970  1.00  0.00     0.119 C 
BRANCH  18  19
HETATM   19  N3  UNL     1       1.962   0.210   0.547  1.00  0.00    -0.390 N 
ATOM     20  H3  UNL     1       2.229   1.119   0.925  1.00  0.00     0.159 HD
BRANCH  19  21
HETATM   21  C13 UNL     1       2.843  -0.413  -0.361  1.00  0.00     0.031 A 
HETATM   22  C14 UNL     1       2.700  -1.679  -0.839  1.00  0.00     0.046 A 
HETATM   23  C15 UNL     1       3.610  -2.243  -1.730  1.00  0.00     0.090 A 
HETATM   24  N4  UNL     1       4.673  -1.505  -2.132  1.00  0.00    -0.369 N 
HETATM   25  C16 UNL     1       4.848  -0.252  -1.681  1.00  0.00     0.015 A 
ATOM     26  H4  UNL     1       5.347  -1.905  -2.784  1.00  0.00     0.165 HD
HETATM   27  C24 UNL     1       3.956   0.306  -0.807  1.00  0.00     0.054 A 
BRANCH  25  28
HETATM   28  C17 UNL     1       6.020   0.522  -2.124  1.00  0.00     0.095 C 
BRANCH  28  29
HETATM   29  C18 UNL     1       7.135   0.315  -1.136  1.00  0.00    -0.053 A 
HETATM   30  C19 UNL     1       7.977  -0.747  -1.342  1.00  0.00     0.007 A 
HETATM   31  C20 UNL     1       9.003  -0.935  -0.423  1.00  0.00     0.001 A 
HETATM   32  C21 UNL     1       9.204  -0.117   0.662  1.00  0.00     0.000 A 
HETATM   33  C22 UNL     1       8.331   0.946   0.835  1.00  0.00     0.001 A 
HETATM   34  C23 UNL     1       7.294   1.166  -0.062  1.00  0.00     0.007 A 
ENDBRANCH  28  29
ENDBRANCH  25  28
ENDBRANCH  19  21
ENDBRANCH  18  19
ENDBRANCH   1  18
TORSDOF 12
