REMARK  11 active torsions:
REMARK  status: ('A' for Active; 'I' for Inactive)
REMARK    1  A    between atoms: C5_6  and  N2_7 
REMARK    2  A    between atoms: N2_7  and  C6_9 
REMARK    3  A    between atoms: C6_9  and  C7_10 
REMARK    4  A    between atoms: C7_10  and  C8_11 
REMARK    5  A    between atoms: C8_11  and  N3_12 
REMARK    6  A    between atoms: N3_12  and  C9_14 
REMARK    7  A    between atoms: C13_18  and  C14_19 
REMARK    8  A    between atoms: C14_19  and  N4_20 
REMARK    9  A    between atoms: N4_20  and  C15_23 
REMARK   10  A    between atoms: C15_23  and  C16_24 
REMARK   11  A    between atoms: C16_24  and  C17_25 
ROOT
HETATM    1  N1  UNL     1     -10.785   2.345   1.519  1.00  0.00    -0.191 NA
HETATM    2  C1  UNL     1      -9.934   1.820   0.937  1.00  0.00     0.099 C 
HETATM    3  C2  UNL     1      -8.853   1.186   0.201  1.00  0.00     0.044 A 
HETATM    4  C3  UNL     1      -7.588   1.732   0.250  1.00  0.00     0.025 A 
HETATM    5  C4  UNL     1      -6.507   1.154  -0.438  1.00  0.00     0.030 A 
HETATM    6  C5  UNL     1      -6.686   0.008  -1.191  1.00  0.00     0.028 A 
HETATM    7  C24 UNL     1      -7.963  -0.532  -1.230  1.00  0.00     0.030 A 
HETATM    8  C25 UNL     1      -9.035   0.046  -0.544  1.00  0.00     0.025 A 
ENDROOT
BRANCH   6   9
HETATM    9  N2  UNL     1      -5.577  -0.570  -1.888  1.00  0.00    -0.390 N 
ATOM     10  H2  UNL     1      -5.707  -1.052  -2.777  1.00  0.00     0.159 HD
BRANCH   9  11
HETATM   11  C6  UNL     1      -4.268  -0.447  -1.289  1.00  0.00     0.121 C 
BRANCH  11  12
HETATM   12  C7  UNL     1      -4.125  -1.616  -0.315  1.00  0.00     0.039 C 
BRANCH  12  13
HETATM   13  C8  UNL     1      -2.874  -1.437   0.479  1.00  0.00     0.121 C 
BRANCH  13  14
HETATM   14  N3  UNL     1      -1.642  -1.337  -0.232  1.00  0.00    -0.390 N 
ATOM     15  H3  UNL     1      -1.600  -1.473  -1.242  1.00  0.00     0.159 HD
BRANCH  14  16
HETATM   16  C9  UNL     1      -0.467  -1.038   0.527  1.00  0.00     0.028 A 
HETATM   17  C10 UNL     1      -0.583  -0.764   1.896  1.00  0.00     0.029 A 
HETATM   18  C11 UNL     1       0.519  -0.410   2.646  1.00  0.00     0.003 A 
HETATM   19  C12 UNL     1       1.758  -0.327   2.034  1.00  0.00     0.009 A 
HETATM   20  C13 UNL     1       1.889  -0.595   0.685  1.00  0.00    -0.031 A 
HETATM   21  C23 UNL     1       0.795  -0.951  -0.065  1.00  0.00     0.038 A 
BRANCH  20  22
HETATM   22  C14 UNL     1       3.191  -0.376   0.028  1.00  0.00     0.270 C 
BRANCH  22  23
HETATM   23  N4  UNL     1       4.211   0.025   0.969  1.00  0.00    -0.071 N 
ATOM     24  H42 UNL     1       3.872  -0.005   1.930  1.00  0.00     0.277 HD
ATOM     25  H41 UNL     1       4.951  -0.673   1.046  1.00  0.00     0.277 HD
BRANCH  23  26
HETATM   26  C15 UNL     1       4.721   1.289   0.637  1.00  0.00     0.237 C 
BRANCH  26  27
HETATM   27  C16 UNL     1       5.517   1.402  -0.603  1.00  0.00     0.066 C 
BRANCH  27  28
HETATM   28  C17 UNL     1       6.833   0.795  -0.528  1.00  0.00    -0.057 A 
HETATM   29  C18 UNL     1       7.898   1.671  -0.217  1.00  0.00     0.007 A 
HETATM   30  C19 UNL     1       9.163   1.244  -0.144  1.00  0.00     0.001 A 
HETATM   31  C20 UNL     1       9.419  -0.093  -0.382  1.00  0.00     0.000 A 
HETATM   32  C21 UNL     1       8.395  -0.971  -0.683  1.00  0.00     0.001 A 
HETATM   33  C22 UNL     1       7.097  -0.519  -0.756  1.00  0.00     0.007 A 
ENDBRANCH  27  28
ENDBRANCH  26  27
ENDBRANCH  23  26
ENDBRANCH  22  23
ENDBRANCH  20  22
ENDBRANCH  14  16
ENDBRANCH  13  14
ENDBRANCH  12  13
ENDBRANCH  11  12
ENDBRANCH   9  11
ENDBRANCH   6   9
TORSDOF 11
