REMARK  13 active torsions:
REMARK  status: ('A' for Active; 'I' for Inactive)
REMARK    1  A    between atoms: C2_2  and  C3_3 
REMARK    2  A    between atoms: C3_3  and  C4_4 
REMARK    3  A    between atoms: C4_4  and  N1_5 
REMARK    4  A    between atoms: N1_5  and  C5_7 
REMARK    5  A    between atoms: C6_10  and  C7_11 
REMARK    6  A    between atoms: C7_11  and  C8_12 
REMARK    7  A    between atoms: C11_15  and  C12_16 
REMARK    8  A    between atoms: C12_16  and  C13_17 
REMARK    9  A    between atoms: C13_17  and  C14_18 
REMARK   10  A    between atoms: C14_18  and  N3_19 
REMARK   11  A    between atoms: C17_25  and  C18_26 
REMARK   12  A    between atoms: C18_26  and  C19_27 
REMARK   13  A    between atoms: C19_27  and  C20_28 
ROOT
HETATM    1  C5  UNL     1      -1.567   1.645   1.099  1.00  0.00     0.171 C 
HETATM    2  N2  UNL     1      -0.939   2.087   0.074  1.00  0.00    -0.356 N 
ATOM      3  H2  UNL     1      -0.490   3.000   0.009  1.00  0.00     0.163 HD
HETATM    4  C6  UNL     1      -0.964   1.107  -0.962  1.00  0.00     0.111 C 
HETATM    5  C17 UNL     1      -1.299  -0.161  -0.268  1.00  0.00     0.107 C 
HETATM    6  N4  UNL     1      -2.064   0.336   0.856  1.00  0.00    -0.356 N 
ATOM      7  H4  UNL     1      -2.802  -0.150   1.365  1.00  0.00     0.163 HD
ENDROOT
BRANCH   4   8
HETATM    8  C7  UNL     1       0.252   1.069  -1.830  1.00  0.00     0.065 C 
BRANCH   8   9
HETATM    9  C8  UNL     1       1.501   0.782  -1.123  1.00  0.00    -0.056 A 
HETATM   10  C9  UNL     1       1.986  -0.487  -0.936  1.00  0.00     0.007 A 
HETATM   11  C10 UNL     1       3.182  -0.749  -0.260  1.00  0.00     0.007 A 
HETATM   12  C11 UNL     1       3.913   0.297   0.245  1.00  0.00    -0.058 A 
HETATM   13  C15 UNL     1       3.432   1.579   0.062  1.00  0.00     0.007 A 
HETATM   14  C16 UNL     1       2.263   1.808  -0.601  1.00  0.00     0.007 A 
BRANCH  12  15
HETATM   15  C12 UNL     1       5.180   0.046   0.951  1.00  0.00     0.040 C 
BRANCH  15  16
HETATM   16  C13 UNL     1       6.403   0.100   0.100  1.00  0.00     0.032 C 
BRANCH  16  17
HETATM   17  C14 UNL     1       6.445  -0.913  -1.013  1.00  0.00     0.230 C 
BRANCH  17  18
HETATM   18  N3  UNL     1       6.421  -2.265  -0.543  1.00  0.00    -0.079 N 
ATOM     19  H33 UNL     1       7.172  -2.430   0.127  1.00  0.00     0.274 HD
ATOM     20  H32 UNL     1       5.617  -2.425   0.064  1.00  0.00     0.274 HD
ATOM     21  H31 UNL     1       6.449  -2.951  -1.297  1.00  0.00     0.274 HD
ENDBRANCH  17  18
ENDBRANCH  16  17
ENDBRANCH  15  16
ENDBRANCH  12  15
ENDBRANCH   8   9
ENDBRANCH   4   8
BRANCH   5  22
HETATM   22  C18 UNL     1      -2.043  -1.168  -1.105  1.00  0.00     0.028 C 
BRANCH  22  23
HETATM   23  C19 UNL     1      -2.294  -2.373  -0.253  1.00  0.00     0.007 C 
BRANCH  23  24
HETATM   24  C20 UNL     1      -3.050  -3.456  -1.034  1.00  0.00    -0.014 C 
HETATM   25  C21 UNL     1      -3.299  -4.663  -0.168  1.00  0.00     0.004 C 
HETATM   26  C22 UNL     1      -3.181  -5.849  -1.110  1.00  0.00     0.000 C 
HETATM   27  C23 UNL     1      -1.993  -5.437  -1.959  1.00  0.00     0.000 C 
HETATM   28  C24 UNL     1      -2.214  -3.966  -2.181  1.00  0.00     0.004 C 
ENDBRANCH  23  24
ENDBRANCH  22  23
ENDBRANCH   5  22
BRANCH   1  29
HETATM   29  N1  UNL     1      -1.697   2.431   2.295  1.00  0.00    -0.362 N 
ATOM     30  H1  UNL     1      -1.137   2.169   3.107  1.00  0.00     0.162 HD
BRANCH  29  31
HETATM   31  C4  UNL     1      -2.566   3.558   2.410  1.00  0.00     0.122 C 
BRANCH  31  32
HETATM   32  C3  UNL     1      -2.107   4.719   1.551  1.00  0.00     0.019 C 
BRANCH  32  33
HETATM   33  C2  UNL     1      -3.056   5.878   1.710  1.00  0.00    -0.003 C 
HETATM   34  C1  UNL     1      -3.080   6.306   3.172  1.00  0.00     0.005 C 
ENDBRANCH  32  33
ENDBRANCH  31  32
ENDBRANCH  29  31
ENDBRANCH   1  29
TORSDOF 13
