REMARK  11 active torsions:
REMARK  status: ('A' for Active; 'I' for Inactive)
REMARK    1  A    between atoms: C2_4  and  C3_5 
REMARK    2  A    between atoms: N2_11  and  C9_12 
REMARK    3  A    between atoms: C12_15  and  N3_16 
REMARK    4  A    between atoms: N3_16  and  C13_18 
REMARK    5  A    between atoms: C13_18  and  C14_19 
REMARK    6  A    between atoms: C14_19  and  C15_20 
REMARK    7  A    between atoms: C15_20  and  C16_21 
REMARK    8  A    between atoms: C16_21  and  C17_22 
REMARK    9  A    between atoms: C17_22  and  C18_23 
REMARK   10  A    between atoms: C18_23  and  C19_24 
REMARK   11  A    between atoms: C19_24  and  C20_25 
ROOT
HETATM    1  C9  UNL     1      -2.651  -0.315   0.254  1.00  0.00     0.116 C 
HETATM    2  C10 UNL     1      -1.991   0.976   0.536  1.00  0.00     0.031 C 
HETATM    3  C11 UNL     1      -0.700   1.266  -0.134  1.00  0.00     0.056 C 
HETATM    4  C12 UNL     1      -0.281   0.367  -1.234  1.00  0.00     0.280 C 
HETATM    5  N5  UNL     1      -1.474  -0.166  -1.883  1.00  0.00    -0.053 N 
ATOM      6  H51 UNL     1      -1.293  -0.595  -2.791  1.00  0.00     0.279 HD
ATOM      7  H52 UNL     1      -2.117   0.552  -2.218  1.00  0.00     0.279 HD
HETATM    8  C23 UNL     1      -2.060  -1.071  -0.913  1.00  0.00     0.260 C 
ENDROOT
BRANCH   4   9
HETATM    9  N3  UNL     1       0.519  -0.753  -0.853  1.00  0.00    -0.396 N 
ATOM     10  H3  UNL     1       0.194  -1.714  -0.957  1.00  0.00     0.155 HD
BRANCH   9  11
HETATM   11  C13 UNL     1       1.818  -0.433  -0.311  1.00  0.00     0.115 C 
BRANCH  11  12
HETATM   12  C14 UNL     1       2.727   0.149  -1.347  1.00  0.00     0.019 C 
BRANCH  12  13
HETATM   13  C15 UNL     1       4.127   0.484  -0.808  1.00  0.00     0.005 C 
BRANCH  13  14
HETATM   14  C16 UNL     1       4.078   1.484   0.275  1.00  0.00     0.027 C 
BRANCH  14  15
HETATM   15  C17 UNL     1       5.367   1.930   0.815  1.00  0.00    -0.031 C 
BRANCH  15  16
HETATM   16  C18 UNL     1       6.299   1.041   1.502  1.00  0.00    -0.029 C 
BRANCH  16  17
HETATM   17  C19 UNL     1       6.911  -0.124   0.856  1.00  0.00     0.059 C 
BRANCH  17  18
HETATM   18  C20 UNL     1       7.717   0.151  -0.388  1.00  0.00     0.190 C 
HETATM   19  C21 UNL     1       8.263  -1.182  -0.908  1.00  0.00     0.060 C 
HETATM   20  C22 UNL     1       9.498  -0.797  -0.151  1.00  0.00     0.235 C 
HETATM   21  N4  UNL     1       9.088   0.572  -0.163  1.00  0.00    -0.070 N 
ATOM     22  H42 UNL     1       9.532   1.234  -0.800  1.00  0.00     0.277 HD
ATOM     23  H41 UNL     1       9.314   1.181   0.623  1.00  0.00     0.277 HD
ENDBRANCH  17  18
ENDBRANCH  16  17
ENDBRANCH  15  16
ENDBRANCH  14  15
ENDBRANCH  13  14
ENDBRANCH  12  13
ENDBRANCH  11  12
ENDBRANCH   9  11
ENDBRANCH   4   9
BRANCH   1  24
HETATM   24  N2  UNL     1      -4.082  -0.176  -0.021  1.00  0.00    -0.345 N 
HETATM   25  C1  UNL     1      -4.659   0.325  -1.130  1.00  0.00     0.183 A 
HETATM   26  N1  UNL     1      -6.004   0.273  -1.002  1.00  0.00    -0.354 N 
HETATM   27  C2  UNL     1      -6.279  -0.262   0.193  1.00  0.00     0.030 A 
ATOM     28  H1  UNL     1      -6.687   0.586  -1.693  1.00  0.00     0.166 HD
HETATM   29  C8  UNL     1      -5.067  -0.535   0.788  1.00  0.00     0.117 A 
BRANCH  27  30
HETATM   30  C3  UNL     1      -7.612  -0.530   0.771  1.00  0.00     0.037 C 
HETATM   31  C4  UNL     1      -8.319  -1.641  -0.034  1.00  0.00     0.011 C 
HETATM   32  C5  UNL     1      -9.688  -1.581   0.660  1.00  0.00     0.001 C 
HETATM   33  C6  UNL     1      -9.922  -0.083   0.869  1.00  0.00     0.001 C 
HETATM   34  C7  UNL     1      -8.584   0.591   0.644  1.00  0.00     0.011 C 
ENDBRANCH  27  30
ENDBRANCH   1  24
TORSDOF 11
