REMARK  11 active torsions:
REMARK  status: ('A' for Active; 'I' for Inactive)
REMARK    1  A    between atoms: C1_2  and  C2_3 
REMARK    2  A    between atoms: C2_3  and  C3_4 
REMARK    3  A    between atoms: C3_4  and  N1_5 
REMARK    4  A    between atoms: N1_5  and  C4_8 
REMARK    5  A    between atoms: C4_8  and  C5_9 
REMARK    6  A    between atoms: C5_9  and  C6_10 
REMARK    7  A    between atoms: C6_10  and  C7_11 
REMARK    8  A    between atoms: C7_11  and  N2_12 
REMARK    9  A    between atoms: N2_12  and  C8_15 
REMARK   10  A    between atoms: C8_15  and  C9_16 
REMARK   11  A    between atoms: C12_19  and  C13_20 
ROOT
HETATM    1  C9  UNL     1       1.105  -0.729  -0.618  1.00  0.00    -0.033 A 
HETATM    2  C10 UNL     1       1.743  -1.707   0.091  1.00  0.00     0.010 A 
HETATM    3  C11 UNL     1       3.121  -1.661   0.295  1.00  0.00     0.014 A 
HETATM    4  C12 UNL     1       3.873  -0.649  -0.201  1.00  0.00    -0.009 A 
HETATM    5  C22 UNL     1       3.214   0.345  -0.923  1.00  0.00     0.014 A 
HETATM    6  C23 UNL     1       1.866   0.303  -1.124  1.00  0.00     0.010 A 
ENDROOT
BRANCH   1   7
HETATM    7  C8  UNL     1      -0.373  -0.780  -0.846  1.00  0.00     0.270 C 
BRANCH   7   8
HETATM    8  N2  UNL     1      -1.009  -0.497   0.416  1.00  0.00    -0.071 N 
ATOM      9  H22 UNL     1      -0.687   0.393   0.797  1.00  0.00     0.277 HD
ATOM     10  H21 UNL     1      -0.668  -1.122   1.146  1.00  0.00     0.277 HD
BRANCH   8  11
HETATM   11  C7  UNL     1      -2.461  -0.535   0.332  1.00  0.00     0.232 C 
BRANCH  11  12
HETATM   12  C6  UNL     1      -2.934   0.633  -0.481  1.00  0.00     0.029 C 
BRANCH  12  13
HETATM   13  C5  UNL     1      -4.433   0.609  -0.592  1.00  0.00     0.029 C 
BRANCH  13  14
HETATM   14  C4  UNL     1      -5.055   0.702   0.753  1.00  0.00     0.232 C 
BRANCH  14  15
HETATM   15  N1  UNL     1      -6.514   0.707   0.695  1.00  0.00    -0.075 N 
ATOM     16  H12 UNL     1      -6.856   1.474   0.116  1.00  0.00     0.277 HD
ATOM     17  H11 UNL     1      -6.916   0.985   1.590  1.00  0.00     0.277 HD
BRANCH  15  18
HETATM   18  C3  UNL     1      -7.046  -0.541   0.259  1.00  0.00     0.233 C 
BRANCH  18  19
HETATM   19  C2  UNL     1      -8.549  -0.470   0.243  1.00  0.00     0.038 C 
BRANCH  19  20
HETATM   20  C1  UNL     1      -9.006   0.609  -0.700  1.00  0.00     0.088 C 
HETATM   21  S1  UNL     1      -8.427   2.261  -0.260  1.00  0.00    -0.098 SA
ENDBRANCH  19  20
ENDBRANCH  18  19
ENDBRANCH  15  18
ENDBRANCH  14  15
ENDBRANCH  13  14
ENDBRANCH  12  13
ENDBRANCH  11  12
ENDBRANCH   8  11
ENDBRANCH   7   8
ENDBRANCH   1   7
BRANCH   4  22
HETATM   22  C13 UNL     1       5.310  -0.524  -0.038  1.00  0.00     0.043 A 
HETATM   23  C14 UNL     1       6.050  -1.446   0.662  1.00  0.00     0.031 A 
HETATM   24  C15 UNL     1       7.427  -1.343   0.827  1.00  0.00     0.016 A 
HETATM   25  C16 UNL     1       8.064  -0.265   0.260  1.00  0.00    -0.009 A 
HETATM   26  C17 UNL     1       9.427  -0.068   0.363  1.00  0.00     0.013 A 
HETATM   27  C21 UNL     1       7.316   0.646  -0.434  1.00  0.00     0.043 A 
HETATM   28  C18 UNL     1      10.054   1.010  -0.208  1.00  0.00     0.001 A 
HETATM   29  C19 UNL     1       9.271   1.930  -0.913  1.00  0.00     0.002 A 
HETATM   30  C20 UNL     1       7.917   1.760  -1.031  1.00  0.00     0.030 A 
HETATM   31  N3  UNL     1       5.988   0.511  -0.571  1.00  0.00    -0.355 N 
ATOM     32  H3  UNL     1       5.474   1.217  -1.097  1.00  0.00     0.166 HD
ENDBRANCH   4  22
TORSDOF 11
