REMARK  15 active torsions:
REMARK  status: ('A' for Active; 'I' for Inactive)
REMARK    1  A    between atoms: N1_1  and  S1_4 
REMARK    2  A    between atoms: S1_4  and  N2_7 
REMARK    3  A    between atoms: N2_7  and  C1_9 
REMARK    4  A    between atoms: C1_9  and  C2_10 
REMARK    5  A    between atoms: C2_10  and  C3_11 
REMARK    6  A    between atoms: C3_11  and  C4_12 
REMARK    7  A    between atoms: C4_12  and  C5_13 
REMARK    8  A    between atoms: C5_13  and  C6_14 
REMARK    9  A    between atoms: C6_14  and  N3_15 
REMARK   10  A    between atoms: N3_15  and  C7_17 
REMARK   11  A    between atoms: C8_22  and  N6_23 
REMARK   12  A    between atoms: N6_23  and  C9_25 
REMARK   13  A    between atoms: C9_25  and  C10_26 
REMARK   14  A    between atoms: C12_28  and  C13_30 
REMARK   15  A    between atoms: C13_30  and  C14_32 
ROOT
HETATM    1  C7  UNL     1       0.565  -0.794  -0.595  1.00  0.00     0.707 A 
HETATM    2  N4  UNL     1       1.200  -1.237   0.504  1.00  0.00    -0.117 N 
ATOM      3  H4  UNL     1       0.731  -1.561   1.350  1.00  0.00     0.206 HD
HETATM    4  N5  UNL     1       2.510  -1.198   0.346  1.00  0.00    -0.117 N 
ATOM      5  H5  UNL     1       3.219  -1.478   1.024  1.00  0.00     0.206 HD
HETATM    6  C8  UNL     1       2.720  -0.714  -0.891  1.00  0.00     0.707 A 
HETATM    7  N7  UNL     1       1.530  -0.466  -1.471  1.00  0.00    -0.020 N 
ATOM      8  H7  UNL     1       1.386  -0.095  -2.410  1.00  0.00     0.203 HD
ENDROOT
BRANCH   1   9
HETATM    9  N3  UNL     1      -0.719  -0.687  -0.812  1.00  0.00    -0.224 N 
ATOM     10  H3  UNL     1      -1.034  -0.327  -1.713  1.00  0.00     0.177 HD
BRANCH   9  11
HETATM   11  C6  UNL     1      -1.703  -1.053   0.161  1.00  0.00     0.138 C 
BRANCH  11  12
HETATM   12  C5  UNL     1      -2.681   0.094   0.439  1.00  0.00     0.020 C 
BRANCH  12  13
HETATM   13  C4  UNL     1      -3.406   0.485  -0.837  1.00  0.00     0.002 C 
BRANCH  13  14
HETATM   14  C3  UNL     1      -4.199  -0.591  -1.452  1.00  0.00     0.002 C 
BRANCH  14  15
HETATM   15  C2  UNL     1      -5.279  -1.264  -0.721  1.00  0.00     0.020 C 
BRANCH  15  16
HETATM   16  C1  UNL     1      -6.471  -0.542  -0.247  1.00  0.00     0.133 C 
BRANCH  16  17
HETATM   17  N2  UNL     1      -6.232   0.469   0.710  1.00  0.00    -0.303 N 
ATOM     18  H2  UNL     1      -5.309   0.716   1.066  1.00  0.00     0.173 HD
BRANCH  17  19
HETATM   19  S1  UNL     1      -7.720   1.244   1.207  1.00  0.00     0.312 S 
HETATM   20  O1  UNL     1      -7.505   1.709   2.610  1.00  0.00    -0.183 OA
HETATM   21  O2  UNL     1      -8.840   0.255   1.176  1.00  0.00    -0.183 OA
BRANCH  19  22
HETATM   22  N1  UNL     1      -7.990   2.571   0.149  1.00  0.00    -0.312 N 
ATOM     23  H12 UNL     1      -7.999   3.544   0.455  1.00  0.00     0.170 HD
ATOM     24  H11 UNL     1      -8.137   2.253  -0.809  1.00  0.00     0.170 HD
ENDBRANCH  19  22
ENDBRANCH  17  19
ENDBRANCH  16  17
ENDBRANCH  15  16
ENDBRANCH  14  15
ENDBRANCH  13  14
ENDBRANCH  12  13
ENDBRANCH  11  12
ENDBRANCH   9  11
ENDBRANCH   1   9
BRANCH   6  25
HETATM   25  N6  UNL     1       3.856  -0.507  -1.469  1.00  0.00    -0.224 N 
ATOM     26  H6  UNL     1       3.892  -0.135  -2.418  1.00  0.00     0.177 HD
BRANCH  25  27
HETATM   27  C9  UNL     1       5.100  -0.815  -0.740  1.00  0.00     0.144 C 
BRANCH  27  28
HETATM   28  C10 UNL     1       5.406   0.401   0.074  1.00  0.00     0.032 A 
HETATM   29  C11 UNL     1       5.604   1.641  -0.848  1.00  0.00     0.037 A 
HETATM   30  C12 UNL     1       6.661   1.138   0.109  1.00  0.00     0.082 A 
HETATM   31 CL1  UNL     1       6.840   2.253   1.538  1.00  0.00    -0.115 Cl
BRANCH  30  32
HETATM   32  C13 UNL     1       7.981   0.640  -0.363  1.00  0.00     0.301 C 
HETATM   33  F1  UNL     1       8.882   1.720  -0.168  1.00  0.00    -0.238 F 
BRANCH  32  34
HETATM   34  C14 UNL     1       8.581  -0.453   0.507  1.00  0.00     0.419 C 
HETATM   35  F2  UNL     1       7.764  -1.535   0.557  1.00  0.00    -0.168 F 
HETATM   36  F3  UNL     1       8.814   0.101   1.760  1.00  0.00    -0.168 F 
HETATM   37  F4  UNL     1       9.822  -0.835   0.029  1.00  0.00    -0.168 F 
ENDBRANCH  32  34
ENDBRANCH  30  32
ENDBRANCH  27  28
ENDBRANCH  25  27
ENDBRANCH   6  25
TORSDOF 15
