REMARK  4 active torsions:
REMARK  status: ('A' for Active; 'I' for Inactive)
REMARK    1  A    between atoms: C2_2  and  N1_3 
REMARK    2  A    between atoms: C9_13  and  C10_14 
REMARK    3  A    between atoms: C10_14  and  S1_15 
REMARK    4  A    between atoms: S1_15  and  C11_17 
ROOT
HETATM    1  N1  UNL     1       0.472  -1.595   0.834  1.00  0.00    -0.380 N 
ATOM      2  H1  UNL     1       1.457  -1.468   0.600  1.00  0.00     0.160 HD
HETATM    3  C3  UNL     1      -0.371  -0.865   0.225  1.00  0.00     0.078 C 
HETATM    4  N2  UNL     1      -1.764  -1.011   0.528  1.00  0.00    -0.371 N 
ATOM      5  H2  UNL     1      -2.134  -1.888   0.893  1.00  0.00     0.161 HD
HETATM    6  C4  UNL     1      -2.640   0.141   0.296  1.00  0.00     0.024 C 
HETATM    7  C5  UNL     1      -3.444  -0.051  -0.992  1.00  0.00     0.038 C 
HETATM    8  C6  UNL     1      -3.662   0.280   1.415  1.00  0.00     0.038 C 
HETATM    9  C7  UNL     1      -1.835   1.396   0.270  1.00  0.00     0.031 C 
HETATM   10  C8  UNL     1      -0.675   1.426  -0.659  1.00  0.00     0.015 C 
HETATM   11  C9  UNL     1       0.056   0.112  -0.769  1.00  0.00     0.064 C 
ENDROOT
BRANCH  11  12
HETATM   12  C10 UNL     1       1.536   0.382  -0.801  1.00  0.00     0.121 C 
BRANCH  12  13
HETATM   13  S1  UNL     1       1.777   1.606  -2.104  1.00  0.00     0.015 S 
HETATM   14  O1  UNL     1       1.192   0.856  -3.517  1.00  0.00    -0.258 OA
BRANCH  13  15
HETATM   15  C11 UNL     1       3.528   1.849  -2.305  1.00  0.00     0.104 C 
HETATM   16  C12 UNL     1       4.169   2.344  -1.040  1.00  0.00     0.018 C 
ENDBRANCH  13  15
ENDBRANCH  12  13
ENDBRANCH  11  12
BRANCH   1  17
HETATM   17  C2  UNL     1       0.148  -2.596   1.836  1.00  0.00     0.116 C 
HETATM   18  C1  UNL     1       1.294  -3.554   1.978  1.00  0.00     0.026 C 
ENDBRANCH   1  17
TORSDOF 4
