REMARK  5 active torsions:
REMARK  status: ('A' for Active; 'I' for Inactive)
REMARK    1  A    between atoms: N1_5  and  C6_7 
REMARK    2  A    between atoms: C6_7  and  C7_8 
REMARK    3  A    between atoms: C7_8  and  N2_9 
REMARK    4  A    between atoms: N2_9  and  C8_12 
REMARK    5  A    between atoms: C8_12  and  C10_14 
ROOT
HETATM    1  N2  UNL     1       1.522  -0.530  -1.268  1.00  0.00    -0.068 N 
ATOM      2  H21 UNL     1       1.646   0.360  -1.751  1.00  0.00     0.277 HD
ATOM      3  H22 UNL     1       1.253  -1.120  -2.055  1.00  0.00     0.277 HD
ENDROOT
BRANCH   1   4
HETATM    4  C7  UNL     1       0.445  -0.439  -0.321  1.00  0.00     0.260 C 
BRANCH   4   5
HETATM    5  C6  UNL     1      -0.840   0.022  -0.946  1.00  0.00     0.264 C 
BRANCH   5   6
HETATM    6  N1  UNL     1      -1.935   0.129  -0.057  1.00  0.00    -0.069 N 
HETATM    7  C4  UNL     1      -2.908  -0.912  -0.422  1.00  0.00     0.237 C 
HETATM    8  C3  UNL     1      -4.140  -0.548   0.374  1.00  0.00     0.034 C 
HETATM    9  C2  UNL     1      -4.043   0.957   0.428  1.00  0.00     0.009 C 
HETATM   10  C1  UNL     1      -5.192   1.501  -0.432  1.00  0.00     0.011 C 
HETATM   11  C13 UNL     1      -2.740   1.316  -0.239  1.00  0.00     0.241 C 
HETATM   12  C5  UNL     1      -1.625  -0.081   1.333  1.00  0.00     0.272 C 
ENDBRANCH   5   6
ENDBRANCH   4   5
ENDBRANCH   1   4
BRANCH   1  13
HETATM   13  C8  UNL     1       2.757  -0.971  -0.718  1.00  0.00     0.206 C 
HETATM   14  C9  UNL     1       2.595  -2.356  -0.189  1.00  0.00     0.042 C 
BRANCH  13  15
HETATM   15  C10 UNL     1       3.367  -0.011   0.262  1.00  0.00     0.134 C 
HETATM   16  C11 UNL     1       4.666  -0.477   0.834  1.00  0.00     0.151 C 
HETATM   17  N3  UNL     1       5.509   0.704   0.944  1.00  0.00    -0.341 N 
HETATM   18  C12 UNL     1       4.910   1.770   0.219  1.00  0.00     0.316 C 
ATOM     19  H3  UNL     1       6.388   0.758   1.458  1.00  0.00     0.164 HD
HETATM   20  O1  UNL     1       5.414   2.922   0.147  1.00  0.00    -0.247 OA
HETATM   21  N4  UNL     1       3.721   1.249  -0.343  1.00  0.00    -0.335 N 
ATOM     22  H4  UNL     1       3.184   1.705  -1.080  1.00  0.00     0.164 HD
ENDBRANCH  13  15
ENDBRANCH   1  13
TORSDOF 5
