REMARK  4 active torsions:
REMARK  status: ('A' for Active; 'I' for Inactive)
REMARK    1  A    between atoms: C2_2  and  N1_3 
REMARK       I    between atoms: N1_3  and  C3_5 
REMARK       I    between atoms: C3_5  and  N3_9 
REMARK    2  A    between atoms: N3_9  and  C4_11 
REMARK    3  A    between atoms: C9_17  and  C10_18 
REMARK    4  A    between atoms: C10_18  and  N5_19 
ROOT
HETATM    1  C4  UNL     1       0.332   0.403   0.637  1.00  0.00     0.146 C 
HETATM    2  C5  UNL     1       1.229   0.409   1.849  1.00  0.00     0.033 C 
HETATM    3  C6  UNL     1       0.690  -0.406   2.987  1.00  0.00     0.022 C 
HETATM    4  C7  UNL     1      -0.162  -1.510   2.415  1.00  0.00     0.122 C 
HETATM    5  N4  UNL     1      -1.329  -0.866   1.859  1.00  0.00    -0.389 N 
HETATM    6  C8  UNL     1      -2.620  -1.252   2.256  1.00  0.00     0.149 C 
HETATM    7  C9  UNL     1      -1.077   0.073   0.987  1.00  0.00     0.034 C 
ENDROOT
BRANCH   1   8
HETATM    8  N3  UNL     1       0.914  -0.443  -0.363  1.00  0.00    -0.217 N 
HETATM    9  C3  UNL     1       2.211  -0.066  -0.861  1.00  0.00     0.668 C 
HETATM   10  N1  UNL     1       3.312  -0.950  -0.868  1.00  0.00    -0.227 N 
HETATM   11  N2  UNL     1       2.370   1.121  -1.315  1.00  0.00    -0.235 N 
ATOM     12  H1  UNL     1       3.328  -1.708  -0.185  1.00  0.00     0.177 HD
ATOM     13  H22 UNL     1       3.289   1.388  -1.668  1.00  0.00     0.174 HD
ATOM     14  H21 UNL     1       1.575   1.760  -1.310  1.00  0.00     0.174 HD
ATOM     15  H3  UNL     1       0.432  -1.274  -0.706  1.00  0.00     0.178 HD
BRANCH  10  16
HETATM   16  C2  UNL     1       4.419  -0.837  -1.793  1.00  0.00     0.133 C 
HETATM   17  C1  UNL     1       5.236   0.423  -1.492  1.00  0.00     0.027 C 
ENDBRANCH  10  16
ENDBRANCH   1   8
BRANCH   7  18
HETATM   18  C10 UNL     1      -2.224   0.763   0.424  1.00  0.00     0.290 C 
BRANCH  18  19
HETATM   19  N5  UNL     1      -2.515   0.638  -0.959  1.00  0.00    -0.074 N 
HETATM   20  C11 UNL     1      -2.459  -0.680  -1.503  1.00  0.00     0.272 C 
HETATM   21  C12 UNL     1      -3.918   1.084  -1.182  1.00  0.00     0.272 C 
HETATM   22  C13 UNL     1      -1.737   1.520  -1.819  1.00  0.00     0.272 C 
ENDBRANCH  18  19
ENDBRANCH   7  18
TORSDOF 4
