REMARK  4 active torsions:
REMARK  status: ('A' for Active; 'I' for Inactive)
REMARK    1  A    between atoms: N1_2  and  C2_3 
REMARK    2  A    between atoms: C2_3  and  C3_4 
REMARK    3  A    between atoms: C3_4  and  C4_5 
REMARK    4  A    between atoms: C4_5  and  N2_6 
REMARK       I    between atoms: N2_6  and  C5_8 
REMARK       I    between atoms: C5_8  and  N4_12 
ROOT
HETATM    1  C4  UNL     1      -0.774   0.383   0.521  1.00  0.00     0.139 C 
ENDROOT
BRANCH   1   2
HETATM    2  C3  UNL     1       0.566   0.550  -0.169  1.00  0.00     0.048 C 
BRANCH   2   3
HETATM    3  C2  UNL     1       1.475  -0.561   0.209  1.00  0.00     0.238 C 
BRANCH   3   4
HETATM    4  N1  UNL     1       2.781  -0.555  -0.354  1.00  0.00    -0.068 N 
HETATM    5  C1  UNL     1       2.733  -1.484  -1.501  1.00  0.00     0.272 C 
HETATM    6  C10 UNL     1       3.183   0.690  -0.954  1.00  0.00     0.256 C 
HETATM    7  C11 UNL     1       3.793   1.603   0.080  1.00  0.00     0.142 C 
HETATM    8  N5  UNL     1       5.067   1.012   0.392  1.00  0.00    -0.418 N 
HETATM    9  C12 UNL     1       5.043  -0.374   0.663  1.00  0.00     0.142 C 
ATOM     10  H5  UNL     1       5.929   1.557   0.416  1.00  0.00     0.153 HD
HETATM   11  C13 UNL     1       3.768  -1.095   0.541  1.00  0.00     0.256 C 
ENDBRANCH   3   4
ENDBRANCH   2   3
ENDBRANCH   1   2
BRANCH   1  12
HETATM   12  N2  UNL     1      -1.689   1.441   0.182  1.00  0.00    -0.227 N 
HETATM   13  C5  UNL     1      -2.999   1.482   0.716  1.00  0.00     0.669 C 
HETATM   14  N3  UNL     1      -3.446   2.424   1.470  1.00  0.00    -0.235 N 
HETATM   15  N4  UNL     1      -3.871   0.413   0.395  1.00  0.00    -0.218 N 
ATOM     16  H32 UNL     1      -2.818   3.194   1.701  1.00  0.00     0.174 HD
ATOM     17  H31 UNL     1      -4.390   2.454   1.855  1.00  0.00     0.174 HD
HETATM   18  C6  UNL     1      -4.649   0.342  -0.823  1.00  0.00     0.141 C 
HETATM   19  C9  UNL     1      -4.090  -0.734   1.240  1.00  0.00     0.141 C 
HETATM   20  C7  UNL     1      -5.394  -0.976  -0.714  1.00  0.00     0.022 C 
HETATM   21  C8  UNL     1      -5.428  -1.244   0.767  1.00  0.00     0.022 C 
ATOM     22  H2  UNL     1      -1.387   2.177  -0.457  1.00  0.00     0.177 HD
ENDBRANCH   1  12
TORSDOF 4
