REMARK  7 active torsions:
REMARK  status: ('A' for Active; 'I' for Inactive)
REMARK    1  A    between atoms: C4_8  and  C5_9 
REMARK    2  A    between atoms: C5_9  and  C6_10 
REMARK    3  A    between atoms: C6_10  and  N3_11 
REMARK    4  A    between atoms: C6_10  and  C7_15 
REMARK    5  A    between atoms: C7_15  and  N4_16 
REMARK    6  A    between atoms: N4_16  and  C8_18 
REMARK    7  A    between atoms: C8_18  and  N5_20 
ROOT
HETATM    1  C6  UNL     1      -0.685   1.249   1.011  1.00  0.00     0.203 C 
ENDROOT
BRANCH   1   2
HETATM    2  C5  UNL     1      -2.085   1.137   0.507  1.00  0.00     0.061 C 
BRANCH   2   3
HETATM    3  C4  UNL     1      -2.458  -0.183  -0.076  1.00  0.00     0.110 C 
HETATM    4  C2  UNL     1      -3.924  -0.070  -0.521  1.00  0.00     0.046 C 
HETATM    5  C1  UNL     1      -4.224  -0.946  -1.692  1.00  0.00     0.018 C 
HETATM    6  C3  UNL     1      -4.591  -0.539   0.756  1.00  0.00     0.086 C 
HETATM    7  N1  UNL     1      -3.619  -1.399   1.301  1.00  0.00    -0.319 N 
HETATM    8  N2  UNL     1      -2.482  -1.240   0.885  1.00  0.00    -0.332 N 
ATOM      9  H1  UNL     1      -3.849  -2.108   1.997  1.00  0.00     0.185 HD
ATOM     10  H2  UNL     1      -1.670  -1.782   1.180  1.00  0.00     0.180 HD
ENDBRANCH   2   3
ENDBRANCH   1   2
BRANCH   1  11
HETATM   11  N3  UNL     1      -0.526   2.606   1.536  1.00  0.00    -0.073 N 
ATOM     12  H33 UNL     1      -0.767   3.329   0.858  1.00  0.00     0.274 HD
ATOM     13  H32 UNL     1      -1.225   2.848   2.238  1.00  0.00     0.274 HD
ATOM     14  H31 UNL     1       0.431   2.683   1.881  1.00  0.00     0.274 HD
ENDBRANCH   1  11
BRANCH   1  15
HETATM   15  C7  UNL     1       0.286   0.966  -0.084  1.00  0.00     0.154 C 
BRANCH  15  16
HETATM   16  N4  UNL     1       1.659   1.057   0.324  1.00  0.00    -0.364 N 
ATOM     17  H4  UNL     1       1.881   1.298   1.290  1.00  0.00     0.162 HD
BRANCH  16  18
HETATM   18  C8  UNL     1       2.707   0.819  -0.590  1.00  0.00     0.186 C 
HETATM   19  S1  UNL     1       2.351   0.431  -2.147  1.00  0.00    -0.040 SA
BRANCH  18  20
HETATM   20  N5  UNL     1       4.066   0.907  -0.195  1.00  0.00    -0.279 N 
HETATM   21  N6  UNL     1       4.819  -0.063   0.032  1.00  0.00    -0.334 N 
HETATM   22  C9  UNL     1       4.365  -1.435  -0.089  1.00  0.00     0.170 C 
HETATM   23  C10 UNL     1       6.179   0.176   0.426  1.00  0.00     0.170 C 
ATOM     24  H5  UNL     1       4.462   1.841  -0.087  1.00  0.00     0.189 HD
ENDBRANCH  18  20
ENDBRANCH  16  18
ENDBRANCH  15  16
ENDBRANCH   1  15
TORSDOF 7
