REMARK  6 active torsions:
REMARK  status: ('A' for Active; 'I' for Inactive)
REMARK    1  A    between atoms: C5_6  and  C6_7 
REMARK    2  A    between atoms: C6_7  and  N2_8 
REMARK    3  A    between atoms: N2_8  and  C7_10 
REMARK    4  A    between atoms: C7_10  and  N3_12 
REMARK    5  A    between atoms: N3_12  and  C8_14 
REMARK    6  A    between atoms: C8_14  and  C9_15 
ROOT
HETATM    1  N2  UNL     1       1.239  -0.855   0.742  1.00  0.00    -0.367 N 
ATOM      2  H2  UNL     1       0.745  -1.324   1.501  1.00  0.00     0.161 HD
ENDROOT
BRANCH   1   3
HETATM    3  C6  UNL     1       0.524   0.124  -0.056  1.00  0.00     0.126 C 
BRANCH   3   4
HETATM    4  C5  UNL     1      -0.908   0.252   0.407  1.00  0.00     0.006 C 
HETATM    5  C4  UNL     1      -1.686  -1.017   0.304  1.00  0.00     0.034 C 
HETATM    6  C3  UNL     1      -2.903  -0.887  -0.585  1.00  0.00     0.237 C 
HETATM    7  N1  UNL     1      -3.784   0.130  -0.048  1.00  0.00    -0.075 N 
HETATM    8  C1  UNL     1      -4.786   0.559  -1.006  1.00  0.00     0.272 C 
HETATM    9  C2  UNL     1      -4.502  -0.462   1.079  1.00  0.00     0.272 C 
HETATM   10  C12 UNL     1      -3.069   1.327   0.362  1.00  0.00     0.237 C 
HETATM   11  C11 UNL     1      -1.668   1.354  -0.269  1.00  0.00     0.034 C 
ENDBRANCH   3   4
ENDBRANCH   1   3
BRANCH   1  12
HETATM   12  C7  UNL     1       2.596  -1.183   0.506  1.00  0.00     0.167 C 
HETATM   13  S1  UNL     1       3.386  -2.273   1.416  1.00  0.00    -0.041 SA
BRANCH  12  14
HETATM   14  N3  UNL     1       3.284  -0.546  -0.553  1.00  0.00    -0.365 N 
ATOM     15  H3  UNL     1       2.775   0.132  -1.120  1.00  0.00     0.161 HD
BRANCH  14  16
HETATM   16  C8  UNL     1       4.672  -0.804  -0.877  1.00  0.00     0.156 C 
BRANCH  16  17
HETATM   17  C9  UNL     1       5.567  -0.244   0.227  1.00  0.00     0.229 A 
HETATM   18  C10 UNL     1       5.470   1.199   0.462  1.00  0.00     0.267 A 
HETATM   19  N4  UNL     1       6.678   0.589  -0.165  1.00  0.00    -0.066 N 
ATOM     20  H42 UNL     1       7.678   0.599   0.034  1.00  0.00     0.277 HD
ATOM     21  H41 UNL     1       7.197   0.740  -1.030  1.00  0.00     0.277 HD
ENDBRANCH  16  17
ENDBRANCH  14  16
ENDBRANCH  12  14
ENDBRANCH   1  12
TORSDOF 6
