REMARK  5 active torsions:
REMARK  status: ('A' for Active; 'I' for Inactive)
REMARK    1  A    between atoms: N1_2  and  N2_4 
REMARK    2  A    between atoms: C2_6  and  C3_7 
REMARK    3  A    between atoms: C2_6  and  O1_14 
REMARK    4  A    between atoms: C3_7  and  N3_8 
REMARK    5  A    between atoms: O1_14  and  C9_15 
ROOT
HETATM    1  N2  UNL     1      -0.458   1.728  -0.090  1.00  0.00    -0.287 N 
ATOM      2  H2  UNL     1      -1.362   1.883   0.357  1.00  0.00     0.188 HD
HETATM    3  C2  UNL     1       0.045   0.567  -0.138  1.00  0.00     0.159 C 
ENDROOT
BRANCH   3   4
HETATM    4  C3  UNL     1       1.366   0.383  -0.795  1.00  0.00     0.322 C 
BRANCH   4   5
HETATM    5  N3  UNL     1       2.377  -0.134   0.049  1.00  0.00    -0.064 N 
HETATM    6  C4  UNL     1       1.943  -0.597   1.331  1.00  0.00     0.273 C 
HETATM    7  C5  UNL     1       3.457   0.831   0.295  1.00  0.00     0.237 C 
HETATM    8  C6  UNL     1       4.640  -0.020   0.678  1.00  0.00     0.029 C 
HETATM    9  C7  UNL     1       4.360  -1.402   0.155  1.00  0.00     0.029 C 
HETATM   10  C8  UNL     1       3.085  -1.217  -0.622  1.00  0.00     0.237 C 
ENDBRANCH   4   5
ENDBRANCH   3   4
BRANCH   3  11
HETATM   11  O1  UNL     1      -0.665  -0.446   0.422  1.00  0.00    -0.331 OA
BRANCH  11  12
HETATM   12  C9  UNL     1      -1.992  -0.756   0.406  1.00  0.00     0.130 C 
HETATM   13  C10 UNL     1      -2.996   0.169   0.977  1.00  0.00     0.032 C 
HETATM   14  C11 UNL     1      -4.190  -0.681   1.445  1.00  0.00     0.002 C 
HETATM   15  C12 UNL     1      -4.429  -1.814   0.501  1.00  0.00     0.000 C 
HETATM   16  C13 UNL     1      -3.938  -1.559  -0.887  1.00  0.00     0.002 C 
HETATM   17  C14 UNL     1      -2.488  -1.213  -0.972  1.00  0.00     0.032 C 
ENDBRANCH  11  12
ENDBRANCH   3  11
BRANCH   1  18
HETATM   18  N1  UNL     1       0.244   2.794  -0.658  1.00  0.00    -0.339 N 
HETATM   19  C1  UNL     1      -0.243   3.573  -1.778  1.00  0.00     0.167 C 
ATOM     20  H1  UNL     1       1.152   3.038  -0.261  1.00  0.00     0.179 HD
ENDBRANCH   1  18
TORSDOF 5
