REMARK  13 active torsions:
REMARK  status: ('A' for Active; 'I' for Inactive)
REMARK    1  A    between atoms: C2_2  and  C3_3 
REMARK    2  A    between atoms: C3_3  and  N1_4 
REMARK       I    between atoms: N1_4  and  C4_6 
REMARK    3  A    between atoms: C4_6  and  C5_8 
REMARK       I    between atoms: C5_8  and  N2_10 
REMARK    4  A    between atoms: C8_13  and  C9_14 
REMARK       I    between atoms: C9_14  and  N3_16 
REMARK    5  A    between atoms: C14_21  and  C15_22 
REMARK    6  A    between atoms: C15_22  and  N4_24 
REMARK    7  A    between atoms: C20_28  and  C21_29 
REMARK    8  A    between atoms: C21_29  and  N5_30 
REMARK    9  A    between atoms: N6_33  and  C23_34 
REMARK   10  A    between atoms: C26_37  and  C27_38 
REMARK   11  A    between atoms: C29_40  and  O5_41 
REMARK   12  A    between atoms: C29_40  and  C30_43 
REMARK   13  A    between atoms: C30_43  and  C31_44 
ROOT
HETATM    1  N4  UNL     1       0.246   1.672   1.325  1.00  0.00     0.101 N 
HETATM    2  C17 UNL     1       0.007   3.034   1.641  1.00  0.00     0.273 C 
HETATM    3  C18 UNL     1      -1.036   2.970   2.776  1.00  0.00     0.032 C 
HETATM    4  C19 UNL     1      -1.556   1.549   2.706  1.00  0.00     0.039 C 
HETATM    5  C20 UNL     1      -1.069   1.031   1.381  1.00  0.00     0.242 C 
ENDROOT
BRANCH   1   6
HETATM    6  C15 UNL     1       1.041   1.321   0.217  1.00  0.00     0.242 C 
HETATM    7  C16 UNL     1       1.094  -0.241   0.276  1.00  0.00     0.045 C 
BRANCH   6   8
HETATM    8  C14 UNL     1       2.484   1.811   0.265  1.00  0.00     0.120 C 
HETATM    9  N3  UNL     1       3.275   1.241  -0.842  1.00  0.00    -0.344 N 
HETATM   10  C9  UNL     1       4.393   0.415  -0.654  1.00  0.00     0.243 C 
HETATM   11  C10 UNL     1       2.883   1.591  -2.211  1.00  0.00     0.126 C 
HETATM   12  O3  UNL     1       5.034  -0.023  -1.671  1.00  0.00    -0.271 OA
HETATM   13  C11 UNL     1       3.039   3.110  -2.391  1.00  0.00     0.020 C 
HETATM   14  C12 UNL     1       3.553   3.643  -1.067  1.00  0.00     0.004 C 
HETATM   15  C13 UNL     1       2.549   3.341   0.040  1.00  0.00     0.027 C 
BRANCH  10  16
HETATM   16  C8  UNL     1       4.928  -0.016   0.665  1.00  0.00     0.181 C 
HETATM   17  N2  UNL     1       6.122  -0.822   0.592  1.00  0.00    -0.330 N 
HETATM   18  C5  UNL     1       6.526  -2.041  -0.021  1.00  0.00     0.312 C 
HETATM   19  C6  UNL     1       6.805   0.139   1.421  1.00  0.00     0.130 C 
HETATM   20  O2  UNL     1       5.659  -2.670  -0.698  1.00  0.00    -0.262 OA
HETATM   21  C7  UNL     1       5.639   1.065   1.402  1.00  0.00     0.055 C 
BRANCH  18  22
HETATM   22  C4  UNL     1       7.869  -2.574   0.100  1.00  0.00     0.309 C 
HETATM   23  N1  UNL     1       8.236  -3.778  -0.524  1.00  0.00    -0.349 N 
ATOM     24  H1  UNL     1       7.535  -4.280  -1.069  1.00  0.00     0.163 HD
HETATM   25  O1  UNL     1       8.701  -1.921   0.784  1.00  0.00    -0.262 OA
BRANCH  23  26
HETATM   26  C3  UNL     1       9.562  -4.333  -0.426  1.00  0.00     0.149 C 
BRANCH  26  27
HETATM   27  C2  UNL     1      10.611  -3.438  -0.965  1.00  0.00    -0.018 C 
HETATM   28  C1  UNL     1      11.380  -3.825  -1.973  1.00  0.00     0.008 C 
ENDBRANCH  26  27
ENDBRANCH  23  26
ENDBRANCH  18  22
ENDBRANCH  10  16
ENDBRANCH   6   8
ENDBRANCH   1   6
BRANCH   5  29
HETATM   29  C21 UNL     1      -1.915   1.372   0.210  1.00  0.00     0.172 C 
BRANCH  29  30
HETATM   30  N5  UNL     1      -3.235   0.827   0.185  1.00  0.00    -0.265 N 
HETATM   31  C22 UNL     1      -4.298   1.644   0.761  1.00  0.00     0.327 C 
HETATM   32  O4  UNL     1      -4.050   2.893   0.750  1.00  0.00    -0.247 OA
HETATM   33  N6  UNL     1      -5.535   1.196   1.309  1.00  0.00    -0.334 N 
HETATM   34  C25 UNL     1      -6.050  -0.120   1.093  1.00  0.00     0.135 C 
HETATM   35  C26 UNL     1      -6.047  -0.632  -0.328  1.00  0.00     0.047 C 
HETATM   36  C29 UNL     1      -4.783  -1.024  -0.910  1.00  0.00     0.144 C 
HETATM   37  C34 UNL     1      -3.517  -0.450  -0.366  1.00  0.00     0.263 C 
HETATM   38  O6  UNL     1      -2.534  -1.219  -0.401  1.00  0.00    -0.269 OA
BRANCH  33  39
HETATM   39  C23 UNL     1      -6.211   2.172   2.120  1.00  0.00     0.123 C 
HETATM   40  C24 UNL     1      -7.157   3.073   1.415  1.00  0.00     0.026 C 
ENDBRANCH  33  39
BRANCH  35  41
HETATM   41  C27 UNL     1      -6.862   0.424  -1.099  1.00  0.00     0.005 C 
HETATM   42  C28 UNL     1      -7.073   0.119  -2.549  1.00  0.00     0.005 C 
ENDBRANCH  35  41
BRANCH  36  43
HETATM   43  O5  UNL     1      -4.733  -0.510  -2.264  1.00  0.00    -0.380 OA
ATOM     44  H5  UNL     1      -3.902  -0.768  -2.646  1.00  0.00     0.211 HD
ENDBRANCH  36  43
BRANCH  36  45
HETATM   45  C30 UNL     1      -4.512  -2.482  -1.132  1.00  0.00     0.052 C 
BRANCH  45  46
HETATM   46  C31 UNL     1      -4.484  -3.415   0.003  1.00  0.00    -0.019 C 
HETATM   47  C32 UNL     1      -4.096  -4.797  -0.652  1.00  0.00     0.009 C 
HETATM   48  C33 UNL     1      -5.848  -3.755   0.608  1.00  0.00     0.009 C 
ENDBRANCH  45  46
ENDBRANCH  36  45
ENDBRANCH  29  30
ENDBRANCH   5  29
TORSDOF 13
