REMARK  13 active torsions:
REMARK  status: ('A' for Active; 'I' for Inactive)
REMARK    1  A    between atoms: C2_2  and  C4_4 
REMARK    2  A    between atoms: C4_4  and  C5_5 
REMARK    3  A    between atoms: C6_6  and  O1_7 
REMARK    4  A    between atoms: N1_9  and  C7_10 
REMARK    5  A    between atoms: C7_10  and  C8_11 
REMARK    6  A    between atoms: C8_11  and  N2_12 
REMARK    7  A    between atoms: N3_15  and  C11_16 
REMARK    8  A    between atoms: C11_16  and  C12_17 
REMARK    9  A    between atoms: C12_17  and  N4_18 
REMARK   10  A    between atoms: N6_36  and  C25_37 
REMARK   11  A    between atoms: C25_37  and  C26_38 
REMARK   12  A    between atoms: C25_37  and  C33_48 
REMARK       I    between atoms: C26_38  and  N7_40 
REMARK   13  A    between atoms: N7_40  and  C27_42 
ROOT
HETATM    1  C5  UNL     1      -1.896  -1.195   0.731  1.00  0.00     0.063 C 
HETATM    2  C6  UNL     1      -0.477  -1.510   0.911  1.00  0.00     0.160 C 
HETATM    3  N1  UNL     1       0.579  -1.993   0.124  1.00  0.00    -0.353 N 
HETATM    4  C18 UNL     1       0.700  -2.118  -1.265  1.00  0.00     0.098 C 
HETATM    5  C19 UNL     1       1.195  -3.485  -1.736  1.00  0.00     0.026 C 
HETATM    6  C20 UNL     1       0.330  -4.621  -1.316  1.00  0.00     0.009 C 
HETATM    7  C21 UNL     1      -1.091  -4.361  -1.768  1.00  0.00     0.079 C 
HETATM    8  C22 UNL     1      -1.172  -3.089  -2.551  1.00  0.00     0.134 C 
HETATM    9  O2  UNL     1      -1.803  -3.103  -3.577  1.00  0.00    -0.297 OA
HETATM   10  C23 UNL     1      -0.518  -1.851  -2.112  1.00  0.00     0.092 C 
HETATM   11  C24 UNL     1      -1.314  -0.807  -1.476  1.00  0.00     0.116 C 
HETATM   12  N6  UNL     1      -2.390  -1.208  -0.584  1.00  0.00    -0.244 NA
ENDROOT
BRANCH   3  13
HETATM   13  C7  UNL     1       1.708  -2.451   0.899  1.00  0.00     0.145 C 
BRANCH  13  14
HETATM   14  C8  UNL     1       2.704  -1.423   1.293  1.00  0.00     0.145 C 
BRANCH  14  15
HETATM   15  N2  UNL     1       3.390  -0.717   0.263  1.00  0.00    -0.355 N 
HETATM   16  C9  UNL     1       4.392  -1.194  -0.685  1.00  0.00     0.145 C 
HETATM   17  C10 UNL     1       5.259   0.035  -0.931  1.00  0.00     0.145 C 
HETATM   18  N3  UNL     1       4.475   1.158  -0.563  1.00  0.00    -0.355 N 
HETATM   19  C17 UNL     1       3.231   0.673  -0.040  1.00  0.00     0.172 C 
HETATM   20  S1  UNL     1       1.885   1.575   0.165  1.00  0.00    -0.041 SA
BRANCH  18  21
HETATM   21  C11 UNL     1       4.798   2.580  -0.645  1.00  0.00     0.155 C 
BRANCH  21  22
HETATM   22  C12 UNL     1       5.845   2.907   0.371  1.00  0.00     0.292 C 
BRANCH  22  23
HETATM   23  N4  UNL     1       7.047   2.174   0.138  1.00  0.00     0.093 N 
HETATM   24  C13 UNL     1       7.998   2.373   1.243  1.00  0.00     0.300 C 
HETATM   25  C14 UNL     1       9.134   3.268   0.876  1.00  0.00     0.262 C 
HETATM   26  N5  UNL     1       9.898   2.765  -0.255  1.00  0.00    -0.072 N 
HETATM   27  C15 UNL     1       9.048   2.034  -1.163  1.00  0.00     0.262 C 
ATOM     28  H52 UNL     1      10.404   3.512  -0.731  1.00  0.00     0.277 HD
ATOM     29  H51 UNL     1      10.696   2.206   0.047  1.00  0.00     0.277 HD
HETATM   30  C16 UNL     1       7.659   2.677  -1.099  1.00  0.00     0.300 C 
ENDBRANCH  22  23
ENDBRANCH  21  22
ENDBRANCH  18  21
ENDBRANCH  14  15
ENDBRANCH  13  14
ENDBRANCH   3  13
BRANCH   2  31
HETATM   31  O1  UNL     1      -0.135  -1.259   2.141  1.00  0.00    -0.345 OA
ATOM     32  H1  UNL     1       0.785  -1.463   2.258  1.00  0.00     0.219 HD
ENDBRANCH   2  31
BRANCH   1  33
HETATM   33  C4  UNL     1      -2.650  -1.747   1.863  1.00  0.00     0.005 C 
BRANCH  33  34
HETATM   34  C2  UNL     1      -2.766  -3.158   2.190  1.00  0.00     0.002 C 
HETATM   35  C1  UNL     1      -1.555  -3.967   2.523  1.00  0.00     0.013 C 
HETATM   36  C3  UNL     1      -3.697  -3.351   3.420  1.00  0.00     0.013 C 
ENDBRANCH  33  34
ENDBRANCH   1  33
BRANCH  12  37
HETATM   37  C25 UNL     1      -3.557  -0.485  -0.964  1.00  0.00     0.064 C 
BRANCH  37  38
HETATM   38  C26 UNL     1      -3.472   0.993  -0.723  1.00  0.00     0.259 C 
HETATM   39  O3  UNL     1      -2.343   1.558  -0.698  1.00  0.00    -0.267 OA
HETATM   40  N7  UNL     1      -4.556   1.864  -0.509  1.00  0.00    -0.352 N 
ATOM     41  H7  UNL     1      -5.495   1.466  -0.511  1.00  0.00     0.163 HD
BRANCH  40  42
HETATM   42  C27 UNL     1      -4.425   3.285  -0.287  1.00  0.00     0.084 C 
HETATM   43  C28 UNL     1      -5.238   4.130  -1.198  1.00  0.00     0.025 C 
HETATM   44  C29 UNL     1      -6.097   5.106  -0.437  1.00  0.00     0.002 C 
HETATM   45  C30 UNL     1      -6.925   4.456   0.635  1.00  0.00     0.000 C 
HETATM   46  C31 UNL     1      -6.103   3.620   1.568  1.00  0.00     0.002 C 
HETATM   47  C32 UNL     1      -4.663   3.671   1.157  1.00  0.00     0.025 C 
ENDBRANCH  40  42
ENDBRANCH  37  38
BRANCH  37  48
HETATM   48  C33 UNL     1      -4.887  -1.055  -1.055  1.00  0.00     0.028 C 
HETATM   49  C34 UNL     1      -5.621  -1.648   0.074  1.00  0.00     0.016 C 
HETATM   50  C35 UNL     1      -4.953  -2.013  -2.286  1.00  0.00     0.016 C 
ENDBRANCH  37  48
ENDBRANCH  12  37
TORSDOF 13
