REMARK  13 active torsions:
REMARK  status: ('A' for Active; 'I' for Inactive)
REMARK       I    between atoms: C2_2  and  N1_4 
REMARK    1  A    between atoms: N1_4  and  C3_6 
REMARK       I    between atoms: N2_9  and  C6_10 
REMARK    2  A    between atoms: C6_10  and  C7_12 
REMARK       I    between atoms: N3_16  and  C11_17 
REMARK    3  A    between atoms: C11_17  and  C12_19 
REMARK    4  A    between atoms: C12_19  and  N4_20 
REMARK    5  A    between atoms: N4_20  and  C13_21 
REMARK       I    between atoms: N4_20  and  C27_41 
REMARK    6  A    between atoms: C13_21  and  C14_22 
REMARK    7  A    between atoms: C14_22  and  C16_24 
REMARK    8  A    between atoms: C16_24  and  C17_25 
REMARK       I    between atoms: C17_25  and  N5_27 
REMARK    9  A    between atoms: N5_27  and  C18_29 
REMARK   10  A    between atoms: C18_29  and  C19_30 
REMARK   11  A    between atoms: C19_30  and  N6_31 
REMARK   12  A    between atoms: C25_37  and  C26_38 
REMARK   13  A    between atoms: C27_41  and  C28_43 
ROOT
HETATM    1  N4  UNL     1      -0.187  -1.526   0.169  1.00  0.00    -0.342 N 
HETATM    2  C27 UNL     1      -0.732  -2.762   0.549  1.00  0.00     0.227 C 
HETATM    3  O7  UNL     1      -1.982  -2.716   0.900  1.00  0.00    -0.273 OA
ENDROOT
BRANCH   1   4
HETATM    4  C12 UNL     1       1.151  -1.403  -0.312  1.00  0.00     0.228 C 
BRANCH   4   5
HETATM    5  C11 UNL     1       1.274  -1.473  -1.801  1.00  0.00     0.238 C 
HETATM    6  N3  UNL     1       2.570  -1.397  -2.358  1.00  0.00    -0.337 N 
HETATM    7  C7  UNL     1       3.810  -1.228  -1.637  1.00  0.00     0.179 C 
HETATM    8  C10 UNL     1       2.862  -1.497  -3.761  1.00  0.00     0.127 C 
HETATM    9  C8  UNL     1       4.700  -2.230  -2.393  1.00  0.00     0.037 C 
HETATM   10  C9  UNL     1       4.285  -1.939  -3.827  1.00  0.00     0.022 C 
HETATM   11  O3  UNL     1       0.285  -1.596  -2.538  1.00  0.00    -0.272 OA
BRANCH   7  12
HETATM   12  C6  UNL     1       4.433   0.097  -1.815  1.00  0.00     0.242 C 
HETATM   13  N2  UNL     1       5.528   0.490  -1.038  1.00  0.00    -0.350 N 
HETATM   14  C5  UNL     1       6.076  -0.358  -0.012  1.00  0.00     0.128 C 
HETATM   15  C32 UNL     1       6.190   1.788  -1.223  1.00  0.00     0.128 C 
HETATM   16  C4  UNL     1       6.653   0.614   1.042  1.00  0.00     0.045 C 
HETATM   17  C3  UNL     1       7.909   1.168   0.398  1.00  0.00     0.087 C 
HETATM   18  C33 UNL     1       7.672   1.552  -1.034  1.00  0.00     0.045 C 
HETATM   19  O2  UNL     1       3.936   0.864  -2.699  1.00  0.00    -0.271 OA
BRANCH  17  20
HETATM   20  N1  UNL     1       8.368   2.337   1.116  1.00  0.00    -0.357 N 
HETATM   21  C2  UNL     1       9.627   2.332   1.777  1.00  0.00     0.213 C 
HETATM   22  C1  UNL     1      10.139   3.508   2.523  1.00  0.00     0.117 C 
HETATM   23  O1  UNL     1      10.331   1.299   1.729  1.00  0.00    -0.274 OA
ATOM     24  H1  UNL     1       7.783   3.172   1.148  1.00  0.00     0.162 HD
ENDBRANCH  17  20
ENDBRANCH   7  12
ENDBRANCH   4   5
ENDBRANCH   1   4
BRANCH   1  25
HETATM   25  C13 UNL     1      -1.070  -0.338   0.269  1.00  0.00     0.131 C 
BRANCH  25  26
HETATM   26  C14 UNL     1      -1.048   0.281   1.629  1.00  0.00     0.008 C 
HETATM   27  C15 UNL     1       0.364   0.738   2.012  1.00  0.00     0.012 C 
BRANCH  26  28
HETATM   28  C16 UNL     1      -1.940   1.459   1.818  1.00  0.00     0.108 C 
BRANCH  28  29
HETATM   29  C17 UNL     1      -3.387   1.223   1.641  1.00  0.00     0.217 C 
HETATM   30  O4  UNL     1      -3.832   0.048   1.428  1.00  0.00    -0.274 OA
HETATM   31  N5  UNL     1      -4.311   2.301   1.704  1.00  0.00    -0.359 N 
ATOM     32  H5  UNL     1      -3.959   3.242   1.881  1.00  0.00     0.162 HD
BRANCH  31  33
HETATM   33  C18 UNL     1      -5.723   2.110   1.527  1.00  0.00     0.150 C 
BRANCH  33  34
HETATM   34  C19 UNL     1      -6.021   1.603   0.168  1.00  0.00     0.258 C 
BRANCH  34  35
HETATM   35  N6  UNL     1      -7.395   1.355  -0.119  1.00  0.00    -0.051 N 
HETATM   36  C20 UNL     1      -7.686  -0.063  -0.292  1.00  0.00     0.239 C 
HETATM   37  C21 UNL     1      -8.916  -0.167  -1.169  1.00  0.00     0.035 C 
HETATM   38  C22 UNL     1      -9.282   1.322  -1.289  1.00  0.00     0.031 C 
HETATM   39  C23 UNL     1      -9.697   1.737   0.074  1.00  0.00     0.035 C 
HETATM   40  C25 UNL     1      -7.865   1.867  -1.388  1.00  0.00     0.294 C 
HETATM   41  C24 UNL     1      -8.352   1.861   0.807  1.00  0.00     0.239 C 
BRANCH  40  42
HETATM   42  C26 UNL     1      -7.786   3.293  -1.583  1.00  0.00     0.205 C 
HETATM   43  O5  UNL     1      -8.215   3.739  -2.708  1.00  0.00    -0.646 OA
HETATM   44  O6  UNL     1      -7.312   4.268  -0.735  1.00  0.00    -0.646 OA
ENDBRANCH  40  42
ENDBRANCH  34  35
ENDBRANCH  33  34
ENDBRANCH  31  33
ENDBRANCH  28  29
ENDBRANCH  26  28
ENDBRANCH  25  26
ENDBRANCH   1  25
BRANCH   2  45
HETATM   45  C28 UNL     1      -0.137  -4.086   0.624  1.00  0.00     0.030 C 
HETATM   46  C29 UNL     1      -1.160  -5.105   1.201  1.00  0.00     0.025 C 
HETATM   47  C30 UNL     1       0.223  -4.662  -0.723  1.00  0.00     0.025 C 
HETATM   48  C31 UNL     1       1.082  -4.190   1.505  1.00  0.00     0.025 C 
ENDBRANCH   2  45
TORSDOF 13
