REMARK  12 active torsions:
REMARK  status: ('A' for Active; 'I' for Inactive)
REMARK    1  A    between atoms: C2_2  and  C3_3 
REMARK    2  A    between atoms: C3_3  and  C4_4 
REMARK    3  A    between atoms: C4_4  and  N1_5 
REMARK    4  A    between atoms: C4_4  and  C22_31 
REMARK       I    between atoms: N1_5  and  C5_7 
REMARK    5  A    between atoms: C5_7  and  C6_9 
REMARK       I    between atoms: N2_13  and  C10_14 
REMARK    6  A    between atoms: C10_14  and  C11_16 
REMARK    7  A    between atoms: C15_20  and  C16_21 
REMARK    8  A    between atoms: C17_22  and  C18_23 
REMARK    9  A    between atoms: C18_23  and  C19_24 
REMARK   10  A    between atoms: C19_24  and  N3_25 
REMARK   11  A    between atoms: C22_31  and  C23_33 
REMARK       I    between atoms: C23_33  and  N5_35 
REMARK       I    between atoms: N6_38  and  C26_39 
REMARK   12  A    between atoms: C26_39  and  C27_41 
REMARK       I    between atoms: N7_44  and  C30_45 
ROOT
HETATM    1  C4  UNL     1      -0.718  -0.980  -1.240  1.00  0.00     0.164 C 
ENDROOT
BRANCH   1   2
HETATM    2  C3  UNL     1      -1.085  -1.884  -2.390  1.00  0.00     0.033 C 
BRANCH   2   3
HETATM    3  C2  UNL     1      -1.607  -3.223  -1.943  1.00  0.00    -0.002 C 
HETATM    4  C1  UNL     1      -1.957  -4.077  -3.149  1.00  0.00     0.005 C 
ENDBRANCH   2   3
ENDBRANCH   1   2
BRANCH   1   5
HETATM    5  N1  UNL     1       0.324  -1.588  -0.423  1.00  0.00    -0.347 N 
HETATM    6  C5  UNL     1       1.589  -0.998  -0.214  1.00  0.00     0.241 C 
HETATM    7  O1  UNL     1       1.802   0.103  -0.762  1.00  0.00    -0.271 OA
ATOM      8  H1  UNL     1       0.129  -2.486   0.020  1.00  0.00     0.163 HD
BRANCH   6   9
HETATM    9  C6  UNL     1       2.574  -1.732   0.643  1.00  0.00     0.179 C 
HETATM   10  C7  UNL     1       2.087  -1.789   2.058  1.00  0.00     0.037 C 
HETATM   11  C8  UNL     1       3.206  -1.242   2.878  1.00  0.00     0.022 C 
HETATM   12  C9  UNL     1       4.394  -1.149   1.998  1.00  0.00     0.127 C 
HETATM   13  N2  UNL     1       3.878  -1.212   0.652  1.00  0.00    -0.338 N 
HETATM   14  C10 UNL     1       4.703  -0.794  -0.470  1.00  0.00     0.224 C 
HETATM   15  O2  UNL     1       4.214  -0.944  -1.608  1.00  0.00    -0.273 OA
BRANCH  14  16
HETATM   16  C11 UNL     1       6.057  -0.221  -0.276  1.00  0.00     0.079 C 
HETATM   17  C12 UNL     1       6.538   0.351  -1.588  1.00  0.00     0.014 C 
HETATM   18  C13 UNL     1       7.098  -0.659  -2.527  1.00  0.00     0.002 C 
HETATM   19  C14 UNL     1       8.127  -1.539  -1.912  1.00  0.00     0.008 C 
HETATM   20  C15 UNL     1       8.277  -1.381  -0.415  1.00  0.00     0.009 C 
HETATM   21  C21 UNL     1       6.966  -1.264   0.286  1.00  0.00     0.022 C 
BRANCH  20  22
HETATM   22  C16 UNL     1       9.295  -0.378  -0.030  1.00  0.00    -0.026 C 
HETATM   23  C17 UNL     1       9.134   0.587   0.860  1.00  0.00    -0.029 C 
BRANCH  23  24
HETATM   24  C18 UNL     1      10.197   1.565   1.202  1.00  0.00     0.048 C 
BRANCH  24  25
HETATM   25  C19 UNL     1      11.463   1.331   0.430  1.00  0.00     0.145 C 
BRANCH  25  26
HETATM   26  N3  UNL     1      12.417   2.333   0.847  1.00  0.00    -0.338 N 
HETATM   27  C20 UNL     1      13.754   2.410   0.313  1.00  0.00     0.170 C 
HETATM   28  N4  UNL     1      12.127   3.194   1.701  1.00  0.00    -0.348 N 
ATOM     29  H42 UNL     1      11.181   3.140   2.079  1.00  0.00     0.176 HD
ATOM     30  H41 UNL     1      12.800   3.901   1.995  1.00  0.00     0.176 HD
ENDBRANCH  25  26
ENDBRANCH  24  25
ENDBRANCH  23  24
ENDBRANCH  20  22
ENDBRANCH  14  16
ENDBRANCH   6   9
ENDBRANCH   1   5
BRANCH   1  31
HETATM   31  C22 UNL     1      -1.898  -0.666  -0.361  1.00  0.00     0.239 C 
HETATM   32  O3  UNL     1      -1.808  -1.032   0.826  1.00  0.00    -0.285 OA
BRANCH  31  33
HETATM   33  C23 UNL     1      -3.077   0.020  -0.840  1.00  0.00     0.291 C 
HETATM   34  O4  UNL     1      -3.049   0.325  -2.097  1.00  0.00    -0.264 OA
HETATM   35  N5  UNL     1      -4.223   0.395  -0.151  1.00  0.00    -0.342 N 
HETATM   36  C24 UNL     1      -5.300   1.057  -0.901  1.00  0.00     0.146 C 
HETATM   37  C34 UNL     1      -4.447   0.211   1.252  1.00  0.00     0.146 C 
HETATM   38  C25 UNL     1      -6.656   0.909  -0.215  1.00  0.00     0.145 C 
HETATM   39  N6  UNL     1      -6.564   1.283   1.173  1.00  0.00    -0.349 N 
HETATM   40  C26 UNL     1      -7.677   1.529   1.985  1.00  0.00     0.224 C 
HETATM   41  C33 UNL     1      -5.227   1.415   1.780  1.00  0.00     0.145 C 
HETATM   42  O5  UNL     1      -7.429   1.832   3.209  1.00  0.00    -0.273 OA
BRANCH  40  43
HETATM   43  C27 UNL     1      -9.101   1.491   1.630  1.00  0.00     0.081 C 
HETATM   44  C28 UNL     1      -9.533   0.288   0.856  1.00  0.00     0.034 C 
HETATM   45  C29 UNL     1     -11.069   0.274   0.922  1.00  0.00     0.126 C 
HETATM   46  N7  UNL     1     -11.466   1.468   0.162  1.00  0.00    -0.356 N 
HETATM   47  C30 UNL     1     -12.316   1.361  -0.969  1.00  0.00     0.183 C 
HETATM   48  C31 UNL     1     -10.984   2.764   0.571  1.00  0.00     0.126 C 
HETATM   49  N8  UNL     1     -12.250   0.361  -1.771  1.00  0.00    -0.374 N 
HETATM   50  N9  UNL     1     -13.254   2.403  -1.193  1.00  0.00    -0.064 NA
ATOM     51  H82 UNL     1     -11.576  -0.388  -1.610  1.00  0.00     0.158 HD
ATOM     52  H81 UNL     1     -12.861   0.284  -2.584  1.00  0.00     0.158 HD
HETATM   53  C32 UNL     1      -9.525   2.758   0.979  1.00  0.00     0.034 C 
ENDBRANCH  40  43
ENDBRANCH  31  33
ENDBRANCH   1  31
TORSDOF 12
