REMARK  12 active torsions:
REMARK  status: ('A' for Active; 'I' for Inactive)
REMARK    1  A    between atoms: C2_3  and  C3_4 
REMARK    2  A    between atoms: C3_4  and  C4_5 
REMARK    3  A    between atoms: C4_5  and  N2_6 
REMARK    4  A    between atoms: C14_18  and  C15_19 
REMARK    5  A    between atoms: C15_19  and  N5_20 
REMARK       I    between atoms: N5_20  and  C16_22 
REMARK       I    between atoms: C16_22  and  N9_40 
REMARK    6  A    between atoms: N6_23  and  C17_25 
REMARK    7  A    between atoms: C17_25  and  C18_26 
REMARK    8  A    between atoms: C18_26  and  C19_27 
REMARK    9  A    between atoms: C19_27  and  C20_28 
REMARK   10  A    between atoms: C20_28  and  C21_29 
REMARK   11  A    between atoms: C21_29  and  C22_30 
REMARK   12  A    between atoms: C22_30  and  N7_31 
ROOT
HETATM    1  N5  UNL     1      -1.382  -2.647  -2.579  1.00  0.00    -0.222 N 
ATOM      2  H5  UNL     1      -1.710  -2.530  -3.538  1.00  0.00     0.178 HD
HETATM    3  C16 UNL     1      -2.134  -2.115  -1.503  1.00  0.00     0.672 C 
HETATM    4  N6  UNL     1      -2.192  -0.853  -1.234  1.00  0.00    -0.226 N 
ATOM      5  H6  UNL     1      -1.667  -0.211  -1.828  1.00  0.00     0.177 HD
HETATM    6  N9  UNL     1      -2.846  -3.096  -0.715  1.00  0.00    -0.216 N 
HETATM    7  C27 UNL     1      -3.973  -3.677  -1.383  1.00  0.00     0.143 C 
HETATM    8  C28 UNL     1      -5.215  -3.793  -0.562  1.00  0.00     0.039 C 
HETATM    9  C29 UNL     1      -4.927  -4.485   0.723  1.00  0.00     0.116 C 
HETATM   10  N10 UNL     1      -3.747  -5.271   0.622  1.00  0.00    -0.412 N 
ATOM     11  H10 UNL     1      -3.738  -6.196   0.192  1.00  0.00     0.154 HD
HETATM   12  C30 UNL     1      -2.575  -4.667   1.169  1.00  0.00     0.035 C 
HETATM   13  C31 UNL     1      -2.788  -4.485   2.665  1.00  0.00     0.039 C 
HETATM   14  C32 UNL     1      -1.394  -5.609   1.001  1.00  0.00     0.039 C 
HETATM   15  C33 UNL     1      -2.289  -3.301   0.584  1.00  0.00     0.171 C 
ENDROOT
BRANCH   1  16
HETATM   16  C15 UNL     1      -0.163  -3.349  -2.320  1.00  0.00     0.178 C 
BRANCH  16  17
HETATM   17  C14 UNL     1       0.866  -2.479  -1.724  1.00  0.00    -0.020 A 
HETATM   18  C13 UNL     1       1.861  -2.898  -0.835  1.00  0.00     0.107 A 
HETATM   19  N4  UNL     1       2.635  -1.847  -0.502  1.00  0.00    -0.316 N 
HETATM   20  C12 UNL     1       3.701  -1.487   0.238  1.00  0.00     0.123 A 
HETATM   21  C35 UNL     1       2.188  -0.750  -1.139  1.00  0.00     0.114 A 
HETATM   22  C2  UNL     1       3.926  -0.138   0.062  1.00  0.00     0.030 A 
HETATM   23  N1  UNL     1       2.977   0.286  -0.791  1.00  0.00    -0.339 N 
HETATM   24  C1  UNL     1       2.820   1.646  -1.268  1.00  0.00     0.158 C 
HETATM   25  C34 UNL     1       1.087  -1.131  -1.903  1.00  0.00     0.059 A 
BRANCH  22  26
HETATM   26  C3  UNL     1       5.021   0.681   0.703  1.00  0.00     0.086 C 
BRANCH  26  27
HETATM   27  C4  UNL     1       6.210   0.629  -0.219  1.00  0.00     0.243 C 
BRANCH  27  28
HETATM   28  N2  UNL     1       7.352   1.351   0.239  1.00  0.00    -0.062 N 
HETATM   29  C5  UNL     1       8.403   0.362   0.527  1.00  0.00     0.265 C 
HETATM   30  C6  UNL     1       9.413   1.026   1.407  1.00  0.00     0.265 C 
HETATM   31  N3  UNL     1       9.457   2.443   1.040  1.00  0.00    -0.066 N 
HETATM   32  C7  UNL     1      10.636   3.080   1.552  1.00  0.00     0.272 C 
HETATM   33  C8  UNL     1       8.287   3.094   1.607  1.00  0.00     0.265 C 
HETATM   34  C10 UNL     1       9.348   2.541  -0.403  1.00  0.00     0.265 C 
HETATM   35  C9  UNL     1       7.116   2.126   1.416  1.00  0.00     0.265 C 
HETATM   36  C11 UNL     1       7.913   2.221  -0.791  1.00  0.00     0.265 C 
ENDBRANCH  27  28
ENDBRANCH  26  27
ENDBRANCH  22  26
ENDBRANCH  16  17
ENDBRANCH   1  16
BRANCH   4  37
HETATM   37  C17 UNL     1      -2.949  -0.301  -0.151  1.00  0.00     0.138 C 
BRANCH  37  38
HETATM   38  C18 UNL     1      -3.329   1.142  -0.515  1.00  0.00     0.020 C 
BRANCH  38  39
HETATM   39  C19 UNL     1      -4.138   1.073  -1.792  1.00  0.00     0.002 C 
BRANCH  39  40
HETATM   40  C20 UNL     1      -4.562   2.431  -2.236  1.00  0.00     0.002 C 
BRANCH  40  41
HETATM   41  C21 UNL     1      -5.432   3.174  -1.250  1.00  0.00     0.020 C 
BRANCH  41  42
HETATM   42  C22 UNL     1      -6.680   2.387  -1.019  1.00  0.00     0.137 C 
BRANCH  42  43
HETATM   43  N7  UNL     1      -7.602   3.001  -0.105  1.00  0.00    -0.270 N 
HETATM   44  C23 UNL     1      -7.636   2.810   1.298  1.00  0.00     0.229 C 
HETATM   45  O1  UNL     1      -6.690   2.144   1.819  1.00  0.00    -0.273 OA
HETATM   46  C24 UNL     1      -8.688   3.328   2.192  1.00  0.00     0.123 C 
HETATM   47  C25 UNL     1      -9.512   4.432   1.631  1.00  0.00     0.133 C 
HETATM   48  N8  UNL     1      -9.525   4.537   0.207  1.00  0.00    -0.342 N 
HETATM   49  C26 UNL     1      -8.590   3.900  -0.649  1.00  0.00     0.325 C 
ATOM     50  H8  UNL     1     -10.254   5.107  -0.223  1.00  0.00     0.164 HD
HETATM   51  O2  UNL     1      -8.615   4.113  -1.877  1.00  0.00    -0.247 OA
ENDBRANCH  42  43
ENDBRANCH  41  42
ENDBRANCH  40  41
ENDBRANCH  39  40
ENDBRANCH  38  39
ENDBRANCH  37  38
ENDBRANCH   4  37
TORSDOF 12
