REMARK  13 active torsions:
REMARK  status: ('A' for Active; 'I' for Inactive)
REMARK    1  A    between atoms: C2_2  and  C4_4 
REMARK    2  A    between atoms: C4_4  and  C5_5 
REMARK    3  A    between atoms: C5_5  and  C6_6 
REMARK       I    between atoms: N1_9  and  C9_10 
REMARK    4  A    between atoms: C9_10  and  C10_12 
REMARK    5  A    between atoms: C12_14  and  C13_15 
REMARK    6  A    between atoms: C15_17  and  N2_18 
REMARK    7  A    between atoms: N4_23  and  C17_24 
REMARK    8  A    between atoms: C19_26  and  C20_27 
REMARK    9  A    between atoms: C20_27  and  C21_28 
REMARK   10  A    between atoms: C21_28  and  N5_29 
REMARK       I    between atoms: N5_29  and  C22_30 
REMARK   11  A    between atoms: N7_39  and  C27_40 
REMARK   12  A    between atoms: C27_40  and  C28_41 
REMARK   13  A    between atoms: C28_41  and  C29_42 
ROOT
HETATM    1  C10 UNL     1       0.919   1.065   0.754  1.00  0.00     0.178 C 
HETATM    2  C11 UNL     1      -0.251   0.098   0.637  1.00  0.00     0.124 C 
HETATM    3  C12 UNL     1      -1.194   0.154  -0.471  1.00  0.00     0.054 C 
HETATM    4  C15 UNL     1      -1.867  -0.811   0.661  1.00  0.00     0.222 C 
HETATM    5  N6  UNL     1      -1.381   0.195   1.479  1.00  0.00    -0.318 N 
HETATM    6  C25 UNL     1      -1.184   1.230   2.497  1.00  0.00     0.256 C 
HETATM    7  O4  UNL     1      -1.660   1.010   3.601  1.00  0.00    -0.267 OA
HETATM    8  C26 UNL     1      -0.450   2.436   2.172  1.00  0.00     0.135 C 
HETATM    9  N7  UNL     1       0.512   2.358   1.083  1.00  0.00    -0.273 NA
ENDROOT
BRANCH   4  10
HETATM   10  N2  UNL     1      -3.127  -1.185   0.278  1.00  0.00    -0.127 N 
HETATM   11  C16 UNL     1      -3.342  -1.940  -0.947  1.00  0.00     0.681 C 
HETATM   12  N3  UNL     1      -2.500  -2.583  -1.676  1.00  0.00    -0.234 N 
HETATM   13  N4  UNL     1      -4.722  -1.912  -1.193  1.00  0.00    -0.205 N 
ATOM     14  H32 UNL     1      -1.496  -2.603  -1.497  1.00  0.00     0.174 HD
ATOM     15  H31 UNL     1      -2.651  -3.112  -2.535  1.00  0.00     0.174 HD
HETATM   16  C19 UNL     1      -5.380  -1.847   0.096  1.00  0.00     0.197 C 
HETATM   17  C24 UNL     1      -4.398  -0.773   0.698  1.00  0.00     0.263 C 
HETATM   18  O3  UNL     1      -4.875   0.150   1.371  1.00  0.00    -0.270 OA
BRANCH  13  19
HETATM   19  C17 UNL     1      -5.503  -1.975  -2.426  1.00  0.00     0.138 C 
HETATM   20  C18 UNL     1      -6.248  -0.619  -2.451  1.00  0.00     0.027 C 
ENDBRANCH  13  19
BRANCH  16  21
HETATM   21  C20 UNL     1      -4.997  -3.076   0.883  1.00  0.00     0.069 C 
BRANCH  21  22
HETATM   22  C21 UNL     1      -6.003  -3.080   2.149  1.00  0.00     0.224 C 
BRANCH  22  23
HETATM   23  N5  UNL     1      -7.233  -3.205   1.597  1.00  0.00    -0.416 NA
HETATM   24  C22 UNL     1      -8.494  -3.344   1.024  1.00  0.00     0.282 C 
HETATM   25  C23 UNL     1      -9.632  -2.417   1.213  1.00  0.00     0.134 C 
HETATM   26  O2  UNL     1      -8.792  -4.321   0.243  1.00  0.00    -0.258 OA
ENDBRANCH  22  23
ENDBRANCH  21  22
ENDBRANCH  16  21
ENDBRANCH   4  10
BRANCH   3  27
HETATM   27  C13 UNL     1      -1.937   1.157  -1.087  1.00  0.00     0.006 C 
HETATM   28  C14 UNL     1      -2.983   2.075  -0.642  1.00  0.00     0.006 C 
ENDBRANCH   3  27
BRANCH   1  29
HETATM   29  C9  UNL     1       1.683   0.704  -0.416  1.00  0.00     0.243 C 
HETATM   30  N1  UNL     1       2.754  -0.292  -0.306  1.00  0.00    -0.330 N 
HETATM   31  C8  UNL     1       3.492  -0.610   0.842  1.00  0.00     0.067 C 
HETATM   32  C34 UNL     1       2.891  -1.134  -1.512  1.00  0.00     0.131 C 
HETATM   33  C7  UNL     1       3.925  -2.030   0.943  1.00  0.00     0.049 C 
HETATM   34  C6  UNL     1       4.327  -2.733  -0.293  1.00  0.00    -0.008 C 
HETATM   35  C35 UNL     1       4.059  -1.961  -1.581  1.00  0.00     0.025 C 
HETATM   36  O1  UNL     1       1.529   1.139  -1.604  1.00  0.00    -0.271 OA
BRANCH  34  37
HETATM   37  C5  UNL     1       5.801  -3.046  -0.385  1.00  0.00     0.009 C 
BRANCH  37  38
HETATM   38  C4  UNL     1       6.392  -3.884   0.680  1.00  0.00     0.033 C 
BRANCH  38  39
HETATM   39  C2  UNL     1       7.852  -4.096   0.320  1.00  0.00    -0.093 C 
HETATM   40  C1  UNL     1       8.372  -3.592  -0.776  1.00  0.00     0.014 C 
HETATM   41  C3  UNL     1       8.679  -4.891   1.223  1.00  0.00     0.042 C 
ENDBRANCH  38  39
ENDBRANCH  37  38
ENDBRANCH  34  37
ENDBRANCH   1  29
BRANCH   9  42
HETATM   42  C27 UNL     1       1.569   3.249   1.403  1.00  0.00     0.098 C 
BRANCH  42  43
HETATM   43  C28 UNL     1       2.353   3.891   0.324  1.00  0.00     0.050 C 
BRANCH  43  44
HETATM   44  C29 UNL     1       1.465   4.796  -0.517  1.00  0.00     0.223 C 
HETATM   45  C30 UNL     1       0.914   5.864   0.391  1.00  0.00     0.037 C 
HETATM   46  C31 UNL     1       1.368   7.186  -0.168  1.00  0.00     0.032 C 
HETATM   47  C32 UNL     1       1.799   6.850  -1.555  1.00  0.00     0.272 C 
HETATM   48  N8  UNL     1       2.154   5.451  -1.572  1.00  0.00     0.088 N 
HETATM   49  C33 UNL     1       3.571   5.344  -1.607  1.00  0.00     0.310 C 
ENDBRANCH  43  44
ENDBRANCH  42  43
ENDBRANCH   9  42
TORSDOF 13
