REMARK  10 active torsions:
REMARK  status: ('A' for Active; 'I' for Inactive)
REMARK    1  A    between atoms: C1_2  and  C2_4 
REMARK    2  A    between atoms: C2_4  and  C3_5 
REMARK    3  A    between atoms: C3_5  and  C4_6 
REMARK    4  A    between atoms: C4_6  and  N1_7 
REMARK    5  A    between atoms: C4_6  and  C25_37 
REMARK       I    between atoms: N1_7  and  C5_9 
REMARK    6  A    between atoms: C5_9  and  C6_11 
REMARK       I    between atoms: N2_16  and  C11_17 
REMARK    7  A    between atoms: C11_17  and  C12_19 
REMARK    8  A    between atoms: C12_19  and  C13_20 
REMARK    9  A    between atoms: C12_19  and  N3_27 
REMARK   10  A    between atoms: C13_20  and  C14_21 
REMARK       I    between atoms: N3_27  and  C20_29 
REMARK       I    between atoms: C20_29  and  N4_31 
REMARK       I    between atoms: C25_37  and  N5_39 
ROOT
HETATM    1  C6  UNL     1       0.811  -0.563   2.018  1.00  0.00     0.179 C 
HETATM    2  C7  UNL     1       1.085   0.502   3.054  1.00  0.00     0.035 C 
HETATM    3  C8  UNL     1       0.701  -0.096   4.405  1.00  0.00     0.004 C 
HETATM    4  C9  UNL     1      -0.741  -0.440   4.440  1.00  0.00     0.020 C 
HETATM    5  C10 UNL     1      -1.179  -1.253   3.249  1.00  0.00     0.127 C 
HETATM    6  N2  UNL     1      -0.599  -0.788   1.985  1.00  0.00    -0.337 N 
HETATM    7  C11 UNL     1      -1.469  -0.575   0.893  1.00  0.00     0.243 C 
HETATM    8  O4  UNL     1      -1.026  -0.078  -0.211  1.00  0.00    -0.271 OA
ENDROOT
BRANCH   1   9
HETATM    9  C5  UNL     1       1.527  -0.414   0.771  1.00  0.00     0.241 C 
HETATM   10  N1  UNL     1       2.388   0.685   0.526  1.00  0.00    -0.346 N 
ATOM     11  H1  UNL     1       2.499   1.379   1.265  1.00  0.00     0.163 HD
HETATM   12  O3  UNL     1       1.410  -1.256  -0.151  1.00  0.00    -0.271 OA
BRANCH  10  13
HETATM   13  C4  UNL     1       3.126   0.886  -0.717  1.00  0.00     0.177 C 
BRANCH  13  14
HETATM   14  C3  UNL     1       2.596   2.140  -1.409  1.00  0.00     0.045 C 
BRANCH  14  15
HETATM   15  C2  UNL     1       3.334   2.390  -2.692  1.00  0.00     0.116 C 
BRANCH  15  16
HETATM   16  C1  UNL     1       2.807   3.610  -3.386  1.00  0.00     0.172 C 
HETATM   17  O1  UNL     1       1.878   4.258  -2.863  1.00  0.00    -0.648 OA
HETATM   18  O2  UNL     1       3.364   3.991  -4.595  1.00  0.00    -0.648 OA
ENDBRANCH  15  16
ENDBRANCH  14  15
ENDBRANCH  13  14
BRANCH  13  19
HETATM   19  C25 UNL     1       4.532   1.157  -0.335  1.00  0.00     0.242 C 
HETATM   20  O7  UNL     1       4.696   1.897   0.682  1.00  0.00    -0.271 OA
HETATM   21  N5  UNL     1       5.668   0.668  -0.995  1.00  0.00    -0.350 N 
HETATM   22  C26 UNL     1       5.664  -0.226  -2.131  1.00  0.00     0.126 C 
HETATM   23  C30 UNL     1       7.016   1.070  -0.548  1.00  0.00     0.126 C 
HETATM   24  C27 UNL     1       6.304  -1.528  -1.710  1.00  0.00     0.020 C 
HETATM   25  C28 UNL     1       6.837  -1.408  -0.316  1.00  0.00     0.003 C 
HETATM   26  C29 UNL     1       7.747  -0.205  -0.148  1.00  0.00     0.020 C 
ENDBRANCH  13  19
ENDBRANCH  10  13
ENDBRANCH   1   9
BRANCH   7  27
HETATM   27  C12 UNL     1      -2.904  -0.890   0.878  1.00  0.00     0.179 C 
BRANCH  27  28
HETATM   28  C13 UNL     1      -3.876   0.213   0.841  1.00  0.00     0.039 C 
BRANCH  28  29
HETATM   29  C14 UNL     1      -3.943   1.246   1.887  1.00  0.00    -0.012 C 
HETATM   30  C15 UNL     1      -2.772   2.136   2.098  1.00  0.00     0.005 C 
HETATM   31  C16 UNL     1      -2.534   3.032   0.880  1.00  0.00     0.000 C 
HETATM   32  C17 UNL     1      -3.677   4.022   0.833  1.00  0.00     0.000 C 
HETATM   33  C18 UNL     1      -4.836   3.609   1.688  1.00  0.00     0.000 C 
HETATM   34  C19 UNL     1      -5.164   2.156   1.661  1.00  0.00     0.005 C 
ENDBRANCH  28  29
ENDBRANCH  27  28
BRANCH  27  35
HETATM   35  N3  UNL     1      -3.078  -1.556  -0.462  1.00  0.00    -0.330 N 
HETATM   36  C20 UNL     1      -3.476  -2.894  -0.541  1.00  0.00     0.319 C 
HETATM   37  O5  UNL     1      -3.687  -3.508   0.569  1.00  0.00    -0.247 OA
HETATM   38  N4  UNL     1      -3.666  -3.629  -1.707  1.00  0.00    -0.330 N 
HETATM   39  C21 UNL     1      -4.067  -5.014  -1.660  1.00  0.00     0.153 C 
HETATM   40  C24 UNL     1      -3.485  -3.077  -3.056  1.00  0.00     0.153 C 
HETATM   41  C22 UNL     1      -5.114  -5.172  -2.769  1.00  0.00     0.187 C 
HETATM   42  O6  UNL     1      -5.731  -3.968  -3.062  1.00  0.00    -0.388 OA
HETATM   43  C23 UNL     1      -4.889  -3.031  -3.655  1.00  0.00     0.187 C 
ATOM     44  H3  UNL     1      -2.904  -1.028  -1.317  1.00  0.00     0.165 HD
ENDBRANCH  27  35
ENDBRANCH   7  27
TORSDOF 10
