REMARK  11 active torsions:
REMARK  status: ('A' for Active; 'I' for Inactive)
REMARK    1  A    between atoms: C2_2  and  N1_3 
REMARK    2  A    between atoms: C2_2  and  C23_34 
REMARK       I    between atoms: N1_3  and  C3_5 
REMARK    3  A    between atoms: C3_5  and  C4_7 
REMARK    4  A    between atoms: C4_7  and  C5_8 
REMARK    5  A    between atoms: C4_7  and  N2_15 
REMARK    6  A    between atoms: C5_8  and  C6_9 
REMARK       I    between atoms: N2_15  and  C12_17 
REMARK    7  A    between atoms: C12_17  and  C13_19 
REMARK    8  A    between atoms: C13_19  and  N3_20 
REMARK    9  A    between atoms: C13_19  and  C19_30 
REMARK       I    between atoms: N3_20  and  C14_22 
REMARK       I    between atoms: C14_22  and  N4_24 
REMARK       I    between atoms: C23_34  and  N5_36 
REMARK   10  A    between atoms: C26_39  and  C27_40 
REMARK   11  A    between atoms: C27_40  and  N6_41 
ROOT
HETATM    1  C4  UNL     1      -1.012  -0.527  -0.125  1.00  0.00     0.177 C 
ENDROOT
BRANCH   1   2
HETATM    2  C3  UNL     1       0.270  -0.057  -0.638  1.00  0.00     0.241 C 
HETATM    3  N1  UNL     1       1.400   0.032   0.178  1.00  0.00    -0.346 N 
ATOM      4  H1  UNL     1       1.288  -0.238   1.155  1.00  0.00     0.163 HD
HETATM    5  O1  UNL     1       0.377   0.283  -1.843  1.00  0.00    -0.271 OA
BRANCH   3   6
HETATM    6  C2  UNL     1       2.731   0.477  -0.241  1.00  0.00     0.172 C 
HETATM    7  C1  UNL     1       3.007   1.735   0.585  1.00  0.00     0.042 C 
BRANCH   6   8
HETATM    8  C23 UNL     1       3.759  -0.506   0.189  1.00  0.00     0.242 C 
HETATM    9  O5  UNL     1       3.482  -1.514   0.888  1.00  0.00    -0.271 OA
HETATM   10  N5  UNL     1       5.103  -0.329  -0.186  1.00  0.00    -0.350 N 
HETATM   11  C24 UNL     1       5.544   0.745  -1.011  1.00  0.00     0.126 C 
HETATM   12  C31 UNL     1       6.141  -1.269   0.273  1.00  0.00     0.126 C 
HETATM   13  C25 UNL     1       6.588   1.573  -0.299  1.00  0.00     0.026 C 
HETATM   14  C26 UNL     1       7.698   0.682   0.206  1.00  0.00     0.017 C 
HETATM   15  C30 UNL     1       7.175  -0.472   1.028  1.00  0.00     0.026 C 
BRANCH  14  16
HETATM   16  C27 UNL     1       8.585   1.513   1.106  1.00  0.00     0.276 C 
BRANCH  16  17
HETATM   17  N6  UNL     1       9.687   0.761   1.656  1.00  0.00     0.080 N 
HETATM   18  C28 UNL     1      10.447   1.666   2.515  1.00  0.00     0.309 C 
HETATM   19  C29 UNL     1      10.493   0.242   0.587  1.00  0.00     0.309 C 
ENDBRANCH  16  17
ENDBRANCH  14  16
ENDBRANCH   6   8
ENDBRANCH   3   6
ENDBRANCH   1   2
BRANCH   1  20
HETATM   20  C5  UNL     1      -1.131  -2.014   0.098  1.00  0.00     0.039 C 
BRANCH  20  21
HETATM   21  C6  UNL     1      -0.237  -2.675   1.052  1.00  0.00    -0.012 C 
HETATM   22  C7  UNL     1      -0.522  -4.194   1.089  1.00  0.00     0.005 C 
HETATM   23  C8  UNL     1      -1.971  -4.471   1.334  1.00  0.00     0.000 C 
HETATM   24  C9  UNL     1      -2.507  -3.864   2.608  1.00  0.00     0.000 C 
HETATM   25  C10 UNL     1      -2.049  -2.441   2.793  1.00  0.00     0.000 C 
HETATM   26  C11 UNL     1      -0.607  -2.229   2.473  1.00  0.00     0.005 C 
ENDBRANCH  20  21
ENDBRANCH   1  20
BRANCH   1  27
HETATM   27  N2  UNL     1      -2.032  -0.326  -1.214  1.00  0.00    -0.346 N 
HETATM   28  C12 UNL     1      -3.226   0.358  -0.932  1.00  0.00     0.242 C 
HETATM   29  O2  UNL     1      -3.356   0.797   0.259  1.00  0.00    -0.271 OA
ATOM     30  H2  UNL     1      -1.857  -0.685  -2.153  1.00  0.00     0.163 HD
BRANCH  28  31
HETATM   31  C13 UNL     1      -4.268   0.544  -1.946  1.00  0.00     0.185 C 
BRANCH  31  32
HETATM   32  N3  UNL     1      -5.436   1.108  -1.225  1.00  0.00    -0.329 N 
HETATM   33  C14 UNL     1      -6.337   0.294  -0.529  1.00  0.00     0.319 C 
HETATM   34  O3  UNL     1      -6.139  -0.954  -0.517  1.00  0.00    -0.247 OA
HETATM   35  N4  UNL     1      -7.445   0.812   0.157  1.00  0.00    -0.330 N 
HETATM   36  C15 UNL     1      -8.311  -0.073   0.921  1.00  0.00     0.153 C 
HETATM   37  C18 UNL     1      -7.743   2.254   0.097  1.00  0.00     0.153 C 
HETATM   38  C16 UNL     1      -9.770   0.262   0.765  1.00  0.00     0.187 C 
HETATM   39  O4  UNL     1      -9.956   1.466   0.087  1.00  0.00    -0.388 OA
HETATM   40  C17 UNL     1      -9.127   2.448   0.659  1.00  0.00     0.187 C 
ATOM     41  H3  UNL     1      -5.586   2.117  -1.237  1.00  0.00     0.165 HD
ENDBRANCH  31  32
BRANCH  31  42
HETATM   42  C19 UNL     1      -3.971   1.326  -3.149  1.00  0.00    -0.022 C 
HETATM   43  C20 UNL     1      -5.267   1.341  -3.995  1.00  0.00     0.017 C 
HETATM   44  C21 UNL     1      -3.658   2.785  -2.859  1.00  0.00     0.017 C 
HETATM   45  C22 UNL     1      -2.903   0.692  -4.000  1.00  0.00     0.017 C 
ENDBRANCH  31  42
ENDBRANCH  28  31
ENDBRANCH   1  27
TORSDOF 11
