REMARK  12 active torsions:
REMARK  status: ('A' for Active; 'I' for Inactive)
REMARK       I    between atoms: N1_2  and  C2_4 
REMARK    1  A    between atoms: C2_4  and  C3_6 
REMARK    2  A    between atoms: N2_10  and  C7_11 
REMARK    3  A    between atoms: C7_11  and  O2_12 
REMARK    4  A    between atoms: C8_14  and  N3_15 
REMARK    5  A    between atoms: C8_14  and  C26_39 
REMARK       I    between atoms: N3_15  and  C9_17 
REMARK    6  A    between atoms: C9_17  and  C10_19 
REMARK       I    between atoms: N4_23  and  C14_24 
REMARK    7  A    between atoms: C14_24  and  C15_26 
REMARK    8  A    between atoms: C15_26  and  C16_27 
REMARK    9  A    between atoms: C15_26  and  C19_32 
REMARK   10  A    between atoms: C16_27  and  O5_28 
REMARK   11  A    between atoms: O5_28  and  C17_29 
REMARK   12  A    between atoms: C19_32  and  C20_33 
ROOT
HETATM    1  C7  UNL     1      -3.576  -0.144  -0.152  1.00  0.00     0.162 C 
HETATM    2  C8  UNL     1      -2.622  -1.141  -0.481  1.00  0.00     0.069 C 
ENDROOT
BRANCH   2   3
HETATM    3  N3  UNL     1      -1.412  -1.171   0.348  1.00  0.00    -0.325 N 
HETATM    4  C9  UNL     1      -0.146  -0.635  -0.080  1.00  0.00     0.245 C 
HETATM    5  O3  UNL     1      -0.100  -0.123  -1.198  1.00  0.00    -0.271 OA
ATOM      6  H3  UNL     1      -1.471  -1.593   1.275  1.00  0.00     0.169 HD
BRANCH   4   7
HETATM    7  C10 UNL     1       0.953  -0.744   0.831  1.00  0.00     0.180 C 
HETATM    8  C11 UNL     1       1.600  -2.169   0.646  1.00  0.00     0.037 C 
HETATM    9  C12 UNL     1       2.900  -2.044   1.388  1.00  0.00     0.022 C 
HETATM   10  C13 UNL     1       2.886  -0.631   1.843  1.00  0.00     0.127 C 
HETATM   11  N4  UNL     1       2.128   0.059   0.784  1.00  0.00    -0.335 N 
HETATM   12  C14 UNL     1       2.496   1.193   0.051  1.00  0.00     0.252 C 
HETATM   13  O4  UNL     1       1.594   1.688  -0.733  1.00  0.00    -0.268 OA
BRANCH  12  14
HETATM   14  C15 UNL     1       3.760   1.950   0.003  1.00  0.00     0.030 C 
BRANCH  14  15
HETATM   15  C16 UNL     1       4.220   2.567   1.277  1.00  0.00     0.222 C 
BRANCH  15  16
HETATM   16  O5  UNL     1       5.433   3.275   1.189  1.00  0.00    -0.317 OA
BRANCH  16  17
HETATM   17  C17 UNL     1       5.703   4.366   0.437  1.00  0.00     0.255 C 
HETATM   18  C18 UNL     1       7.072   4.966   0.486  1.00  0.00     0.126 C 
HETATM   19  O6  UNL     1       4.800   4.857  -0.289  1.00  0.00    -0.266 OA
ENDBRANCH  16  17
ENDBRANCH  15  16
ENDBRANCH  14  15
BRANCH  14  20
HETATM   20  C19 UNL     1       4.761   1.416  -0.935  1.00  0.00    -0.007 C 
BRANCH  20  21
HETATM   21  C20 UNL     1       5.347   0.078  -0.815  1.00  0.00     0.009 C 
HETATM   22  C21 UNL     1       6.303  -0.049  -2.048  1.00  0.00     0.008 C 
HETATM   23  C22 UNL     1       6.550  -1.504  -2.270  1.00  0.00     0.001 C 
HETATM   24  C23 UNL     1       6.800  -2.116  -0.894  1.00  0.00     0.000 C 
HETATM   25  C24 UNL     1       7.446  -1.060  -0.024  1.00  0.00     0.001 C 
HETATM   26  C25 UNL     1       6.374  -0.018   0.336  1.00  0.00     0.008 C 
ENDBRANCH  20  21
ENDBRANCH  14  20
ENDBRANCH  12  14
ENDBRANCH   4   7
ENDBRANCH   2   3
BRANCH   2  27
HETATM   27  C26 UNL     1      -2.942  -2.383  -1.169  1.00  0.00     0.067 C 
HETATM   28  C27 UNL     1      -3.861  -3.408  -0.653  1.00  0.00     0.040 C 
HETATM   29  C28 UNL     1      -3.448  -4.672  -1.403  1.00  0.00     0.233 C 
HETATM   30  N5  UNL     1      -2.077  -4.538  -1.712  1.00  0.00    -0.074 N 
HETATM   31  C29 UNL     1      -1.640  -3.225  -1.346  1.00  0.00     0.243 C 
ATOM     32  H52 UNL     1      -1.510  -5.269  -1.283  1.00  0.00     0.277 HD
ATOM     33  H51 UNL     1      -1.877  -4.755  -2.688  1.00  0.00     0.277 HD
ENDBRANCH   2  27
BRANCH   1  34
HETATM   34  N2  UNL     1      -4.912  -0.006   0.125  1.00  0.00    -0.346 N 
HETATM   35  C3  UNL     1      -5.829   1.151   0.080  1.00  0.00     0.183 C 
HETATM   36  C4  UNL     1      -6.131   1.383   1.512  1.00  0.00     0.032 A 
HETATM   37  C5  UNL     1      -6.007  -0.036   2.116  1.00  0.00     0.019 A 
HETATM   38  C30 UNL     1      -7.264   0.698   2.185  1.00  0.00    -0.036 A 
HETATM   39  C6  UNL     1      -5.810  -0.943   0.858  1.00  0.00     0.132 C 
HETATM   40  C31 UNL     1      -8.448   0.155   1.469  1.00  0.00     0.016 C 
HETATM   41  C32 UNL     1      -7.599   1.252   3.575  1.00  0.00     0.016 C 
BRANCH  35  42
HETATM   42  C2  UNL     1      -5.493   2.275  -0.715  1.00  0.00     0.240 C 
HETATM   43  N1  UNL     1      -4.835   2.250  -1.973  1.00  0.00    -0.364 N 
HETATM   44  C1  UNL     1      -4.530   3.460  -2.734  1.00  0.00     0.149 C 
ATOM     45  H1  UNL     1      -4.563   1.348  -2.363  1.00  0.00     0.161 HD
HETATM   46  O1  UNL     1      -5.803   3.445  -0.294  1.00  0.00    -0.271 OA
ENDBRANCH  35  42
ENDBRANCH   1  34
BRANCH   1  47
HETATM   47  O2  UNL     1      -2.977   1.081  -0.090  1.00  0.00    -0.345 OA
ATOM     48  H2  UNL     1      -2.052   0.985  -0.282  1.00  0.00     0.219 HD
ENDBRANCH   1  47
TORSDOF 12
