REMARK  11 active torsions:
REMARK  status: ('A' for Active; 'I' for Inactive)
REMARK    1  A    between atoms: C2_2  and  C3_3 
REMARK    2  A    between atoms: C3_3  and  C4_5 
REMARK    3  A    between atoms: C4_5  and  N1_6 
REMARK    4  A    between atoms: C4_5  and  C29_43 
REMARK       I    between atoms: N1_6  and  C5_8 
REMARK    5  A    between atoms: C5_8  and  C6_10 
REMARK    6  A    between atoms: C6_10  and  C7_11 
REMARK    7  A    between atoms: C6_10  and  N2_15 
REMARK    8  A    between atoms: C7_11  and  C8_12 
REMARK       I    between atoms: N2_15  and  C11_17 
REMARK       I    between atoms: C11_17  and  N3_19 
REMARK       I    between atoms: N4_24  and  C16_25 
REMARK    9  A    between atoms: C16_25  and  C17_27 
REMARK   10  A    between atoms: C17_27  and  C20_30 
REMARK       I    between atoms: C20_30  and  N5_32 
REMARK   11  A    between atoms: N5_32  and  C21_34 
ROOT
HETATM    1  N2  UNL     1      -2.584   0.450  -0.097  1.00  0.00    -0.330 N 
ATOM      2  H2  UNL     1      -2.385   1.360  -0.512  1.00  0.00     0.165 HD
HETATM    3  C11 UNL     1      -1.580  -0.554  -0.156  1.00  0.00     0.319 C 
HETATM    4  O3  UNL     1      -1.853  -1.676   0.370  1.00  0.00    -0.247 OA
HETATM    5  N3  UNL     1      -0.324  -0.384  -0.749  1.00  0.00    -0.333 N 
HETATM    6  C12 UNL     1      -0.171   0.956  -1.306  1.00  0.00     0.127 C 
HETATM    7  C13 UNL     1       1.175   1.117  -1.979  1.00  0.00     0.022 C 
HETATM    8  C14 UNL     1       2.184   1.396  -0.884  1.00  0.00     0.021 C 
HETATM    9  C15 UNL     1       3.311   0.351  -1.093  1.00  0.00     0.126 C 
HETATM   10  N4  UNL     1       2.886  -0.936  -0.626  1.00  0.00    -0.350 N 
HETATM   11  C16 UNL     1       3.712  -2.002  -0.992  1.00  0.00     0.237 C 
HETATM   12  O4  UNL     1       3.347  -3.165  -0.578  1.00  0.00    -0.272 OA
HETATM   13  C27 UNL     1       1.733  -1.337   0.178  1.00  0.00     0.145 C 
HETATM   14  C28 UNL     1       0.502  -1.553  -0.667  1.00  0.00     0.147 C 
ENDROOT
BRANCH   1  15
HETATM   15  C6  UNL     1      -3.858   0.247   0.515  1.00  0.00     0.178 C 
BRANCH  15  16
HETATM   16  C5  UNL     1      -4.950   0.212  -0.535  1.00  0.00     0.241 C 
HETATM   17  N1  UNL     1      -6.300   0.009  -0.179  1.00  0.00    -0.348 N 
ATOM     18  H1  UNL     1      -6.530  -0.115   0.807  1.00  0.00     0.163 HD
HETATM   19  O2  UNL     1      -4.672   0.362  -1.751  1.00  0.00    -0.271 OA
BRANCH  17  20
HETATM   20  C4  UNL     1      -7.378  -0.032  -1.154  1.00  0.00     0.157 C 
BRANCH  20  21
HETATM   21  C3  UNL     1      -8.162  -1.262  -1.023  1.00  0.00     0.149 C 
HETATM   22  O1  UNL     1      -7.797  -2.016  -0.087  1.00  0.00    -0.296 OA
BRANCH  21  23
HETATM   23  C2  UNL     1      -9.290  -1.745  -1.805  1.00  0.00     0.076 C 
HETATM   24  C1  UNL     1      -9.737  -3.141  -1.373  1.00  0.00     0.013 C 
ENDBRANCH  21  23
ENDBRANCH  20  21
BRANCH  20  25
HETATM   25  C29 UNL     1      -8.207   1.202  -0.951  1.00  0.00     0.007 C 
HETATM   26  C30 UNL     1      -9.316   1.357  -1.955  1.00  0.00     0.012 C 
HETATM   27  C31 UNL     1      -8.753   1.338   0.461  1.00  0.00     0.012 C 
ENDBRANCH  20  25
ENDBRANCH  17  20
ENDBRANCH  15  16
BRANCH  15  28
HETATM   28  C7  UNL     1      -4.275   1.222   1.545  1.00  0.00     0.038 C 
BRANCH  28  29
HETATM   29  C8  UNL     1      -3.379   1.445   2.704  1.00  0.00    -0.020 C 
HETATM   30  C9  UNL     1      -4.092   2.491   3.590  1.00  0.00     0.009 C 
HETATM   31  C10 UNL     1      -2.032   2.006   2.422  1.00  0.00     0.009 C 
ENDBRANCH  28  29
ENDBRANCH  15  28
ENDBRANCH   1  15
BRANCH  11  32
HETATM   32  C17 UNL     1       4.953  -1.992  -1.791  1.00  0.00     0.114 C 
HETATM   33  C18 UNL     1       5.593  -3.412  -1.752  1.00  0.00     0.035 C 
HETATM   34  C19 UNL     1       4.597  -1.796  -3.245  1.00  0.00     0.035 C 
BRANCH  32  35
HETATM   35  C20 UNL     1       5.965  -1.014  -1.320  1.00  0.00     0.235 C 
HETATM   36  O5  UNL     1       6.390  -0.127  -2.088  1.00  0.00    -0.272 OA
HETATM   37  N5  UNL     1       6.454  -1.083  -0.000  1.00  0.00    -0.355 N 
ATOM     38  H5  UNL     1       6.092  -1.814   0.613  1.00  0.00     0.162 HD
BRANCH  37  39
HETATM   39  C21 UNL     1       7.449  -0.166   0.534  1.00  0.00     0.087 C 
HETATM   40  C22 UNL     1       6.917   0.680   1.659  1.00  0.00     0.055 C 
HETATM   41  C23 UNL     1       7.909   1.792   1.926  1.00  0.00     0.274 C 
HETATM   42  N6  UNL     1       9.280   1.361   1.823  1.00  0.00     0.084 N 
HETATM   43  C24 UNL     1      10.050   2.008   2.859  1.00  0.00     0.309 C 
HETATM   44  C25 UNL     1       9.375  -0.087   2.050  1.00  0.00     0.274 C 
HETATM   45  C26 UNL     1       8.691  -0.877   0.971  1.00  0.00     0.055 C 
ENDBRANCH  37  39
ENDBRANCH  32  35
ENDBRANCH  11  32
TORSDOF 11
