REMARK  12 active torsions:
REMARK  status: ('A' for Active; 'I' for Inactive)
REMARK    1  A    between atoms: C2_2  and  C3_3 
REMARK    2  A    between atoms: C3_3  and  N1_4 
REMARK    3  A    between atoms: C3_3  and  C25_39 
REMARK       I    between atoms: N1_4  and  C4_6 
REMARK    4  A    between atoms: C4_6  and  C5_8 
REMARK    5  A    between atoms: C6_9  and  C7_10 
REMARK    6  A    between atoms: C7_10  and  C8_11 
REMARK    7  A    between atoms: C8_11  and  O3_13 
REMARK       I    between atoms: N2_16  and  C11_17 
REMARK    8  A    between atoms: C11_17  and  C12_19 
REMARK    9  A    between atoms: C12_19  and  N3_21 
REMARK       I    between atoms: N3_21  and  C14_23 
REMARK       I    between atoms: C14_23  and  N4_25 
REMARK   10  A    between atoms: N4_25  and  C15_27 
REMARK   11  A    between atoms: C19_31  and  C20_32 
REMARK   12  A    between atoms: C20_32  and  O6_34 
REMARK       I    between atoms: C25_39  and  N5_41 
ROOT
HETATM    1  C5  UNL     1      -0.977  -0.289   0.679  1.00  0.00     0.113 C 
HETATM    2  C6  UNL     1      -0.249  -0.346  -0.577  1.00  0.00    -0.043 C 
HETATM    3  C10 UNL     1       0.958   0.549  -0.521  1.00  0.00     0.161 C 
HETATM    4  N2  UNL     1       1.661   0.753   0.687  1.00  0.00    -0.339 N 
HETATM    5  C11 UNL     1       3.002   1.128   0.401  1.00  0.00     0.243 C 
HETATM    6  O4  UNL     1       3.795   1.291   1.362  1.00  0.00    -0.271 OA
HETATM    7  C19 UNL     1       1.427   0.718   2.101  1.00  0.00     0.120 C 
HETATM    8  C22 UNL     1       0.599  -0.332   2.674  1.00  0.00     0.017 A 
HETATM    9  C23 UNL     1      -0.826  -0.142   3.166  1.00  0.00     0.013 A 
HETATM   10  C24 UNL     1      -0.450  -0.941   1.890  1.00  0.00     0.009 A 
ENDROOT
BRANCH   1  11
HETATM   11  C4  UNL     1      -2.395  -0.718   0.531  1.00  0.00     0.227 C 
HETATM   12  N1  UNL     1      -3.187  -0.626  -0.617  1.00  0.00    -0.347 N 
ATOM     13  H1  UNL     1      -2.773  -0.258  -1.473  1.00  0.00     0.163 HD
HETATM   14  O1  UNL     1      -2.978  -1.225   1.561  1.00  0.00    -0.273 OA
BRANCH  12  15
HETATM   15  C3  UNL     1      -4.598  -1.043  -0.631  1.00  0.00     0.176 C 
BRANCH  15  16
HETATM   16  C2  UNL     1      -4.733  -2.340  -1.402  1.00  0.00     0.030 C 
HETATM   17  C1  UNL     1      -6.148  -2.846  -1.485  1.00  0.00     0.007 C 
ENDBRANCH  15  16
BRANCH  15  18
HETATM   18  C25 UNL     1      -5.410   0.031  -1.201  1.00  0.00     0.242 C 
HETATM   19  O7  UNL     1      -4.971   0.591  -2.251  1.00  0.00    -0.271 OA
HETATM   20  N5  UNL     1      -6.639   0.496  -0.675  1.00  0.00    -0.350 N 
HETATM   21  C26 UNL     1      -7.287   0.030   0.524  1.00  0.00     0.126 C 
HETATM   22  C30 UNL     1      -7.356   1.585  -1.373  1.00  0.00     0.126 C 
HETATM   23  C27 UNL     1      -8.775   0.407   0.421  1.00  0.00     0.020 C 
HETATM   24  C28 UNL     1      -8.941   1.903   0.473  1.00  0.00     0.003 C 
HETATM   25  C29 UNL     1      -7.762   2.533  -0.240  1.00  0.00     0.020 C 
ENDBRANCH  15  18
ENDBRANCH  12  15
ENDBRANCH   1  11
BRANCH   2  26
HETATM   26  C7  UNL     1      -0.020  -1.598  -1.308  1.00  0.00     0.087 C 
BRANCH  26  27
HETATM   27  C8  UNL     1       0.731  -2.693  -0.785  1.00  0.00     0.282 C 
HETATM   28  O2  UNL     1       1.414  -2.717   0.241  1.00  0.00    -0.260 OA
BRANCH  27  29
HETATM   29  O3  UNL     1       0.709  -3.906  -1.509  1.00  0.00    -0.323 OA
HETATM   30  C9  UNL     1       1.430  -5.008  -1.045  1.00  0.00     0.213 C 
ENDBRANCH  27  29
ENDBRANCH  26  27
ENDBRANCH   2  26
BRANCH   7  31
HETATM   31  C20 UNL     1       0.964   2.064   2.661  1.00  0.00     0.137 C 
HETATM   32  C21 UNL     1       0.815   1.943   4.176  1.00  0.00     0.041 C 
BRANCH  31  33
HETATM   33  O6  UNL     1       1.894   3.082   2.439  1.00  0.00    -0.394 OA
ATOM     34  H6  UNL     1       1.606   3.918   2.787  1.00  0.00     0.210 HD
ENDBRANCH  31  33
ENDBRANCH   7  31
BRANCH   5  35
HETATM   35  C12 UNL     1       3.611   1.363  -0.934  1.00  0.00     0.174 C 
HETATM   36  C13 UNL     1       2.955   2.441  -1.732  1.00  0.00     0.042 C 
BRANCH  35  37
HETATM   37  N3  UNL     1       5.035   1.659  -0.773  1.00  0.00    -0.330 N 
HETATM   38  C14 UNL     1       6.019   0.697  -1.123  1.00  0.00     0.317 C 
HETATM   39  O5  UNL     1       5.633  -0.386  -1.573  1.00  0.00    -0.247 OA
HETATM   40  N4  UNL     1       7.413   1.055  -0.928  1.00  0.00    -0.335 N 
ATOM     41  H4  UNL     1       7.639   1.977  -0.555  1.00  0.00     0.165 HD
ATOM     42  H3  UNL     1       5.324   2.566  -0.406  1.00  0.00     0.165 HD
BRANCH  40  43
HETATM   43  C15 UNL     1       8.482   0.150  -1.244  1.00  0.00     0.023 C 
HETATM   44  C16 UNL     1       8.330  -1.120  -0.414  1.00  0.00     0.037 C 
HETATM   45  C17 UNL     1       8.554  -0.173  -2.716  1.00  0.00     0.037 C 
HETATM   46  C18 UNL     1       9.790   0.796  -0.841  1.00  0.00     0.037 C 
ENDBRANCH  40  43
ENDBRANCH  35  37
ENDBRANCH   5  35
TORSDOF 12
