REMARK  12 active torsions:
REMARK  status: ('A' for Active; 'I' for Inactive)
REMARK       I    between atoms: N1_2  and  C2_4 
REMARK    1  A    between atoms: C2_4  and  C3_6 
REMARK       I    between atoms: N2_10  and  C7_11 
REMARK    2  A    between atoms: C7_11  and  C8_13 
REMARK    3  A    between atoms: C8_13  and  C9_15 
REMARK    4  A    between atoms: C9_15  and  C10_16 
REMARK    5  A    between atoms: C9_15  and  N3_23 
REMARK    6  A    between atoms: C10_16  and  C11_17 
REMARK       I    between atoms: N3_23  and  C17_25 
REMARK       I    between atoms: C17_25  and  N4_27 
REMARK    7  A    between atoms: N4_27  and  C18_29 
REMARK    8  A    between atoms: C18_29  and  C19_30 
REMARK    9  A    between atoms: C18_29  and  C29_44 
REMARK   10  A    between atoms: C19_30  and  O5_31 
REMARK   11  A    between atoms: C23_37  and  C24_38 
REMARK   12  A    between atoms: C24_38  and  C25_40 
ROOT
HETATM    1  N3  UNL     1      -0.464  -0.820  -0.370  1.00  0.00    -0.309 N 
ATOM      2  H3  UNL     1      -0.093  -0.179  -1.071  1.00  0.00     0.170 HD
HETATM    3  C17 UNL     1       0.483  -1.770   0.035  1.00  0.00     0.321 C 
HETATM    4  O4  UNL     1       0.164  -2.606   0.911  1.00  0.00    -0.247 OA
HETATM    5  N4  UNL     1       1.786  -1.790  -0.516  1.00  0.00    -0.330 N 
ATOM      6  H4  UNL     1       1.985  -1.170  -1.301  1.00  0.00     0.165 HD
ENDROOT
BRANCH   1   7
HETATM    7  C9  UNL     1      -1.802  -0.536  -0.044  1.00  0.00     0.070 C 
BRANCH   7   8
HETATM    8  C8  UNL     1      -2.392   0.460  -0.955  1.00  0.00     0.261 C 
HETATM    9  O3  UNL     1      -2.359   0.174  -2.208  1.00  0.00    -0.280 OA
BRANCH   8  10
HETATM   10  C7  UNL     1      -2.973   1.721  -0.598  1.00  0.00     0.296 C 
HETATM   11  N2  UNL     1      -3.548   2.698  -1.464  1.00  0.00    -0.332 N 
HETATM   12  C3  UNL     1      -4.096   3.990  -1.001  1.00  0.00     0.179 C 
HETATM   13  C6  UNL     1      -3.717   2.745  -2.892  1.00  0.00     0.127 C 
HETATM   14  C4  UNL     1      -3.503   4.962  -1.977  1.00  0.00     0.037 C 
HETATM   15  C5  UNL     1      -3.079   4.128  -3.166  1.00  0.00     0.022 C 
HETATM   16  O2  UNL     1      -2.996   2.069   0.643  1.00  0.00    -0.264 OA
BRANCH  12  17
HETATM   17  C2  UNL     1      -5.564   3.911  -1.013  1.00  0.00     0.240 C 
HETATM   18  N1  UNL     1      -6.366   5.051  -0.661  1.00  0.00    -0.364 N 
HETATM   19  C1  UNL     1      -7.795   4.941  -0.687  1.00  0.00     0.149 C 
ATOM     20  H1  UNL     1      -5.922   5.930  -0.395  1.00  0.00     0.161 HD
HETATM   21  O1  UNL     1      -6.124   2.840  -1.333  1.00  0.00    -0.271 OA
ENDBRANCH  12  17
ENDBRANCH   8  10
ENDBRANCH   7   8
BRANCH   7  22
HETATM   22  C10 UNL     1      -2.354  -0.760   1.300  1.00  0.00     0.066 C 
BRANCH  22  23
HETATM   23  C11 UNL     1      -3.721  -1.370   1.407  1.00  0.00    -0.009 C 
HETATM   24  C12 UNL     1      -4.052  -1.485   2.910  1.00  0.00     0.005 C 
HETATM   25  C13 UNL     1      -5.345  -2.228   3.110  1.00  0.00     0.000 C 
HETATM   26  C14 UNL     1      -5.926  -2.760   1.824  1.00  0.00     0.000 C 
HETATM   27  C15 UNL     1      -6.102  -1.637   0.863  1.00  0.00     0.000 C 
HETATM   28  C16 UNL     1      -4.835  -0.824   0.624  1.00  0.00     0.005 C 
ENDBRANCH  22  23
ENDBRANCH   7  22
ENDBRANCH   1   7
BRANCH   5  29
HETATM   29  C18 UNL     1       2.882  -2.661  -0.019  1.00  0.00     0.168 C 
BRANCH  29  30
HETATM   30  C19 UNL     1       3.968  -1.754   0.356  1.00  0.00     0.138 C 
HETATM   31  N5  UNL     1       5.319  -1.625   0.223  1.00  0.00    -0.352 N 
HETATM   32  C20 UNL     1       6.425  -2.277  -0.449  1.00  0.00     0.125 C 
HETATM   33  C23 UNL     1       6.150  -0.531   0.868  1.00  0.00     0.156 C 
HETATM   34  C21 UNL     1       7.048  -1.123  -1.245  1.00  0.00     0.022 C 
HETATM   35  C22 UNL     1       6.581   0.104  -0.423  1.00  0.00     0.035 C 
BRANCH  30  36
HETATM   36  O5  UNL     1       3.414  -0.738   1.041  1.00  0.00    -0.348 OA
ATOM     37  H5  UNL     1       4.119  -0.149   1.284  1.00  0.00     0.219 HD
ENDBRANCH  30  36
BRANCH  33  38
HETATM   38  C24 UNL     1       5.524   0.245   1.883  1.00  0.00     0.154 C 
HETATM   39  O6  UNL     1       5.157  -0.445   2.904  1.00  0.00    -0.295 OA
BRANCH  38  40
HETATM   40  C25 UNL     1       5.212   1.664   2.003  1.00  0.00     0.061 A 
HETATM   41  C26 UNL     1       6.495   2.560   2.062  1.00  0.00     0.017 A 
HETATM   42  C27 UNL     1       5.394   2.714   1.011  1.00  0.00    -0.007 A 
HETATM   43  C28 UNL     1       4.579   3.990   1.201  1.00  0.00     0.011 C 
ENDBRANCH  38  40
ENDBRANCH  33  38
ENDBRANCH  29  30
BRANCH  29  44
HETATM   44  C29 UNL     1       3.085  -3.884  -0.779  1.00  0.00    -0.023 C 
HETATM   45  C30 UNL     1       4.135  -4.830  -0.247  1.00  0.00     0.017 C 
HETATM   46  C31 UNL     1       1.793  -4.744  -0.842  1.00  0.00     0.017 C 
HETATM   47  C32 UNL     1       3.438  -3.675  -2.265  1.00  0.00     0.017 C 
ENDBRANCH  29  44
ENDBRANCH   5  29
TORSDOF 12
