REMARK  13 active torsions:
REMARK  status: ('A' for Active; 'I' for Inactive)
REMARK    1  A    between atoms: C2_2  and  C3_3 
REMARK    2  A    between atoms: C4_4  and  C5_5 
REMARK    3  A    between atoms: C5_5  and  N1_6 
REMARK       I    between atoms: N1_6  and  C6_7 
REMARK    4  A    between atoms: C6_7  and  C7_9 
REMARK    5  A    between atoms: C7_9  and  N2_11 
REMARK    6  A    between atoms: N2_11  and  C9_13 
REMARK    7  A    between atoms: C10_16  and  O2_17 
REMARK    8  A    between atoms: C10_16  and  N4_19 
REMARK       I    between atoms: N5_22  and  C13_23 
REMARK    9  A    between atoms: C18_29  and  C19_30 
REMARK   10  A    between atoms: C19_30  and  N6_31 
REMARK   11  A    between atoms: C19_30  and  C27_42 
REMARK       I    between atoms: N6_31  and  C20_33 
REMARK   12  A    between atoms: C20_33  and  C21_35 
REMARK   13  A    between atoms: C21_35  and  C22_37 
ROOT
HETATM    1  C5  UNL     1      -2.266  -0.540  -0.259  1.00  0.00     0.143 C 
HETATM    2  C10 UNL     1      -3.014   0.461  -0.962  1.00  0.00     0.176 C 
ENDROOT
BRANCH   1   3
HETATM    3  C4  UNL     1      -1.357  -0.281   0.847  1.00  0.00     0.059 C 
HETATM    4  C3  UNL     1      -0.056   0.389   0.679  1.00  0.00     0.002 C 
HETATM    5  C18 UNL     1       0.549  -0.624   1.599  1.00  0.00     0.014 C 
HETATM    6  C17 UNL     1      -0.590  -1.551   1.273  1.00  0.00     0.019 C 
BRANCH   4   7
HETATM    7  C2  UNL     1       0.512   0.685  -0.632  1.00  0.00     0.001 C 
HETATM    8  C1  UNL     1       0.809  -0.362  -1.610  1.00  0.00     0.005 C 
ENDBRANCH   4   7
BRANCH   5   9
HETATM    9  C19 UNL     1       1.924  -1.111   1.425  1.00  0.00     0.092 C 
BRANCH   9  10
HETATM   10  N6  UNL     1       2.901  -0.010   1.509  1.00  0.00    -0.349 N 
HETATM   11  C20 UNL     1       3.999   0.102   0.649  1.00  0.00     0.288 C 
HETATM   12  O4  UNL     1       4.159  -0.778  -0.237  1.00  0.00    -0.264 OA
ATOM     13  H6  UNL     1       2.770   0.703   2.227  1.00  0.00     0.163 HD
BRANCH  11  14
HETATM   14  C21 UNL     1       4.919   1.221   0.804  1.00  0.00     0.224 C 
HETATM   15  O5  UNL     1       4.749   2.093   1.684  1.00  0.00    -0.286 OA
BRANCH  14  16
HETATM   16  C22 UNL     1       6.072   1.314  -0.104  1.00  0.00     0.026 C 
HETATM   17  C23 UNL     1       5.649   1.423  -1.534  1.00  0.00     0.024 C 
HETATM   18  C24 UNL     1       7.060   0.194   0.160  1.00  0.00     0.017 C 
HETATM   19  C25 UNL     1       7.924   1.189   0.901  1.00  0.00     0.002 C 
HETATM   20  C26 UNL     1       7.133   2.309   0.292  1.00  0.00     0.017 C 
ENDBRANCH  14  16
ENDBRANCH  11  14
ENDBRANCH   9  10
BRANCH   9  21
HETATM   21  C27 UNL     1       2.322  -1.998   2.626  1.00  0.00     0.001 C 
HETATM   22  C28 UNL     1       3.765  -2.485   2.425  1.00  0.00     0.011 C 
HETATM   23  C29 UNL     1       1.503  -3.247   2.722  1.00  0.00     0.011 C 
ENDBRANCH   9  21
ENDBRANCH   5   9
ENDBRANCH   1   3
BRANCH   1  24
HETATM   24  N1  UNL     1      -2.340  -1.710  -0.643  1.00  0.00    -0.369 NA
HETATM   25  C6  UNL     1      -2.538  -2.878  -1.167  1.00  0.00     0.314 C 
HETATM   26  O1  UNL     1      -1.974  -3.381  -2.223  1.00  0.00    -0.255 OA
BRANCH  25  27
HETATM   27  C7  UNL     1      -3.528  -3.848  -0.545  1.00  0.00     0.186 C 
HETATM   28  C8  UNL     1      -4.856  -3.117  -0.491  1.00  0.00     0.043 C 
BRANCH  27  29
HETATM   29  N2  UNL     1      -3.611  -5.086  -1.246  1.00  0.00    -0.355 N 
ATOM     30  H2  UNL     1      -3.282  -5.909  -0.741  1.00  0.00     0.162 HD
BRANCH  29  31
HETATM   31  C9  UNL     1      -4.089  -5.312  -2.543  1.00  0.00     0.181 C 
HETATM   32  N3  UNL     1      -4.085  -6.626  -3.076  1.00  0.00    -0.070 NA
HETATM   33  S1  UNL     1      -4.684  -4.132  -3.507  1.00  0.00    -0.044 SA
ENDBRANCH  29  31
ENDBRANCH  27  29
ENDBRANCH  25  27
ENDBRANCH   1  24
BRANCH   2  34
HETATM   34  O2  UNL     1      -3.678  -0.026  -2.007  1.00  0.00    -0.344 OA
ATOM     35  H2  UNL     1      -4.174   0.637  -2.473  1.00  0.00     0.219 HD
ENDBRANCH   2  34
BRANCH   2  36
HETATM   36  N4  UNL     1      -3.214   1.830  -0.811  1.00  0.00    -0.356 N 
HETATM   37  C11 UNL     1      -4.055   2.477  -1.858  1.00  0.00     0.145 C 
HETATM   38  C12 UNL     1      -5.136   3.230  -1.116  1.00  0.00     0.145 C 
HETATM   39  N5  UNL     1      -4.416   4.294  -0.407  1.00  0.00    -0.349 N 
HETATM   40  C13 UNL     1      -4.690   5.646  -0.730  1.00  0.00     0.215 C 
HETATM   41  C15 UNL     1      -3.476   3.876   0.573  1.00  0.00     0.145 C 
HETATM   42  C14 UNL     1      -4.006   6.772  -0.071  1.00  0.00     0.117 C 
HETATM   43  O3  UNL     1      -5.551   5.895  -1.617  1.00  0.00    -0.274 OA
HETATM   44  C16 UNL     1      -2.711   2.612   0.258  1.00  0.00     0.145 C 
ENDBRANCH   2  36
TORSDOF 13
