REMARK  14 active torsions:
REMARK  status: ('A' for Active; 'I' for Inactive)
REMARK    1  A    between atoms: C2_2  and  C3_3 
REMARK    2  A    between atoms: C3_3  and  C6_6 
REMARK    3  A    between atoms: C6_6  and  C7_7 
REMARK    4  A    between atoms: C7_7  and  N1_8 
REMARK    5  A    between atoms: C7_7  and  C27_40 
REMARK       I    between atoms: N1_8  and  C8_10 
REMARK    6  A    between atoms: C8_10  and  C9_12 
REMARK    7  A    between atoms: N2_19  and  C15_20 
REMARK    8  A    between atoms: C15_20  and  O3_21 
REMARK    9  A    between atoms: C15_20  and  C16_23 
REMARK   10  A    between atoms: C16_23  and  N3_24 
REMARK       I    between atoms: N3_24  and  C17_26 
REMARK   11  A    between atoms: C17_26  and  C18_28 
REMARK   12  A    between atoms: C18_28  and  N4_30 
REMARK   13  A    between atoms: C27_40  and  O5_41 
REMARK   14  A    between atoms: C27_40  and  N5_43 
ROOT
HETATM    1  C9  UNL     1      -0.016  -1.400  -1.770  1.00  0.00     0.210 C 
HETATM    2  C10 UNL     1      -0.855  -2.616  -1.885  1.00  0.00     0.183 A 
HETATM    3  O2  UNL     1      -0.596  -3.751  -2.578  1.00  0.00    -0.373 OA
HETATM    4  C11 UNL     1      -0.549  -3.759  -1.122  1.00  0.00     0.155 A 
HETATM    5  C12 UNL     1       0.839  -3.865  -0.614  1.00  0.00     0.059 C 
HETATM    6  C13 UNL     1       1.800  -3.003  -1.420  1.00  0.00     0.085 C 
HETATM    7  C14 UNL     1       1.872  -3.487  -2.854  1.00  0.00     0.032 C 
HETATM    8  N2  UNL     1       1.383  -1.620  -1.440  1.00  0.00    -0.343 N 
ENDROOT
BRANCH   1   9
HETATM    9  C8  UNL     1      -0.743  -0.586  -0.720  1.00  0.00     0.247 C 
HETATM   10  N1  UNL     1      -2.041  -0.131  -0.960  1.00  0.00    -0.322 N 
ATOM     11  H1  UNL     1      -2.478  -0.356  -1.854  1.00  0.00     0.169 HD
HETATM   12  O1  UNL     1      -0.133  -0.354   0.340  1.00  0.00    -0.271 OA
BRANCH  10  13
HETATM   13  C7  UNL     1      -2.839   0.691   0.057  1.00  0.00     0.083 C 
BRANCH  13  14
HETATM   14  C6  UNL     1      -3.164   1.946  -0.542  1.00  0.00     0.016 C 
BRANCH  14  15
HETATM   15  C3  UNL     1      -3.841   3.104   0.021  1.00  0.00    -0.028 C 
HETATM   16  C4  UNL     1      -5.298   3.215   0.124  1.00  0.00     0.019 C 
HETATM   17  C5  UNL     1      -3.494   4.261  -1.041  1.00  0.00     0.019 C 
BRANCH  15  18
HETATM   18  C2  UNL     1      -3.173   3.681   1.260  1.00  0.00     0.008 C 
HETATM   19  C1  UNL     1      -3.573   5.135   1.361  1.00  0.00     0.006 C 
ENDBRANCH  15  18
ENDBRANCH  14  15
ENDBRANCH  13  14
BRANCH  13  20
HETATM   20  C27 UNL     1      -3.566  -0.270   0.832  1.00  0.00     0.165 C 
BRANCH  20  21
HETATM   21  O5  UNL     1      -2.688  -1.278   1.239  1.00  0.00    -0.344 OA
ATOM     22  H5  UNL     1      -3.170  -1.915   1.753  1.00  0.00     0.219 HD
ENDBRANCH  20  21
BRANCH  20  23
HETATM   23  N5  UNL     1      -4.801  -0.592   1.332  1.00  0.00    -0.360 N 
HETATM   24  C28 UNL     1      -4.892  -1.795   2.232  1.00  0.00     0.125 C 
HETATM   25  C29 UNL     1      -5.447  -2.891   1.360  1.00  0.00     0.020 C 
HETATM   26  C30 UNL     1      -6.753  -2.461   0.781  1.00  0.00     0.003 C 
HETATM   27  C31 UNL     1      -7.182  -1.134   1.354  1.00  0.00     0.020 C 
HETATM   28  C32 UNL     1      -6.115  -0.050   1.122  1.00  0.00     0.125 C 
ENDBRANCH  20  23
ENDBRANCH  13  20
ENDBRANCH  10  13
ENDBRANCH   1   9
BRANCH   8  29
HETATM   29  C15 UNL     1       2.281  -0.609  -1.170  1.00  0.00     0.144 C 
BRANCH  29  30
HETATM   30  O3  UNL     1       1.731   0.593  -1.309  1.00  0.00    -0.347 OA
ATOM     31  H3  UNL     1       2.350   1.290  -1.123  1.00  0.00     0.219 HD
ENDBRANCH  29  30
BRANCH  29  32
HETATM   32  C16 UNL     1       3.653  -0.485  -0.766  1.00  0.00     0.102 C 
HETATM   33  C21 UNL     1       4.474   0.277  -1.848  1.00  0.00     0.046 C 
HETATM   34  C22 UNL     1       4.846  -1.056  -2.277  1.00  0.00     0.004 A 
HETATM   35  C23 UNL     1       4.725  -1.447  -0.822  1.00  0.00     0.035 A 
HETATM   36  C24 UNL     1       5.689  -2.040  -1.748  1.00  0.00    -0.037 A 
HETATM   37  C25 UNL     1       5.674  -3.523  -1.923  1.00  0.00     0.015 C 
HETATM   38  C26 UNL     1       7.189  -1.592  -1.755  1.00  0.00     0.015 C 
BRANCH  32  39
HETATM   39  N3  UNL     1       3.687   0.490   0.364  1.00  0.00    -0.342 N 
HETATM   40  C17 UNL     1       4.771   1.001   1.043  1.00  0.00     0.249 C 
HETATM   41  O4  UNL     1       5.953   0.711   0.795  1.00  0.00    -0.271 OA
ATOM     42  H3  UNL     1       2.777   0.826   0.678  1.00  0.00     0.163 HD
BRANCH  40  43
HETATM   43  C18 UNL     1       4.604   1.994   2.186  1.00  0.00     0.272 C 
HETATM   44  C19 UNL     1       3.821   3.173   1.708  1.00  0.00     0.050 C 
BRANCH  43  45
HETATM   45  N4  UNL     1       5.895   2.399   2.675  1.00  0.00    -0.067 N 
HETATM   46  C20 UNL     1       5.845   2.797   4.041  1.00  0.00     0.267 C 
ATOM     47  H42 UNL     1       6.593   1.670   2.527  1.00  0.00     0.277 HD
ATOM     48  H41 UNL     1       6.300   3.130   2.090  1.00  0.00     0.277 HD
ENDBRANCH  43  45
ENDBRANCH  40  43
ENDBRANCH  32  39
ENDBRANCH  29  32
ENDBRANCH   8  29
TORSDOF 14
