REMARK  11 active torsions:
REMARK  status: ('A' for Active; 'I' for Inactive)
REMARK    1  A    between atoms: C2_2  and  N1_3 
REMARK       I    between atoms: N1_3  and  C3_5 
REMARK    2  A    between atoms: C3_5  and  C4_7 
REMARK    3  A    between atoms: C5_8  and  C6_9 
REMARK       I    between atoms: C6_9  and  N2_11 
REMARK    4  A    between atoms: N2_11  and  C7_13 
REMARK    5  A    between atoms: C7_13  and  C8_14 
REMARK    6  A    between atoms: C7_13  and  C10_19 
REMARK    7  A    between atoms: C8_14  and  C9_16 
REMARK       I    between atoms: C10_19  and  N4_21 
REMARK    8  A    between atoms: C14_25  and  C15_26 
REMARK    9  A    between atoms: C15_26  and  C16_27 
REMARK   10  A    between atoms: N5_37  and  C26_38 
REMARK   11  A    between atoms: C26_38  and  C27_39 
ROOT
HETATM    1  C4  UNL     1      -1.775  -0.146   1.110  1.00  0.00     0.189 C 
HETATM    2  C5  UNL     1      -1.223  -1.278   1.884  1.00  0.00     0.114 C 
HETATM    3  C20 UNL     1      -2.162  -2.415   2.100  1.00  0.00     0.010 C 
HETATM    4  C21 UNL     1      -2.045  -3.118   3.390  1.00  0.00     0.006 C 
HETATM    5  C22 UNL     1      -3.413  -3.722   3.598  1.00  0.00     0.001 C 
HETATM    6  C23 UNL     1      -4.319  -3.104   2.560  1.00  0.00     0.010 C 
HETATM    7  C24 UNL     1      -3.582  -1.865   2.182  1.00  0.00     0.029 C 
HETATM    8  C25 UNL     1      -3.872  -1.383   0.785  1.00  0.00     0.064 C 
HETATM    9  N5  UNL     1      -2.999  -0.366   0.439  1.00  0.00    -0.379 N 
ENDROOT
BRANCH   2  10
HETATM   10  C6  UNL     1       0.056  -1.795   1.373  1.00  0.00     0.225 C 
HETATM   11  O2  UNL     1       0.056  -2.889   0.716  1.00  0.00    -0.273 OA
HETATM   12  N2  UNL     1       1.295  -1.149   1.564  1.00  0.00    -0.341 N 
ATOM     13  H2  UNL     1       1.304  -0.274   2.089  1.00  0.00     0.163 HD
BRANCH  12  14
HETATM   14  C7  UNL     1       2.573  -1.661   1.052  1.00  0.00     0.257 C 
BRANCH  14  15
HETATM   15  C8  UNL     1       3.363  -2.122   2.239  1.00  0.00     0.245 C 
HETATM   16  O3  UNL     1       2.800  -1.936   3.383  1.00  0.00    -0.285 OA
BRANCH  15  17
HETATM   17  C9  UNL     1       4.651  -2.734   2.212  1.00  0.00     0.303 C 
HETATM   18  N3  UNL     1       5.272  -3.105   3.476  1.00  0.00    -0.054 NA
HETATM   19  O4  UNL     1       5.329  -2.996   1.199  1.00  0.00    -0.268 OA
ENDBRANCH  15  17
ENDBRANCH  14  15
BRANCH  14  20
HETATM   20  C10 UNL     1       3.332  -0.550   0.420  1.00  0.00     0.251 C 
HETATM   21  O5  UNL     1       3.358   0.534   1.108  1.00  0.00    -0.271 OA
HETATM   22  N4  UNL     1       3.993  -0.577  -0.811  1.00  0.00    -0.345 N 
HETATM   23  C11 UNL     1       3.901  -1.750  -1.708  1.00  0.00     0.126 C 
HETATM   24  C14 UNL     1       4.859   0.372  -1.503  1.00  0.00     0.088 C 
HETATM   25  C12 UNL     1       3.833  -1.172  -3.095  1.00  0.00     0.022 C 
HETATM   26  C13 UNL     1       4.438   0.201  -2.931  1.00  0.00     0.027 C 
BRANCH  24  27
HETATM   27  C15 UNL     1       4.759   1.704  -0.909  1.00  0.00     0.033 C 
BRANCH  27  28
HETATM   28  C16 UNL     1       5.564   2.818  -1.513  1.00  0.00    -0.050 C 
HETATM   29  C17 UNL     1       5.242   4.057  -0.647  1.00  0.00     0.014 C 
HETATM   30  C18 UNL     1       5.029   3.186  -2.876  1.00  0.00     0.014 C 
HETATM   31  C19 UNL     1       7.030   2.639  -1.485  1.00  0.00     0.014 C 
ENDBRANCH  27  28
ENDBRANCH  24  27
ENDBRANCH  14  20
ENDBRANCH  12  14
ENDBRANCH   2  10
BRANCH   1  32
HETATM   32  C3  UNL     1      -1.905   1.114   1.930  1.00  0.00     0.241 C 
HETATM   33  N1  UNL     1      -3.138   1.744   2.203  1.00  0.00    -0.360 N 
ATOM     34  H1  UNL     1      -4.012   1.353   1.851  1.00  0.00     0.162 HD
HETATM   35  O1  UNL     1      -0.854   1.623   2.390  1.00  0.00    -0.271 OA
BRANCH  33  36
HETATM   36  C2  UNL     1      -3.135   2.958   2.994  1.00  0.00     0.118 C 
HETATM   37  C1  UNL     1      -4.564   3.468   3.197  1.00  0.00     0.026 C 
ENDBRANCH  33  36
ENDBRANCH   1  32
BRANCH   9  38
HETATM   38  C26 UNL     1      -3.248   0.470  -0.669  1.00  0.00     0.127 C 
BRANCH  38  39
HETATM   39  C27 UNL     1      -4.519   0.248  -1.430  1.00  0.00     0.003 C 
HETATM   40  C28 UNL     1      -4.667  -1.098  -2.055  1.00  0.00     0.006 C 
HETATM   41  C29 UNL     1      -5.238  -0.991  -3.471  1.00  0.00     0.000 C 
HETATM   42  C30 UNL     1      -4.279  -0.217  -4.355  1.00  0.00     0.000 C 
HETATM   43  C31 UNL     1      -3.864   1.072  -3.726  1.00  0.00     0.000 C 
HETATM   44  C32 UNL     1      -4.722   1.326  -2.498  1.00  0.00     0.006 C 
ENDBRANCH  38  39
ENDBRANCH   9  38
TORSDOF 11
