REMARK  5 active torsions:
REMARK  status: ('A' for Active; 'I' for Inactive)
REMARK    1  A    between atoms: C2_2  and  N1_3 
REMARK    2  A    between atoms: N3_8  and  C5_9 
REMARK    3  A    between atoms: C5_9  and  C6_10 
REMARK    4  A    between atoms: C6_10  and  N4_11 
REMARK    5  A    between atoms: N4_11  and  C7_13 
ROOT
HETATM    1  N1  UNL     1      -1.682   0.066   0.069  1.00  0.00    -0.207 N 
HETATM    2  N2  UNL     1      -2.826  -0.486  -0.334  1.00  0.00    -0.290 N 
ATOM      3  H2  UNL     1      -3.669   0.027  -0.592  1.00  0.00     0.188 HD
HETATM    4  C3  UNL     1      -2.696  -1.823  -0.347  1.00  0.00     0.128 A 
HETATM    5  C4  UNL     1      -1.397  -2.052   0.074  1.00  0.00     0.131 A 
HETATM    6  N3  UNL     1      -0.788  -0.878   0.325  1.00  0.00    -0.280 N 
ENDROOT
BRANCH   6   7
HETATM    7  C5  UNL     1       0.590  -0.728   0.788  1.00  0.00     0.170 C 
BRANCH   7   8
HETATM    8  C6  UNL     1       1.448  -0.628  -0.447  1.00  0.00     0.142 C 
BRANCH   8   9
HETATM    9  N4  UNL     1       2.841  -0.480  -0.208  1.00  0.00    -0.385 N 
ATOM     10  H4  UNL     1       3.479  -1.240  -0.446  1.00  0.00     0.160 HD
BRANCH   9  11
HETATM   11  C7  UNL     1       3.352   0.715   0.359  1.00  0.00     0.168 C 
HETATM   12  N5  UNL     1       4.256   1.404  -0.296  1.00  0.00    -0.396 N 
ATOM     13  H52 UNL     1       4.578   1.069  -1.204  1.00  0.00     0.156 HD
ATOM     14  H51 UNL     1       4.624   2.264   0.112  1.00  0.00     0.156 HD
ENDBRANCH   9  11
ENDBRANCH   8   9
ENDBRANCH   7   8
ENDBRANCH   6   7
BRANCH   1  15
HETATM   15  C2  UNL     1      -1.424   1.448   0.219  1.00  0.00     0.126 C 
HETATM   16  C1  UNL     1      -2.397   2.318   0.009  1.00  0.00     0.033 C 
ENDBRANCH   1  15
TORSDOF 5
