REMARK  5 active torsions:
REMARK  status: ('A' for Active; 'I' for Inactive)
REMARK    1  A    between atoms: N2_4  and  N3_6 
REMARK    2  A    between atoms: C1_8  and  N4_9 
REMARK    3  A    between atoms: N4_9  and  C2_11 
REMARK    4  A    between atoms: C2_11  and  C3_12 
REMARK    5  A    between atoms: C3_12  and  N5_13 
ROOT
HETATM    1  N4  UNL     1       1.850  -0.656  -1.069  1.00  0.00    -0.383 N 
ATOM      2  H4  UNL     1       2.163  -0.643  -2.040  1.00  0.00     0.160 HD
ENDROOT
BRANCH   1   3
HETATM    3  C1  UNL     1       2.604  -1.410  -0.130  1.00  0.00     0.194 C 
HETATM    4  N3  UNL     1       3.601  -0.859   0.456  1.00  0.00    -0.283 N 
ATOM      5  H3  UNL     1       4.144  -1.395   1.133  1.00  0.00     0.189 HD
BRANCH   4   6
HETATM    6  N2  UNL     1       3.955   0.458   0.185  1.00  0.00    -0.248 N 
HETATM    7  N1  UNL     1       3.898   0.924  -0.978  1.00  0.00    -0.331 N 
ATOM      8  H12 UNL     1       3.583   0.311  -1.730  1.00  0.00     0.178 HD
ATOM      9  H11 UNL     1       4.158   1.890  -1.177  1.00  0.00     0.178 HD
ATOM     10  H2  UNL     1       4.268   1.058   0.948  1.00  0.00     0.207 HD
ENDBRANCH   4   6
ENDBRANCH   1   3
BRANCH   1  11
HETATM   11  C2  UNL     1       0.665   0.093  -0.724  1.00  0.00     0.142 C 
BRANCH  11  12
HETATM   12  C3  UNL     1      -0.474  -0.857  -0.347  1.00  0.00     0.167 C 
BRANCH  12  13
HETATM   13  N5  UNL     1      -1.658  -0.090   0.001  1.00  0.00    -0.302 N 
HETATM   14  C4  UNL     1      -2.013   0.366   1.221  1.00  0.00     0.111 A 
HETATM   15  C5  UNL     1      -3.203   1.038   1.078  1.00  0.00     0.037 A 
HETATM   16  C6  UNL     1      -3.564   0.980  -0.263  1.00  0.00     0.108 A 
HETATM   17  N6  UNL     1      -2.575   0.276  -0.859  1.00  0.00    -0.310 N 
ATOM     18  H6  UNL     1      -2.547   0.057  -1.855  1.00  0.00     0.186 HD
ENDBRANCH  12  13
ENDBRANCH  11  12
ENDBRANCH   1  11
TORSDOF 5
