REMARK  5 active torsions:
REMARK  status: ('A' for Active; 'I' for Inactive)
REMARK    1  A    between atoms: C1_4  and  C2_5 
REMARK    2  A    between atoms: N3_10  and  C5_11 
REMARK    3  A    between atoms: C5_11  and  C6_12 
REMARK    4  A    between atoms: C6_12  and  N4_13 
REMARK    5  A    between atoms: N4_13  and  C7_15 
ROOT
HETATM    1  C2  UNL     1      -1.641   0.059  -0.368  1.00  0.00     0.122 A 
HETATM    2  N2  UNL     1      -2.778  -0.538   0.044  1.00  0.00    -0.350 N 
ATOM      3  H2  UNL     1      -3.723  -0.156  -0.002  1.00  0.00     0.166 HD
HETATM    4  C3  UNL     1      -2.416  -1.728   0.523  1.00  0.00     0.107 A 
HETATM    5  C4  UNL     1      -1.058  -1.852   0.402  1.00  0.00     0.109 A 
HETATM    6  N3  UNL     1      -0.588  -0.730  -0.155  1.00  0.00    -0.339 N 
ENDROOT
BRANCH   6   7
HETATM    7  C5  UNL     1       0.808  -0.507  -0.431  1.00  0.00     0.149 C 
BRANCH   7   8
HETATM    8  C6  UNL     1       1.553   0.121   0.685  1.00  0.00     0.142 C 
BRANCH   8   9
HETATM    9  N4  UNL     1       2.939   0.302   0.323  1.00  0.00    -0.367 N 
ATOM     10  H4  UNL     1       3.641  -0.194   0.873  1.00  0.00     0.161 HD
BRANCH   9  11
HETATM   11  C7  UNL     1       3.392   1.115  -0.736  1.00  0.00     0.348 C 
HETATM   12  O1  UNL     1       2.575   1.747  -1.431  1.00  0.00    -0.284 OA
ENDBRANCH   9  11
ENDBRANCH   8   9
ENDBRANCH   7   8
ENDBRANCH   6   7
BRANCH   1  13
HETATM   13  C1  UNL     1      -1.615   1.387  -0.959  1.00  0.00     0.129 C 
HETATM   14  N1  UNL     1      -2.653   2.115  -1.147  1.00  0.00    -0.405 N 
ATOM     15  H12 UNL     1      -3.548   1.722  -0.857  1.00  0.00     0.155 HD
ATOM     16  H11 UNL     1      -2.635   3.047  -1.562  1.00  0.00     0.155 HD
ENDBRANCH   1  13
TORSDOF 5
