REMARK  6 active torsions:
REMARK  status: ('A' for Active; 'I' for Inactive)
REMARK    1  A    between atoms: C4_4  and  C5_5 
REMARK    2  A    between atoms: C6_6  and  C7_7 
REMARK    3  A    between atoms: C7_7  and  N1_8 
REMARK    4  A    between atoms: N1_8  and  C8_11 
REMARK    5  A    between atoms: C8_11  and  C9_12 
REMARK    6  A    between atoms: C9_12  and  N2_13 
ROOT
HETATM    1  C1  UNL     1       5.779  -0.505   1.379  1.00  0.00     0.027 C 
HETATM    2  C2  UNL     1       4.832  -0.477   0.629  1.00  0.00    -0.026 C 
HETATM    3  C3  UNL     1       3.720  -0.468  -0.258  1.00  0.00    -0.011 C 
HETATM    4  C4  UNL     1       2.771  -0.478  -1.004  1.00  0.00    -0.065 C 
ENDROOT
BRANCH   4   5
HETATM    5  C5  UNL     1       1.635  -0.509  -1.885  1.00  0.00     0.063 C 
HETATM    6  C6  UNL     1       0.513   0.036  -1.485  1.00  0.00     0.009 C 
BRANCH   6   7
HETATM    7  C7  UNL     1       0.417   0.667  -0.159  1.00  0.00     0.260 C 
BRANCH   7   8
HETATM    8  N1  UNL     1      -0.577   0.035   0.642  1.00  0.00    -0.070 N 
ATOM      9  H12 UNL     1      -0.397  -0.964   0.740  1.00  0.00     0.277 HD
ATOM     10  H11 UNL     1      -0.495   0.308   1.621  1.00  0.00     0.277 HD
BRANCH   8  11
HETATM   11  C8  UNL     1      -1.892   0.281   0.141  1.00  0.00     0.253 C 
BRANCH  11  12
HETATM   12  C9  UNL     1      -2.970  -0.409   0.957  1.00  0.00     0.166 C 
BRANCH  12  13
HETATM   13  N2  UNL     1      -4.220  -0.075   0.345  1.00  0.00    -0.341 N 
HETATM   14  N3  UNL     1      -4.687   1.053   0.569  1.00  0.00    -0.349 N 
ATOM     15  H32 UNL     1      -4.185   1.707   1.170  1.00  0.00     0.176 HD
ATOM     16  H31 UNL     1      -5.578   1.291   0.133  1.00  0.00     0.176 HD
ATOM     17  H2  UNL     1      -4.709  -0.740  -0.254  1.00  0.00     0.179 HD
ENDBRANCH  12  13
ENDBRANCH  11  12
ENDBRANCH   8  11
ENDBRANCH   7   8
ENDBRANCH   6   7
ENDBRANCH   4   5
TORSDOF 6
