REMARK  6 active torsions:
REMARK  status: ('A' for Active; 'I' for Inactive)
REMARK    1  A    between atoms: N1_1  and  C1_5 
REMARK    2  A    between atoms: C1_5  and  N2_6 
REMARK    3  A    between atoms: C2_8  and  C3_9 
REMARK    4  A    between atoms: C5_11  and  C6_12 
REMARK    5  A    between atoms: C6_12  and  N3_13 
REMARK    6  A    between atoms: N3_13  and  C7_15 
ROOT
HETATM    1  C3  UNL     1       0.044   0.032  -0.636  1.00  0.00     0.030 A 
HETATM    2  C4  UNL     1       0.762  -1.285  -0.836  1.00  0.00     0.017 A 
HETATM    3  C5  UNL     1       1.079  -0.356   0.351  1.00  0.00     0.013 A 
ENDROOT
BRANCH   1   4
HETATM    4  C2  UNL     1      -1.380  -0.100  -0.215  1.00  0.00     0.062 C 
HETATM    5  N2  UNL     1      -2.292   0.677  -0.688  1.00  0.00    -0.380 N 
ATOM      6  H2  UNL     1      -2.025   1.393  -1.363  1.00  0.00     0.160 HD
BRANCH   5   7
HETATM    7  C1  UNL     1      -3.668   0.572  -0.300  1.00  0.00     0.351 C 
BRANCH   7   8
HETATM    8  N1  UNL     1      -4.502   0.487  -1.474  1.00  0.00    -0.064 N 
ATOM      9  H13 UNL     1      -4.343   1.264  -2.115  1.00  0.00     0.276 HD
ATOM     10  H12 UNL     1      -4.219  -0.274  -2.091  1.00  0.00     0.276 HD
ATOM     11  H11 UNL     1      -5.481   0.412  -1.198  1.00  0.00     0.276 HD
ENDBRANCH   7   8
ENDBRANCH   5   7
ENDBRANCH   1   4
BRANCH   3  12
HETATM   12  C6  UNL     1       2.458   0.194   0.334  1.00  0.00     0.127 C 
BRANCH  12  13
HETATM   13  N3  UNL     1       3.215  -0.382   1.419  1.00  0.00    -0.368 N 
ATOM     14  H3  UNL     1       2.755  -1.054   2.033  1.00  0.00     0.161 HD
BRANCH  13  15
HETATM   15  C7  UNL     1       4.577  -0.051   1.668  1.00  0.00     0.348 C 
HETATM   16  O1  UNL     1       5.130   0.773   0.907  1.00  0.00    -0.284 OA
ENDBRANCH  13  15
ENDBRANCH  12  13
ENDBRANCH   3  12
TORSDOF 6
