REMARK  5 active torsions:
REMARK  status: ('A' for Active; 'I' for Inactive)
REMARK    1  A    between atoms: C2_2  and  N1_3 
REMARK    2  A    between atoms: N1_3  and  C3_4 
REMARK    3  A    between atoms: N1_3  and  N4_12 
REMARK    4  A    between atoms: N2_5  and  N3_7 
REMARK    5  A    between atoms: N3_7  and  C4_9 
ROOT
HETATM    1  C3  UNL     1      -0.039   0.017   0.678  1.00  0.00     0.212 C 
HETATM    2  N2  UNL     1       0.406   1.149   0.257  1.00  0.00    -0.299 N 
ATOM      3  H2  UNL     1      -0.246   1.881  -0.025  1.00  0.00     0.187 HD
ENDROOT
BRANCH   2   4
HETATM    4  N3  UNL     1       1.787   1.375   0.187  1.00  0.00    -0.331 N 
ATOM      5  H3  UNL     1       2.106   2.306  -0.080  1.00  0.00     0.180 HD
BRANCH   4   6
HETATM    6  C4  UNL     1       2.789   0.370   0.470  1.00  0.00     0.099 A 
HETATM    7  C5  UNL     1       2.901  -0.832  -0.374  1.00  0.00     0.029 A 
HETATM    8  C6  UNL     1       3.966   0.232  -0.450  1.00  0.00     0.029 A 
ENDBRANCH   4   6
ENDBRANCH   2   4
BRANCH   1   9
HETATM    9  N1  UNL     1      -1.448  -0.183   0.737  1.00  0.00    -0.291 N 
BRANCH   9  10
HETATM   10  C2  UNL     1      -2.037  -1.479   0.469  1.00  0.00     0.141 C 
HETATM   11  C1  UNL     1      -1.873  -1.804  -1.002  1.00  0.00     0.028 C 
ENDBRANCH   9  10
BRANCH   9  12
HETATM   12  N4  UNL     1      -2.339   0.852   1.055  1.00  0.00    -0.143 NA
HETATM   13  C7  UNL     1      -2.894   1.471  -0.132  1.00  0.00     0.159 C 
ENDBRANCH   9  12
ENDBRANCH   1   9
TORSDOF 5
