REMARK  6 active torsions:
REMARK  status: ('A' for Active; 'I' for Inactive)
REMARK    1  A    between atoms: N1_1  and  C1_5 
REMARK    2  A    between atoms: C1_5  and  C2_6 
REMARK    3  A    between atoms: C2_6  and  N2_7 
REMARK    4  A    between atoms: C3_9  and  C4_10 
REMARK    5  A    between atoms: C5_11  and  C6_12 
REMARK    6  A    between atoms: C6_12  and  C7_13 
ROOT
HETATM    1  N2  UNL     1       1.616  -0.574   0.503  1.00  0.00    -0.397 N 
ATOM      2  H2  UNL     1       1.744  -1.508   0.893  1.00  0.00     0.158 HD
HETATM    3  C3  UNL     1       0.446  -0.235   0.065  1.00  0.00     0.082 C 
ENDROOT
BRANCH   3   4
HETATM    4  C4  UNL     1      -0.651  -1.172   0.133  1.00  0.00     0.013 C 
HETATM    5  C5  UNL     1      -1.837  -0.846  -0.305  1.00  0.00    -0.023 C 
BRANCH   5   6
HETATM    6  C6  UNL     1      -2.185   0.449  -0.894  1.00  0.00     0.062 C 
BRANCH   6   7
HETATM    7  C7  UNL     1      -3.268   1.060  -0.026  1.00  0.00     0.214 A 
HETATM    8  C8  UNL     1      -4.518   0.207   0.053  1.00  0.00     0.266 A 
HETATM    9  N3  UNL     1      -3.648   0.396   1.195  1.00  0.00    -0.067 N 
ATOM     10  H32 UNL     1      -3.163  -0.251   1.817  1.00  0.00     0.277 HD
ATOM     11  H31 UNL     1      -3.808   0.725   2.147  1.00  0.00     0.277 HD
ENDBRANCH   6   7
ENDBRANCH   5   6
ENDBRANCH   3   4
BRANCH   1  12
HETATM   12  C2  UNL     1       2.750   0.326   0.459  1.00  0.00     0.146 C 
BRANCH  12  13
HETATM   13  C1  UNL     1       4.029  -0.495   0.457  1.00  0.00     0.249 C 
BRANCH  13  14
HETATM   14  N1  UNL     1       5.200   0.327   0.414  1.00  0.00    -0.078 N 
ATOM     15  H13 UNL     1       5.172   0.968  -0.379  1.00  0.00     0.274 HD
ATOM     16  H12 UNL     1       5.200   1.008   1.173  1.00  0.00     0.274 HD
ATOM     17  H11 UNL     1       6.058  -0.224   0.413  1.00  0.00     0.274 HD
ENDBRANCH  13  14
ENDBRANCH  12  13
ENDBRANCH   1  12
TORSDOF 6
