REMARK  6 active torsions:
REMARK  status: ('A' for Active; 'I' for Inactive)
REMARK    1  A    between atoms: C2_2  and  N1_3 
REMARK    2  A    between atoms: C2_2  and  C3_7 
REMARK    3  A    between atoms: C2_2  and  C4_9 
REMARK    4  A    between atoms: C4_9  and  N2_10 
REMARK    5  A    between atoms: N2_10  and  C5_12 
REMARK    6  A    between atoms: N3_13  and  N4_15 
ROOT
HETATM    1  N2  UNL     1       1.154   0.327  -0.235  1.00  0.00    -0.382 N 
ATOM      2  H2  UNL     1       1.717   0.776  -0.957  1.00  0.00     0.160 HD
ENDROOT
BRANCH   1   3
HETATM    3  C4  UNL     1      -0.095   0.940   0.102  1.00  0.00     0.166 C 
BRANCH   3   4
HETATM    4  C2  UNL     1      -1.318   0.180  -0.284  1.00  0.00     0.187 C 
HETATM    5  C1  UNL     1      -1.453  -1.177   0.322  1.00  0.00     0.056 C 
BRANCH   4   6
HETATM    6  N1  UNL     1      -1.385   0.001  -1.733  1.00  0.00    -0.063 N 
ATOM      7  H13 UNL     1      -0.702  -0.668  -2.088  1.00  0.00     0.275 HD
ATOM      8  H12 UNL     1      -2.222  -0.495  -2.039  1.00  0.00     0.275 HD
ATOM      9  H11 UNL     1      -1.293   0.929  -2.147  1.00  0.00     0.275 HD
ENDBRANCH   4   6
BRANCH   4  10
HETATM   10  C3  UNL     1      -2.499   0.992   0.170  1.00  0.00     0.271 C 
HETATM   11  O1  UNL     1      -2.655   1.274   1.343  1.00  0.00    -0.304 OA
ENDBRANCH   4  10
ENDBRANCH   3   4
ENDBRANCH   1   3
BRANCH   1  12
HETATM   12  C5  UNL     1       1.664  -0.838   0.347  1.00  0.00     0.194 C 
HETATM   13  N3  UNL     1       2.898  -0.892   0.803  1.00  0.00    -0.283 N 
ATOM     14  H3  UNL     1       3.263  -1.745   1.226  1.00  0.00     0.189 HD
BRANCH  13  15
HETATM   15  N4  UNL     1       3.704   0.263   0.691  1.00  0.00    -0.248 N 
HETATM   16  N5  UNL     1       4.889   0.070   0.296  1.00  0.00    -0.331 N 
ATOM     17  H52 UNL     1       5.227  -0.867   0.076  1.00  0.00     0.178 HD
ATOM     18  H51 UNL     1       5.471   0.904   0.215  1.00  0.00     0.178 HD
ATOM     19  H4  UNL     1       3.352   1.194   0.915  1.00  0.00     0.207 HD
ENDBRANCH  13  15
ENDBRANCH   1  12
TORSDOF 6
