REMARK  16 active torsions:
REMARK  status: ('A' for Active; 'I' for Inactive)
REMARK       I    between atoms: N1_2  and  C2_4 
REMARK    1  A    between atoms: C2_4  and  C3_6 
REMARK    2  A    between atoms: C3_6  and  N2_7 
REMARK    3  A    between atoms: C3_6  and  C26_47 
REMARK    4  A    between atoms: N2_7  and  C4_9 
REMARK    5  A    between atoms: C4_9  and  C5_10 
REMARK    6  A    between atoms: C4_9  and  C13_22 
REMARK    7  A    between atoms: C5_10  and  N3_11 
REMARK    8  A    between atoms: C8_14  and  N4_15 
REMARK       I    between atoms: N4_15  and  C9_17 
REMARK    9  A    between atoms: C13_22  and  N5_23 
REMARK   10  A    between atoms: C13_22  and  N9_38 
REMARK   11  A    between atoms: N5_23  and  C14_24 
REMARK   12  A    between atoms: C14_24  and  N6_26 
REMARK       I    between atoms: C15_28  and  N8_30 
REMARK   13  A    between atoms: N8_30  and  C16_32 
REMARK   14  A    between atoms: N9_38  and  C22_40 
REMARK   15  A    between atoms: C22_40  and  C24_42 
REMARK       I    between atoms: C24_42  and  N10_44 
REMARK   16  A    between atoms: C26_47  and  C28_49 
ROOT
HETATM    1  C4  UNL     1       1.386  -0.186   0.612  1.00  0.00     0.199 C 
ENDROOT
BRANCH   1   2
HETATM    2  N2  UNL     1       1.439  -1.064  -0.501  1.00  0.00    -0.393 N 
ATOM      3  H2  UNL     1       1.418  -0.715  -1.459  1.00  0.00     0.155 HD
BRANCH   2   4
HETATM    4  C3  UNL     1       1.524  -2.479  -0.210  1.00  0.00     0.174 C 
BRANCH   4   5
HETATM    5  C2  UNL     1       2.804  -2.773   0.526  1.00  0.00     0.243 C 
HETATM    6  N1  UNL     1       2.967  -4.009   1.265  1.00  0.00    -0.345 N 
HETATM    7  C1  UNL     1       3.712  -3.993   2.307  1.00  0.00     0.121 C 
ATOM      8  H1  UNL     1       2.502  -4.866   0.964  1.00  0.00     0.167 HD
HETATM    9  O1  UNL     1       3.785  -2.010   0.563  1.00  0.00    -0.271 OA
ENDBRANCH   4   5
BRANCH   4  10
HETATM   10  C26 UNL     1       1.543  -3.209  -1.535  1.00  0.00     0.013 C 
HETATM   11  C27 UNL     1       0.315  -3.035  -2.339  1.00  0.00     0.012 C 
BRANCH  10  12
HETATM   12  C28 UNL     1       1.934  -4.661  -1.364  1.00  0.00     0.002 C 
HETATM   13  C29 UNL     1       1.903  -5.377  -2.703  1.00  0.00     0.005 C 
ENDBRANCH  10  12
ENDBRANCH   4  10
ENDBRANCH   2   4
ENDBRANCH   1   2
BRANCH   1  14
HETATM   14  C5  UNL     1       1.655   1.221   0.159  1.00  0.00     0.091 C 
BRANCH  14  15
HETATM   15  N3  UNL     1       2.856   1.554  -0.445  1.00  0.00    -0.391 N 
HETATM   16  C6  UNL     1       4.059   1.573   0.307  1.00  0.00     0.124 C 
HETATM   17  C7  UNL     1       4.952   2.673  -0.253  1.00  0.00     0.045 C 
HETATM   18  C8  UNL     1       5.202   2.517  -1.702  1.00  0.00     0.087 C 
HETATM   19  C11 UNL     1       4.424   1.320  -2.274  1.00  0.00     0.045 C 
HETATM   20  C12 UNL     1       2.984   1.387  -1.853  1.00  0.00     0.124 C 
BRANCH  18  21
HETATM   21  N4  UNL     1       4.802   3.677  -2.480  1.00  0.00    -0.357 N 
HETATM   22  C9  UNL     1       5.316   3.991  -3.760  1.00  0.00     0.213 C 
HETATM   23  C10 UNL     1       4.815   5.219  -4.455  1.00  0.00     0.117 C 
HETATM   24  O2  UNL     1       6.166   3.266  -4.298  1.00  0.00    -0.274 OA
ATOM     25  H4  UNL     1       4.106   4.305  -2.078  1.00  0.00     0.162 HD
ENDBRANCH  18  21
ENDBRANCH  14  15
ENDBRANCH   1  14
BRANCH   1  26
HETATM   26  C13 UNL     1       0.011  -0.120   1.239  1.00  0.00     0.183 C 
BRANCH  26  27
HETATM   27  N5  UNL     1      -1.087  -0.192   0.782  1.00  0.00    -0.360 NA
BRANCH  27  28
HETATM   28  C14 UNL     1      -2.287  -0.272   0.273  1.00  0.00     0.253 C 
HETATM   29  S1  UNL     1      -2.829  -1.399  -0.788  1.00  0.00    -0.025 SA
BRANCH  28  30
HETATM   30  N6  UNL     1      -3.324   0.695   0.629  1.00  0.00    -0.296 N 
HETATM   31  C15 UNL     1      -3.784   1.429  -0.351  1.00  0.00     0.191 C 
HETATM   32  N7  UNL     1      -3.313   1.303  -1.679  1.00  0.00    -0.063 NA
HETATM   33  N8  UNL     1      -4.812   2.381  -0.059  1.00  0.00    -0.360 N 
ATOM     34  H8  UNL     1      -4.634   3.238   0.465  1.00  0.00     0.162 HD
ATOM     35  H6  UNL     1      -3.668   0.791   1.584  1.00  0.00     0.172 HD
BRANCH  33  36
HETATM   36  C16 UNL     1      -6.137   2.031  -0.570  1.00  0.00     0.084 C 
HETATM   37  C17 UNL     1      -7.148   3.091  -0.252  1.00  0.00     0.025 C 
HETATM   38  C18 UNL     1      -8.464   2.520   0.234  1.00  0.00     0.002 C 
HETATM   39  C19 UNL     1      -8.913   1.329  -0.544  1.00  0.00     0.000 C 
HETATM   40  C20 UNL     1      -7.845   0.313  -0.781  1.00  0.00     0.002 C 
HETATM   41  C21 UNL     1      -6.641   0.725   0.052  1.00  0.00     0.025 C 
ENDBRANCH  33  36
ENDBRANCH  28  30
ENDBRANCH  27  28
ENDBRANCH  26  27
BRANCH  26  42
HETATM   42  N9  UNL     1       0.106   0.132   2.691  1.00  0.00    -0.354 N 
ATOM     43  H9  UNL     1      -0.354   0.945   3.101  1.00  0.00     0.162 HD
BRANCH  42  44
HETATM   44  C22 UNL     1       0.844  -0.766   3.519  1.00  0.00     0.172 C 
HETATM   45  C23 UNL     1       1.992   0.041   4.119  1.00  0.00     0.042 C 
BRANCH  44  46
HETATM   46  C24 UNL     1       0.011  -1.390   4.587  1.00  0.00     0.239 C 
HETATM   47  O3  UNL     1      -0.947  -0.759   5.069  1.00  0.00    -0.271 OA
HETATM   48  N10 UNL     1       0.313  -2.723   5.056  1.00  0.00    -0.364 N 
HETATM   49  C25 UNL     1      -0.516  -3.290   6.083  1.00  0.00     0.149 C 
ATOM     50  H10 UNL     1       1.096  -3.249   4.667  1.00  0.00     0.161 HD
ENDBRANCH  44  46
ENDBRANCH  42  44
ENDBRANCH  26  42
ENDBRANCH   1  26
TORSDOF 16
