REMARK  11 active torsions:
REMARK  status: ('A' for Active; 'I' for Inactive)
REMARK    1  A    between atoms: C11_14  and  C12_15 
REMARK       I    between atoms: C12_15  and  N4_17 
REMARK    2  A    between atoms: N4_17  and  C13_19 
REMARK    3  A    between atoms: C13_19  and  C14_20 
REMARK    4  A    between atoms: C13_19  and  N8_30 
REMARK    5  A    between atoms: C14_20  and  C15_21 
REMARK    6  A    between atoms: C15_21  and  C16_22 
REMARK    7  A    between atoms: C16_22  and  C18_24 
REMARK    8  A    between atoms: C18_24  and  N5_25 
REMARK    9  A    between atoms: N8_30  and  C20_32 
REMARK   10  A    between atoms: C20_32  and  C21_33 
REMARK   11  A    between atoms: C21_33  and  C22_34 
ROOT
HETATM    1  C1  UNL     1      -6.417   0.544  -3.620  1.00  0.00     0.228 C 
HETATM    2  N1  UNL     1      -5.809   0.858  -2.677  1.00  0.00    -0.432 NA
HETATM    3  C2  UNL     1      -5.072   1.269  -1.505  1.00  0.00     0.103 C 
HETATM    4  C3  UNL     1      -4.892   2.728  -1.452  1.00  0.00     0.144 C 
HETATM    5  C4  UNL     1      -3.455   3.210  -1.419  1.00  0.00     0.042 C 
HETATM    6  C5  UNL     1      -2.363   2.303  -1.666  1.00  0.00     0.133 C 
HETATM    7  N2  UNL     1      -1.773   1.553  -0.482  1.00  0.00    -0.320 N 
HETATM    8  C6  UNL     1      -1.040   0.392  -0.957  1.00  0.00     0.188 C 
HETATM    9  N3  UNL     1      -1.450  -0.893  -0.960  1.00  0.00    -0.341 N 
HETATM   10  C7  UNL     1      -2.645  -1.344  -1.636  1.00  0.00     0.135 C 
HETATM   11  C8  UNL     1      -3.685  -1.367  -0.595  1.00  0.00     0.009 C 
HETATM   12  C9  UNL     1      -3.438  -2.629   0.258  1.00  0.00     0.013 C 
HETATM   13  C10 UNL     1      -2.067  -2.357   0.922  1.00  0.00     0.063 C 
HETATM   14  C11 UNL     1      -1.056  -1.937  -0.129  1.00  0.00     0.080 C 
HETATM   15  C24 UNL     1      -5.086  -1.030  -0.818  1.00  0.00     0.048 C 
HETATM   16  C25 UNL     1      -5.498   0.417  -0.408  1.00  0.00    -0.011 C 
HETATM   17  C26 UNL     1      -5.411   0.759   0.978  1.00  0.00    -0.016 C 
HETATM   18  C27 UNL     1      -6.531   1.787   1.286  1.00  0.00     0.163 C 
HETATM   19  N9  UNL     1      -6.192   3.092   0.828  1.00  0.00    -0.356 N 
ATOM     20  H9  UNL     1      -6.294   3.852   1.501  1.00  0.00     0.162 HD
HETATM   21  C28 UNL     1      -5.729   3.447  -0.460  1.00  0.00     0.229 C 
HETATM   22  O2  UNL     1      -6.093   4.591  -0.837  1.00  0.00    -0.273 OA
HETATM   23  C29 UNL     1      -4.265   1.080   1.817  1.00  0.00     0.099 C 
HETATM   24  N10 UNL     1      -3.318   2.070   1.480  1.00  0.00    -0.342 N 
ATOM     25  H10 UNL     1      -3.607   3.003   1.775  1.00  0.00     0.167 HD
HETATM   26  C30 UNL     1      -2.035   2.074   0.816  1.00  0.00     0.178 C 
HETATM   27  S1  UNL     1      -0.930   2.865   1.868  1.00  0.00    -0.040 SA
ENDROOT
BRANCH  14  28
HETATM   28  C12 UNL     1       0.290  -2.037   0.400  1.00  0.00     0.265 C 
HETATM   29  O1  UNL     1       0.435  -2.503   1.587  1.00  0.00    -0.266 OA
HETATM   30  N4  UNL     1       1.492  -1.684  -0.241  1.00  0.00    -0.335 N 
ATOM     31  H4  UNL     1       1.457  -1.317  -1.192  1.00  0.00     0.164 HD
BRANCH  30  32
HETATM   32  C13 UNL     1       2.825  -1.832   0.434  1.00  0.00     0.179 C 
BRANCH  32  33
HETATM   33  C14 UNL     1       3.420  -0.488   0.460  1.00  0.00     0.047 C 
BRANCH  33  34
HETATM   34  C15 UNL     1       4.720  -0.326   1.136  1.00  0.00     0.009 C 
BRANCH  34  35
HETATM   35  C16 UNL     1       5.210   1.118   1.103  1.00  0.00    -0.001 C 
HETATM   36  C17 UNL     1       5.394   1.659  -0.271  1.00  0.00     0.011 C 
BRANCH  35  37
HETATM   37  C18 UNL     1       4.369   2.043   1.947  1.00  0.00     0.126 C 
BRANCH  37  38
HETATM   38  N5  UNL     1       4.959   3.388   1.820  1.00  0.00    -0.367 N 
HETATM   39  C19 UNL     1       4.328   4.328   1.216  1.00  0.00     0.196 C 
HETATM   40  N6  UNL     1       3.052   4.097   0.657  1.00  0.00    -0.067 NA
HETATM   41  N7  UNL     1       4.906   5.617   1.101  1.00  0.00    -0.067 NA
ATOM     42  H5  UNL     1       5.880   3.574   2.217  1.00  0.00     0.161 HD
ENDBRANCH  37  38
ENDBRANCH  35  37
ENDBRANCH  34  35
ENDBRANCH  33  34
ENDBRANCH  32  33
BRANCH  32  43
HETATM   43  N8  UNL     1       3.492  -2.830  -0.274  1.00  0.00    -0.401 N 
ATOM     44  H8  UNL     1       3.002  -3.238  -1.070  1.00  0.00     0.155 HD
BRANCH  43  45
HETATM   45  C20 UNL     1       4.758  -3.319   0.003  1.00  0.00     0.115 C 
BRANCH  45  46
HETATM   46  C21 UNL     1       4.933  -4.598  -0.886  1.00  0.00     0.019 C 
BRANCH  46  47
HETATM   47  C22 UNL     1       6.308  -5.158  -0.600  1.00  0.00    -0.003 C 
HETATM   48  C23 UNL     1       6.626  -6.392  -1.374  1.00  0.00     0.005 C 
ENDBRANCH  46  47
ENDBRANCH  45  46
ENDBRANCH  43  45
ENDBRANCH  32  43
ENDBRANCH  30  32
ENDBRANCH  14  28
TORSDOF 11
