REMARK  13 active torsions:
REMARK  status: ('A' for Active; 'I' for Inactive)
REMARK       I    between atoms: C2_4  and  N3_6 
REMARK    1  A    between atoms: N3_6  and  C3_8 
REMARK    2  A    between atoms: C3_8  and  C4_9 
REMARK    3  A    between atoms: C4_9  and  C5_10 
REMARK    4  A    between atoms: C5_10  and  C6_11 
REMARK    5  A    between atoms: C6_11  and  C7_12 
REMARK    6  A    between atoms: C7_12  and  C8_13 
REMARK    7  A    between atoms: C14_23  and  O2_24 
REMARK    8  A    between atoms: C15_26  and  C16_27 
REMARK    9  A    between atoms: C16_27  and  N6_28 
REMARK   10  A    between atoms: C17_30  and  C18_31 
REMARK   11  A    between atoms: C17_30  and  N7_34 
REMARK   12  A    between atoms: C26_43  and  C27_44 
REMARK   13  A    between atoms: C27_44  and  C28_45 
ROOT
HETATM    1  C8  UNL     1       2.220  -1.122  -0.708  1.00  0.00     0.176 C 
HETATM    2  N4  UNL     1       2.257  -1.864   0.507  1.00  0.00    -0.346 N 
ATOM      3  H4  UNL     1       3.131  -2.353   0.700  1.00  0.00     0.163 HD
HETATM    4  C9  UNL     1       1.243  -2.012   1.480  1.00  0.00     0.241 C 
HETATM    5  O1  UNL     1       0.999  -3.227   1.833  1.00  0.00    -0.271 OA
HETATM    6  C10 UNL     1       0.458  -1.022   2.126  1.00  0.00     0.178 C 
HETATM    7  C11 UNL     1       0.377   0.370   1.632  1.00  0.00     0.037 C 
HETATM    8  C12 UNL     1      -0.543   0.963   2.726  1.00  0.00     0.022 C 
HETATM    9  C13 UNL     1      -1.144  -0.238   3.428  1.00  0.00     0.126 C 
HETATM   10  N5  UNL     1      -0.952  -1.279   2.376  1.00  0.00    -0.347 N 
HETATM   11  C14 UNL     1      -1.813  -2.220   1.806  1.00  0.00     0.163 C 
HETATM   12  C15 UNL     1      -2.344  -2.370   0.447  1.00  0.00     0.081 C 
HETATM   13  N8  UNL     1      -1.530  -3.018  -0.530  1.00  0.00    -0.324 N 
ATOM     14  H8  UNL     1      -1.129  -3.908  -0.235  1.00  0.00     0.169 HD
HETATM   15  C25 UNL     1      -1.196  -2.621  -1.834  1.00  0.00     0.244 C 
HETATM   16  O3  UNL     1      -1.520  -3.358  -2.797  1.00  0.00    -0.271 OA
HETATM   17  C26 UNL     1      -0.466  -1.373  -2.236  1.00  0.00     0.177 C 
HETATM   18  N9  UNL     1       0.829  -1.814  -2.706  1.00  0.00    -0.346 N 
ATOM     19  H9  UNL     1       0.946  -1.971  -3.707  1.00  0.00     0.163 HD
HETATM   20  C31 UNL     1       1.928  -2.038  -1.878  1.00  0.00     0.241 C 
HETATM   21  O4  UNL     1       2.742  -2.986  -2.030  1.00  0.00    -0.271 OA
ENDROOT
BRANCH   1  22
HETATM   22  C7  UNL     1       3.474  -0.403  -1.084  1.00  0.00     0.035 C 
BRANCH  22  23
HETATM   23  C6  UNL     1       3.961   0.632  -0.172  1.00  0.00     0.002 C 
BRANCH  23  24
HETATM   24  C5  UNL     1       4.432   0.262   1.173  1.00  0.00     0.002 C 
BRANCH  24  25
HETATM   25  C4  UNL     1       5.641  -0.664   1.165  1.00  0.00     0.020 C 
BRANCH  25  26
HETATM   26  C3  UNL     1       6.819  -0.014   0.465  1.00  0.00     0.122 C 
BRANCH  26  27
HETATM   27  N3  UNL     1       7.208   1.204   1.138  1.00  0.00    -0.365 N 
HETATM   28  C2  UNL     1       8.280   1.951   0.586  1.00  0.00     0.183 C 
HETATM   29  N1  UNL     1       9.522   1.691   0.773  1.00  0.00    -0.369 N 
HETATM   30  N2  UNL     1       7.957   3.067  -0.234  1.00  0.00    -0.064 NA
HETATM   31  C1  UNL     1       9.982   0.581   1.588  1.00  0.00     0.148 C 
ATOM     32  H1  UNL     1      10.218   2.291   0.329  1.00  0.00     0.161 HD
ATOM     33  H3  UNL     1       6.728   1.516   1.982  1.00  0.00     0.162 HD
ENDBRANCH  26  27
ENDBRANCH  25  26
ENDBRANCH  24  25
ENDBRANCH  23  24
ENDBRANCH  22  23
ENDBRANCH   1  22
BRANCH  17  34
HETATM   34  C27 UNL     1      -1.186  -0.654  -3.348  1.00  0.00     0.038 C 
BRANCH  34  35
HETATM   35  C28 UNL     1      -0.553   0.609  -3.801  1.00  0.00    -0.020 C 
HETATM   36  C29 UNL     1      -0.429   1.637  -2.683  1.00  0.00     0.009 C 
HETATM   37  C30 UNL     1       0.754   0.511  -4.496  1.00  0.00     0.009 C 
ENDBRANCH  34  35
ENDBRANCH  17  34
BRANCH  11  38
HETATM   38  O2  UNL     1      -2.197  -3.113   2.670  1.00  0.00    -0.345 OA
ATOM     39  H2  UNL     1      -2.782  -3.753   2.282  1.00  0.00     0.219 HD
ENDBRANCH  11  38
BRANCH  12  40
HETATM   40  C16 UNL     1      -3.049  -1.116  -0.067  1.00  0.00     0.182 C 
BRANCH  40  41
HETATM   41  N6  UNL     1      -4.160  -0.756   0.754  1.00  0.00    -0.374 N 
HETATM   42  C17 UNL     1      -4.977   0.189   0.461  1.00  0.00     0.078 C 
ATOM     43  H6  UNL     1      -4.312  -1.277   1.618  1.00  0.00     0.161 HD
BRANCH  42  44
HETATM   44  C18 UNL     1      -4.762   0.951  -0.793  1.00  0.00     0.045 C 
HETATM   45  C19 UNL     1      -4.819   2.446  -0.532  1.00  0.00     0.017 C 
HETATM   46  C20 UNL     1      -5.760   0.573  -1.835  1.00  0.00     0.017 C 
ENDBRANCH  42  44
BRANCH  42  47
HETATM   47  N7  UNL     1      -6.085   0.522   1.274  1.00  0.00    -0.371 N 
HETATM   48  C21 UNL     1      -7.439   0.736   0.846  1.00  0.00     0.124 C 
HETATM   49  C22 UNL     1      -8.272   0.325   2.026  1.00  0.00     0.021 C 
HETATM   50  C23 UNL     1      -7.309   0.024   3.156  1.00  0.00     0.021 C 
HETATM   51  C24 UNL     1      -6.040   0.710   2.700  1.00  0.00     0.124 C 
ENDBRANCH  42  47
ENDBRANCH  40  41
ENDBRANCH  12  40
TORSDOF 13
