REMARK  12 active torsions:
REMARK  status: ('A' for Active; 'I' for Inactive)
REMARK    1  A    between atoms: C2_2  and  C3_3 
REMARK    2  A    between atoms: C3_3  and  C4_4 
REMARK    3  A    between atoms: C5_5  and  O1_6 
REMARK    4  A    between atoms: C9_14  and  C10_15 
REMARK    5  A    between atoms: C10_15  and  C11_16 
REMARK    6  A    between atoms: C11_16  and  C12_17 
REMARK    7  A    between atoms: C12_17  and  N3_18 
REMARK    8  A    between atoms: C15_25  and  O2_26 
REMARK    9  A    between atoms: C17_29  and  C19_31 
REMARK   10  A    between atoms: C21_35  and  O3_36 
REMARK   11  A    between atoms: C22_38  and  C23_39 
REMARK   12  A    between atoms: C29_48  and  C30_49 
REMARK       I    between atoms: C30_49  and  N9_51 
ROOT
HETATM    1  C4  UNL     1      -1.692  -2.733  -0.549  1.00  0.00     0.011 C 
HETATM    2  C5  UNL     1      -0.273  -3.017  -0.648  1.00  0.00     0.149 C 
HETATM    3  N1  UNL     1       0.820  -2.574  -1.362  1.00  0.00    -0.321 N 
ATOM      4  H1  UNL     1       1.077  -3.274  -2.059  1.00  0.00     0.169 HD
HETATM    5  C6  UNL     1       1.727  -1.446  -1.454  1.00  0.00     0.127 C 
HETATM    6  N2  UNL     1       1.945  -1.070  -2.670  1.00  0.00    -0.374 N 
HETATM    7  C7  UNL     1       2.725  -0.049  -3.265  1.00  0.00     0.150 C 
HETATM    8  C8  UNL     1       1.283  -1.892  -3.765  1.00  0.00     0.150 C 
HETATM    9  C9  UNL     1       2.431  -0.867  -0.297  1.00  0.00     0.057 C 
HETATM   10  N6  UNL     1       1.653  -0.267   0.773  1.00  0.00    -0.331 N 
HETATM   11  C14 UNL     1       1.308  -1.234   1.880  1.00  0.00     0.158 C 
HETATM   12  C15 UNL     1       1.214   1.013   1.051  1.00  0.00     0.170 C 
HETATM   13  C16 UNL     1       0.724   2.262   0.466  1.00  0.00     0.087 C 
HETATM   14  C17 UNL     1       0.515   2.469  -0.949  1.00  0.00    -0.053 C 
HETATM   15  C18 UNL     1      -0.421   1.679  -1.749  1.00  0.00     0.046 C 
HETATM   16  N7  UNL     1      -0.223   2.941   1.344  1.00  0.00    -0.335 N 
ATOM     17  H7  UNL     1       0.209   3.689   1.887  1.00  0.00     0.168 HD
HETATM   18  C21 UNL     1      -1.577   2.801   1.608  1.00  0.00     0.139 C 
HETATM   19  C22 UNL     1      -2.785   3.128   0.818  1.00  0.00     0.162 C 
HETATM   20  N8  UNL     1      -3.945   2.365   1.224  1.00  0.00    -0.348 N 
ATOM     21  H8  UNL     1      -4.796   2.895   1.414  1.00  0.00     0.163 HD
HETATM   22  C26 UNL     1      -4.024   0.968   1.385  1.00  0.00     0.221 C 
HETATM   23  O4  UNL     1      -4.558   0.533   2.447  1.00  0.00    -0.273 OA
HETATM   24  C27 UNL     1      -3.542  -0.062   0.427  1.00  0.00     0.131 C 
HETATM   25  C28 UNL     1      -2.435  -0.834   0.964  1.00  0.00     0.000 C 
HETATM   26  C29 UNL     1      -2.265  -2.274   0.761  1.00  0.00     0.039 C 
ENDROOT
BRANCH   9  27
HETATM   27  C10 UNL     1       3.676  -0.061  -0.583  1.00  0.00     0.063 C 
BRANCH  27  28
HETATM   28  C11 UNL     1       4.409   0.412   0.683  1.00  0.00     0.026 C 
BRANCH  28  29
HETATM   29  C12 UNL     1       4.963  -0.726   1.496  1.00  0.00     0.122 C 
BRANCH  29  30
HETATM   30  N3  UNL     1       5.930  -1.480   0.670  1.00  0.00    -0.367 N 
HETATM   31  C13 UNL     1       6.881  -2.115   1.249  1.00  0.00     0.196 C 
HETATM   32  N4  UNL     1       7.005  -2.098   2.657  1.00  0.00    -0.067 NA
HETATM   33  N5  UNL     1       7.809  -2.837   0.469  1.00  0.00    -0.067 NA
ATOM     34  H3  UNL     1       5.842  -1.495  -0.346  1.00  0.00     0.161 HD
ENDBRANCH  29  30
ENDBRANCH  28  29
ENDBRANCH  27  28
ENDBRANCH   9  27
BRANCH  12  35
HETATM   35  O2  UNL     1       1.225   1.258   2.384  1.00  0.00    -0.344 OA
ATOM     36  H2  UNL     1       0.923   2.138   2.575  1.00  0.00     0.219 HD
ENDBRANCH  12  35
BRANCH   2  37
HETATM   37  O1  UNL     1       0.040  -3.996   0.200  1.00  0.00    -0.346 OA
ATOM     38  H1  UNL     1       0.969  -4.182   0.135  1.00  0.00     0.219 HD
ENDBRANCH   2  37
BRANCH   1  39
HETATM   39  C3  UNL     1      -2.420  -2.226  -1.758  1.00  0.00     0.070 C 
BRANCH  39  40
HETATM   40  C2  UNL     1      -2.358  -3.262  -2.812  1.00  0.00    -0.032 C 
HETATM   41  C1  UNL     1      -3.484  -3.760  -3.293  1.00  0.00     0.007 C 
ENDBRANCH  39  40
ENDBRANCH   1  39
BRANCH  14  42
HETATM   42  C19 UNL     1       0.382   3.988  -1.207  1.00  0.00     0.031 C 
HETATM   43  C20 UNL     1       1.700   4.622  -0.742  1.00  0.00     0.010 C 
ENDBRANCH  14  42
BRANCH  26  44
HETATM   44  C30 UNL     1      -3.436  -3.091   1.212  1.00  0.00     0.251 C 
HETATM   45  O5  UNL     1      -4.580  -2.648   1.353  1.00  0.00    -0.268 OA
HETATM   46  N9  UNL     1      -3.228  -4.463   1.498  1.00  0.00    -0.361 N 
HETATM   47  C31 UNL     1      -4.377  -5.268   1.938  1.00  0.00     0.149 C 
ATOM     48  H9  UNL     1      -2.303  -4.882   1.401  1.00  0.00     0.162 HD
ENDBRANCH  26  44
BRANCH  18  49
HETATM   49  O3  UNL     1      -1.938   2.293   2.754  1.00  0.00    -0.348 OA
ATOM     50  H3  UNL     1      -2.866   2.197   2.935  1.00  0.00     0.219 HD
ENDBRANCH  18  49
BRANCH  19  51
HETATM   51  C23 UNL     1      -3.130   4.635   1.000  1.00  0.00     0.008 C 
HETATM   52  C24 UNL     1      -4.369   4.855   0.157  1.00  0.00     0.012 C 
HETATM   53  C25 UNL     1      -3.392   4.935   2.445  1.00  0.00     0.012 C 
ENDBRANCH  19  51
TORSDOF 12
