REMARK  20 active torsions:
REMARK  status: ('A' for Active; 'I' for Inactive)
REMARK    1  A    between atoms: O1_1  and  C1_3 
REMARK    2  A    between atoms: C1_3  and  C2_4 
REMARK    3  A    between atoms: C3_6  and  O3_7 
REMARK    4  A    between atoms: O3_7  and  C4_8 
REMARK    5  A    between atoms: C5_9  and  O4_10 
REMARK    6  A    between atoms: O4_10  and  C6_11 
REMARK    7  A    between atoms: C7_12  and  O5_13 
REMARK    8  A    between atoms: C8_15  and  C9_16 
REMARK    9  A    between atoms: C9_16  and  O6_17 
REMARK   10  A    between atoms: C10_20  and  S1_21 
REMARK   11  A    between atoms: S1_21  and  S2_22 
REMARK   12  A    between atoms: S2_22  and  C11_23 
REMARK   13  A    between atoms: C15_28  and  O9_29 
REMARK   14  A    between atoms: C16_32  and  C17_33 
REMARK   15  A    between atoms: C17_33  and  O11_34 
REMARK   16  A    between atoms: C18_36  and  O12_37 
REMARK   17  A    between atoms: C19_39  and  O13_40 
REMARK   18  A    between atoms: C20_42  and  O14_43 
REMARK   19  A    between atoms: C21_45  and  O15_46 
REMARK   20  A    between atoms: C22_48  and  O16_49 
ROOT
HETATM    1  C4  UNL     1      -1.596  -1.317  -0.623  1.00  0.00     0.211 C 
HETATM    2  C5  UNL     1      -0.361  -1.997  -0.022  1.00  0.00     0.292 C 
HETATM    3  O10 UNL     1      -0.857  -2.906   0.923  1.00  0.00    -0.348 OA
HETATM    4  C16 UNL     1      -1.529  -3.936   0.310  1.00  0.00     0.179 C 
HETATM    5  C18 UNL     1      -2.731  -3.464  -0.502  1.00  0.00     0.180 C 
HETATM    6  C19 UNL     1      -2.242  -2.432  -1.460  1.00  0.00     0.183 C 
ENDROOT
BRANCH   2   7
HETATM    7  O4  UNL     1       0.549  -1.125   0.504  1.00  0.00    -0.348 OA
BRANCH   7   8
HETATM    8  C6  UNL     1       1.787  -1.255  -0.122  1.00  0.00     0.188 C 
HETATM    9  C7  UNL     1       2.843  -1.697   0.855  1.00  0.00     0.180 C 
HETATM   10  C8  UNL     1       4.212  -1.178   0.589  1.00  0.00     0.178 C 
HETATM   11  O7  UNL     1       4.332  -0.868  -0.751  1.00  0.00    -0.362 OA
HETATM   12  C10 UNL     1       3.578   0.266  -1.004  1.00  0.00     0.226 C 
HETATM   13  C15 UNL     1       2.105   0.041  -0.806  1.00  0.00     0.189 C 
BRANCH   9  14
HETATM   14  O5  UNL     1       2.922  -3.110   0.811  1.00  0.00    -0.390 OA
ATOM     15  H5  UNL     1       3.589  -3.389   1.428  1.00  0.00     0.210 HD
ENDBRANCH   9  14
BRANCH  10  16
HETATM   16  C9  UNL     1       5.247  -2.189   1.037  1.00  0.00     0.198 C 
BRANCH  16  17
HETATM   17  O6  UNL     1       6.538  -1.705   0.840  1.00  0.00    -0.398 OA
ATOM     18  H6  UNL     1       7.187  -2.339   1.121  1.00  0.00     0.209 HD
ENDBRANCH  16  17
ENDBRANCH  10  16
BRANCH  12  19
HETATM   19  S1  UNL     1       4.167   1.589   0.085  1.00  0.00    -0.057 SA
BRANCH  19  20
HETATM   20  S2  UNL     1       3.043   3.350  -0.219  1.00  0.00    -0.053 SA
BRANCH  20  21
HETATM   21  C11 UNL     1       3.828   4.321  -1.491  1.00  0.00     0.035 A 
HETATM   22  C12 UNL     1       3.356   5.541  -1.936  1.00  0.00     0.045 A 
HETATM   23  C13 UNL     1       4.217   5.993  -2.923  1.00  0.00     0.142 A 
HETATM   24  O8  UNL     1       5.157   5.090  -3.062  1.00  0.00    -0.333 OA
HETATM   25  C14 UNL     1       4.964   4.083  -2.233  1.00  0.00     0.160 A 
ENDBRANCH  20  21
ENDBRANCH  19  20
ENDBRANCH  12  19
BRANCH  13  26
HETATM   26  O9  UNL     1       1.573   1.108  -0.087  1.00  0.00    -0.389 OA
ATOM     27  H9  UNL     1       1.774   1.929  -0.520  1.00  0.00     0.210 HD
ENDBRANCH  13  26
ENDBRANCH   7   8
ENDBRANCH   2   7
BRANCH   1  28
HETATM   28  O3  UNL     1      -2.398  -0.946   0.426  1.00  0.00    -0.346 OA
BRANCH  28  29
HETATM   29  C3  UNL     1      -2.668   0.414   0.513  1.00  0.00     0.292 C 
HETATM   30  O2  UNL     1      -2.282   0.959   1.720  1.00  0.00    -0.348 OA
HETATM   31  C2  UNL     1      -2.423   2.323   1.732  1.00  0.00     0.179 C 
HETATM   32  C22 UNL     1      -3.687   2.823   1.065  1.00  0.00     0.180 C 
HETATM   33  C21 UNL     1      -4.725   1.717   1.176  1.00  0.00     0.183 C 
HETATM   34  C20 UNL     1      -4.169   0.555   0.373  1.00  0.00     0.204 C 
BRANCH  31  35
HETATM   35  C1  UNL     1      -1.266   3.064   1.094  1.00  0.00     0.198 C 
BRANCH  35  36
HETATM   36  O1  UNL     1      -1.448   4.432   1.128  1.00  0.00    -0.398 OA
ATOM     37  H1  UNL     1      -0.722   4.897   0.728  1.00  0.00     0.209 HD
ENDBRANCH  35  36
ENDBRANCH  31  35
BRANCH  32  38
HETATM   38  O16 UNL     1      -4.190   3.972   1.623  1.00  0.00    -0.390 OA
ATOM     39  H16 UNL     1      -4.983   4.286   1.205  1.00  0.00     0.210 HD
ENDBRANCH  32  38
BRANCH  33  40
HETATM   40  O15 UNL     1      -4.861   1.422   2.520  1.00  0.00    -0.390 OA
ATOM     41  H15 UNL     1      -5.209   2.149   3.023  1.00  0.00     0.210 HD
ENDBRANCH  33  40
BRANCH  34  42
HETATM   42  O14 UNL     1      -4.440   0.834  -0.965  1.00  0.00    -0.388 OA
ATOM     43  H14 UNL     1      -5.382   0.922  -1.053  1.00  0.00     0.210 HD
ENDBRANCH  34  42
ENDBRANCH  28  29
ENDBRANCH   1  28
BRANCH   6  44
HETATM   44  O13 UNL     1      -3.157  -1.977  -2.364  1.00  0.00    -0.390 OA
ATOM     45  H13 UNL     1      -3.556  -2.666  -2.881  1.00  0.00     0.210 HD
ENDBRANCH   6  44
BRANCH   4  46
HETATM   46  C17 UNL     1      -1.974  -4.896   1.399  1.00  0.00     0.198 C 
BRANCH  46  47
HETATM   47  O11 UNL     1      -2.669  -5.981   0.893  1.00  0.00    -0.398 OA
ATOM     48  H11 UNL     1      -2.947  -6.582   1.574  1.00  0.00     0.209 HD
ENDBRANCH  46  47
ENDBRANCH   4  46
BRANCH   5  49
HETATM   49  O12 UNL     1      -3.287  -4.564  -1.127  1.00  0.00    -0.390 OA
ATOM     50  H12 UNL     1      -4.036  -4.270  -1.633  1.00  0.00     0.210 HD
ENDBRANCH   5  49
TORSDOF 20
