REMARK  19 active torsions:
REMARK  status: ('A' for Active; 'I' for Inactive)
REMARK    1  A    between atoms: O1_2  and  C2_3 
REMARK    2  A    between atoms: C3_5  and  C4_6 
REMARK    3  A    between atoms: C4_6  and  O3_7 
REMARK    4  A    between atoms: C5_9  and  O4_10 
REMARK    5  A    between atoms: C6_12  and  O5_13 
REMARK    6  A    between atoms: O5_13  and  C7_14 
REMARK    7  A    between atoms: C8_16  and  C9_17 
REMARK    8  A    between atoms: C9_17  and  O7_18 
REMARK    9  A    between atoms: C10_20  and  O8_21 
REMARK   10  A    between atoms: O8_21  and  C11_22 
REMARK   11  A    between atoms: C12_23  and  N1_24 
REMARK   12  A    between atoms: C13_31  and  O9_32 
REMARK   13  A    between atoms: O9_32  and  C14_33 
REMARK   14  A    between atoms: C19_38  and  O10_40 
REMARK   15  A    between atoms: C21_45  and  C22_46 
REMARK   16  A    between atoms: C22_46  and  O11_47 
REMARK   17  A    between atoms: C23_49  and  O12_50 
REMARK   18  A    between atoms: C24_52  and  N4_53 
REMARK   19  A    between atoms: C25_58  and  O14_59 
ROOT
HETATM    1  C11 UNL     1      -0.272   0.890  -0.428  1.00  0.00     0.215 C 
HETATM    2  C12 UNL     1      -0.566  -0.564  -0.378  1.00  0.00     0.414 C 
HETATM    3  N2  UNL     1      -1.988  -0.772  -0.394  1.00  0.00    -0.015 N 
ATOM      4  H21 UNL     1      -2.224  -1.737  -0.623  1.00  0.00     0.282 HD
ATOM      5  H22 UNL     1      -2.427  -0.312  -1.192  1.00  0.00     0.282 HD
HETATM    6  C13 UNL     1      -2.594  -0.353   0.872  1.00  0.00     0.355 C 
HETATM    7  C23 UNL     1      -1.878   0.796   1.469  1.00  0.00     0.207 C 
HETATM    8  C24 UNL     1      -1.108   1.659   0.520  1.00  0.00     0.249 C 
ENDROOT
BRANCH   1   9
HETATM    9  O8  UNL     1       1.088   1.179  -0.336  1.00  0.00    -0.347 OA
BRANCH   9  10
HETATM   10  C10 UNL     1       1.630   1.741  -1.467  1.00  0.00     0.297 C 
HETATM   11  C8  UNL     1       2.227   3.064  -1.110  1.00  0.00     0.205 C 
HETATM   12  O6  UNL     1       3.542   2.810  -0.808  1.00  0.00    -0.326 OA
HETATM   13  C7  UNL     1       3.845   1.534  -1.204  1.00  0.00     0.416 C 
HETATM   14  O13 UNL     1       2.738   0.981  -1.823  1.00  0.00    -0.305 OA
BRANCH  11  15
HETATM   15  C9  UNL     1       2.204   4.030  -2.300  1.00  0.00     0.201 C 
BRANCH  15  16
HETATM   16  O7  UNL     1       2.855   5.215  -1.971  1.00  0.00    -0.398 OA
ATOM     17  H7  UNL     1       2.841   5.814  -2.708  1.00  0.00     0.209 HD
ENDBRANCH  15  16
ENDBRANCH  11  15
BRANCH  13  18
HETATM   18  O5  UNL     1       4.249   0.675  -0.209  1.00  0.00    -0.328 OA
BRANCH  18  19
HETATM   19  C6  UNL     1       5.512   0.147  -0.458  1.00  0.00     0.191 C 
HETATM   20  C5  UNL     1       5.471  -1.357  -0.612  1.00  0.00     0.181 C 
HETATM   21  C3  UNL     1       6.630  -2.041   0.051  1.00  0.00     0.179 C 
HETATM   22  O2  UNL     1       7.834  -1.412  -0.150  1.00  0.00    -0.349 OA
HETATM   23  C2  UNL     1       7.854  -0.062   0.163  1.00  0.00     0.290 C 
HETATM   24  C25 UNL     1       6.513   0.469   0.603  1.00  0.00     0.205 C 
BRANCH  20  25
HETATM   25  O4  UNL     1       4.306  -1.792   0.047  1.00  0.00    -0.390 OA
ATOM     26  H4  UNL     1       3.572  -1.359  -0.373  1.00  0.00     0.210 HD
ENDBRANCH  20  25
BRANCH  21  27
HETATM   27  C4  UNL     1       6.749  -3.426  -0.602  1.00  0.00     0.198 C 
BRANCH  27  28
HETATM   28  O3  UNL     1       7.014  -3.205  -1.953  1.00  0.00    -0.398 OA
ATOM     29  H3  UNL     1       7.088  -4.062  -2.357  1.00  0.00     0.209 HD
ENDBRANCH  27  28
ENDBRANCH  21  27
BRANCH  23  30
HETATM   30  O1  UNL     1       8.839   0.223   1.103  1.00  0.00    -0.363 OA
HETATM   31  C1  UNL     1       9.820   1.056   0.570  1.00  0.00     0.204 C 
ENDBRANCH  23  30
BRANCH  24  32
HETATM   32  O14 UNL     1       6.140   0.069   1.864  1.00  0.00    -0.388 OA
ATOM     33  H14 UNL     1       5.295   0.404   2.141  1.00  0.00     0.210 HD
ENDBRANCH  24  32
ENDBRANCH  18  19
ENDBRANCH  13  18
ENDBRANCH   9  10
ENDBRANCH   1   9
BRANCH   2  34
HETATM   34  N1  UNL     1      -0.030  -1.275  -1.549  1.00  0.00    -0.048 N 
ATOM     35  H13 UNL     1      -0.363  -0.860  -2.419  1.00  0.00     0.276 HD
ATOM     36  H12 UNL     1       0.969  -1.103  -1.661  1.00  0.00     0.276 HD
ATOM     37  H11 UNL     1      -0.232  -2.274  -1.515  1.00  0.00     0.276 HD
ENDBRANCH   2  34
BRANCH   8  38
HETATM   38  N4  UNL     1      -2.087   2.533  -0.148  1.00  0.00    -0.070 N 
ATOM     39  H43 UNL     1      -1.625   3.155  -0.812  1.00  0.00     0.274 HD
ATOM     40  H42 UNL     1      -2.668   2.000  -0.794  1.00  0.00     0.274 HD
ATOM     41  H41 UNL     1      -2.663   3.063   0.506  1.00  0.00     0.274 HD
ENDBRANCH   8  38
BRANCH   7  42
HETATM   42  O12 UNL     1      -2.639   1.629   2.274  1.00  0.00    -0.389 OA
ATOM     43  H12 UNL     1      -2.179   2.367   2.657  1.00  0.00     0.210 HD
ENDBRANCH   7  42
BRANCH   6  44
HETATM   44  O9  UNL     1      -3.921  -0.043   0.629  1.00  0.00    -0.349 OA
BRANCH  44  45
HETATM   45  C14 UNL     1      -4.829  -0.940   1.177  1.00  0.00     0.164 C 
HETATM   46  C15 UNL     1      -5.680  -0.257   2.215  1.00  0.00     0.035 C 
HETATM   47  C16 UNL     1      -6.455  -1.316   2.981  1.00  0.00     0.017 C 
HETATM   48  C17 UNL     1      -6.622   0.721   1.645  1.00  0.00    -0.019 C 
HETATM   49  C18 UNL     1      -7.278   0.829   0.510  1.00  0.00     0.037 C 
HETATM   50  C19 UNL     1      -7.260  -0.088  -0.632  1.00  0.00     0.239 C 
HETATM   51  C20 UNL     1      -8.443  -1.029  -0.523  1.00  0.00     0.083 C 
HETATM   52  N3  UNL     1      -6.029  -0.743  -0.915  1.00  0.00    -0.031 N 
HETATM   53  C21 UNL     1      -5.693  -1.632   0.147  1.00  0.00     0.242 C 
ATOM     54  H32 UNL     1      -6.047  -1.217  -1.818  1.00  0.00     0.281 HD
ATOM     55  H31 UNL     1      -5.279  -0.079  -1.109  1.00  0.00     0.281 HD
BRANCH  50  56
HETATM   56  O10 UNL     1      -7.548   0.712  -1.774  1.00  0.00    -0.362 OA
ATOM     57  H10 UNL     1      -7.536   0.117  -2.515  1.00  0.00     0.213 HD
ENDBRANCH  50  56
BRANCH  53  58
HETATM   58  C22 UNL     1      -5.068  -2.877  -0.410  1.00  0.00     0.199 C 
BRANCH  58  59
HETATM   59  O11 UNL     1      -6.006  -3.507  -1.266  1.00  0.00    -0.399 OA
ATOM     60  H11 UNL     1      -5.610  -4.295  -1.619  1.00  0.00     0.209 HD
ENDBRANCH  58  59
ENDBRANCH  53  58
ENDBRANCH  44  45
ENDBRANCH   6  44
TORSDOF 19
