REMARK  16 active torsions:
REMARK  status: ('A' for Active; 'I' for Inactive)
REMARK    1  A    between atoms: N2_7  and  C4_8 
REMARK    2  A    between atoms: C5_10  and  O2_11 
REMARK    3  A    between atoms: O2_11  and  C6_12 
REMARK    4  A    between atoms: C6_12  and  N3_13 
REMARK    5  A    between atoms: C6_12  and  C7_17 
REMARK    6  A    between atoms: C7_17  and  O3_18 
REMARK    7  A    between atoms: C7_17  and  C8_20 
REMARK    8  A    between atoms: C9_24  and  S1_25 
REMARK    9  A    between atoms: S1_25  and  C10_26 
REMARK   10  A    between atoms: C11_27  and  C12_28 
REMARK   11  A    between atoms: C13_29  and  O7_30 
REMARK   12  A    between atoms: C14_32  and  O8_33 
REMARK   13  A    between atoms: C15_35  and  N4_36 
REMARK   14  A    between atoms: C18_44  and  N7_45 
REMARK   15  A    between atoms: C19_48  and  O11_49 
REMARK   16  A    between atoms: C20_51  and  O12_52 
ROOT
HETATM    1  S1  UNL     1       0.687  -0.576  -1.998  1.00  0.00    -0.082 SA
ENDROOT
BRANCH   1   2
HETATM    2  C9  UNL     1       2.426  -0.591  -1.553  1.00  0.00     0.339 C 
HETATM    3  O6  UNL     1       2.863   0.714  -1.338  1.00  0.00    -0.298 OA
HETATM    4  C5  UNL     1       4.187   0.749  -0.907  1.00  0.00     0.422 C 
HETATM    5  O1  UNL     1       4.696  -0.535  -0.981  1.00  0.00    -0.288 OA
HETATM    6  C4  UNL     1       3.986  -1.305  -0.058  1.00  0.00     0.399 C 
HETATM    7  O13 UNL     1       2.648  -1.400  -0.437  1.00  0.00    -0.302 OA
BRANCH   4   8
HETATM    8  O2  UNL     1       4.942   1.700  -1.554  1.00  0.00    -0.302 OA
BRANCH   8   9
HETATM    9  C6  UNL     1       5.442   2.693  -0.751  1.00  0.00     0.362 C 
BRANCH   9  10
HETATM   10  N3  UNL     1       4.955   4.011  -1.080  1.00  0.00    -0.050 N 
ATOM     11  H33 UNL     1       5.128   4.223  -2.063  1.00  0.00     0.277 HD
ATOM     12  H32 UNL     1       3.935   4.027  -1.078  1.00  0.00     0.277 HD
ATOM     13  H31 UNL     1       5.327   4.750  -0.483  1.00  0.00     0.277 HD
ENDBRANCH   9  10
BRANCH   9  14
HETATM   14  C7  UNL     1       6.953   2.726  -0.711  1.00  0.00     0.274 C 
BRANCH  14  15
HETATM   15  O3  UNL     1       7.488   1.484  -0.398  1.00  0.00    -0.381 OA
ATOM     16  H3  UNL     1       8.437   1.505  -0.373  1.00  0.00     0.210 HD
ENDBRANCH  14  15
BRANCH  14  17
HETATM   17  C8  UNL     1       7.384   3.676   0.355  1.00  0.00     0.207 C 
HETATM   18  O4  UNL     1       6.992   4.868   0.245  1.00  0.00    -0.646 OA
HETATM   19  O5  UNL     1       8.167   3.322   1.423  1.00  0.00    -0.646 OA
ENDBRANCH  14  17
ENDBRANCH   9  14
ENDBRANCH   8   9
ENDBRANCH   4   8
BRANCH   6  20
HETATM   20  N2  UNL     1       4.602  -2.598   0.146  1.00  0.00    -0.248 N 
HETATM   21  C3  UNL     1       5.766  -3.074  -0.306  1.00  0.00     0.119 A 
HETATM   22  C2  UNL     1       5.942  -4.365   0.145  1.00  0.00     0.068 A 
HETATM   23  C1  UNL     1       4.817  -4.650   0.899  1.00  0.00     0.115 A 
HETATM   24  N1  UNL     1       4.525  -5.734   1.525  1.00  0.00    -0.384 N 
HETATM   25  N8  UNL     1       4.054  -3.557   0.863  1.00  0.00    -0.280 N 
ATOM     26  H12 UNL     1       5.109  -6.570   1.553  1.00  0.00     0.157 HD
ATOM     27  H11 UNL     1       3.696  -5.944   2.081  1.00  0.00     0.157 HD
ATOM     28  H8  UNL     1       3.153  -3.474   1.335  1.00  0.00     0.189 HD
ENDBRANCH   6  20
ENDBRANCH   1   2
BRANCH   1  29
HETATM   29  C10 UNL     1      -0.316  -0.016  -0.636  1.00  0.00     0.046 C 
HETATM   30  C11 UNL     1      -1.636  -0.193  -0.603  1.00  0.00    -0.010 C 
BRANCH  30  31
HETATM   31  C12 UNL     1      -2.447   0.275   0.527  1.00  0.00     0.071 C 
HETATM   32  C13 UNL     1      -3.291   1.432   0.097  1.00  0.00     0.159 C 
HETATM   33  C14 UNL     1      -4.465   0.875  -0.716  1.00  0.00     0.175 C 
HETATM   34  C15 UNL     1      -5.295   0.096   0.257  1.00  0.00     0.172 C 
HETATM   35  C19 UNL     1      -4.486  -1.184   0.524  1.00  0.00     0.175 C 
HETATM   36  C20 UNL     1      -3.199  -0.821   1.240  1.00  0.00     0.159 C 
BRANCH  32  37
HETATM   37  O7  UNL     1      -2.531   2.308  -0.632  1.00  0.00    -0.392 OA
ATOM     38  H7  UNL     1      -3.067   3.043  -0.905  1.00  0.00     0.210 HD
ENDBRANCH  32  37
BRANCH  33  39
HETATM   39  O8  UNL     1      -5.130   1.842  -1.424  1.00  0.00    -0.391 OA
ATOM     40  H8  UNL     1      -5.858   1.497  -1.928  1.00  0.00     0.210 HD
ENDBRANCH  33  39
BRANCH  34  41
HETATM   41  N4  UNL     1      -6.629  -0.183  -0.129  1.00  0.00    -0.260 N 
HETATM   42  N5  UNL     1      -7.060  -1.219  -0.829  1.00  0.00    -0.281 N 
HETATM   43  C16 UNL     1      -8.389  -1.182  -1.021  1.00  0.00     0.117 A 
ATOM     44  H5  UNL     1      -6.454  -1.960  -1.182  1.00  0.00     0.189 HD
HETATM   45  N6  UNL     1      -9.097  -2.062  -1.671  1.00  0.00    -0.384 N 
HETATM   46  C17 UNL     1      -8.832  -0.043  -0.401  1.00  0.00     0.105 A 
ATOM     47  H62 UNL     1      -8.767  -2.910  -2.132  1.00  0.00     0.157 HD
ATOM     48  H61 UNL     1     -10.106  -2.034  -1.817  1.00  0.00     0.157 HD
HETATM   49  C18 UNL     1      -7.707   0.574   0.157  1.00  0.00     0.194 A 
BRANCH  49  50
HETATM   50  N7  UNL     1      -7.818   1.796   0.882  1.00  0.00    -0.096 N 
HETATM   51  O9  UNL     1      -8.949   2.351   1.036  1.00  0.00    -0.530 OA
HETATM   52  O10 UNL     1      -6.778   2.463   1.458  1.00  0.00    -0.530 OA
ENDBRANCH  49  50
ENDBRANCH  34  41
BRANCH  35  53
HETATM   53  O11 UNL     1      -4.173  -1.746  -0.687  1.00  0.00    -0.391 OA
ATOM     54  H11 UNL     1      -3.673  -2.537  -0.522  1.00  0.00     0.210 HD
ENDBRANCH  35  53
BRANCH  36  55
HETATM   55  O12 UNL     1      -2.392  -1.959   1.231  1.00  0.00    -0.392 OA
ATOM     56  H12 UNL     1      -2.866  -2.649   1.680  1.00  0.00     0.210 HD
ENDBRANCH  36  55
ENDBRANCH  30  31
ENDBRANCH   1  29
TORSDOF 16
