REMARK  19 active torsions:
REMARK  status: ('A' for Active; 'I' for Inactive)
REMARK    1  A    between atoms: S1_2  and  C2_3 
REMARK    2  A    between atoms: C3_5  and  O2_6 
REMARK    3  A    between atoms: O2_6  and  C4_7 
REMARK    4  A    between atoms: C5_8  and  C6_9 
REMARK    5  A    between atoms: C6_9  and  O3_10 
REMARK    6  A    between atoms: C7_13  and  N1_14 
REMARK    7  A    between atoms: N1_14  and  C8_16 
REMARK    8  A    between atoms: C11_19  and  O5_20 
REMARK    9  A    between atoms: C14_24  and  O6_25 
REMARK   10  A    between atoms: O6_25  and  C15_26 
REMARK   11  A    between atoms: C16_28  and  O8_29 
REMARK   12  A    between atoms: C17_31  and  O9_32 
REMARK   13  A    between atoms: C18_34  and  C19_35 
REMARK   14  A    between atoms: C19_35  and  O10_36 
REMARK   15  A    between atoms: C20_39  and  O12_40 
REMARK   16  A    between atoms: C21_42  and  O13_43 
REMARK   17  A    between atoms: C22_45  and  O14_46 
REMARK   18  A    between atoms: C23_48  and  O15_49 
REMARK   19  A    between atoms: C24_51  and  O16_52 
ROOT
HETATM    1  C4  UNL     1       1.371   0.058   0.610  1.00  0.00     0.187 C 
HETATM    2  C5  UNL     1       0.769   1.371   1.026  1.00  0.00     0.179 C 
HETATM    3  O4  UNL     1      -0.550   1.551   0.774  1.00  0.00    -0.354 OA
HETATM    4  C7  UNL     1      -1.102   0.834  -0.278  1.00  0.00     0.253 C 
HETATM    5  C14 UNL     1      -1.584  -0.474   0.285  1.00  0.00     0.207 C 
HETATM    6  C20 UNL     1      -0.455  -1.507   0.175  1.00  0.00     0.183 C 
HETATM    7  C21 UNL     1       0.560  -1.056   1.234  1.00  0.00     0.181 C 
ENDROOT
BRANCH   1   8
HETATM    8  O2  UNL     1       2.666  -0.100   1.111  1.00  0.00    -0.348 OA
BRANCH   8   9
HETATM    9  C3  UNL     1       3.618  -0.324   0.134  1.00  0.00     0.293 C 
HETATM   10  O1  UNL     1       4.239  -1.532   0.415  1.00  0.00    -0.340 OA
HETATM   11  C2  UNL     1       4.996  -1.973  -0.697  1.00  0.00     0.217 C 
HETATM   12  C24 UNL     1       5.698  -0.809  -1.316  1.00  0.00     0.188 C 
HETATM   13  C23 UNL     1       5.922   0.334  -0.371  1.00  0.00     0.183 C 
HETATM   14  C22 UNL     1       4.634   0.778   0.223  1.00  0.00     0.204 C 
BRANCH  11  15
HETATM   15  S1  UNL     1       5.979  -3.340  -0.207  1.00  0.00    -0.139 SA
HETATM   16  C1  UNL     1       7.262  -3.088   0.966  1.00  0.00     0.092 C 
ENDBRANCH  11  15
BRANCH  12  17
HETATM   17  O16 UNL     1       6.864  -1.240  -1.933  1.00  0.00    -0.389 OA
ATOM     18  H16 UNL     1       7.311  -0.500  -2.327  1.00  0.00     0.210 HD
ENDBRANCH  12  17
BRANCH  13  19
HETATM   19  O15 UNL     1       6.910   0.082   0.577  1.00  0.00    -0.390 OA
ATOM     20  H15 UNL     1       7.733  -0.202   0.197  1.00  0.00     0.210 HD
ENDBRANCH  13  19
BRANCH  14  21
HETATM   21  O14 UNL     1       4.760   1.244   1.528  1.00  0.00    -0.388 OA
ATOM     22  H14 UNL     1       5.403   1.941   1.584  1.00  0.00     0.210 HD
ENDBRANCH  14  21
ENDBRANCH   8   9
ENDBRANCH   1   8
BRANCH   2  23
HETATM   23  C6  UNL     1       0.994   1.627   2.521  1.00  0.00     0.198 C 
BRANCH  23  24
HETATM   24  O3  UNL     1       0.615   2.943   2.829  1.00  0.00    -0.398 OA
ATOM     25  H3  UNL     1       0.754   3.102   3.755  1.00  0.00     0.209 HD
ENDBRANCH  23  24
ENDBRANCH   2  23
BRANCH   7  26
HETATM   26  O13 UNL     1       1.370  -2.118   1.632  1.00  0.00    -0.390 OA
ATOM     27  H13 UNL     1       0.861  -2.818   2.024  1.00  0.00     0.210 HD
ENDBRANCH   7  26
BRANCH   6  28
HETATM   28  O12 UNL     1       0.086  -1.563  -1.087  1.00  0.00    -0.390 OA
ATOM     29  H12 UNL     1       0.785  -2.203  -1.155  1.00  0.00     0.210 HD
ENDBRANCH   6  28
BRANCH   4  30
HETATM   30  N1  UNL     1      -2.224   1.603  -0.768  1.00  0.00    -0.362 N 
ATOM     31  H1  UNL     1      -3.152   1.184  -0.700  1.00  0.00     0.162 HD
BRANCH  30  32
HETATM   32  C8  UNL     1      -2.125   2.903  -1.338  1.00  0.00     0.030 A 
HETATM   33  C9  UNL     1      -3.293   3.624  -1.614  1.00  0.00     0.032 A 
HETATM   34  C10 UNL     1      -3.270   4.882  -2.173  1.00  0.00     0.039 A 
HETATM   35  C11 UNL     1      -2.087   5.497  -2.489  1.00  0.00     0.065 A 
HETATM   36  C12 UNL     1      -0.927   4.806  -2.225  1.00  0.00     0.039 A 
HETATM   37  C13 UNL     1      -0.940   3.526  -1.657  1.00  0.00     0.032 A 
BRANCH  35  38
HETATM   38  O5  UNL     1      -2.008   6.763  -3.052  1.00  0.00    -0.361 OA
ATOM     39  H5  UNL     1      -1.188   7.189  -3.271  1.00  0.00     0.217 HD
ENDBRANCH  35  38
ENDBRANCH  30  32
ENDBRANCH   4  30
BRANCH   5  40
HETATM   40  O6  UNL     1      -2.759  -0.965  -0.214  1.00  0.00    -0.326 OA
BRANCH  40  41
HETATM   41  C15 UNL     1      -3.712  -1.238   0.779  1.00  0.00     0.416 C 
HETATM   42  O7  UNL     1      -3.931  -2.603   0.896  1.00  0.00    -0.306 OA
HETATM   43  C16 UNL     1      -5.092  -2.823   1.618  1.00  0.00     0.293 C 
HETATM   44  C17 UNL     1      -6.234  -2.540   0.649  1.00  0.00     0.204 C 
HETATM   45  C18 UNL     1      -5.871  -1.204   0.004  1.00  0.00     0.184 C 
HETATM   46  O11 UNL     1      -4.876  -0.562   0.678  1.00  0.00    -0.329 OA
BRANCH  43  47
HETATM   47  O8  UNL     1      -5.097  -4.153   2.019  1.00  0.00    -0.368 OA
ATOM     48  H8  UNL     1      -5.893  -4.304   2.514  1.00  0.00     0.212 HD
ENDBRANCH  43  47
BRANCH  44  49
HETATM   49  O9  UNL     1      -6.270  -3.577  -0.279  1.00  0.00    -0.388 OA
ATOM     50  H9  UNL     1      -6.982  -3.401  -0.883  1.00  0.00     0.210 HD
ENDBRANCH  44  49
BRANCH  45  51
HETATM   51  C19 UNL     1      -5.461  -1.491  -1.417  1.00  0.00     0.199 C 
BRANCH  51  52
HETATM   52  O10 UNL     1      -5.161  -0.348  -2.146  1.00  0.00    -0.398 OA
ATOM     53  H10 UNL     1      -4.902  -0.529  -3.042  1.00  0.00     0.209 HD
ENDBRANCH  51  52
ENDBRANCH  45  51
ENDBRANCH  40  41
ENDBRANCH   5  40
TORSDOF 19
