REMARK  2 active torsions:
REMARK  status: ('A' for Active; 'I' for Inactive)
REMARK    1  A    between atoms: S1_2  and  O4_5 
REMARK    2  A    between atoms: O4_5  and  C1_6 
ROOT
HETATM    1  C1  UNL     1      -0.006   0.158  -0.382  1.00  0.00     0.169 C 
HETATM    2  C2  UNL     1       0.845   0.425  -1.548  1.00  0.00     0.109 C 
HETATM    3  S2  UNL     1       2.674  -0.119  -0.628  1.00  0.00    -0.155 SA
HETATM    4  C3  UNL     1       1.727  -0.868   1.020  1.00  0.00     0.093 C 
HETATM    5  C4  UNL     1       0.730   0.263   0.899  1.00  0.00     0.098 C 
HETATM    6  S3  UNL     1       1.333   1.955   1.073  1.00  0.00    -0.100 SA
ENDROOT
BRANCH   1   7
HETATM    7  O4  UNL     1      -1.146   0.941  -0.283  1.00  0.00    -0.249 OA
BRANCH   7   8
HETATM    8  S1  UNL     1      -2.564   0.101  -0.299  1.00  0.00     0.252 S 
HETATM    9  O1  UNL     1      -3.593   0.938  -1.049  1.00  0.00    -0.572 OA
HETATM   10  O2  UNL     1      -2.474  -1.248  -0.920  1.00  0.00    -0.572 OA
HETATM   11  O3  UNL     1      -3.212  -0.103   1.247  1.00  0.00    -0.572 OA
ENDBRANCH   7   8
ENDBRANCH   1   7
TORSDOF 2
