REMARK  8 active torsions:
REMARK  status: ('A' for Active; 'I' for Inactive)
REMARK    1  A    between atoms: C2_2  and  C4_4 
REMARK    2  A    between atoms: C4_4  and  C5_5 
REMARK    3  A    between atoms: C5_5  and  N1_6 
REMARK    4  A    between atoms: N1_6  and  C6_8 
REMARK    5  A    between atoms: C6_8  and  N2_10 
REMARK    6  A    between atoms: N3_17  and  C12_18 
REMARK    7  A    between atoms: C12_18  and  C13_19 
REMARK    8  A    between atoms: C18_24  and  O2_25 
ROOT
HETATM    1  N2  UNL     1       2.615   1.941   0.430  1.00  0.00    -0.353 N 
HETATM    2  C7  UNL     1       2.023   2.798   1.427  1.00  0.00     0.151 C 
HETATM    3  C8  UNL     1       0.681   2.259   1.827  1.00  0.00     0.188 C 
HETATM    4  O1  UNL     1      -0.106   2.116   0.705  1.00  0.00    -0.377 OA
HETATM    5  C9  UNL     1       0.347   1.124  -0.148  1.00  0.00     0.080 C 
HETATM    6  C10 UNL     1       0.196  -0.244   0.515  1.00  0.00     0.070 C 
HETATM    7  C11 UNL     1      -1.225  -0.260   0.973  1.00  0.00     0.275 C 
HETATM    8  N3  UNL     1      -2.175  -0.333  -0.115  1.00  0.00     0.089 N 
HETATM    9  C19 UNL     1      -1.812   0.390  -1.275  1.00  0.00     0.275 C 
HETATM   10  C20 UNL     1      -0.527   1.082  -1.354  1.00  0.00     0.070 C 
HETATM   11  C21 UNL     1       1.782   1.294  -0.538  1.00  0.00     0.163 C 
ENDROOT
BRANCH   1  12
HETATM   12  C6  UNL     1       4.036   1.761   0.458  1.00  0.00     0.169 C 
HETATM   13  S1  UNL     1       4.888   2.519   1.610  1.00  0.00    -0.041 SA
BRANCH  12  14
HETATM   14  N1  UNL     1       4.648   0.946  -0.513  1.00  0.00    -0.367 N 
ATOM     15  H1  UNL     1       4.042   0.524  -1.216  1.00  0.00     0.161 HD
BRANCH  14  16
HETATM   16  C5  UNL     1       6.062   0.655  -0.600  1.00  0.00     0.122 C 
BRANCH  16  17
HETATM   17  C4  UNL     1       6.438  -0.243   0.552  1.00  0.00     0.023 C 
BRANCH  17  18
HETATM   18  C2  UNL     1       5.557  -1.487   0.407  1.00  0.00    -0.021 C 
HETATM   19  C1  UNL     1       5.859  -2.105  -0.927  1.00  0.00     0.009 C 
HETATM   20  C3  UNL     1       5.727  -2.427   1.564  1.00  0.00     0.009 C 
ENDBRANCH  17  18
ENDBRANCH  16  17
ENDBRANCH  14  16
ENDBRANCH  12  14
ENDBRANCH   1  12
BRANCH   8  21
HETATM   21  C12 UNL     1      -3.436   0.005   0.457  1.00  0.00     0.279 C 
BRANCH  21  22
HETATM   22  C13 UNL     1      -4.654  -0.092  -0.383  1.00  0.00     0.043 C 
HETATM   23  C14 UNL     1      -4.806  -1.521  -0.823  1.00  0.00     0.009 C 
HETATM   24  C15 UNL     1      -6.204  -2.043  -0.833  1.00  0.00     0.001 C 
HETATM   25  C16 UNL     1      -6.740  -1.750   0.577  1.00  0.00     0.002 C 
HETATM   26  C17 UNL     1      -6.999  -0.262   0.573  1.00  0.00     0.032 C 
HETATM   27  C18 UNL     1      -5.825   0.566   0.225  1.00  0.00     0.124 C 
BRANCH  27  28
HETATM   28  O2  UNL     1      -6.314   1.652  -0.545  1.00  0.00    -0.395 OA
ATOM     29  H2  UNL     1      -7.069   2.076  -0.153  1.00  0.00     0.210 HD
ENDBRANCH  27  28
ENDBRANCH  21  22
ENDBRANCH   8  21
TORSDOF 8
