REMARK  6 active torsions:
REMARK  status: ('A' for Active; 'I' for Inactive)
REMARK       I    between atoms: C1_2  and  N1_3 
REMARK    1  A    between atoms: C1_2  and  C16_25 
REMARK    2  A    between atoms: N1_3  and  C2_5 
REMARK    3  A    between atoms: N2_8  and  C5_9 
REMARK    4  A    between atoms: C5_9  and  C6_10 
REMARK    5  A    between atoms: C6_10  and  N3_11 
REMARK    6  A    between atoms: N3_11  and  C7_13 
ROOT
HETATM    1  C2  UNL     1      -2.165   0.553  -0.430  1.00  0.00     0.087 C 
HETATM    2  C3  UNL     1      -1.585   0.162   0.928  1.00  0.00     0.055 C 
HETATM    3  C4  UNL     1      -0.162   0.680   0.989  1.00  0.00     0.275 C 
HETATM    4  N2  UNL     1       0.590   0.138  -0.121  1.00  0.00     0.093 N 
HETATM    5  C14 UNL     1       0.108   0.550  -1.392  1.00  0.00     0.275 C 
HETATM    6  C15 UNL     1      -1.312   0.053  -1.553  1.00  0.00     0.055 C 
ENDROOT
BRANCH   4   7
HETATM    7  C5  UNL     1       2.017   0.254   0.075  1.00  0.00     0.317 C 
BRANCH   7   8
HETATM    8  C6  UNL     1       2.493   1.673   0.039  1.00  0.00     0.093 C 
BRANCH   8   9
HETATM    9  N3  UNL     1       3.833   1.940   0.215  1.00  0.00    -0.348 N 
ATOM     10  H3  UNL     1       4.014   2.941   0.142  1.00  0.00     0.167 HD
BRANCH   9  11
HETATM   11  C7  UNL     1       4.903   1.308   0.440  1.00  0.00     0.148 A 
HETATM   12  N4  UNL     1       5.194   0.024   0.612  1.00  0.00    -0.339 N 
HETATM   13  C8  UNL     1       6.437  -0.337   0.840  1.00  0.00     0.024 A 
ATOM     14  H4  UNL     1       4.456  -0.679   0.567  1.00  0.00     0.168 HD
HETATM   15  C9  UNL     1       7.385   0.650   0.889  1.00  0.00     0.009 A 
HETATM   16  C13 UNL     1       7.025  -1.733   1.068  1.00  0.00     0.058 C 
HETATM   17  S1  UNL     1       6.466   2.050   0.609  1.00  0.00    -0.057 SA
HETATM   18  C10 UNL     1       8.841   0.325   1.149  1.00  0.00     0.048 C 
HETATM   19  C11 UNL     1       9.290  -0.889   0.413  1.00  0.00     0.006 C 
HETATM   20  C12 UNL     1       8.177  -1.845   0.090  1.00  0.00     0.006 C 
ENDBRANCH   9  11
ENDBRANCH   8   9
ENDBRANCH   7   8
ENDBRANCH   4   7
BRANCH   1  21
HETATM   21  N1  UNL     1      -3.499  -0.039  -0.461  1.00  0.00    -0.356 N 
HETATM   22  C1  UNL     1      -4.660   0.771  -0.391  1.00  0.00     0.222 C 
HETATM   23  O1  UNL     1      -4.594   2.029  -0.300  1.00  0.00    -0.273 OA
ATOM     24  H1  UNL     1      -3.597  -1.052  -0.534  1.00  0.00     0.162 HD
BRANCH  22  25
HETATM   25  C16 UNL     1      -5.993   0.148  -0.423  1.00  0.00     0.078 C 
HETATM   26  C17 UNL     1      -7.099   1.162  -0.301  1.00  0.00     0.014 C 
HETATM   27  C18 UNL     1      -8.228   0.558   0.518  1.00  0.00     0.001 C 
HETATM   28  C19 UNL     1      -8.436  -0.853  -0.046  1.00  0.00     0.000 C 
HETATM   29  C20 UNL     1      -7.331  -1.723   0.547  1.00  0.00     0.001 C 
HETATM   30  C21 UNL     1      -6.073  -0.872   0.695  1.00  0.00     0.014 C 
ENDBRANCH  22  25
ENDBRANCH   1  21
TORSDOF 6
