REMARK  5 active torsions:
REMARK  status: ('A' for Active; 'I' for Inactive)
REMARK    1  A    between atoms: C2_2  and  C3_3 
REMARK    2  A    between atoms: C3_3  and  C4_4 
REMARK    3  A    between atoms: C4_4  and  C5_5 
REMARK       I    between atoms: N3_15  and  C11_16 
REMARK       I    between atoms: C11_16  and  N4_18 
REMARK    4  A    between atoms: N4_18  and  C12_20 
REMARK    5  A    between atoms: C12_20  and  C13_21 
ROOT
HETATM    1  C13 UNL     1       3.929  -0.484  -0.505  1.00  0.00    -0.003 C 
HETATM    2  C14 UNL     1       4.472  -0.881   0.871  1.00  0.00     0.018 C 
HETATM    3  C15 UNL     1       5.053   0.541   0.917  1.00  0.00    -0.008 C 
HETATM    4  C16 UNL     1       6.347   0.591   0.117  1.00  0.00     0.011 C 
HETATM    5  C17 UNL     1       5.831   0.639  -1.293  1.00  0.00     0.005 C 
HETATM    6  C18 UNL     1       4.686   1.653  -1.130  1.00  0.00     0.012 C 
HETATM    7  C19 UNL     1       3.941   0.926  -0.031  1.00  0.00     0.001 C 
HETATM    8  C20 UNL     1       5.036  -0.621  -1.536  1.00  0.00     0.107 C 
HETATM    9  C21 UNL     1       5.808  -1.831  -1.349  1.00  0.00     0.065 C 
HETATM   10  N5  UNL     1       6.428  -2.799  -1.219  1.00  0.00    -0.197 NA
ENDROOT
BRANCH   1  11
HETATM   11  C12 UNL     1       2.645  -1.107  -0.887  1.00  0.00     0.135 C 
BRANCH  11  12
HETATM   12  N4  UNL     1       1.587  -0.777   0.039  1.00  0.00    -0.342 N 
HETATM   13  C11 UNL     1       0.275  -1.259  -0.126  1.00  0.00     0.318 C 
HETATM   14  N3  UNL     1      -0.762  -0.941   0.772  1.00  0.00    -0.334 N 
HETATM   15  O1  UNL     1       0.033  -2.010  -1.133  1.00  0.00    -0.247 OA
HETATM   16  C10 UNL     1      -0.611  -0.111   1.937  1.00  0.00     0.127 C 
HETATM   17  C22 UNL     1      -2.126  -1.457   0.571  1.00  0.00     0.137 C 
HETATM   18  C9  UNL     1      -1.468   1.122   1.679  1.00  0.00     0.021 C 
HETATM   19  C8  UNL     1      -2.915   0.738   1.481  1.00  0.00     0.013 C 
HETATM   20  C3  UNL     1      -3.103  -0.312   0.409  1.00  0.00    -0.019 C 
ATOM     21  H4  UNL     1       1.797  -0.177   0.836  1.00  0.00     0.164 HD
BRANCH  20  22
HETATM   22  C2  UNL     1      -2.994   0.361  -0.911  1.00  0.00     0.007 C 
HETATM   23  C1  UNL     1      -3.236  -0.548  -2.093  1.00  0.00     0.006 C 
ENDBRANCH  20  22
BRANCH  20  24
HETATM   24  C4  UNL     1      -4.478  -0.888   0.601  1.00  0.00     0.069 C 
BRANCH  24  25
HETATM   25  C5  UNL     1      -5.554   0.150   0.559  1.00  0.00     0.026 A 
HETATM   26  C6  UNL     1      -6.263   0.559  -0.538  1.00  0.00     0.114 A 
HETATM   27  N1  UNL     1      -7.129   1.506  -0.153  1.00  0.00    -0.360 N 
HETATM   28  C7  UNL     1      -6.957   1.681   1.165  1.00  0.00     0.180 A 
ATOM     29  H1  UNL     1      -7.793   2.000  -0.749  1.00  0.00     0.166 HD
HETATM   30  N2  UNL     1      -6.001   0.860   1.608  1.00  0.00    -0.355 N 
ATOM     31  H2  UNL     1      -5.670   0.786   2.570  1.00  0.00     0.166 HD
ENDBRANCH  24  25
ENDBRANCH  20  24
ENDBRANCH  11  12
ENDBRANCH   1  11
TORSDOF 5
