REMARK  6 active torsions:
REMARK  status: ('A' for Active; 'I' for Inactive)
REMARK    1  A    between atoms: C2_2  and  C3_3 
REMARK    2  A    between atoms: N1_8  and  C8_9 
REMARK    3  A    between atoms: C8_9  and  C9_10 
REMARK       I    between atoms: C9_10  and  N2_12 
REMARK    4  A    between atoms: C12_15  and  C13_16 
REMARK    5  A    between atoms: C18_21  and  O2_22 
REMARK    6  A    between atoms: C18_21  and  C19_24 
ROOT
HETATM    1  C9  UNL     1       1.373  -0.259   0.669  1.00  0.00     0.248 C 
HETATM    2  O1  UNL     1       1.557  -0.616   1.852  1.00  0.00    -0.271 OA
HETATM    3  N2  UNL     1       0.075  -0.413   0.114  1.00  0.00    -0.345 N 
HETATM    4  C10 UNL     1      -0.275  -0.050  -1.222  1.00  0.00     0.127 C 
HETATM    5  C11 UNL     1      -1.594  -0.707  -1.494  1.00  0.00     0.035 C 
HETATM    6  C12 UNL     1      -2.094  -1.310  -0.194  1.00  0.00     0.016 C 
HETATM    7  C16 UNL     1      -1.075  -0.945   0.801  1.00  0.00     0.102 C 
HETATM    8  C17 UNL     1      -2.016   0.078   1.365  1.00  0.00     0.065 C 
HETATM    9  C18 UNL     1      -3.131  -0.593   0.564  1.00  0.00     0.073 C 
ENDROOT
BRANCH   1  10
HETATM   10  C8  UNL     1       2.477   0.307  -0.128  1.00  0.00     0.375 C 
BRANCH  10  11
HETATM   11  N1  UNL     1       3.728   0.381   0.587  1.00  0.00     0.101 N 
HETATM   12  C3  UNL     1       4.770   1.025  -0.159  1.00  0.00     0.223 C 
HETATM   13  C4  UNL     1       6.097   1.037   0.566  1.00  0.00     0.036 C 
HETATM   14  C5  UNL     1       6.430  -0.229   1.275  1.00  0.00     0.004 C 
HETATM   15  C6  UNL     1       5.530  -1.304   0.706  1.00  0.00     0.030 C 
HETATM   16  C7  UNL     1       4.121  -0.916   1.101  1.00  0.00     0.273 C 
BRANCH  12  17
HETATM   17  C2  UNL     1       4.419   2.509  -0.335  1.00  0.00     0.031 C 
HETATM   18  C1  UNL     1       5.580   3.102  -1.157  1.00  0.00     0.007 C 
ENDBRANCH  12  17
ENDBRANCH  10  11
ENDBRANCH   1  10
BRANCH   6  19
HETATM   19  C13 UNL     1      -2.376  -2.789  -0.361  1.00  0.00    -0.009 C 
HETATM   20  C14 UNL     1      -2.829  -3.575   0.776  1.00  0.00     0.010 C 
HETATM   21  C15 UNL     1      -1.155  -3.396  -1.011  1.00  0.00     0.010 C 
ENDBRANCH   6  19
BRANCH   9  22
HETATM   22  O2  UNL     1      -3.837  -1.455   1.435  1.00  0.00    -0.389 OA
ATOM     23  H2  UNL     1      -4.507  -0.992   1.925  1.00  0.00     0.210 HD
ENDBRANCH   9  22
BRANCH   9  24
HETATM   24  C19 UNL     1      -4.070   0.347  -0.093  1.00  0.00     0.024 C 
HETATM   25  C20 UNL     1      -3.626   1.637  -0.608  1.00  0.00     0.035 C 
HETATM   26  C21 UNL     1      -4.441   2.774   0.007  1.00  0.00     0.232 C 
HETATM   27  N3  UNL     1      -5.825   2.613  -0.355  1.00  0.00    -0.075 N 
HETATM   28  C22 UNL     1      -6.365   1.359   0.144  1.00  0.00     0.232 C 
ATOM     29  H32 UNL     1      -6.385   3.408  -0.049  1.00  0.00     0.277 HD
ATOM     30  H31 UNL     1      -5.960   2.703  -1.362  1.00  0.00     0.277 HD
HETATM   31  C23 UNL     1      -5.284   0.549   0.831  1.00  0.00     0.035 C 
ENDBRANCH   9  24
TORSDOF 6
