REMARK  6 active torsions:
REMARK  status: ('A' for Active; 'I' for Inactive)
REMARK    1  A    between atoms: C2_2  and  C3_3 
REMARK    2  A    between atoms: C5_5  and  N1_6 
REMARK    3  A    between atoms: N2_9  and  C6_10 
REMARK    4  A    between atoms: C6_10  and  C7_11 
REMARK    5  A    between atoms: C7_11  and  C8_12 
REMARK    6  A    between atoms: C11_15  and  C12_16 
REMARK       I    between atoms: C12_16  and  N3_18 
ROOT
HETATM    1  C8  UNL     1       1.416   0.725  -1.156  1.00  0.00    -0.013 C 
HETATM    2  C9  UNL     1       0.481   1.322  -0.170  1.00  0.00     0.005 C 
HETATM    3  C10 UNL     1      -0.858   0.685  -0.039  1.00  0.00     0.014 C 
HETATM    4  C11 UNL     1      -1.486   0.192  -1.291  1.00  0.00     0.078 C 
HETATM    5  C21 UNL     1      -0.525   0.084  -2.451  1.00  0.00     0.014 C 
HETATM    6  C22 UNL     1       0.790  -0.418  -1.907  1.00  0.00     0.005 C 
ENDROOT
BRANCH   1   7
HETATM    7  C7  UNL     1       2.721   0.239  -0.577  1.00  0.00     0.026 C 
BRANCH   7   8
HETATM    8  C6  UNL     1       3.498   1.362   0.087  1.00  0.00     0.151 C 
BRANCH   8   9
HETATM    9  N2  UNL     1       4.732   0.736   0.586  1.00  0.00    -0.277 N 
HETATM   10  C5  UNL     1       4.905   0.175   1.792  1.00  0.00     0.117 A 
HETATM   11  C4  UNL     1       6.184  -0.295   1.872  1.00  0.00     0.075 A 
HETATM   12  C3  UNL     1       6.802  -0.009   0.675  1.00  0.00     0.029 A 
HETATM   13  N4  UNL     1       5.876   0.616  -0.067  1.00  0.00    -0.301 N 
ATOM     14  H4  UNL     1       6.034   0.956  -1.016  1.00  0.00     0.187 HD
BRANCH  10  15
HETATM   15  N1  UNL     1       4.018   0.091   2.719  1.00  0.00    -0.384 N 
ATOM     16  H12 UNL     1       4.150  -0.336   3.636  1.00  0.00     0.157 HD
ATOM     17  H11 UNL     1       3.062   0.442   2.659  1.00  0.00     0.157 HD
ENDBRANCH  10  15
BRANCH  12  18
HETATM   18  C2  UNL     1       8.211  -0.322   0.268  1.00  0.00     0.054 C 
HETATM   19  C1  UNL     1       8.425   0.185  -1.123  1.00  0.00     0.011 C 
ENDBRANCH  12  18
ENDBRANCH   8   9
ENDBRANCH   7   8
ENDBRANCH   1   7
BRANCH   4  20
HETATM   20  C12 UNL     1      -2.098  -1.152  -1.045  1.00  0.00     0.226 C 
HETATM   21  O1  UNL     1      -1.610  -2.169  -1.673  1.00  0.00    -0.273 OA
HETATM   22  N3  UNL     1      -3.171  -1.410  -0.177  1.00  0.00    -0.325 N 
HETATM   23  C13 UNL     1      -3.650  -2.775  -0.033  1.00  0.00     0.128 C 
HETATM   24  C20 UNL     1      -3.814  -0.373   0.556  1.00  0.00     0.230 C 
HETATM   25  C14 UNL     1      -5.145  -2.831  -0.256  1.00  0.00     0.020 C 
HETATM   26  C15 UNL     1      -5.856  -1.876   0.634  1.00  0.00     0.010 C 
HETATM   27  C16 UNL     1      -5.046  -0.829   1.293  1.00  0.00     0.037 C 
HETATM   28  C17 UNL     1      -5.893   0.434   1.363  1.00  0.00     0.040 C 
HETATM   29  C18 UNL     1      -4.959   1.455   0.732  1.00  0.00     0.120 C 
HETATM   30  C19 UNL     1      -5.772   2.551   0.075  1.00  0.00     0.039 C 
HETATM   31  O2  UNL     1      -4.287   0.680  -0.210  1.00  0.00    -0.361 OA
ENDBRANCH   4  20
TORSDOF 6
