REMARK  6 active torsions:
REMARK  status: ('A' for Active; 'I' for Inactive)
REMARK    1  A    between atoms: C3_3  and  N1_4 
REMARK    2  A    between atoms: C5_6  and  C6_7 
REMARK    3  A    between atoms: C17_18  and  C18_19 
REMARK       I    between atoms: C18_19  and  N2_21 
REMARK    4  A    between atoms: N2_21  and  C19_23 
REMARK    5  A    between atoms: C19_23  and  C20_24 
REMARK    6  A    between atoms: C20_24  and  C21_25 
ROOT
HETATM    1  C1  UNL     1      -2.930  -5.804  -0.138  1.00  0.00     0.014 C 
HETATM    2  C2  UNL     1      -2.346  -5.028  -0.848  1.00  0.00    -0.095 C 
HETATM    3  C3  UNL     1      -1.653  -4.106  -1.717  1.00  0.00     0.248 C 
ENDROOT
BRANCH   3   4
HETATM    4  N1  UNL     1      -1.405  -2.811  -1.079  1.00  0.00    -0.252 N 
HETATM    5  C4  UNL     1      -2.509  -1.935  -0.777  1.00  0.00     0.126 A 
HETATM    6  C5  UNL     1      -2.346  -0.756  -0.201  1.00  0.00    -0.029 A 
HETATM    7  C16 UNL     1      -0.958  -0.377   0.121  1.00  0.00     0.054 A 
HETATM    8  C17 UNL     1       0.074  -1.155  -0.143  1.00  0.00     0.167 A 
HETATM    9  O2  UNL     1      -0.158  -2.376  -0.745  1.00  0.00    -0.230 OA
BRANCH   6  10
HETATM   10  C6  UNL     1      -3.478   0.160   0.117  1.00  0.00    -0.011 C 
HETATM   11  C7  UNL     1      -3.198   1.461  -0.622  1.00  0.00     0.019 C 
HETATM   12  C8  UNL     1      -4.349   2.424  -0.439  1.00  0.00    -0.013 C 
HETATM   13  C9  UNL     1      -5.609   1.767  -0.957  1.00  0.00     0.009 C 
HETATM   14  C13 UNL     1      -4.450   2.745   1.029  1.00  0.00     0.009 C 
HETATM   15  C10 UNL     1      -5.898   0.555  -0.126  1.00  0.00    -0.013 C 
HETATM   16  C11 UNL     1      -5.996   0.880   1.335  1.00  0.00     0.009 C 
HETATM   17  C15 UNL     1      -4.779  -0.444  -0.347  1.00  0.00     0.019 C 
HETATM   18  C12 UNL     1      -4.683   1.468   1.776  1.00  0.00    -0.013 C 
HETATM   19  C14 UNL     1      -3.578   0.463   1.574  1.00  0.00     0.019 C 
ENDBRANCH   6  10
BRANCH   8  20
HETATM   20  C18 UNL     1       1.447  -0.706   0.210  1.00  0.00     0.277 C 
HETATM   21  O1  UNL     1       1.574   0.417   0.757  1.00  0.00    -0.265 OA
HETATM   22  N2  UNL     1       2.502  -1.584  -0.100  1.00  0.00    -0.355 N 
ATOM     23  H2  UNL     1       2.295  -2.481  -0.540  1.00  0.00     0.162 HD
BRANCH  22  24
HETATM   24  C19 UNL     1       3.870  -1.238   0.193  1.00  0.00     0.123 C 
BRANCH  24  25
HETATM   25  C20 UNL     1       4.267  -0.008  -0.572  1.00  0.00     0.024 C 
BRANCH  25  26
HETATM   26  C21 UNL     1       5.718   0.317  -0.281  1.00  0.00    -0.010 C 
HETATM   27  C22 UNL     1       6.138   1.560  -1.070  1.00  0.00     0.032 C 
HETATM   28  C23 UNL     1       7.627   1.717  -0.877  1.00  0.00     0.232 C 
HETATM   29  N3  UNL     1       7.983   1.853   0.514  1.00  0.00    -0.075 N 
HETATM   30  C24 UNL     1       7.519   0.746   1.294  1.00  0.00     0.232 C 
ATOM     31  H32 UNL     1       8.987   1.992   0.628  1.00  0.00     0.277 HD
ATOM     32  H31 UNL     1       7.654   2.740   0.896  1.00  0.00     0.277 HD
HETATM   33  C25 UNL     1       5.990   0.660   1.160  1.00  0.00     0.032 C 
ENDBRANCH  25  26
ENDBRANCH  24  25
ENDBRANCH  22  24
ENDBRANCH   8  20
ENDBRANCH   3   4
TORSDOF 6
