REMARK  6 active torsions:
REMARK  status: ('A' for Active; 'I' for Inactive)
REMARK    1  A    between atoms: C2_2  and  N3_25 
REMARK    2  A    between atoms: N1_3  and  N2_5 
REMARK       I    between atoms: N2_5  and  C3_7 
REMARK    3  A    between atoms: C3_7  and  C4_9 
REMARK    4  A    between atoms: C11_16  and  C12_17 
REMARK    5  A    between atoms: C12_17  and  C13_18 
REMARK    6  A    between atoms: C13_18  and  C14_19 
ROOT
HETATM    1  C4  UNL     1      -1.227  -0.821  -1.089  1.00  0.00     0.084 C 
HETATM    2  C5  UNL     1      -1.471  -1.654   0.133  1.00  0.00     0.019 C 
HETATM    3  C6  UNL     1      -2.897  -2.030   0.344  1.00  0.00    -0.013 C 
HETATM    4  C7  UNL     1      -3.541  -2.686  -0.846  1.00  0.00     0.005 C 
HETATM    5  C8  UNL     1      -3.780  -1.818  -2.003  1.00  0.00     0.005 C 
HETATM    6  C9  UNL     1      -3.600  -0.363  -1.835  1.00  0.00    -0.009 C 
HETATM    7  C10 UNL     1      -4.730   0.136  -0.895  1.00  0.00     0.014 C 
HETATM    8  C11 UNL     1      -4.053   0.257   0.402  1.00  0.00    -0.039 C 
HETATM    9  C15 UNL     1      -3.754  -1.080   1.060  1.00  0.00     0.014 C 
HETATM   10  C16 UNL     1      -2.693   0.845   0.031  1.00  0.00     0.015 C 
HETATM   11  C17 UNL     1      -2.343   0.149  -1.266  1.00  0.00     0.003 C 
ENDROOT
BRANCH   1  12
HETATM   12  C3  UNL     1       0.048  -0.075  -0.944  1.00  0.00     0.240 C 
HETATM   13  N2  UNL     1       1.281  -0.759  -0.763  1.00  0.00    -0.268 N 
ATOM     14  H2  UNL     1       1.257  -1.778  -0.738  1.00  0.00     0.190 HD
HETATM   15  O1  UNL     1       0.076   1.195  -0.976  1.00  0.00    -0.271 OA
BRANCH  13  16
HETATM   16  N1  UNL     1       2.499  -0.149  -0.620  1.00  0.00    -0.287 N 
HETATM   17  C2  UNL     1       3.446  -0.631   0.110  1.00  0.00     0.090 C 
HETATM   18  C1  UNL     1       3.152  -1.925   0.821  1.00  0.00     0.090 C 
ATOM     19  H1  UNL     1       2.665   0.728  -1.114  1.00  0.00     0.188 HD
BRANCH  17  20
HETATM   20  N3  UNL     1       4.692   0.019   0.238  1.00  0.00    -0.367 N 
HETATM   21  C18 UNL     1       5.887  -0.726   0.565  1.00  0.00     0.154 C 
HETATM   22  C19 UNL     1       6.756   0.195   1.415  1.00  0.00     0.291 C 
HETATM   23  N4  UNL     1       7.202   1.341   0.651  1.00  0.00     0.087 N 
HETATM   24  C20 UNL     1       8.442   0.985  -0.036  1.00  0.00     0.310 C 
HETATM   25  C21 UNL     1       6.250   1.792  -0.314  1.00  0.00     0.291 C 
HETATM   26  C22 UNL     1       4.818   1.449   0.046  1.00  0.00     0.154 C 
ENDBRANCH  17  20
ENDBRANCH  13  16
ENDBRANCH   1  12
BRANCH   8  27
HETATM   27  C12 UNL     1      -4.705   1.043   1.499  1.00  0.00     0.020 C 
BRANCH  27  28
HETATM   28  C13 UNL     1      -5.049   2.450   1.300  1.00  0.00     0.114 C 
BRANCH  28  29
HETATM   29  C14 UNL     1      -6.146   2.775   0.376  1.00  0.00     0.172 C 
HETATM   30  O2  UNL     1      -7.030   1.966   0.028  1.00  0.00    -0.648 OA
HETATM   31  O3  UNL     1      -6.197   4.078  -0.144  1.00  0.00    -0.648 OA
ENDBRANCH  28  29
ENDBRANCH  27  28
ENDBRANCH   8  27
TORSDOF 6
