REMARK  7 active torsions:
REMARK  status: ('A' for Active; 'I' for Inactive)
REMARK    1  A    between atoms: C2_2  and  O1_3 
REMARK    2  A    between atoms: O1_3  and  C3_4 
REMARK    3  A    between atoms: C3_4  and  C4_6 
REMARK    4  A    between atoms: C6_8  and  C7_9 
REMARK    5  A    between atoms: C7_9  and  C8_10 
REMARK       I    between atoms: N1_13  and  C11_14 
REMARK       I    between atoms: C11_14  and  N2_16 
REMARK    6  A    between atoms: N2_16  and  C12_18 
REMARK    7  A    between atoms: C12_18  and  C13_19 
ROOT
HETATM    1  C8  UNL     1       1.935   2.120   1.229  1.00  0.00    -0.006 C 
HETATM    2  C9  UNL     1       1.690   2.907  -0.012  1.00  0.00     0.025 C 
HETATM    3  C10 UNL     1       0.262   3.162  -0.348  1.00  0.00     0.128 C 
HETATM    4  N1  UNL     1      -0.694   2.564   0.558  1.00  0.00    -0.334 N 
HETATM    5  C11 UNL     1      -1.983   2.240   0.084  1.00  0.00     0.318 C 
HETATM    6  O3  UNL     1      -2.264   2.474  -1.107  1.00  0.00    -0.247 OA
HETATM    7  N2  UNL     1      -2.931   1.664   0.937  1.00  0.00    -0.343 N 
ATOM      8  H2  UNL     1      -2.656   1.496   1.905  1.00  0.00     0.164 HD
HETATM    9  C21 UNL     1      -0.386   2.279   1.946  1.00  0.00     0.128 C 
HETATM   10  C22 UNL     1       1.020   2.697   2.312  1.00  0.00     0.025 C 
ENDROOT
BRANCH   1  11
HETATM   11  C7  UNL     1       3.370   2.179   1.633  1.00  0.00     0.063 C 
BRANCH  11  12
HETATM   12  C6  UNL     1       4.215   1.623   0.546  1.00  0.00     0.028 A 
HETATM   13  C5  UNL     1       4.596   0.310   0.385  1.00  0.00     0.063 A 
HETATM   14  C4  UNL     1       5.375   0.200  -0.737  1.00  0.00     0.125 A 
HETATM   15  N4  UNL     1       5.457   1.437  -1.242  1.00  0.00    -0.295 N 
HETATM   16  N3  UNL     1       4.777   2.288  -0.494  1.00  0.00    -0.304 N 
ATOM     17  H4  UNL     1       5.972   1.688  -2.086  1.00  0.00     0.187 HD
ATOM     18  H3  UNL     1       4.689   3.289  -0.671  1.00  0.00     0.186 HD
BRANCH  14  19
HETATM   19  C3  UNL     1       6.009  -0.989  -1.309  1.00  0.00     0.311 C 
HETATM   20  O2  UNL     1       6.698  -0.889  -2.361  1.00  0.00    -0.258 OA
BRANCH  19  21
HETATM   21  O1  UNL     1       5.897  -2.241  -0.757  1.00  0.00    -0.317 OA
BRANCH  21  22
HETATM   22  C2  UNL     1       6.529  -3.393  -1.338  1.00  0.00     0.175 C 
HETATM   23  C1  UNL     1       6.172  -4.567  -0.452  1.00  0.00     0.034 C 
ENDBRANCH  21  22
ENDBRANCH  19  21
ENDBRANCH  14  19
ENDBRANCH  11  12
ENDBRANCH   1  11
BRANCH   7  24
HETATM   24  C12 UNL     1      -4.250   1.296   0.554  1.00  0.00     0.129 C 
BRANCH  24  25
HETATM   25  C13 UNL     1      -4.223   0.237  -0.514  1.00  0.00     0.008 C 
HETATM   26  C14 UNL     1      -5.676  -0.070  -0.831  1.00  0.00     0.007 C 
HETATM   27  C15 UNL     1      -5.868  -1.459  -1.353  1.00  0.00     0.005 C 
HETATM   28  C16 UNL     1      -4.912  -2.411  -0.681  1.00  0.00    -0.010 C 
HETATM   29  C17 UNL     1      -3.497  -2.022  -1.108  1.00  0.00     0.010 C 
HETATM   30  C19 UNL     1      -4.541  -1.878   0.709  1.00  0.00    -0.010 C 
HETATM   31  C18 UNL     1      -3.527  -0.999   0.014  1.00  0.00    -0.004 C 
HETATM   32  C20 UNL     1      -3.970  -2.965   1.567  1.00  0.00     0.011 C 
ENDBRANCH  24  25
ENDBRANCH   7  24
TORSDOF 7
