REMARK  9 active torsions:
REMARK  status: ('A' for Active; 'I' for Inactive)
REMARK    1  A    between atoms: C4_4  and  O1_5 
REMARK    2  A    between atoms: C5_7  and  O2_8 
REMARK    3  A    between atoms: O2_8  and  C6_9 
REMARK    4  A    between atoms: C7_10  and  O3_11 
REMARK    5  A    between atoms: C10_16  and  N1_17 
REMARK    6  A    between atoms: C12_19  and  C13_20 
REMARK    7  A    between atoms: C13_20  and  C14_21 
REMARK    8  A    between atoms: C14_21  and  C15_22 
REMARK    9  A    between atoms: C15_22  and  O4_23 
ROOT
HETATM    1  C6  UNL     1      -1.273  -0.909   0.250  1.00  0.00     0.178 C 
HETATM    2  C7  UNL     1      -1.301  -2.375   0.613  1.00  0.00     0.163 C 
HETATM    3  C8  UNL     1      -0.080  -2.588   1.528  1.00  0.00     0.091 C 
HETATM    4 BR1  UNL     1      -0.275  -1.450   3.074  1.00  0.00    -0.088 Br
HETATM    5  C9  UNL     1       1.206  -2.331   0.843  1.00  0.00     0.047 C 
HETATM    6  C10 UNL     1       1.083  -1.586  -0.450  1.00  0.00     0.130 C 
HETATM    7  C16 UNL     1      -0.026  -0.632  -0.545  1.00  0.00     0.149 C 
HETATM    8  C17 UNL     1      -0.433  -0.538  -1.972  1.00  0.00     0.069 C 
HETATM    9  N4  UNL     1      -0.754  -0.458  -3.080  1.00  0.00    -0.197 NA
ENDROOT
BRANCH   1  10
HETATM   10  O2  UNL     1      -2.359  -0.474  -0.483  1.00  0.00    -0.338 OA
BRANCH  10  11
HETATM   11  C5  UNL     1      -3.501   0.162  -0.185  1.00  0.00     0.119 A 
HETATM   12  C4  UNL     1      -3.552   1.536  -0.048  1.00  0.00     0.100 A 
HETATM   13  C3  UNL     1      -4.725   2.230   0.260  1.00  0.00     0.046 A 
HETATM   14  C2  UNL     1      -5.885   1.536   0.438  1.00  0.00    -0.058 A 
HETATM   15  C1  UNL     1      -7.164   2.221   0.769  1.00  0.00     0.048 C 
HETATM   16  C19 UNL     1      -5.880   0.172   0.310  1.00  0.00     0.029 A 
HETATM   17  C18 UNL     1      -4.693  -0.504  -0.000  1.00  0.00     0.047 A 
HETATM   18 BR2  UNL     1      -4.873  -2.385  -0.227  1.00  0.00    -0.048 Br
BRANCH  12  19
HETATM   19  O1  UNL     1      -2.430   2.288  -0.214  1.00  0.00    -0.358 OA
ATOM     20  H1  UNL     1      -1.632   1.816  -0.423  1.00  0.00     0.217 HD
ENDBRANCH  12  19
ENDBRANCH  10  11
ENDBRANCH   1  10
BRANCH   6  21
HETATM   21  N1  UNL     1       2.334  -0.909  -0.682  1.00  0.00    -0.281 N 
HETATM   22  C11 UNL     1       2.693   0.317  -0.278  1.00  0.00     0.138 A 
HETATM   23  C12 UNL     1       3.989   0.590  -0.712  1.00  0.00     0.044 A 
HETATM   24  N2  UNL     1       4.358  -0.536  -1.385  1.00  0.00    -0.289 N 
HETATM   25  N3  UNL     1       3.356  -1.400  -1.347  1.00  0.00    -0.240 N 
ATOM     26  H2  UNL     1       5.257  -0.688  -1.842  1.00  0.00     0.188 HD
ATOM     27  H3  UNL     1       3.374  -2.325  -1.777  1.00  0.00     0.208 HD
BRANCH  23  28
HETATM   28  C13 UNL     1       4.765   1.817  -0.488  1.00  0.00     0.062 C 
BRANCH  28  29
HETATM   29  C14 UNL     1       5.575   1.741   0.790  1.00  0.00     0.032 C 
BRANCH  29  30
HETATM   30  C15 UNL     1       6.555   0.585   0.750  1.00  0.00     0.164 C 
BRANCH  30  31
HETATM   31  O4  UNL     1       7.452   0.698  -0.297  1.00  0.00    -0.401 OA
ATOM     32  H4  UNL     1       8.066  -0.026  -0.322  1.00  0.00     0.209 HD
ENDBRANCH  30  31
ENDBRANCH  29  30
ENDBRANCH  28  29
ENDBRANCH  23  28
ENDBRANCH   6  21
BRANCH   2  33
HETATM   33  O3  UNL     1      -1.225  -3.228  -0.458  1.00  0.00    -0.392 OA
ATOM     34  H3  UNL     1      -1.243  -4.150  -0.230  1.00  0.00     0.210 HD
ENDBRANCH   2  33
TORSDOF 9
