REMARK  12 active torsions:
REMARK  status: ('A' for Active; 'I' for Inactive)
REMARK    1  A    between atoms: C2_2  and  C5_5 
REMARK    2  A    between atoms: C7_10  and  C8_11 
REMARK    3  A    between atoms: C9_12  and  C10_13 
REMARK    4  A    between atoms: C10_13  and  C11_15 
REMARK    5  A    between atoms: C14_18  and  C15_19 
REMARK    6  A    between atoms: C15_19  and  O1_21 
REMARK    7  A    between atoms: C15_19  and  C17_23 
REMARK    8  A    between atoms: C17_23  and  O2_24 
REMARK    9  A    between atoms: C17_23  and  C18_26 
REMARK   10  A    between atoms: C18_26  and  O3_27 
REMARK   11  A    between atoms: N2_30  and  C19_31 
REMARK   12  A    between atoms: C19_31  and  C20_32 
ROOT
HETATM    1  C8  UNL     1      -0.723  -0.916   0.479  1.00  0.00    -0.044 C 
HETATM    2  C9  UNL     1       0.237  -0.329   0.897  1.00  0.00    -0.081 C 
ENDROOT
BRANCH   1   3
HETATM    3  C7  UNL     1      -1.863  -1.673  -0.023  1.00  0.00     0.129 A 
HETATM    4  C6  UNL     1      -1.807  -2.862  -0.708  1.00  0.00     0.141 A 
HETATM    5  N1  UNL     1      -3.060  -3.209  -0.957  1.00  0.00    -0.333 N 
HETATM    6 CL1  UNL     1      -0.343  -3.729  -1.154  1.00  0.00    -0.061 Cl
HETATM    7  C5  UNL     1      -3.939  -2.272  -0.451  1.00  0.00     0.093 A 
ATOM      8  H1  UNL     1      -3.339  -4.054  -1.455  1.00  0.00     0.168 HD
HETATM    9  N2  UNL     1      -3.174  -1.353   0.108  1.00  0.00    -0.324 N 
BRANCH   7  10
HETATM   10  C2  UNL     1      -5.387  -2.476  -0.623  1.00  0.00     0.008 C 
HETATM   11  C1  UNL     1      -5.632  -4.007  -0.467  1.00  0.00     0.022 C 
HETATM   12  C3  UNL     1      -5.755  -2.200  -2.063  1.00  0.00     0.022 C 
HETATM   13  C4  UNL     1      -6.294  -1.864   0.380  1.00  0.00     0.022 C 
ENDBRANCH   7  10
BRANCH   9  14
HETATM   14  C19 UNL     1      -3.566  -0.150   0.786  1.00  0.00     0.163 C 
BRANCH  14  15
HETATM   15  C20 UNL     1      -3.705   1.064  -0.063  1.00  0.00     0.140 C 
HETATM   16  C21 UNL     1      -4.128   2.251   0.805  1.00  0.00     0.035 C 
HETATM   17  C22 UNL     1      -4.539   3.259  -0.266  1.00  0.00     0.029 C 
HETATM   18  C23 UNL     1      -4.696   2.360  -1.497  1.00  0.00     0.168 C 
HETATM   19  O5  UNL     1      -4.711   1.058  -0.992  1.00  0.00    -0.384 OA
ENDBRANCH  14  15
ENDBRANCH   9  14
ENDBRANCH   1   3
BRANCH   2  20
HETATM   20  C10 UNL     1       1.450   0.359   1.408  1.00  0.00     0.166 C 
HETATM   21 BR1  UNL     1       1.050   2.234   1.613  1.00  0.00    -0.075 Br
BRANCH  20  22
HETATM   22  C11 UNL     1       2.611   0.131   0.488  1.00  0.00     0.148 C 
HETATM   23  C12 UNL     1       2.406   0.636  -0.911  1.00  0.00     0.036 C 
HETATM   24  C13 UNL     1       3.849   1.014  -1.296  1.00  0.00     0.038 C 
HETATM   25  C14 UNL     1       4.655   0.397  -0.178  1.00  0.00     0.158 C 
HETATM   26  O4  UNL     1       3.817   0.618   0.942  1.00  0.00    -0.375 OA
BRANCH  25  27
HETATM   27  C15 UNL     1       5.954   1.105   0.099  1.00  0.00     0.108 C 
HETATM   28  C16 UNL     1       6.933   0.907  -1.049  1.00  0.00     0.051 C 
BRANCH  27  29
HETATM   29  O1  UNL     1       5.689   2.463   0.269  1.00  0.00    -0.385 OA
ATOM     30  H1  UNL     1       6.509   2.910   0.444  1.00  0.00     0.210 HD
ENDBRANCH  27  29
BRANCH  27  31
HETATM   31  C17 UNL     1       6.526   0.533   1.390  1.00  0.00     0.178 C 
BRANCH  31  32
HETATM   32  O2  UNL     1       6.789  -0.840   1.261  1.00  0.00    -0.390 OA
ATOM     33  H2  UNL     1       7.146  -1.197   2.066  1.00  0.00     0.210 HD
ENDBRANCH  31  32
BRANCH  31  34
HETATM   34  C18 UNL     1       7.806   1.272   1.764  1.00  0.00     0.199 C 
BRANCH  34  35
HETATM   35  O3  UNL     1       8.271   0.763   2.974  1.00  0.00    -0.398 OA
ATOM     36  H3  UNL     1       9.069   1.223   3.207  1.00  0.00     0.209 HD
ENDBRANCH  34  35
ENDBRANCH  31  34
ENDBRANCH  27  31
ENDBRANCH  25  27
ENDBRANCH  20  22
ENDBRANCH   2  20
TORSDOF 12
