REMARK  10 active torsions:
REMARK  status: ('A' for Active; 'I' for Inactive)
REMARK    1  A    between atoms: C2_2  and  O1_3 
REMARK    2  A    between atoms: O1_3  and  C3_4 
REMARK    3  A    between atoms: C3_4  and  C4_6 
REMARK       I    between atoms: N1_12  and  C9_13 
REMARK    4  A    between atoms: C9_13  and  C10_15 
REMARK    5  A    between atoms: C10_15  and  C11_16 
REMARK    6  A    between atoms: C10_15  and  N2_27 
REMARK    7  A    between atoms: C11_16  and  C12_17 
REMARK    8  A    between atoms: C15_21  and  O4_22 
REMARK       I    between atoms: N2_27  and  C18_29 
REMARK    9  A    between atoms: C18_29  and  O6_31 
REMARK   10  A    between atoms: O6_31  and  C19_32 
ROOT
HETATM    1  C10 UNL     1       0.045   0.660  -0.064  1.00  0.00     0.086 C 
ENDROOT
BRANCH   1   2
HETATM    2  C9  UNL     1      -1.188  -0.033   0.228  1.00  0.00     0.267 C 
HETATM    3  N1  UNL     1      -2.527   0.280   0.016  1.00  0.00    -0.332 N 
HETATM    4  C4  UNL     1      -3.549  -0.676   0.506  1.00  0.00     0.187 C 
HETATM    5  C8  UNL     1      -3.147   1.387  -0.626  1.00  0.00     0.143 C 
HETATM    6  C5  UNL     1      -4.937  -0.112   0.376  1.00  0.00     0.037 C 
HETATM    7  C6  UNL     1      -5.101   1.298   0.820  1.00  0.00     0.020 C 
HETATM    8  C7  UNL     1      -3.892   2.166   0.458  1.00  0.00     0.076 C 
HETATM    9  S1  UNL     1      -2.922   2.339   1.975  1.00  0.00    -0.091 SA
HETATM   10  O3  UNL     1      -0.968  -1.177   0.804  1.00  0.00    -0.266 OA
BRANCH   4  11
HETATM   11  C3  UNL     1      -3.496  -1.846  -0.399  1.00  0.00     0.282 C 
HETATM   12  O2  UNL     1      -2.715  -1.828  -1.375  1.00  0.00    -0.263 OA
BRANCH  11  13
HETATM   13  O1  UNL     1      -4.285  -2.973  -0.205  1.00  0.00    -0.320 OA
BRANCH  13  14
HETATM   14  C2  UNL     1      -4.199  -4.065  -1.096  1.00  0.00     0.174 C 
HETATM   15  C1  UNL     1      -4.577  -3.589  -2.471  1.00  0.00     0.034 C 
ENDBRANCH  13  14
ENDBRANCH  11  13
ENDBRANCH   4  11
ENDBRANCH   1   2
BRANCH   1  16
HETATM   16  C11 UNL     1       0.070   1.783  -1.022  1.00  0.00     0.101 C 
BRANCH  16  17
HETATM   17  C12 UNL     1       1.459   2.349  -1.199  1.00  0.00    -0.049 A 
HETATM   18  C13 UNL     1       2.313   1.847  -2.149  1.00  0.00     0.034 A 
HETATM   19  C14 UNL     1       3.594   2.366  -2.339  1.00  0.00     0.069 A 
HETATM   20 CL1  UNL     1       4.680   1.712  -3.561  1.00  0.00    -0.081 Cl
HETATM   21  C15 UNL     1       4.041   3.414  -1.564  1.00  0.00     0.109 A 
HETATM   22  C16 UNL     1       3.186   3.920  -0.610  1.00  0.00     0.069 A 
HETATM   23 CL2  UNL     1       3.707   5.247   0.392  1.00  0.00    -0.081 Cl
HETATM   24  C17 UNL     1       1.904   3.397  -0.423  1.00  0.00     0.034 A 
BRANCH  21  25
HETATM   25  O4  UNL     1       5.326   3.934  -1.757  1.00  0.00    -0.357 OA
ATOM     26  H4  UNL     1       5.634   4.657  -1.223  1.00  0.00     0.217 HD
ENDBRANCH  21  25
ENDBRANCH  16  17
ENDBRANCH   1  16
BRANCH   1  27
HETATM   27  N2  UNL     1       1.123  -0.291  -0.252  1.00  0.00    -0.301 N 
HETATM   28  C18 UNL     1       2.181  -0.520   0.653  1.00  0.00     0.365 C 
HETATM   29  O5  UNL     1       2.214   0.135   1.715  1.00  0.00    -0.238 OA
ATOM     30  H2  UNL     1       1.116  -0.841  -1.111  1.00  0.00     0.171 HD
BRANCH  28  31
HETATM   31  O6  UNL     1       3.173  -1.437   0.408  1.00  0.00    -0.294 OA
BRANCH  31  32
HETATM   32  C19 UNL     1       4.229  -1.688   1.292  1.00  0.00     0.061 C 
HETATM   33  C20 UNL     1       5.173  -2.752   0.728  1.00  0.00     0.046 C 
HETATM   34  C21 UNL     1       3.745  -2.192   2.635  1.00  0.00     0.046 C 
HETATM   35  C22 UNL     1       5.050  -0.452   1.544  1.00  0.00     0.046 C 
ENDBRANCH  31  32
ENDBRANCH  28  31
ENDBRANCH   1  27
TORSDOF 10
