REMARK  9 active torsions:
REMARK  status: ('A' for Active; 'I' for Inactive)
REMARK    1  A    between atoms: C5_9  and  O1_10 
REMARK    2  A    between atoms: C5_9  and  C6_12 
REMARK    3  A    between atoms: N3_15  and  C9_16 
REMARK    4  A    between atoms: C11_20  and  O2_21 
REMARK    5  A    between atoms: O2_21  and  C12_22 
REMARK    6  A    between atoms: C15_27  and  C16_28 
REMARK    7  A    between atoms: C16_28  and  O3_29 
REMARK    8  A    between atoms: C16_28  and  N6_31 
REMARK    9  A    between atoms: N6_31  and  C17_33 
ROOT
HETATM    1  N1  UNL     1       8.186   0.109   0.693  1.00  0.00    -0.197 NA
HETATM    2  C1  UNL     1       7.083  -0.280   0.634  1.00  0.00     0.066 C 
HETATM    3  C2  UNL     1       5.690  -0.777   0.563  1.00  0.00     0.127 C 
HETATM    4  C3  UNL     1       5.741  -1.983  -0.315  1.00  0.00     0.252 C 
HETATM    5  N2  UNL     1       4.525  -2.700  -0.439  1.00  0.00    -0.071 N 
ATOM      6  H21 UNL     1       4.230  -3.097   0.453  1.00  0.00     0.277 HD
ATOM      7  H22 UNL     1       4.652  -3.567  -0.960  1.00  0.00     0.277 HD
HETATM    8  C4  UNL     1       3.475  -1.860  -1.032  1.00  0.00     0.270 C 
HETATM    9  C5  UNL     1       2.805  -1.108   0.055  1.00  0.00     0.086 C 
HETATM   10  C23 UNL     1       3.426   0.265   0.074  1.00  0.00     0.051 C 
HETATM   11  C24 UNL     1       4.878   0.352   0.052  1.00  0.00    -0.020 C 
HETATM   12  C25 UNL     1       5.356   1.662   0.703  1.00  0.00     0.011 C 
HETATM   13  C26 UNL     1       5.817   2.212  -0.605  1.00  0.00     0.002 C 
HETATM   14  C27 UNL     1       5.513   0.894  -1.239  1.00  0.00     0.011 C 
ENDROOT
BRANCH   9  15
HETATM   15  O1  UNL     1       3.111  -1.692   1.306  1.00  0.00    -0.388 OA
ATOM     16  H1  UNL     1       2.681  -1.210   2.003  1.00  0.00     0.210 HD
ENDBRANCH   9  15
BRANCH   9  17
HETATM   17  C6  UNL     1       1.317  -1.031  -0.007  1.00  0.00     0.025 C 
HETATM   18  C7  UNL     1       0.717  -0.256   1.138  1.00  0.00     0.027 C 
HETATM   19  C8  UNL     1      -0.805  -0.373   1.142  1.00  0.00     0.125 C 
HETATM   20  N3  UNL     1      -1.359  -0.109  -0.133  1.00  0.00    -0.365 N 
HETATM   21  C21 UNL     1      -0.779  -0.730  -1.272  1.00  0.00     0.125 C 
HETATM   22  C22 UNL     1       0.751  -0.546  -1.306  1.00  0.00     0.027 C 
BRANCH  20  23
HETATM   23  C9  UNL     1      -2.429   0.804  -0.290  1.00  0.00     0.135 A 
HETATM   24  N4  UNL     1      -2.127   2.007  -0.916  1.00  0.00    -0.346 N 
HETATM   25  C10 UNL     1      -3.003   2.990  -1.084  1.00  0.00     0.145 A 
ATOM     26  H4  UNL     1      -1.179   2.142  -1.266  1.00  0.00     0.167 HD
HETATM   27  C11 UNL     1      -4.291   2.850  -0.627  1.00  0.00     0.159 A 
HETATM   28  N5  UNL     1      -4.598   1.709  -0.029  1.00  0.00    -0.329 N 
HETATM   29  C15 UNL     1      -3.706   0.669   0.158  1.00  0.00     0.129 A 
ATOM     30  H5  UNL     1      -5.551   1.590   0.315  1.00  0.00     0.168 HD
BRANCH  27  31
HETATM   31  O2  UNL     1      -5.242   3.876  -0.790  1.00  0.00    -0.329 OA
BRANCH  31  32
HETATM   32  C12 UNL     1      -4.992   5.096  -1.404  1.00  0.00     0.130 A 
HETATM   33  C13 UNL     1      -5.726   6.275  -0.767  1.00  0.00     0.035 A 
HETATM   34  C14 UNL     1      -6.228   5.695  -2.076  1.00  0.00     0.035 A 
ENDBRANCH  31  32
ENDBRANCH  27  31
BRANCH  29  35
HETATM   35  C16 UNL     1      -4.201  -0.546   0.756  1.00  0.00     0.167 C 
BRANCH  35  36
HETATM   36  O3  UNL     1      -5.226  -0.373   1.546  1.00  0.00    -0.345 OA
ATOM     37  H3  UNL     1      -5.552  -1.174   1.940  1.00  0.00     0.219 HD
ENDBRANCH  35  36
BRANCH  35  38
HETATM   38  N6  UNL     1      -3.793  -1.867   0.639  1.00  0.00    -0.364 N 
ATOM     39  H6  UNL     1      -3.004  -2.103   0.037  1.00  0.00     0.162 HD
BRANCH  38  40
HETATM   40  C17 UNL     1      -4.496  -2.934   1.382  1.00  0.00     0.095 C 
HETATM   41  C18 UNL     1      -4.930  -4.073   0.519  1.00  0.00     0.104 C 
HETATM   42  C19 UNL     1      -4.302  -5.046   1.505  1.00  0.00     0.247 C 
HETATM   43  F1  UNL     1      -3.484  -5.985   0.907  1.00  0.00    -0.206 F 
HETATM   44  F2  UNL     1      -5.204  -5.598   2.381  1.00  0.00    -0.206 F 
HETATM   45  C20 UNL     1      -3.559  -3.870   2.096  1.00  0.00     0.104 C 
ENDBRANCH  38  40
ENDBRANCH  35  38
ENDBRANCH  29  35
ENDBRANCH  20  23
ENDBRANCH   9  17
TORSDOF 9
