REMARK  2 active torsions:
REMARK  status: ('A' for Active; 'I' for Inactive)
REMARK    1  A    between atoms: N1_2  and  C2_4 
REMARK    2  A    between atoms: C7_9  and  N2_10 
ROOT
HETATM    1  C2  UNL     1       0.743   0.028  -0.672  1.00  0.00     0.110 C 
HETATM    2  C3  UNL     1       0.528  -1.356  -0.144  1.00  0.00     0.027 C 
HETATM    3  C4  UNL     1      -0.870  -1.720   0.142  1.00  0.00     0.002 C 
HETATM    4  C5  UNL     1      -1.851  -0.588   0.149  1.00  0.00     0.002 C 
HETATM    5  C6  UNL     1      -1.240   0.655   0.740  1.00  0.00     0.035 C 
HETATM    6  C7  UNL     1       0.004   1.099   0.052  1.00  0.00     0.206 C 
ENDROOT
BRANCH   6   7
HETATM    7  N2  UNL     1      -0.345   2.140  -0.925  1.00  0.00    -0.073 N 
ATOM      8  H23 UNL     1       0.465   2.493  -1.435  1.00  0.00     0.274 HD
ATOM      9  H22 UNL     1      -0.860   1.775  -1.726  1.00  0.00     0.274 HD
ATOM     10  H21 UNL     1      -0.851   2.874  -0.429  1.00  0.00     0.274 HD
ENDBRANCH   6   7
BRANCH   1  11
HETATM   11  N1  UNL     1       2.116   0.378  -0.681  1.00  0.00    -0.401 N 
HETATM   12  C1  UNL     1       2.957   0.256   0.223  1.00  0.00     0.112 C 
ATOM     13  H1  UNL     1       2.460   0.786  -1.550  1.00  0.00     0.158 HD
ENDBRANCH   1  11
TORSDOF 2
