REMARK  1 active torsions:
REMARK  status: ('A' for Active; 'I' for Inactive)
REMARK    1  A    between atoms: C1_4  and  C2_5 
ROOT
HETATM    1  C2  UNL     1      -0.874  -0.013  -0.021  1.00  0.00     0.023 C 
HETATM    2  C3  UNL     1      -0.188  -1.345  -0.229  1.00  0.00     0.010 C 
HETATM    3  C4  UNL     1       1.228  -1.155  -0.658  1.00  0.00     0.001 C 
HETATM    4  C5  UNL     1       1.656   0.292  -0.672  1.00  0.00     0.000 C 
HETATM    5  C6  UNL     1       1.318   0.994   0.622  1.00  0.00     0.001 C 
HETATM    6  C7  UNL     1      -0.134   0.863   0.956  1.00  0.00     0.010 C 
ENDROOT
BRANCH   1   7
HETATM    7  C1  UNL     1      -2.278  -0.168   0.373  1.00  0.00     0.057 C 
HETATM    8  N1  UNL     1      -3.241   0.548  -0.079  1.00  0.00    -0.411 N 
ATOM      9  H12 UNL     1      -2.997   1.269  -0.757  1.00  0.00     0.155 HD
ATOM     10  H11 UNL     1      -4.218   0.440   0.195  1.00  0.00     0.155 HD
ENDBRANCH   1   7
TORSDOF 1
