REMARK  1 active torsions:
REMARK  status: ('A' for Active; 'I' for Inactive)
REMARK    1  A    between atoms: N1_1  and  C1_5 
ROOT
HETATM    1  C1  UNL     1       1.250  -0.395  -0.468  1.00  0.00     0.187 C 
HETATM    2  C2  UNL     1       1.080   1.063  -0.316  1.00  0.00     0.033 C 
HETATM    3  C3  UNL     1      -0.270   1.616  -0.502  1.00  0.00     0.007 C 
HETATM    4  C4  UNL     1      -1.401   0.653  -0.350  1.00  0.00    -0.014 C 
HETATM    5  C5  UNL     1      -1.525   0.102   1.050  1.00  0.00     0.005 C 
HETATM    6  C6  UNL     1      -0.444  -0.916   1.190  1.00  0.00     0.007 C 
HETATM    7  C7  UNL     1      -0.014  -1.198  -0.226  1.00  0.00     0.016 C 
HETATM    8  C8  UNL     1      -1.077  -0.624  -1.134  1.00  0.00     0.011 C 
ENDROOT
BRANCH   1   9
HETATM    9  N1  UNL     1       2.199  -0.861   0.553  1.00  0.00    -0.075 N 
ATOM     10  H13 UNL     1       3.086  -0.358   0.523  1.00  0.00     0.274 HD
ATOM     11  H12 UNL     1       1.920  -0.595   1.498  1.00  0.00     0.274 HD
ATOM     12  H11 UNL     1       2.317  -1.869   0.448  1.00  0.00     0.274 HD
ENDBRANCH   1   9
TORSDOF 1
