REMARK  1 active torsions:
REMARK  status: ('A' for Active; 'I' for Inactive)
REMARK    1  A    between atoms: C2_2  and  C3_3 
ROOT
HETATM    1  C3  UNL     1       0.662   0.519  -0.155  1.00  0.00     0.046 C 
HETATM    2  C4  UNL     1      -0.102   0.997   1.004  1.00  0.00     0.019 C 
HETATM    3  C5  UNL     1      -1.370   0.300   1.323  1.00  0.00     0.045 C 
HETATM    4  C6  UNL     1      -2.030  -0.390   0.177  1.00  0.00     0.060 C 
HETATM    5  N1  UNL     1      -1.145  -0.894  -0.784  1.00  0.00    -0.382 N 
ATOM      6  H1  UNL     1      -1.222  -1.858  -1.110  1.00  0.00     0.164 HD
HETATM    7  C7  UNL     1      -0.150  -0.043  -1.289  1.00  0.00     0.068 C 
ENDROOT
BRANCH   1   8
HETATM    8  C2  UNL     1       1.626  -0.554   0.263  1.00  0.00    -0.027 C 
HETATM    9  C1  UNL     1       2.934  -0.370   0.215  1.00  0.00     0.007 C 
ENDBRANCH   1   8
TORSDOF 1
