REMARK  2 active torsions:
REMARK  status: ('A' for Active; 'I' for Inactive)
REMARK    1  A    between atoms: N1_1  and  N2_4 
REMARK    2  A    between atoms: N2_4  and  N3_6 
ROOT
HETATM    1  N3  UNL     1       0.196  -0.312  -0.541  1.00  0.00    -0.190 NA
HETATM    2  C1  UNL     1      -0.718  -0.994   0.345  1.00  0.00     0.144 C 
HETATM    3  C2  UNL     1      -1.990  -0.157   0.142  1.00  0.00     0.250 C 
HETATM    4  N4  UNL     1      -1.437   1.179   0.183  1.00  0.00    -0.061 N 
ATOM      5  H41 UNL     1      -1.470   1.602   1.111  1.00  0.00     0.278 HD
ATOM      6  H42 UNL     1      -2.017   1.871  -0.292  1.00  0.00     0.278 HD
HETATM    7  C3  UNL     1      -0.087   1.085  -0.361  1.00  0.00     0.347 C 
ENDROOT
BRANCH   1   8
HETATM    8  N2  UNL     1       1.506  -0.667  -0.398  1.00  0.00    -0.267 N 
ATOM      9  H2  UNL     1       1.825  -1.625  -0.540  1.00  0.00     0.201 HD
BRANCH   8  10
HETATM   10  N1  UNL     1       2.373   0.347  -0.050  1.00  0.00    -0.335 N 
ATOM     11  H12 UNL     1       2.039   1.301   0.089  1.00  0.00     0.177 HD
ATOM     12  H11 UNL     1       3.352   0.082   0.057  1.00  0.00     0.177 HD
ENDBRANCH   8  10
ENDBRANCH   1   8
TORSDOF 2
