REMARK  3 active torsions:
REMARK  status: ('A' for Active; 'I' for Inactive)
REMARK    1  A    between atoms: N2_4  and  N3_6 
REMARK    2  A    between atoms: N3_6  and  C1_8 
REMARK    3  A    between atoms: N4_10  and  N5_11 
ROOT
HETATM    1  N3  UNL     1       1.374  -0.745   0.513  1.00  0.00    -0.301 N 
ATOM      2  H3  UNL     1       1.803  -1.579   0.914  1.00  0.00     0.183 HD
ENDROOT
BRANCH   1   3
HETATM    3  N2  UNL     1       2.179   0.178  -0.137  1.00  0.00    -0.252 N 
HETATM    4  N1  UNL     1       2.326   1.312   0.395  1.00  0.00    -0.331 N 
ATOM      5  H12 UNL     1       1.860   1.528   1.276  1.00  0.00     0.178 HD
ATOM      6  H11 UNL     1       2.918   1.991  -0.083  1.00  0.00     0.178 HD
ATOM      7  H2  UNL     1       2.638  -0.053  -1.018  1.00  0.00     0.207 HD
ENDBRANCH   1   3
BRANCH   1   8
HETATM    8  C1  UNL     1      -0.030  -0.564   0.637  1.00  0.00     0.208 A 
HETATM    9  C2  UNL     1      -0.774  -0.468  -0.690  1.00  0.00     0.159 A 
HETATM   10  N4  UNL     1      -0.679   0.653   0.262  1.00  0.00    -0.209 NA
BRANCH  10  11
HETATM   11  N5  UNL     1      -1.902   0.972   0.836  1.00  0.00    -0.361 NA
ATOM     12  H52 UNL     1      -1.836   1.748   1.495  1.00  0.00     0.171 HD
ATOM     13  H51 UNL     1      -2.365   1.840   0.568  1.00  0.00     0.171 HD
ENDBRANCH  10  11
ENDBRANCH   1   8
TORSDOF 3
