REMARK  10 active torsions:
REMARK  status: ('A' for Active; 'I' for Inactive)
REMARK    1  A    between atoms: C2_2  and  O1_4 
REMARK    2  A    between atoms: C2_2  and  C4_6 
REMARK    3  A    between atoms: C4_6  and  O2_7 
REMARK    4  A    between atoms: C4_6  and  C5_9 
REMARK    5  A    between atoms: C4_6  and  C11_29 
REMARK    6  A    between atoms: C7_11  and  O3_12 
REMARK    7  A    between atoms: C11_29  and  C12_30 
REMARK    8  A    between atoms: C11_29  and  N6_33 
REMARK    9  A    between atoms: C12_30  and  O5_31 
REMARK   10  A    between atoms: C14_35  and  C15_36 
ROOT
HETATM    1  C4  UNL     1      -0.844  -1.609   0.125  1.00  0.00     0.140 C 
ENDROOT
BRANCH   1   2
HETATM    2  C2  UNL     1      -0.780  -2.758   1.057  1.00  0.00     0.086 C 
HETATM    3  C1  UNL     1       0.401  -3.704   0.787  1.00  0.00     0.049 C 
HETATM    4  C3  UNL     1      -1.991  -3.667   0.760  1.00  0.00     0.049 C 
BRANCH   2   5
HETATM    5  O1  UNL     1      -0.896  -2.457   2.387  1.00  0.00    -0.387 OA
ATOM      6  H1  UNL     1      -1.626  -1.872   2.554  1.00  0.00     0.210 HD
ENDBRANCH   2   5
ENDBRANCH   1   2
BRANCH   1   7
HETATM    7  O2  UNL     1      -0.707  -2.251  -1.160  1.00  0.00    -0.382 OA
ATOM      8  H2  UNL     1      -0.748  -1.514  -1.758  1.00  0.00     0.210 HD
ENDBRANCH   1   7
BRANCH   1   9
HETATM    9  C5  UNL     1       0.222  -0.588   0.127  1.00  0.00     0.233 C 
HETATM   10  C6  UNL     1       1.575  -0.900  -0.312  1.00  0.00     0.109 C 
HETATM   11  C7  UNL     1       2.535  -0.177   0.657  1.00  0.00     0.219 C 
HETATM   12  O4  UNL     1       3.730   0.165   0.048  1.00  0.00    -0.291 OA
HETATM   13  C10 UNL     1       1.662   0.900   1.146  1.00  0.00     0.362 C 
HETATM   14  C8  UNL     1       4.390   1.358  -0.211  1.00  0.00     0.182 C 
HETATM   15  N1  UNL     1       5.666   1.377  -0.265  1.00  0.00    -0.377 N 
HETATM   16  C9  UNL     1       3.667   2.631  -0.430  1.00  0.00     0.181 C 
ATOM     17  H12 UNL     1       6.164   0.500  -0.114  1.00  0.00     0.158 HD
ATOM     18  H11 UNL     1       6.151   2.254  -0.455  1.00  0.00     0.158 HD
HETATM   19  N2  UNL     1       4.458   3.674  -0.957  1.00  0.00    -0.077 NA
HETATM   20  N3  UNL     1       2.420   2.914  -0.206  1.00  0.00    -0.287 N 
HETATM   21  N4  UNL     1       1.476   2.031   0.309  1.00  0.00    -0.300 N 
ATOM     22  H3  UNL     1       2.107   3.860  -0.425  1.00  0.00     0.188 HD
ATOM     23  H4  UNL     1       0.510   2.225   0.047  1.00  0.00     0.182 HD
HETATM   24  N5  UNL     1       0.371   0.202   1.327  1.00  0.00    -0.040 N 
ATOM     25  H52 UNL     1      -0.416   0.822   1.519  1.00  0.00     0.280 HD
ATOM     26  H51 UNL     1       0.304  -0.335   2.192  1.00  0.00     0.280 HD
BRANCH  11  27
HETATM   27  O3  UNL     1       2.853  -1.005   1.746  1.00  0.00    -0.362 OA
ATOM     28  H3  UNL     1       3.444  -0.560   2.342  1.00  0.00     0.213 HD
ENDBRANCH  11  27
ENDBRANCH   1   9
BRANCH   1  29
HETATM   29  C11 UNL     1      -2.256  -1.053  -0.015  1.00  0.00     0.172 C 
BRANCH  29  30
HETATM   30  C12 UNL     1      -2.913  -0.539   1.191  1.00  0.00     0.194 C 
BRANCH  30  31
HETATM   31  O5  UNL     1      -4.224  -0.085   0.847  1.00  0.00    -0.399 OA
ATOM     32  H5  UNL     1      -4.650   0.248   1.628  1.00  0.00     0.209 HD
ENDBRANCH  30  31
ENDBRANCH  29  30
BRANCH  29  33
HETATM   33  N6  UNL     1      -2.301  -0.100  -1.119  1.00  0.00    -0.277 N 
HETATM   34  C13 UNL     1      -2.592   1.198  -0.969  1.00  0.00     0.146 A 
HETATM   35  C14 UNL     1      -2.539   1.778  -2.225  1.00  0.00     0.102 A 
HETATM   36  N8  UNL     1      -2.218   0.802  -3.081  1.00  0.00    -0.282 N 
HETATM   37  N9  UNL     1      -2.078  -0.320  -2.403  1.00  0.00    -0.240 N 
ATOM     38  H8  UNL     1      -2.101   0.908  -4.089  1.00  0.00     0.188 HD
ATOM     39  H9  UNL     1      -1.834  -1.223  -2.809  1.00  0.00     0.208 HD
BRANCH  35  40
HETATM   40  C15 UNL     1      -2.800   3.192  -2.466  1.00  0.00     0.142 C 
HETATM   41  N7  UNL     1      -2.572   4.144  -1.433  1.00  0.00    -0.087 NA
HETATM   42  S1  UNL     1      -3.355   3.696  -3.918  1.00  0.00    -0.061 SA
ENDBRANCH  35  40
ENDBRANCH  29  33
ENDBRANCH   1  29
TORSDOF 10
