REMARK  11 active torsions:
REMARK  status: ('A' for Active; 'I' for Inactive)
REMARK       I    between atoms: C2_2  and  N1_4 
REMARK    1  A    between atoms: N1_4  and  C3_6 
REMARK    2  A    between atoms: N3_10  and  N4_12 
REMARK    3  A    between atoms: C5_14  and  N5_15 
REMARK    4  A    between atoms: C5_14  and  C6_20 
REMARK    5  A    between atoms: N5_15  and  N6_17 
REMARK    6  A    between atoms: C7_23  and  N8_24 
REMARK    7  A    between atoms: C10_29  and  N10_30 
REMARK    8  A    between atoms: C13_42  and  C14_43 
REMARK    9  A    between atoms: C14_43  and  O4_44 
REMARK   10  A    between atoms: C14_43  and  C15_46 
REMARK   11  A    between atoms: C15_46  and  O5_47 
ROOT
HETATM    1  N4  UNL     1      -0.103  -1.138   0.456  1.00  0.00    -0.278 N 
ATOM      2  H4  UNL     1       0.282  -0.461   1.115  1.00  0.00     0.189 HD
HETATM    3  C5  UNL     1       0.519  -1.340  -0.631  1.00  0.00     0.180 C 
ENDROOT
BRANCH   3   4
HETATM    4  N5  UNL     1       0.025  -2.264  -1.572  1.00  0.00    -0.288 N 
ATOM      5  H5  UNL     1      -0.246  -3.202  -1.276  1.00  0.00     0.188 HD
BRANCH   4   6
HETATM    6  N6  UNL     1      -0.091  -1.895  -2.899  1.00  0.00    -0.343 N 
ATOM      7  H62 UNL     1       0.184  -0.954  -3.179  1.00  0.00     0.176 HD
ATOM      8  H61 UNL     1      -0.449  -2.564  -3.581  1.00  0.00     0.176 HD
ENDBRANCH   4   6
ENDBRANCH   3   4
BRANCH   3   9
HETATM    9  C6  UNL     1       1.762  -0.615  -0.928  1.00  0.00     0.172 A 
HETATM   10  N7  UNL     1       2.584  -0.213   0.057  1.00  0.00    -0.172 N 
HETATM   11  C7  UNL     1       3.712   0.446  -0.234  1.00  0.00     0.691 A 
ATOM     12  H7  UNL     1       2.347  -0.411   1.029  1.00  0.00     0.186 HD
HETATM   13  N11 UNL     1       4.032   0.710  -1.512  1.00  0.00    -0.141 N 
HETATM   14  C12 UNL     1       3.233   0.323  -2.524  1.00  0.00     0.340 A 
ATOM     15  H11 UNL     1       4.895   1.212  -1.719  1.00  0.00     0.189 HD
HETATM   16  O2  UNL     1       3.564   0.588  -3.706  1.00  0.00    -0.246 OA
HETATM   17  N12 UNL     1       2.111  -0.335  -2.189  1.00  0.00    -0.290 N 
ATOM     18  H12 UNL     1       1.490  -0.639  -2.939  1.00  0.00     0.172 HD
BRANCH  11  19
HETATM   19  N8  UNL     1       4.616   0.894   0.771  1.00  0.00    -0.177 N 
HETATM   20  C8  UNL     1       4.301   0.630   2.151  1.00  0.00     0.196 C 
HETATM   21  N9  UNL     1       5.243   0.421   3.007  1.00  0.00    -0.383 N 
HETATM   22  C9  UNL     1       6.602   0.469   2.499  1.00  0.00     0.154 C 
ATOM     23  H9  UNL     1       5.043   0.232   3.989  1.00  0.00     0.160 HD
HETATM   24  C10 UNL     1       6.756   1.713   1.635  1.00  0.00     0.219 C 
HETATM   25  C11 UNL     1       5.836   1.603   0.440  1.00  0.00     0.182 C 
BRANCH  24  26
HETATM   26  N10 UNL     1       8.147   1.778   1.171  1.00  0.00    -0.072 N 
ATOM     27 3H10 UNL     1       8.819   1.745   1.937  1.00  0.00     0.274 HD
ATOM     28 2H10 UNL     1       8.442   0.927   0.692  1.00  0.00     0.274 HD
ATOM     29 1H10 UNL     1       8.250   2.611   0.592  1.00  0.00     0.274 HD
ENDBRANCH  24  26
ENDBRANCH  11  19
ENDBRANCH   3   9
BRANCH   1  30
HETATM   30  N3  UNL     1      -1.281  -1.791   0.794  1.00  0.00    -0.263 N 
HETATM   31  C4  UNL     1      -2.453  -1.283   0.585  1.00  0.00     0.245 A 
HETATM   32  N2  UNL     1      -3.650  -1.817   0.868  1.00  0.00    -0.304 N 
HETATM   33  O3  UNL     1      -2.634  -0.090   0.028  1.00  0.00    -0.276 OA
HETATM   34  C3  UNL     1      -4.608  -0.969   0.494  1.00  0.00     0.144 A 
ATOM     35  H2  UNL     1      -3.803  -2.728   1.301  1.00  0.00     0.171 HD
HETATM   36  C13 UNL     1      -3.928   0.124  -0.039  1.00  0.00     0.131 A 
ATOM     37  H3  UNL     1      -1.220  -2.713   1.227  1.00  0.00     0.190 HD
BRANCH  34  38
HETATM   38  N1  UNL     1      -6.032  -1.061   0.573  1.00  0.00    -0.311 N 
HETATM   39  C2  UNL     1      -6.746  -2.148   1.104  1.00  0.00     0.219 C 
HETATM   40  C1  UNL     1      -8.209  -2.155   1.143  1.00  0.00     0.117 C 
HETATM   41  O1  UNL     1      -6.140  -3.140   1.558  1.00  0.00    -0.274 OA
ATOM     42  H1  UNL     1      -6.573  -0.274   0.215  1.00  0.00     0.170 HD
ENDBRANCH  34  38
BRANCH  36  43
HETATM   43  C14 UNL     1      -4.609   1.346  -0.597  1.00  0.00     0.202 C 
BRANCH  43  44
HETATM   44  O4  UNL     1      -5.279   2.043   0.424  1.00  0.00    -0.387 OA
ATOM     45  H4  UNL     1      -5.709   2.814   0.072  1.00  0.00     0.210 HD
ENDBRANCH  43  44
BRANCH  43  46
HETATM   46  C15 UNL     1      -3.531   2.281  -1.104  1.00  0.00     0.203 C 
BRANCH  46  47
HETATM   47  O5  UNL     1      -2.865   1.571  -2.128  1.00  0.00    -0.398 OA
ATOM     48  H5  UNL     1      -2.189   2.158  -2.446  1.00  0.00     0.209 HD
ENDBRANCH  46  47
ENDBRANCH  43  46
ENDBRANCH  36  43
ENDBRANCH   1  30
TORSDOF 11
