REMARK  12 active torsions:
REMARK  status: ('A' for Active; 'I' for Inactive)
REMARK    1  A    between atoms: N1_1  and  C1_4 
REMARK    2  A    between atoms: C3_9  and  N4_10 
REMARK    3  A    between atoms: N4_10  and  C4_12 
REMARK    4  A    between atoms: C4_12  and  N5_13 
REMARK    5  A    between atoms: C4_12  and  O1_17 
REMARK    6  A    between atoms: N8_25  and  C7_27 
REMARK    7  A    between atoms: C7_27  and  S1_28 
REMARK    8  A    between atoms: S1_28  and  C8_29 
REMARK    9  A    between atoms: C8_29  and  C9_30 
REMARK   10  A    between atoms: C10_33  and  N10_34 
REMARK   11  A    between atoms: N10_34  and  C11_36 
REMARK   12  A    between atoms: C14_44  and  N14_45 
ROOT
HETATM    1  C1  UNL     1      -4.455   1.163  -0.655  1.00  0.00     0.692 A 
HETATM    2  N2  UNL     1      -3.331   0.548  -0.274  1.00  0.00    -0.172 N 
ATOM      3  H2  UNL     1      -2.431   0.994  -0.449  1.00  0.00     0.186 HD
HETATM    4  C2  UNL     1      -3.369  -0.668   0.346  1.00  0.00     0.188 A 
HETATM    5  N3  UNL     1      -4.539  -1.280   0.590  1.00  0.00    -0.067 N 
HETATM    6  C3  UNL     1      -5.683  -0.645   0.197  1.00  0.00     0.719 A 
HETATM    7  N6  UNL     1      -5.631   0.539  -0.405  1.00  0.00    -0.021 N 
ATOM      8  H6  UNL     1      -6.501   0.990  -0.687  1.00  0.00     0.203 HD
HETATM    9  N7  UNL     1      -4.303  -2.492   1.224  1.00  0.00    -0.287 N 
ATOM     10  H7  UNL     1      -5.041  -3.136   1.508  1.00  0.00     0.187 HD
HETATM   11  C5  UNL     1      -3.058  -2.712   1.412  1.00  0.00     0.141 A 
HETATM   12  C6  UNL     1      -2.337  -1.557   0.863  1.00  0.00     0.097 A 
HETATM   13  N8  UNL     1      -1.081  -1.416   0.866  1.00  0.00    -0.356 N 
ATOM     14  H8  UNL     1      -0.577  -2.193   1.293  1.00  0.00     0.166 HD
ENDROOT
BRANCH  13  15
HETATM   15  C7  UNL     1      -0.248  -0.384   0.388  1.00  0.00     0.134 C 
BRANCH  15  16
HETATM   16  S1  UNL     1       0.731  -0.863  -1.066  1.00  0.00    -0.117 SA
BRANCH  16  17
HETATM   17  C8  UNL     1       1.736   0.576  -1.541  1.00  0.00     0.157 C 
BRANCH  17  18
HETATM   18  C9  UNL     1       2.747   0.887  -0.478  1.00  0.00     0.123 A 
HETATM   19  N9  UNL     1       3.979   0.357  -0.461  1.00  0.00    -0.179 N 
HETATM   20  C10 UNL     1       4.878   0.642   0.494  1.00  0.00     0.695 A 
ATOM     21  H9  UNL     1       4.244  -0.289  -1.204  1.00  0.00     0.185 HD
HETATM   22  N13 UNL     1       4.509   1.496   1.465  1.00  0.00    -0.023 N 
HETATM   23  C14 UNL     1       3.283   2.049   1.483  1.00  0.00     0.691 A 
ATOM     24  H13 UNL     1       5.173   1.729   2.203  1.00  0.00     0.203 HD
HETATM   25  N15 UNL     1       2.413   1.735   0.505  1.00  0.00    -0.179 N 
ATOM     26  H15 UNL     1       1.481   2.150   0.512  1.00  0.00     0.185 HD
BRANCH  20  27
HETATM   27  N10 UNL     1       6.053   0.164   0.551  1.00  0.00    -0.205 N 
ATOM     28  H10 UNL     1       6.630   0.468   1.335  1.00  0.00     0.179 HD
BRANCH  27  29
HETATM   29  C11 UNL     1       6.659  -0.758  -0.368  1.00  0.00     0.218 C 
HETATM   30  C12 UNL     1       8.137  -0.494  -0.545  1.00  0.00     0.090 C 
HETATM   31  C13 UNL     1       8.163   0.354  -1.758  1.00  0.00     0.079 C 
HETATM   32  N11 UNL     1       7.055   0.254  -2.381  1.00  0.00    -0.317 N 
HETATM   33  N12 UNL     1       6.185  -0.614  -1.722  1.00  0.00    -0.115 NA
ATOM     34  H11 UNL     1       6.834   0.744  -3.248  1.00  0.00     0.181 HD
ENDBRANCH  27  29
ENDBRANCH  20  27
BRANCH  23  35
HETATM   35  N14 UNL     1       2.961   2.873   2.439  1.00  0.00    -0.234 N 
ATOM     36 2H14 UNL     1       3.620   3.111   3.180  1.00  0.00     0.174 HD
ATOM     37 1H14 UNL     1       2.031   3.292   2.453  1.00  0.00     0.174 HD
ENDBRANCH  23  35
ENDBRANCH  17  18
ENDBRANCH  16  17
ENDBRANCH  15  16
ENDBRANCH  13  15
BRANCH   1  38
HETATM   38  N1  UNL     1      -4.491   2.301  -1.239  1.00  0.00    -0.234 N 
ATOM     39  H12 UNL     1      -3.605   2.771  -1.427  1.00  0.00     0.174 HD
ATOM     40  H11 UNL     1      -5.349   2.770  -1.530  1.00  0.00     0.174 HD
ENDBRANCH   1  38
BRANCH   6  41
HETATM   41  N4  UNL     1      -6.797  -1.249   0.441  1.00  0.00    -0.172 N 
ATOM     42  H4  UNL     1      -6.781  -2.156   0.907  1.00  0.00     0.182 HD
BRANCH  41  43
HETATM   43  C4  UNL     1      -8.055  -0.673   0.072  1.00  0.00     0.438 C 
BRANCH  43  44
HETATM   44  N5  UNL     1      -8.277  -0.741  -1.362  1.00  0.00    -0.034 N 
ATOM     45  H53 UNL     1      -7.507  -0.315  -1.878  1.00  0.00     0.279 HD
ATOM     46  H52 UNL     1      -8.190  -1.697  -1.707  1.00  0.00     0.279 HD
ATOM     47  H51 UNL     1      -9.173  -0.331  -1.625  1.00  0.00     0.279 HD
ENDBRANCH  43  44
BRANCH  43  48
HETATM   48  O1  UNL     1      -9.059  -1.385   0.761  1.00  0.00    -0.354 OA
ATOM     49  H1  UNL     1      -9.894  -1.003   0.516  1.00  0.00     0.213 HD
ENDBRANCH  43  48
ENDBRANCH  41  43
ENDBRANCH   6  41
TORSDOF 12
