REMARK  14 active torsions:
REMARK  status: ('A' for Active; 'I' for Inactive)
REMARK    1  A    between atoms: C3_4  and  O2_5 
REMARK    2  A    between atoms: O2_5  and  C4_6 
REMARK    3  A    between atoms: C5_7  and  O3_8 
REMARK    4  A    between atoms: O3_8  and  C6_9 
REMARK    5  A    between atoms: C9_13  and  O5_14 
REMARK    6  A    between atoms: C10_16  and  O6_17 
REMARK    7  A    between atoms: C11_20  and  O8_21 
REMARK    8  A    between atoms: O8_21  and  C12_22 
REMARK    9  A    between atoms: C12_22  and  O9_23 
REMARK   10  A    between atoms: C12_22  and  O10_25 
REMARK   11  A    between atoms: C13_27  and  O11_28 
REMARK   12  A    between atoms: C14_30  and  O12_31 
REMARK   13  A    between atoms: C15_33  and  O13_34 
REMARK   14  A    between atoms: C16_36  and  O14_37 
ROOT
HETATM    1  C4  UNL     1       0.840   1.426  -0.412  1.00  0.00     0.213 C 
HETATM    2  C5  UNL     1      -0.367   1.323  -1.325  1.00  0.00     0.295 C 
HETATM    3  O7  UNL     1      -0.639   2.695  -1.559  1.00  0.00    -0.326 OA
HETATM    4  C11 UNL     1      -0.715   3.264  -0.300  1.00  0.00     0.299 C 
HETATM    5  C13 UNL     1       0.529   2.676   0.372  1.00  0.00     0.207 C 
ENDROOT
BRANCH   1   6
HETATM    6  O2  UNL     1       0.930   0.284   0.303  1.00  0.00    -0.346 OA
BRANCH   6   7
HETATM    7  C3  UNL     1       2.027  -0.501   0.117  1.00  0.00     0.292 C 
HETATM    8  O1  UNL     1       2.740  -0.521   1.316  1.00  0.00    -0.351 OA
HETATM    9  C2  UNL     1       4.060  -0.891   1.141  1.00  0.00     0.152 C 
HETATM   10  C1  UNL     1       4.699  -1.221   2.471  1.00  0.00     0.042 C 
HETATM   11  C16 UNL     1       4.201  -2.075   0.247  1.00  0.00     0.178 C 
HETATM   12  C15 UNL     1       2.898  -2.843   0.232  1.00  0.00     0.183 C 
HETATM   13  C14 UNL     1       1.752  -1.935  -0.242  1.00  0.00     0.204 C 
BRANCH  11  14
HETATM   14  O14 UNL     1       4.588  -1.713  -1.033  1.00  0.00    -0.390 OA
ATOM     15  H14 UNL     1       4.678  -2.468  -1.603  1.00  0.00     0.210 HD
ENDBRANCH  11  14
BRANCH  12  16
HETATM   16  O13 UNL     1       2.636  -3.364   1.489  1.00  0.00    -0.390 OA
ATOM     17  H13 UNL     1       3.344  -3.925   1.782  1.00  0.00     0.210 HD
ENDBRANCH  12  16
BRANCH  13  18
HETATM   18  O12 UNL     1       1.730  -2.032  -1.630  1.00  0.00    -0.388 OA
ATOM     19  H12 UNL     1       1.556  -2.938  -1.857  1.00  0.00     0.210 HD
ENDBRANCH  13  18
ENDBRANCH   6   7
ENDBRANCH   1   6
BRANCH   2  20
HETATM   20  O3  UNL     1      -1.466   0.806  -0.743  1.00  0.00    -0.348 OA
BRANCH  20  21
HETATM   21  C6  UNL     1      -2.169  -0.150  -1.363  1.00  0.00     0.179 C 
HETATM   22  C7  UNL     1      -3.596   0.141  -1.694  1.00  0.00     0.202 C 
HETATM   23  O4  UNL     1      -4.163  -1.064  -2.146  1.00  0.00    -0.386 OA
HETATM   24  C8  UNL     1      -4.508  -1.796  -0.994  1.00  0.00     0.201 C 
HETATM   25  C9  UNL     1      -3.483  -1.612   0.097  1.00  0.00     0.173 C 
HETATM   26  C10 UNL     1      -2.132  -1.437  -0.568  1.00  0.00     0.180 C 
BRANCH  25  27
HETATM   27  O5  UNL     1      -3.484  -2.694   0.979  1.00  0.00    -0.391 OA
ATOM     28  H5  UNL     1      -2.838  -2.578   1.666  1.00  0.00     0.210 HD
ENDBRANCH  25  27
BRANCH  26  29
HETATM   29  O6  UNL     1      -1.903  -2.541  -1.406  1.00  0.00    -0.390 OA
ATOM     30  H6  UNL     1      -1.880  -3.349  -0.907  1.00  0.00     0.210 HD
ENDBRANCH  26  29
ENDBRANCH  20  21
ENDBRANCH   2  20
BRANCH   5  31
HETATM   31  O11 UNL     1       1.543   3.618   0.154  1.00  0.00    -0.388 OA
ATOM     32  H11 UNL     1       1.347   4.405   0.648  1.00  0.00     0.210 HD
ENDBRANCH   5  31
BRANCH   4  33
HETATM   33  O8  UNL     1      -1.879   2.890   0.321  1.00  0.00    -0.306 OA
BRANCH  33  34
HETATM   34  C12 UNL     1      -2.661   3.971   0.722  1.00  0.00     0.410 C 
BRANCH  34  35
HETATM   35  O9  UNL     1      -3.942   3.935   0.185  1.00  0.00    -0.350 OA
ATOM     36  H9  UNL     1      -4.475   4.672   0.458  1.00  0.00     0.215 HD
ENDBRANCH  34  35
BRANCH  34  37
HETATM   37  O10 UNL     1      -2.797   3.907   2.108  1.00  0.00    -0.350 OA
ATOM     38  H10 UNL     1      -3.330   4.644   2.381  1.00  0.00     0.215 HD
ENDBRANCH  34  37
ENDBRANCH  33  34
ENDBRANCH   4  33
TORSDOF 14
