REMARK  21 active torsions:
REMARK  status: ('A' for Active; 'I' for Inactive)
REMARK    1  A    between atoms: C2_2  and  C3_3 
REMARK    2  A    between atoms: C2_2  and  C19_25 
REMARK    3  A    between atoms: C3_3  and  C4_4 
REMARK    4  A    between atoms: C4_4  and  C5_5 
REMARK    5  A    between atoms: N1_8  and  C8_9 
REMARK    6  A    between atoms: C8_9  and  O1_10 
REMARK    7  A    between atoms: O1_10  and  C9_11 
REMARK    8  A    between atoms: C9_11  and  C10_12 
REMARK    9  A    between atoms: C10_12  and  C11_13 
REMARK   10  A    between atoms: C11_13  and  C12_14 
REMARK   11  A    between atoms: C12_14  and  C13_15 
REMARK   12  A    between atoms: C13_15  and  C14_16 
REMARK   13  A    between atoms: C14_16  and  C15_17 
REMARK   14  A    between atoms: C15_17  and  C16_18 
REMARK   15  A    between atoms: C16_18  and  N2_19 
REMARK   16  A    between atoms: N2_19  and  N3_20 
REMARK   17  A    between atoms: C19_25  and  N4_26 
REMARK   18  A    between atoms: N4_26  and  C20_27 
REMARK   19  A    between atoms: N4_26  and  C21_29 
REMARK   20  A    between atoms: C21_29  and  C22_30 
REMARK   21  A    between atoms: C22_30  and  N5_31 
ROOT
HETATM    1  C5  UNL     1      -1.911  -0.224  -2.236  1.00  0.00    -0.056 A 
HETATM    2  C6  UNL     1      -1.204   0.670  -1.482  1.00  0.00     0.024 A 
HETATM    3  C7  UNL     1       0.156   0.446  -1.213  1.00  0.00     0.093 A 
HETATM    4  N1  UNL     1       0.729  -0.641  -1.701  1.00  0.00    -0.345 N 
HETATM    5  C17 UNL     1       0.069  -1.562  -2.458  1.00  0.00     0.093 A 
HETATM    6  C18 UNL     1      -1.274  -1.335  -2.721  1.00  0.00     0.024 A 
ENDROOT
BRANCH   1   7
HETATM    7  C4  UNL     1      -3.334   0.001  -2.523  1.00  0.00     0.039 C 
BRANCH   7   8
HETATM    8  C3  UNL     1      -4.121  -0.659  -1.418  1.00  0.00     0.010 C 
BRANCH   8   9
HETATM    9  C2  UNL     1      -5.592  -0.539  -1.518  1.00  0.00    -0.000 C 
HETATM   10  C1  UNL     1      -6.145  -1.124  -2.809  1.00  0.00     0.011 C 
BRANCH   9  11
HETATM   11  C19 UNL     1      -6.192   0.786  -1.189  1.00  0.00     0.129 C 
BRANCH  11  12
HETATM   12  N4  UNL     1      -5.731   1.408   0.025  1.00  0.00    -0.357 N 
BRANCH  12  13
HETATM   13  C20 UNL     1      -4.626   2.300   0.047  1.00  0.00     0.350 C 
HETATM   14  O2  UNL     1      -4.223   2.832   1.103  1.00  0.00    -0.284 OA
ENDBRANCH  12  13
BRANCH  12  15
HETATM   15  C21 UNL     1      -6.401   1.176   1.276  1.00  0.00     0.152 C 
BRANCH  15  16
HETATM   16  C22 UNL     1      -5.879   0.063   2.105  1.00  0.00     0.249 C 
BRANCH  16  17
HETATM   17  N5  UNL     1      -4.490   0.197   2.494  1.00  0.00    -0.078 N 
ATOM     18  H53 UNL     1      -3.903   0.330   1.670  1.00  0.00     0.274 HD
ATOM     19  H52 UNL     1      -4.339   1.089   2.964  1.00  0.00     0.274 HD
ATOM     20  H51 UNL     1      -4.131  -0.569   3.064  1.00  0.00     0.274 HD
ENDBRANCH  16  17
ENDBRANCH  15  16
ENDBRANCH  12  15
ENDBRANCH  11  12
ENDBRANCH   9  11
ENDBRANCH   8   9
ENDBRANCH   7   8
ENDBRANCH   1   7
BRANCH   4  21
HETATM   21  C8  UNL     1       2.142  -0.977  -1.471  1.00  0.00     0.297 C 
BRANCH  21  22
HETATM   22  O1  UNL     1       2.302  -1.771  -0.360  1.00  0.00    -0.372 OA
BRANCH  22  23
HETATM   23  C9  UNL     1       1.958  -1.247   0.839  1.00  0.00     0.170 C 
BRANCH  23  24
HETATM   24  C10 UNL     1       2.762  -0.097   1.344  1.00  0.00     0.026 C 
BRANCH  24  25
HETATM   25  C11 UNL     1       4.197  -0.350   1.636  1.00  0.00     0.002 C 
BRANCH  25  26
HETATM   26  C12 UNL     1       5.061  -0.821   0.534  1.00  0.00     0.000 C 
BRANCH  26  27
HETATM   27  C13 UNL     1       6.485  -1.007   1.011  1.00  0.00     0.000 C 
BRANCH  27  28
HETATM   28  C14 UNL     1       7.021   0.299   1.504  1.00  0.00     0.006 C 
BRANCH  28  29
HETATM   29  C15 UNL     1       8.483   0.132   1.971  1.00  0.00     0.061 C 
BRANCH  29  30
HETATM   30  C16 UNL     1       8.925   1.458   2.437  1.00  0.00     0.181 C 
BRANCH  30  31
HETATM   31  N2  UNL     1       9.624   2.171   1.702  1.00  0.00    -0.350 NA
BRANCH  31  32
HETATM   32  N3  UNL     1      10.327   2.907   0.978  1.00  0.00    -0.281 N 
ATOM     33  H32 UNL     1       9.881   3.005   1.890  1.00  0.00     0.191 HD
ATOM     34  H31 UNL     1      10.902   3.494   0.373  1.00  0.00     0.191 HD
ENDBRANCH  31  32
ENDBRANCH  30  31
ENDBRANCH  29  30
ENDBRANCH  28  29
ENDBRANCH  27  28
ENDBRANCH  26  27
ENDBRANCH  25  26
ENDBRANCH  24  25
ENDBRANCH  23  24
ENDBRANCH  22  23
ENDBRANCH  21  22
ENDBRANCH   4  21
TORSDOF 21
