REMARK  18 active torsions:
REMARK  status: ('A' for Active; 'I' for Inactive)
REMARK    1  A    between atoms: C2_2  and  C3_3 
REMARK    2  A    between atoms: C3_3  and  C4_4 
REMARK    3  A    between atoms: C4_4  and  C5_5 
REMARK    4  A    between atoms: C5_5  and  C6_6 
REMARK    5  A    between atoms: C9_9  and  C10_10 
REMARK       I    between atoms: C10_10  and  N1_12 
REMARK    6  A    between atoms: N1_12  and  C11_14 
REMARK    7  A    between atoms: C11_14  and  C12_15 
REMARK    8  A    between atoms: C12_15  and  O2_16 
REMARK    9  A    between atoms: O2_16  and  C13_17 
REMARK   10  A    between atoms: C13_17  and  C14_18 
REMARK   11  A    between atoms: C14_18  and  O3_19 
REMARK   12  A    between atoms: O3_19  and  C15_20 
REMARK   13  A    between atoms: C15_20  and  C16_21 
REMARK   14  A    between atoms: C16_21  and  C17_22 
REMARK   15  A    between atoms: C17_22  and  N2_23 
REMARK   16  A    between atoms: N2_23  and  C18_24 
REMARK   17  A    between atoms: N2_23  and  C20_26 
REMARK   18  A    between atoms: N2_23  and  C22_28 
ROOT
HETATM    1  C12 UNL     1       1.229  -1.915   0.081  1.00  0.00     0.187 C 
ENDROOT
BRANCH   1   2
HETATM    2  C11 UNL     1       2.117  -1.525  -1.068  1.00  0.00     0.148 C 
BRANCH   2   3
HETATM    3  N1  UNL     1       2.882  -0.333  -0.770  1.00  0.00    -0.359 N 
HETATM    4  C10 UNL     1       3.798   0.246  -1.689  1.00  0.00     0.222 C 
HETATM    5  O1  UNL     1       3.916  -0.339  -2.799  1.00  0.00    -0.273 OA
ATOM      6  H1  UNL     1       2.758   0.111   0.140  1.00  0.00     0.162 HD
BRANCH   4   7
HETATM    7  C9  UNL     1       4.543   1.462  -1.316  1.00  0.00     0.086 A 
HETATM    8  C6  UNL     1       5.988   1.625  -1.729  1.00  0.00    -0.031 A 
HETATM    9  C7  UNL     1       6.571   0.623  -2.681  1.00  0.00     0.016 C 
HETATM   10  C8  UNL     1       4.896   2.472  -2.332  1.00  0.00     0.025 A 
BRANCH   8  11
HETATM   11  C5  UNL     1       6.852   2.252  -0.686  1.00  0.00     0.010 C 
BRANCH  11  12
HETATM   12  C4  UNL     1       7.436   1.346   0.311  1.00  0.00     0.005 C 
BRANCH  12  13
HETATM   13  C3  UNL     1       8.360   0.279  -0.143  1.00  0.00     0.026 C 
BRANCH  13  14
HETATM   14  C2  UNL     1       8.902  -0.491   1.031  1.00  0.00    -0.037 C 
HETATM   15  C1  UNL     1       8.527  -0.199   2.248  1.00  0.00     0.007 C 
ENDBRANCH  13  14
ENDBRANCH  12  13
ENDBRANCH  11  12
ENDBRANCH   8  11
ENDBRANCH   4   7
ENDBRANCH   2   3
ENDBRANCH   1   2
BRANCH   1  16
HETATM   16  O2  UNL     1       0.486  -3.043  -0.166  1.00  0.00    -0.387 OA
BRANCH  16  17
HETATM   17  C13 UNL     1      -0.359  -2.914  -1.257  1.00  0.00     0.193 C 
BRANCH  17  18
HETATM   18  C14 UNL     1      -1.355  -1.771  -1.054  1.00  0.00     0.193 C 
BRANCH  18  19
HETATM   19  O3  UNL     1      -2.136  -1.978   0.046  1.00  0.00    -0.389 OA
BRANCH  19  20
HETATM   20  C15 UNL     1      -3.056  -0.998   0.353  1.00  0.00     0.169 C 
BRANCH  20  21
HETATM   21  C16 UNL     1      -4.038  -0.788  -0.766  1.00  0.00     0.054 C 
BRANCH  21  22
HETATM   22  C17 UNL     1      -5.077   0.228  -0.570  1.00  0.00     0.239 C 
BRANCH  22  23
HETATM   23  N2  UNL     1      -6.021   0.150   0.464  1.00  0.00    -0.068 N 
BRANCH  23  24
HETATM   24  C18 UNL     1      -7.266   0.766  -0.076  1.00  0.00     0.233 C 
HETATM   25  C19 UNL     1      -8.231   1.150   0.982  1.00  0.00     0.035 C 
ENDBRANCH  23  24
BRANCH  23  26
HETATM   26  C20 UNL     1      -5.600   0.919   1.639  1.00  0.00     0.233 C 
HETATM   27  C21 UNL     1      -5.779   2.400   1.474  1.00  0.00     0.035 C 
ENDBRANCH  23  26
BRANCH  23  28
HETATM   28  C22 UNL     1      -6.448  -1.127   0.931  1.00  0.00     0.233 C 
HETATM   29  C23 UNL     1      -6.795  -2.131  -0.116  1.00  0.00     0.035 C 
ENDBRANCH  23  28
ENDBRANCH  22  23
ENDBRANCH  21  22
ENDBRANCH  20  21
ENDBRANCH  19  20
ENDBRANCH  18  19
ENDBRANCH  17  18
ENDBRANCH  16  17
ENDBRANCH   1  16
TORSDOF 18
