REMARK  19 active torsions:
REMARK  status: ('A' for Active; 'I' for Inactive)
REMARK    1  A    between atoms: C2_2  and  C3_3 
REMARK    2  A    between atoms: C4_4  and  C5_5 
REMARK    3  A    between atoms: C5_5  and  N1_6 
REMARK    4  A    between atoms: N1_6  and  C6_7 
REMARK    5  A    between atoms: C6_7  and  C7_8 
REMARK    6  A    between atoms: C7_8  and  O1_9 
REMARK    7  A    between atoms: C7_8  and  C8_11 
REMARK    8  A    between atoms: C8_11  and  O2_12 
REMARK    9  A    between atoms: O2_12  and  C9_13 
REMARK   10  A    between atoms: C9_13  and  C10_14 
REMARK   11  A    between atoms: C10_14  and  C11_15 
REMARK   12  A    between atoms: C11_15  and  C12_16 
REMARK   13  A    between atoms: C12_16  and  C13_17 
REMARK   14  A    between atoms: C13_17  and  C14_18 
REMARK   15  A    between atoms: C14_18  and  N2_19 
REMARK   16  A    between atoms: N2_19  and  C16_21 
REMARK   17  A    between atoms: C16_21  and  C17_22 
REMARK   18  A    between atoms: C17_22  and  C18_23 
REMARK   19  A    between atoms: C18_23  and  N3_24 
ROOT
HETATM    1  O2  UNL     1      -1.062  -0.366  -1.219  1.00  0.00    -0.389 OA
ENDROOT
BRANCH   1   2
HETATM    2  C8  UNL     1      -1.979  -0.535  -2.158  1.00  0.00     0.200 C 
BRANCH   2   3
HETATM    3  C7  UNL     1      -3.241   0.298  -2.032  1.00  0.00     0.168 C 
BRANCH   3   4
HETATM    4  C6  UNL     1      -4.265  -0.227  -1.117  1.00  0.00     0.271 C 
BRANCH   4   5
HETATM    5  N1  UNL     1      -5.509   0.481  -1.098  1.00  0.00    -0.061 N 
HETATM    6  C21 UNL     1      -5.806   1.231  -2.266  1.00  0.00     0.239 C 
HETATM    7  C22 UNL     1      -6.494  -0.029  -2.812  1.00  0.00     0.056 C 
HETATM    8  C23 UNL     1      -6.639  -0.423  -1.334  1.00  0.00     0.239 C 
BRANCH   5   9
HETATM    9  C5  UNL     1      -5.652   1.193   0.154  1.00  0.00     0.265 C 
BRANCH   9  10
HETATM   10  C4  UNL     1      -6.901   0.997   0.874  1.00  0.00     0.001 C 
HETATM   11  C3  UNL     1      -6.884   0.472   2.087  1.00  0.00    -0.003 C 
BRANCH  11  12
HETATM   12  C2  UNL     1      -8.113   0.261   2.836  1.00  0.00    -0.011 C 
HETATM   13  C1  UNL     1      -8.062  -0.261   4.032  1.00  0.00     0.011 C 
ENDBRANCH  11  12
ENDBRANCH   9  10
ENDBRANCH   5   9
ENDBRANCH   4   5
ENDBRANCH   3   4
BRANCH   3  14
HETATM   14  O1  UNL     1      -2.840   1.605  -1.883  1.00  0.00    -0.392 OA
ATOM     15  H1  UNL     1      -2.178   1.944  -2.474  1.00  0.00     0.210 HD
ENDBRANCH   3  14
ENDBRANCH   2   3
ENDBRANCH   1   2
BRANCH   1  16
HETATM   16  C9  UNL     1      -1.273  -0.522   0.102  1.00  0.00     0.167 C 
BRANCH  16  17
HETATM   17  C10 UNL     1      -0.050  -0.404   0.974  1.00  0.00     0.026 C 
BRANCH  17  18
HETATM   18  C11 UNL     1       1.035  -1.396   0.768  1.00  0.00     0.002 C 
BRANCH  18  19
HETATM   19  C12 UNL     1       1.610  -1.343  -0.596  1.00  0.00     0.005 C 
BRANCH  19  20
HETATM   20  C13 UNL     1       2.749  -2.302  -0.813  1.00  0.00     0.044 C 
BRANCH  20  21
HETATM   21  C14 UNL     1       3.960  -2.143  -0.008  1.00  0.00     0.062 C 
BRANCH  21  22
HETATM   22  N2  UNL     1       4.748  -0.995  -0.071  1.00  0.00    -0.378 N 
HETATM   23  C15 UNL     1       5.450  -0.689  -1.222  1.00  0.00     0.154 C 
BRANCH  22  24
HETATM   24  C16 UNL     1       4.764  -0.246   1.087  1.00  0.00     0.064 C 
BRANCH  24  25
HETATM   25  C17 UNL     1       5.662   0.926   1.241  1.00  0.00     0.075 C 
BRANCH  25  26
HETATM   26  C18 UNL     1       7.110   0.546   1.165  1.00  0.00     0.276 C 
BRANCH  26  27
HETATM   27  N3  UNL     1       8.004   1.683   1.317  1.00  0.00     0.080 N 
HETATM   28  C19 UNL     1       7.940   2.585   0.212  1.00  0.00     0.309 C 
HETATM   29  C20 UNL     1       9.342   1.118   1.411  1.00  0.00     0.309 C 
ENDBRANCH  26  27
ENDBRANCH  25  26
ENDBRANCH  24  25
ENDBRANCH  22  24
ENDBRANCH  21  22
ENDBRANCH  20  21
ENDBRANCH  19  20
ENDBRANCH  18  19
ENDBRANCH  17  18
ENDBRANCH  16  17
ENDBRANCH   1  16
TORSDOF 19
