REMARK  20 active torsions:
REMARK  status: ('A' for Active; 'I' for Inactive)
REMARK    1  A    between atoms: C2_2  and  C3_3 
REMARK    2  A    between atoms: C3_3  and  C4_4 
REMARK    3  A    between atoms: C4_4  and  O1_5 
REMARK    4  A    between atoms: O1_5  and  C5_6 
REMARK    5  A    between atoms: C5_6  and  C6_7 
REMARK    6  A    between atoms: C6_7  and  O2_8 
REMARK    7  A    between atoms: O2_8  and  C7_9 
REMARK    8  A    between atoms: C7_9  and  C8_10 
REMARK    9  A    between atoms: C8_10  and  C9_11 
REMARK   10  A    between atoms: C9_11  and  C10_12 
REMARK   11  A    between atoms: C10_12  and  C11_13 
REMARK   12  A    between atoms: C11_13  and  C12_14 
REMARK   13  A    between atoms: C12_14  and  C13_15 
REMARK   14  A    between atoms: C13_15  and  C14_16 
REMARK   15  A    between atoms: C14_16  and  O3_17 
REMARK   16  A    between atoms: O3_17  and  C15_18 
REMARK   17  A    between atoms: C15_18  and  C17_20 
REMARK   18  A    between atoms: C17_20  and  N1_21 
REMARK   19  A    between atoms: N1_21  and  O4_22 
REMARK   20  A    between atoms: N1_21  and  C18_24 
ROOT
HETATM    1  C13 UNL     1      -1.406   1.773  -1.439  1.00  0.00     0.030 C 
ENDROOT
BRANCH   1   2
HETATM    2  C12 UNL     1      -0.290   2.670  -1.954  1.00  0.00     0.029 C 
BRANCH   2   3
HETATM    3  C11 UNL     1       0.536   3.310  -0.928  1.00  0.00    -0.031 C 
BRANCH   3   4
HETATM    4  C10 UNL     1       1.302   2.593   0.071  1.00  0.00    -0.031 C 
BRANCH   4   5
HETATM    5  C9  UNL     1       2.409   1.670  -0.247  1.00  0.00     0.029 C 
BRANCH   5   6
HETATM    6  C8  UNL     1       2.081   0.453  -1.015  1.00  0.00     0.030 C 
BRANCH   6   7
HETATM    7  C7  UNL     1       3.205  -0.472  -1.379  1.00  0.00     0.168 C 
BRANCH   7   8
HETATM    8  O2  UNL     1       3.954  -1.084  -0.503  1.00  0.00    -0.389 OA
BRANCH   8   9
HETATM    9  C6  UNL     1       4.821  -0.629   0.383  1.00  0.00     0.193 C 
BRANCH   9  10
HETATM   10  C5  UNL     1       5.981   0.161  -0.242  1.00  0.00     0.193 C 
BRANCH  10  11
HETATM   11  O1  UNL     1       6.880   0.638   0.612  1.00  0.00    -0.389 OA
BRANCH  11  12
HETATM   12  C4  UNL     1       7.649  -0.040   1.444  1.00  0.00     0.171 C 
BRANCH  12  13
HETATM   13  C3  UNL     1       8.689  -0.987   0.984  1.00  0.00     0.052 C 
BRANCH  13  14
HETATM   14  C2  UNL     1       8.220  -2.137   0.210  1.00  0.00    -0.035 C 
HETATM   15  C1  UNL     1       8.376  -3.407   0.647  1.00  0.00     0.007 C 
ENDBRANCH  13  14
ENDBRANCH  12  13
ENDBRANCH  11  12
ENDBRANCH  10  11
ENDBRANCH   9  10
ENDBRANCH   8   9
ENDBRANCH   7   8
ENDBRANCH   6   7
ENDBRANCH   5   6
ENDBRANCH   4   5
ENDBRANCH   3   4
ENDBRANCH   2   3
ENDBRANCH   1   2
BRANCH   1  16
HETATM   16  C14 UNL     1      -2.380   2.509  -0.584  1.00  0.00     0.168 C 
BRANCH  16  17
HETATM   17  O3  UNL     1      -3.406   1.723  -0.127  1.00  0.00    -0.385 OA
BRANCH  17  18
HETATM   18  C15 UNL     1      -3.064   0.655   0.665  1.00  0.00     0.137 C 
HETATM   19  C16 UNL     1      -3.701   0.678   2.012  1.00  0.00     0.041 C 
BRANCH  18  20
HETATM   20  C17 UNL     1      -3.392  -0.599  -0.086  1.00  0.00     0.181 C 
BRANCH  20  21
HETATM   21  N1  UNL     1      -4.736  -0.767  -0.478  1.00  0.00    -0.286 N 
BRANCH  21  22
HETATM   22  O4  UNL     1      -4.959  -0.655  -1.681  1.00  0.00    -0.291 OA
ATOM     23  H4  UNL     1      -5.865  -0.768  -1.945  1.00  0.00     0.244 HD
ENDBRANCH  21  22
BRANCH  21  24
HETATM   24  C18 UNL     1      -5.851  -1.048   0.352  1.00  0.00     0.131 C 
HETATM   25  C19 UNL     1      -5.720  -2.404   0.992  1.00  0.00    -0.004 C 
HETATM   26  C20 UNL     1      -6.768  -2.869   1.643  1.00  0.00    -0.029 C 
HETATM   27  C21 UNL     1      -7.980  -2.009   1.682  1.00  0.00     0.027 C 
HETATM   28  C22 UNL     1      -8.320  -1.445   0.329  1.00  0.00     0.006 C 
HETATM   29  C23 UNL     1      -7.112  -1.169  -0.519  1.00  0.00     0.031 C 
ENDBRANCH  21  24
ENDBRANCH  20  21
ENDBRANCH  18  20
ENDBRANCH  17  18
ENDBRANCH  16  17
ENDBRANCH   1  16
TORSDOF 20
