REMARK  4 active torsions:
REMARK  status: ('A' for Active; 'I' for Inactive)
REMARK    1  A    between atoms: C3_5  and  N2_6 
REMARK    2  A    between atoms: C3_5  and  C8_12 
REMARK    3  A    between atoms: N2_6  and  C4_8 
REMARK    4  A    between atoms: C10_14  and  C11_15 
ROOT
HETATM    1  C1  UNL     1      -2.228   2.847  -2.676  1.00  0.00     0.123 C 
HETATM    2  C2  UNL     1      -1.440   1.947  -2.394  1.00  0.00    -0.074 C 
HETATM    3  N1  UNL     1      -0.526   0.942  -2.092  1.00  0.00    -0.314 N 
ATOM      4  H1  UNL     1       0.052   0.565  -2.843  1.00  0.00     0.176 HD
HETATM    5  C3  UNL     1      -0.379   0.468  -0.904  1.00  0.00     0.108 C 
ENDROOT
BRANCH   5   6
HETATM    6  N2  UNL     1      -1.202   1.019   0.111  1.00  0.00    -0.369 N 
ATOM      7  H2  UNL     1      -0.975   1.938   0.491  1.00  0.00     0.161 HD
BRANCH   6   8
HETATM    8  C4  UNL     1      -2.335   0.324   0.612  1.00  0.00     0.020 C 
HETATM    9  C5  UNL     1      -3.334  -0.100  -0.443  1.00  0.00     0.037 C 
HETATM   10  C6  UNL     1      -1.895  -0.908   1.362  1.00  0.00     0.037 C 
HETATM   11  C7  UNL     1      -3.093   1.227   1.610  1.00  0.00     0.037 C 
ENDBRANCH   6   8
ENDBRANCH   5   6
BRANCH   5  12
HETATM   12  C8  UNL     1       0.645  -0.583  -0.696  1.00  0.00     0.156 C 
HETATM   13  C9  UNL     1       1.683  -0.038   0.238  1.00  0.00     0.062 C 
HETATM   14  C10 UNL     1       3.057  -0.565   0.033  1.00  0.00     0.110 C 
HETATM   15  N3  UNL     1       3.176  -1.677  -0.847  1.00  0.00    -0.335 N 
HETATM   16  C13 UNL     1       2.364  -1.743  -2.007  1.00  0.00     0.317 C 
ATOM     17  H3  UNL     1       3.842  -2.422  -0.644  1.00  0.00     0.164 HD
HETATM   18  O1  UNL     1       2.656  -2.436  -3.012  1.00  0.00    -0.247 OA
HETATM   19  N4  UNL     1       1.167  -0.964  -1.977  1.00  0.00    -0.332 N 
ATOM     20  H4  UNL     1       0.698  -0.687  -2.839  1.00  0.00     0.165 HD
BRANCH  14  21
HETATM   21  C11 UNL     1       3.701  -0.890   1.356  1.00  0.00    -0.012 C 
HETATM   22  C12 UNL     1       4.123   0.093   2.141  1.00  0.00     0.009 C 
ENDBRANCH  14  21
ENDBRANCH   5  12
TORSDOF 4
