REMARK  3 active torsions:
REMARK  status: ('A' for Active; 'I' for Inactive)
REMARK    1  A    between atoms: C2_2  and  N1_3 
REMARK       I    between atoms: N1_3  and  C3_5 
REMARK       I    between atoms: C3_5  and  N2_7 
REMARK       I    between atoms: C4_9  and  N3_10 
REMARK       I    between atoms: C4_9  and  N5_16 
REMARK    2  A    between atoms: C5_12  and  C6_13 
REMARK    3  A    between atoms: N5_16  and  C7_18 
ROOT
HETATM    1  N1  UNL     1       3.089   0.719   0.921  1.00  0.00    -0.343 N 
ATOM      2  H1  UNL     1       3.073   1.544   1.521  1.00  0.00     0.164 HD
HETATM    3  C3  UNL     1       1.934   0.336   0.225  1.00  0.00     0.334 C 
HETATM    4  O1  UNL     1       1.952  -0.673  -0.512  1.00  0.00    -0.247 OA
HETATM    5  N2  UNL     1       0.745   1.083   0.348  1.00  0.00    -0.141 N 
ATOM      6  H2  UNL     1       0.762   2.098   0.248  1.00  0.00     0.189 HD
HETATM    7  C4  UNL     1      -0.361   0.473   0.587  1.00  0.00     0.682 C 
HETATM    8  N3  UNL     1      -1.519   1.291   0.698  1.00  0.00    -0.197 N 
ATOM      9  H3  UNL     1      -2.235   1.092   1.397  1.00  0.00     0.183 HD
HETATM   10  C5  UNL     1      -1.642   2.291  -0.107  1.00  0.00     0.176 C 
HETATM   11  N5  UNL     1      -0.382  -0.916   0.725  1.00  0.00    -0.218 N 
ATOM     12  H5  UNL     1       0.338  -1.390   1.271  1.00  0.00     0.178 HD
ENDROOT
BRANCH  11  13
HETATM   13  C7  UNL     1      -1.435  -1.679   0.087  1.00  0.00     0.036 C 
HETATM   14  C8  UNL     1      -1.171  -3.139   0.396  1.00  0.00     0.038 C 
HETATM   15  C9  UNL     1      -2.793  -1.251   0.645  1.00  0.00     0.038 C 
HETATM   16  C10 UNL     1      -1.493  -1.486  -1.397  1.00  0.00     0.038 C 
ENDBRANCH  11  13
BRANCH  10  17
HETATM   17  C6  UNL     1      -2.809   3.160  -0.035  1.00  0.00     0.270 C 
HETATM   18  N4  UNL     1      -2.960   4.260  -0.909  1.00  0.00    -0.057 NA
HETATM   19  O2  UNL     1      -3.690   2.935   0.807  1.00  0.00    -0.270 OA
ENDBRANCH  10  17
BRANCH   1  20
HETATM   20  C2  UNL     1       4.320  -0.065   0.787  1.00  0.00     0.120 C 
HETATM   21  C1  UNL     1       4.776  -0.093  -0.645  1.00  0.00     0.026 C 
ENDBRANCH   1  20
TORSDOF 3
