REMARK  13 active torsions:
REMARK  status: ('A' for Active; 'I' for Inactive)
REMARK    1  A    between atoms: N1_2  and  C2_4 
REMARK    2  A    between atoms: C2_4  and  C3_5 
REMARK    3  A    between atoms: C2_4  and  C14_16 
REMARK    4  A    between atoms: C3_5  and  C4_6 
REMARK    5  A    between atoms: C4_6  and  C5_7 
REMARK    6  A    between atoms: C5_7  and  C6_8 
REMARK    7  A    between atoms: C6_8  and  C7_9 
REMARK    8  A    between atoms: C7_9  and  C8_10 
REMARK    9  A    between atoms: C14_16  and  C15_17 
REMARK   10  A    between atoms: C15_17  and  C16_18 
REMARK   11  A    between atoms: C16_18  and  O1_19 
REMARK   12  A    between atoms: O1_19  and  N2_20 
REMARK   13  A    between atoms: N3_22  and  O2_24 
ROOT
HETATM    1  C2  UNL     1       2.018  -0.442  -0.413  1.00  0.00     0.080 C 
ENDROOT
BRANCH   1   2
HETATM    2  N1  UNL     1       1.882  -0.461  -1.799  1.00  0.00    -0.403 N 
HETATM    3  C1  UNL     1       1.886   0.535  -2.693  1.00  0.00     0.112 C 
ATOM      4  H1  UNL     1       1.759  -1.391  -2.200  1.00  0.00     0.158 HD
ENDBRANCH   1   2
BRANCH   1   5
HETATM    5  C3  UNL     1       0.911   0.269   0.347  1.00  0.00     0.025 C 
BRANCH   5   6
HETATM    6  C4  UNL     1      -0.442   0.136  -0.228  1.00  0.00     0.002 C 
BRANCH   6   7
HETATM    7  C5  UNL     1      -0.950  -1.108  -0.777  1.00  0.00     0.000 C 
BRANCH   7   8
HETATM    8  C6  UNL     1      -2.370  -0.886  -1.306  1.00  0.00     0.000 C 
BRANCH   8   9
HETATM    9  C7  UNL     1      -3.294  -1.005  -0.180  1.00  0.00     0.004 C 
BRANCH   9  10
HETATM   10  C8  UNL     1      -4.711  -0.709  -0.549  1.00  0.00    -0.014 C 
HETATM   11  C9  UNL     1      -5.121   0.674  -0.833  1.00  0.00     0.004 C 
HETATM   12  C10 UNL     1      -5.547   1.380   0.463  1.00  0.00     0.000 C 
HETATM   13  C11 UNL     1      -6.477   0.536   1.270  1.00  0.00     0.000 C 
HETATM   14  C12 UNL     1      -5.807  -0.789   1.627  1.00  0.00     0.000 C 
HETATM   15  C13 UNL     1      -5.692  -1.516   0.286  1.00  0.00     0.004 C 
ENDBRANCH   9  10
ENDBRANCH   8   9
ENDBRANCH   7   8
ENDBRANCH   6   7
ENDBRANCH   5   6
ENDBRANCH   1   5
BRANCH   1  16
HETATM   16  C14 UNL     1       3.214   0.647  -0.228  1.00  0.00     0.027 C 
BRANCH  16  17
HETATM   17  C15 UNL     1       3.538   0.862   1.196  1.00  0.00     0.031 C 
BRANCH  17  18
HETATM   18  C16 UNL     1       4.928   0.228   1.437  1.00  0.00     0.203 C 
BRANCH  18  19
HETATM   19  O1  UNL     1       5.624   1.039   0.410  1.00  0.00    -0.264 OA
BRANCH  19  20
HETATM   20  N2  UNL     1       6.634   1.743   0.771  1.00  0.00    -0.188 N 
HETATM   21  N3  UNL     1       7.684   1.673   1.355  1.00  0.00    -0.188 N 
ATOM     22  H3  UNL     1       8.287   2.487   1.474  1.00  0.00     0.218 HD
ATOM     23  H2  UNL     1       6.499   2.701   0.449  1.00  0.00     0.218 HD
BRANCH  21  24
HETATM   24  O2  UNL     1       8.038   0.400   1.868  1.00  0.00    -0.268 OA
HETATM   25  C17 UNL     1       8.820  -0.302   0.867  1.00  0.00     0.239 C 
ENDBRANCH  21  24
ENDBRANCH  19  20
ENDBRANCH  18  19
ENDBRANCH  17  18
ENDBRANCH  16  17
ENDBRANCH   1  16
TORSDOF 13
