REMARK  14 active torsions:
REMARK  status: ('A' for Active; 'I' for Inactive)
REMARK    1  A    between atoms: C2_2  and  C3_3 
REMARK    2  A    between atoms: C3_3  and  C4_4 
REMARK    3  A    between atoms: C4_4  and  N1_5 
REMARK    4  A    between atoms: N1_5  and  C5_7 
REMARK    5  A    between atoms: C5_7  and  C6_8 
REMARK    6  A    between atoms: C6_8  and  S1_9 
REMARK    7  A    between atoms: S1_9  and  C7_10 
REMARK    8  A    between atoms: C7_10  and  C8_11 
REMARK    9  A    between atoms: C8_11  and  C9_12 
REMARK   10  A    between atoms: C9_12  and  C10_13 
REMARK   11  A    between atoms: C10_13  and  C11_14 
REMARK   12  A    between atoms: C11_14  and  N2_15 
REMARK   13  A    between atoms: N2_15  and  C12_18 
REMARK   14  A    between atoms: C12_18  and  C13_19 
ROOT
HETATM    1  C10 UNL     1       0.175  -0.164  -0.722  1.00  0.00     0.027 C 
ENDROOT
BRANCH   1   2
HETATM    2  C9  UNL     1       0.080   1.252  -0.296  1.00  0.00     0.002 C 
BRANCH   2   3
HETATM    3  C8  UNL     1       0.152   1.549   1.140  1.00  0.00     0.010 C 
BRANCH   3   4
HETATM    4  C7  UNL     1       1.340   1.190   1.934  1.00  0.00     0.074 C 
BRANCH   4   5
HETATM    5  S1  UNL     1       2.882   1.936   1.445  1.00  0.00    -0.167 SA
BRANCH   5   6
HETATM    6  C6  UNL     1       3.610   1.245  -0.036  1.00  0.00     0.094 C 
BRANCH   6   7
HETATM    7  C5  UNL     1       4.080  -0.190   0.299  1.00  0.00     0.139 C 
BRANCH   7   8
HETATM    8  N1  UNL     1       5.042  -0.004   1.364  1.00  0.00    -0.356 N 
ATOM      9  H1  UNL     1       4.766   0.239   2.315  1.00  0.00     0.169 HD
BRANCH   8  10
HETATM   10  C4  UNL     1       6.276  -0.169   1.020  1.00  0.00    -0.046 C 
BRANCH  10  11
HETATM   11  C3  UNL     1       7.444  -0.604   0.638  1.00  0.00     0.073 C 
BRANCH  11  12
HETATM   12  C2  UNL     1       8.159   0.166  -0.360  1.00  0.00    -0.001 C 
HETATM   13  C1  UNL     1       9.342  -0.295  -0.729  1.00  0.00     0.012 C 
ENDBRANCH  11  12
ENDBRANCH  10  11
ENDBRANCH   8  10
ENDBRANCH   7   8
ENDBRANCH   6   7
ENDBRANCH   5   6
ENDBRANCH   4   5
ENDBRANCH   3   4
ENDBRANCH   2   3
ENDBRANCH   1   2
BRANCH   1  14
HETATM   14  C11 UNL     1      -0.902  -1.037  -0.142  1.00  0.00     0.232 C 
BRANCH  14  15
HETATM   15  N2  UNL     1      -2.219  -0.612  -0.510  1.00  0.00    -0.071 N 
ATOM     16  H22 UNL     1      -2.390   0.354  -0.230  1.00  0.00     0.277 HD
ATOM     17  H21 UNL     1      -2.306  -0.503  -1.520  1.00  0.00     0.277 HD
BRANCH  15  18
HETATM   18  C12 UNL     1      -3.243  -1.509   0.019  1.00  0.00     0.270 C 
BRANCH  18  19
HETATM   19  C13 UNL     1      -4.603  -1.037  -0.369  1.00  0.00    -0.033 A 
HETATM   20  C14 UNL     1      -5.379  -0.278   0.492  1.00  0.00     0.011 A 
HETATM   21  C15 UNL     1      -6.646   0.174   0.153  1.00  0.00     0.027 A 
HETATM   22  C16 UNL     1      -7.164  -0.141  -1.094  1.00  0.00     0.046 A 
HETATM   23  N3  UNL     1      -8.468   0.332  -1.425  1.00  0.00    -0.102 NA
HETATM   24  C17 UNL     1      -6.422  -0.895  -1.978  1.00  0.00     0.027 A 
HETATM   25  C18 UNL     1      -5.153  -1.330  -1.598  1.00  0.00     0.011 A 
ENDBRANCH  18  19
ENDBRANCH  15  18
ENDBRANCH  14  15
ENDBRANCH   1  14
TORSDOF 14
