REMARK  5 active torsions:
REMARK  status: ('A' for Active; 'I' for Inactive)
REMARK    1  A    between atoms: O1_2  and  C2_3 
REMARK    2  A    between atoms: C2_3  and  C3_4 
REMARK    3  A    between atoms: C3_4  and  C4_5 
REMARK    4  A    between atoms: C4_5  and  N1_6 
REMARK    5  A    between atoms: C8_13  and  C9_14 
ROOT
HETATM    1  N1  UNL     1       0.127  -1.037   0.494  1.00  0.00     0.120 N 
HETATM    2  C5  UNL     1       0.353  -2.445   0.221  1.00  0.00     0.277 C 
HETATM    3  C6  UNL     1       0.540  -2.697  -1.275  1.00  0.00     0.058 C 
HETATM    4  C7  UNL     1       1.864  -2.062  -1.643  1.00  0.00     0.236 C 
HETATM    5  N2  UNL     1       2.167  -1.082  -0.649  1.00  0.00    -0.043 N 
ATOM      6  H21 UNL     1       2.969  -0.510  -0.915  1.00  0.00     0.279 HD
ATOM      7  H22 UNL     1       2.554  -1.506   0.194  1.00  0.00     0.279 HD
HETATM    8  C8  UNL     1       1.004  -0.272  -0.356  1.00  0.00     0.423 C 
ENDROOT
BRANCH   1   9
HETATM    9  C4  UNL     1      -1.274  -0.796   0.193  1.00  0.00     0.277 C 
BRANCH   9  10
HETATM   10  C3  UNL     1      -1.700   0.624   0.417  1.00  0.00     0.056 C 
BRANCH  10  11
HETATM   11  C2  UNL     1      -3.187   0.688   0.054  1.00  0.00     0.168 C 
BRANCH  11  12
HETATM   12  O1  UNL     1      -3.671   1.977   0.232  1.00  0.00    -0.396 OA
HETATM   13  C1  UNL     1      -5.027   1.947  -0.120  1.00  0.00     0.201 C 
ENDBRANCH  11  12
ENDBRANCH  10  11
ENDBRANCH   9  10
ENDBRANCH   1   9
BRANCH   8  14
HETATM   14  C9  UNL     1       1.471   0.999   0.268  1.00  0.00     0.051 A 
HETATM   15  C10 UNL     1       2.368   1.945  -0.395  1.00  0.00     0.013 A 
HETATM   16  C11 UNL     1       2.952   1.034   0.624  1.00  0.00    -0.010 A 
HETATM   17  C12 UNL     1       3.333   1.589   1.978  1.00  0.00     0.010 C 
ENDBRANCH   8  14
TORSDOF 5
