REMARK  5 active torsions:
REMARK  status: ('A' for Active; 'I' for Inactive)
REMARK    1  A    between atoms: C2_2  and  C3_3 
REMARK    2  A    between atoms: C3_3  and  C4_4 
REMARK    3  A    between atoms: C4_4  and  C5_5 
REMARK    4  A    between atoms: C9_12  and  C10_13 
REMARK    5  A    between atoms: C10_13  and  N2_14 
ROOT
HETATM    1  N2  UNL     1       2.016   1.264   0.636  1.00  0.00    -0.304 N 
HETATM    2  C11 UNL     1       2.293   2.733   0.653  1.00  0.00     0.168 C 
HETATM    3  C12 UNL     1       2.357   0.610   1.779  1.00  0.00     0.183 C 
HETATM    4  N3  UNL     1       2.677   0.066   2.773  1.00  0.00    -0.172 NA
ENDROOT
BRANCH   1   5
HETATM    5  C10 UNL     1       1.489   0.769  -0.554  1.00  0.00     0.082 C 
BRANCH   5   6
HETATM    6  C9  UNL     1       0.847  -0.526  -0.743  1.00  0.00     0.060 C 
HETATM    7  C4  UNL     1      -0.394  -0.927  -0.092  1.00  0.00    -0.007 C 
HETATM    8  C7  UNL     1      -0.804  -2.084  -1.091  1.00  0.00     0.242 C 
HETATM    9  N1  UNL     1      -0.789  -1.301  -2.305  1.00  0.00    -0.074 N 
HETATM   10  C8  UNL     1       0.400  -0.508  -2.245  1.00  0.00     0.243 C 
ATOM     11  H12 UNL     1      -0.862  -1.863  -3.153  1.00  0.00     0.277 HD
ATOM     12  H11 UNL     1      -1.638  -0.753  -2.447  1.00  0.00     0.277 HD
BRANCH   7  13
HETATM   13  C3  UNL     1      -1.490   0.072  -0.272  1.00  0.00     0.011 C 
BRANCH  13  14
HETATM   14  C2  UNL     1      -1.604   1.201   0.659  1.00  0.00    -0.004 C 
HETATM   15  C1  UNL     1      -2.795   2.108   0.266  1.00  0.00     0.005 C 
ENDBRANCH  13  14
ENDBRANCH   7  13
BRANCH   7  16
HETATM   16  C5  UNL     1      -0.425  -1.592   1.227  1.00  0.00     0.007 C 
HETATM   17  C6  UNL     1       0.568  -2.661   1.478  1.00  0.00     0.006 C 
ENDBRANCH   7  16
ENDBRANCH   5   6
ENDBRANCH   1   5
TORSDOF 5
