REMARK  6 active torsions:
REMARK  status: ('A' for Active; 'I' for Inactive)
REMARK    1  A    between atoms: N1_1  and  C1_5 
REMARK    2  A    between atoms: C1_5  and  C2_6 
REMARK    3  A    between atoms: C2_6  and  C3_7 
REMARK    4  A    between atoms: C3_7  and  N2_8 
REMARK    5  A    between atoms: C7_12  and  C8_13 
REMARK    6  A    between atoms: C8_13  and  C9_14 
ROOT
HETATM    1  N2  UNL     1       1.417   0.645  -0.241  1.00  0.00     0.088 N 
HETATM    2  C4  UNL     1       1.019   2.032   0.017  1.00  0.00     0.272 C 
HETATM    3  C5  UNL     1       0.047   1.977   1.157  1.00  0.00     0.031 C 
HETATM    4  C6  UNL     1      -0.604   0.586   1.264  1.00  0.00     0.008 C 
HETATM    5  C7  UNL     1      -0.995   0.175  -0.099  1.00  0.00     0.016 C 
HETATM    6  C12 UNL     1       0.284   0.089  -0.962  1.00  0.00     0.277 C 
ENDROOT
BRANCH   1   7
HETATM    7  C3  UNL     1       2.533   0.615  -1.170  1.00  0.00     0.274 C 
BRANCH   7   8
HETATM    8  C2  UNL     1       3.035  -0.817  -1.275  1.00  0.00     0.057 C 
BRANCH   8   9
HETATM    9  C1  UNL     1       3.472  -1.256   0.109  1.00  0.00     0.231 C 
BRANCH   9  10
HETATM   10  N1  UNL     1       4.544  -0.371   0.564  1.00  0.00    -0.079 N 
ATOM     11  H13 UNL     1       5.321  -0.328  -0.095  1.00  0.00     0.274 HD
ATOM     12  H12 UNL     1       4.278   0.613   0.532  1.00  0.00     0.274 HD
ATOM     13  H11 UNL     1       4.838  -0.666   1.495  1.00  0.00     0.274 HD
ENDBRANCH   9  10
ENDBRANCH   8   9
ENDBRANCH   7   8
ENDBRANCH   1   7
BRANCH   5  14
HETATM   14  C8  UNL     1      -1.747  -1.059  -0.297  1.00  0.00     0.038 C 
BRANCH  14  15
HETATM   15  C9  UNL     1      -3.054  -1.283   0.300  1.00  0.00     0.123 C 
HETATM   16  C10 UNL     1      -4.156  -0.285  -0.095  1.00  0.00     0.058 C 
HETATM   17  C11 UNL     1      -4.677  -0.844   1.217  1.00  0.00     0.170 C 
HETATM   18  O1  UNL     1      -3.334  -1.074   1.617  1.00  0.00    -0.386 OA
ENDBRANCH  14  15
ENDBRANCH   5  14
TORSDOF 6
