REMARK  5 active torsions:
REMARK  status: ('A' for Active; 'I' for Inactive)
REMARK    1  A    between atoms: O1_2  and  C2_3 
REMARK    2  A    between atoms: C2_3  and  C3_4 
REMARK    3  A    between atoms: C3_4  and  N1_5 
REMARK    4  A    between atoms: N1_5  and  C4_8 
REMARK    5  A    between atoms: C4_8  and  C5_9 
ROOT
HETATM    1  C5  UNL     1      -0.580  -0.615   0.052  1.00  0.00     0.018 C 
HETATM    2  C6  UNL     1      -0.550   0.600  -0.820  1.00  0.00     0.037 C 
HETATM    3  C7  UNL     1      -1.888   1.143  -1.201  1.00  0.00     0.272 C 
HETATM    4  N2  UNL     1      -2.986   0.604  -0.434  1.00  0.00     0.084 N 
HETATM    5  C8  UNL     1      -4.137   1.461  -0.617  1.00  0.00     0.309 C 
HETATM    6  C9  UNL     1      -2.575   0.619   0.961  1.00  0.00     0.276 C 
HETATM    7  C10 UNL     1      -1.667  -0.617   1.071  1.00  0.00     0.015 C 
HETATM    8  C11 UNL     1      -2.571  -1.807   0.843  1.00  0.00     0.012 C 
ENDROOT
BRANCH   1   9
HETATM    9  C4  UNL     1       0.773  -0.808   0.726  1.00  0.00     0.237 C 
BRANCH   9  10
HETATM   10  N1  UNL     1       1.799  -0.975  -0.285  1.00  0.00    -0.073 N 
ATOM     11  H12 UNL     1       1.792  -0.195  -0.942  1.00  0.00     0.277 HD
ATOM     12  H11 UNL     1       1.560  -1.733  -0.924  1.00  0.00     0.277 HD
BRANCH  10  13
HETATM   13  C3  UNL     1       3.105  -1.166   0.266  1.00  0.00     0.258 C 
BRANCH  13  14
HETATM   14  C2  UNL     1       3.655   0.042   0.953  1.00  0.00     0.194 C 
BRANCH  14  15
HETATM   15  O1  UNL     1       3.774   1.146   0.122  1.00  0.00    -0.394 OA
HETATM   16  C1  UNL     1       4.604   0.956  -0.958  1.00  0.00     0.201 C 
ENDBRANCH  14  15
ENDBRANCH  13  14
ENDBRANCH  10  13
ENDBRANCH   9  10
ENDBRANCH   1   9
TORSDOF 5
