REMARK  5 active torsions:
REMARK  status: ('A' for Active; 'I' for Inactive)
REMARK    1  A    between atoms: C2_2  and  N1_3 
REMARK    2  A    between atoms: N1_3  and  C3_4 
REMARK    3  A    between atoms: N1_3  and  C5_6 
REMARK    4  A    between atoms: C5_6  and  C6_7 
REMARK    5  A    between atoms: C6_7  and  N2_8 
ROOT
HETATM    1  N2  UNL     1      -1.047  -0.613   0.554  1.00  0.00    -0.229 NA
HETATM    2  C7  UNL     1      -2.082  -1.232  -0.261  1.00  0.00     0.145 C 
HETATM    3  C8  UNL     1      -3.421  -0.612  -0.177  1.00  0.00     0.234 C 
HETATM    4  C9  UNL     1      -4.229  -1.295   0.901  1.00  0.00     0.044 C 
HETATM    5  N3  UNL     1      -3.438   0.815  -0.091  1.00  0.00     0.105 N 
HETATM    6  C10 UNL     1      -3.843   1.412  -1.376  1.00  0.00     0.312 C 
HETATM    7  C11 UNL     1      -2.149   1.380   0.242  1.00  0.00     0.400 C 
HETATM    8  N4  UNL     1      -1.431   0.537   1.135  1.00  0.00    -0.135 NA
ENDROOT
BRANCH   1   9
HETATM    9  C6  UNL     1       0.206  -0.664  -0.139  1.00  0.00     0.129 C 
BRANCH   9  10
HETATM   10  C5  UNL     1       1.320  -0.201   0.715  1.00  0.00     0.132 C 
BRANCH  10  11
HETATM   11  N1  UNL     1       2.595  -0.264   0.084  1.00  0.00    -0.412 N 
BRANCH  11  12
HETATM   12  C2  UNL     1       2.872   0.625  -0.970  1.00  0.00     0.112 C 
HETATM   13  C1  UNL     1       3.788  -0.038  -2.009  1.00  0.00     0.026 C 
ENDBRANCH  11  12
BRANCH  11  14
HETATM   14  C3  UNL     1       3.628  -0.628   0.974  1.00  0.00     0.112 C 
HETATM   15  C4  UNL     1       4.121   0.488   1.870  1.00  0.00     0.026 C 
ENDBRANCH  11  14
ENDBRANCH  10  11
ENDBRANCH   9  10
ENDBRANCH   1   9
TORSDOF 5
