REMARK  4 active torsions:
REMARK  status: ('A' for Active; 'I' for Inactive)
REMARK    1  A    between atoms: N1_1  and  N2_4 
REMARK    2  A    between atoms: N2_4  and  N3_5 
REMARK    3  A    between atoms: N3_5  and  C1_7 
REMARK    4  A    between atoms: C2_10  and  N5_11 
ROOT
HETATM    1  C1  UNL     1      -0.505  -0.286  -0.113  1.00  0.00     0.738 A 
HETATM    2  N4  UNL     1       0.541  -0.001  -0.911  1.00  0.00    -0.018 N 
ATOM      3  H4  UNL     1       0.493   0.061  -1.928  1.00  0.00     0.203 HD
HETATM    4  C2  UNL     1       1.644   0.189  -0.195  1.00  0.00     0.705 A 
HETATM    5  N6  UNL     1       1.304   0.024   1.093  1.00  0.00    -0.117 N 
ATOM      6  H6  UNL     1       1.929   0.104   1.895  1.00  0.00     0.206 HD
HETATM    7  N7  UNL     1       0.013  -0.261   1.134  1.00  0.00    -0.115 N 
ATOM      8  H7  UNL     1      -0.517  -0.437   1.988  1.00  0.00     0.206 HD
ENDROOT
BRANCH   1   9
HETATM    9  N3  UNL     1      -1.836  -0.544  -0.539  1.00  0.00    -0.044 N 
ATOM     10  H3  UNL     1      -2.096  -1.503  -0.768  1.00  0.00     0.223 HD
BRANCH   9  11
HETATM   11  N2  UNL     1      -2.776   0.427  -0.655  1.00  0.00    -0.229 NA
BRANCH  11  12
HETATM   12  N1  UNL     1      -3.558   1.229  -0.767  1.00  0.00    -0.260 N 
ATOM     13  H12 UNL     1      -3.056   0.499  -1.272  1.00  0.00     0.193 HD
ATOM     14  H11 UNL     1      -4.265   1.959  -0.854  1.00  0.00     0.193 HD
ENDBRANCH  11  12
ENDBRANCH   9  11
ENDBRANCH   1   9
BRANCH   4  15
HETATM   15  N5  UNL     1       2.858   0.479  -0.577  1.00  0.00    -0.233 N 
ATOM     16  H52 UNL     1       3.116   0.604  -1.556  1.00  0.00     0.174 HD
ATOM     17  H51 UNL     1       3.705   0.625  -0.027  1.00  0.00     0.174 HD
ENDBRANCH   4  15
TORSDOF 4
