REMARK  3 active torsions:
REMARK  status: ('A' for Active; 'I' for Inactive)
REMARK    1  A    between atoms: N2_7  and  C4_8 
REMARK    2  A    between atoms: C4_8  and  N3_9 
REMARK    3  A    between atoms: N3_9  and  N4_11 
ROOT
HETATM    1  N1  UNL     1      -2.561  -0.929   1.402  1.00  0.00    -0.384 N 
ATOM      2  H11 UNL     1      -2.723  -1.930   1.508  1.00  0.00     0.157 HD
ATOM      3  H12 UNL     1      -3.269  -0.491   1.991  1.00  0.00     0.157 HD
HETATM    4  C1  UNL     1      -1.655  -0.324   0.679  1.00  0.00     0.115 A 
HETATM    5  C2  UNL     1      -1.436   1.031   0.535  1.00  0.00     0.068 A 
HETATM    6  C3  UNL     1      -0.376   1.218  -0.325  1.00  0.00     0.121 A 
HETATM    7  N2  UNL     1       0.032   0.007  -0.689  1.00  0.00    -0.260 N 
HETATM    8  N5  UNL     1      -0.723  -0.901  -0.097  1.00  0.00    -0.279 N 
ATOM      9  H5  UNL     1      -0.613  -1.908  -0.214  1.00  0.00     0.189 HD
ENDROOT
BRANCH   7  10
HETATM   10  C4  UNL     1       1.125  -0.285  -1.589  1.00  0.00     0.221 C 
BRANCH  10  11
HETATM   11  N3  UNL     1       2.325  -0.402  -1.130  1.00  0.00    -0.301 N 
ATOM     12  H3  UNL     1       3.079  -0.610  -1.785  1.00  0.00     0.187 HD
BRANCH  11  13
HETATM   13  N4  UNL     1       2.637  -0.258   0.212  1.00  0.00    -0.344 N 
ATOM     14  H42 UNL     1       1.871  -0.050   0.853  1.00  0.00     0.176 HD
ATOM     15  H41 UNL     1       3.586  -0.351   0.575  1.00  0.00     0.176 HD
ENDBRANCH  11  13
ENDBRANCH  10  11
ENDBRANCH   7  10
TORSDOF 3
