REMARK  3 active torsions:
REMARK  status: ('A' for Active; 'I' for Inactive)
REMARK    1  A    between atoms: N1_1  and  N2_4 
REMARK    2  A    between atoms: N2_4  and  N3_6 
REMARK    3  A    between atoms: N3_6  and  C1_8 
ROOT
HETATM    1  N3  UNL     1       1.043   0.629  -0.123  1.00  0.00    -0.265 N 
ATOM      2  H3  UNL     1       1.389   1.493  -0.540  1.00  0.00     0.190 HD
ENDROOT
BRANCH   1   3
HETATM    3  N2  UNL     1       1.959  -0.209   0.446  1.00  0.00    -0.247 N 
ATOM      4  H2  UNL     1       1.669  -1.133   0.766  1.00  0.00     0.207 HD
BRANCH   3   5
HETATM    5  N1  UNL     1       3.281   0.187   0.592  1.00  0.00    -0.331 N 
ATOM      6  H12 UNL     1       3.554   1.114   0.267  1.00  0.00     0.178 HD
ATOM      7  H11 UNL     1       3.965  -0.439   1.017  1.00  0.00     0.178 HD
ENDBRANCH   3   5
ENDBRANCH   1   3
BRANCH   1   8
HETATM    8  C1  UNL     1      -0.236   0.407  -0.172  1.00  0.00     0.164 A 
HETATM    9  N4  UNL     1      -0.966  -0.610   0.277  1.00  0.00    -0.345 N 
HETATM   10  C2  UNL     1      -2.254  -0.590   0.097  1.00  0.00     0.097 A 
ATOM     11  H4  UNL     1      -0.522  -1.394   0.755  1.00  0.00     0.167 HD
HETATM   12  C3  UNL     1      -2.793   0.492  -0.554  1.00  0.00     0.070 A 
HETATM   13  S1  UNL     1      -1.401   1.431  -0.874  1.00  0.00    -0.063 SA
ENDBRANCH   1   8
TORSDOF 3
