REMARK  4 active torsions:
REMARK  status: ('A' for Active; 'I' for Inactive)
REMARK    1  A    between atoms: N1_1  and  C1_4 
REMARK    2  A    between atoms: C3_8  and  C4_9 
REMARK    3  A    between atoms: C4_9  and  N3_10 
REMARK    4  A    between atoms: N3_10  and  N4_11 
ROOT
HETATM    1  C1  UNL     1       2.472  -0.004   0.542  1.00  0.00     0.114 A 
HETATM    2  C2  UNL     1       2.136  -0.874  -0.458  1.00  0.00     0.136 A 
HETATM    3  N2  UNL     1       0.892  -0.906  -1.016  1.00  0.00    -0.363 N 
ATOM      4  H2  UNL     1       0.685  -1.573  -1.759  1.00  0.00     0.165 HD
HETATM    5  C3  UNL     1      -0.057  -0.066  -0.592  1.00  0.00     0.041 A 
HETATM    6  C5  UNL     1       0.267   0.829   0.422  1.00  0.00     0.116 A 
HETATM    7  N5  UNL     1       1.520   0.844   0.966  1.00  0.00    -0.350 N 
ATOM      8  H5  UNL     1       1.737   1.511   1.707  1.00  0.00     0.166 HD
ENDROOT
BRANCH   5   9
HETATM    9  C4  UNL     1      -1.441  -0.146  -1.132  1.00  0.00     0.192 C 
BRANCH   9  10
HETATM   10  N3  UNL     1      -2.343   0.585  -0.247  1.00  0.00    -0.142 NA
BRANCH  10  11
HETATM   11  N4  UNL     1      -3.247  -0.333   0.420  1.00  0.00    -0.348 N 
ATOM     12  H42 UNL     1      -3.241  -1.343   0.280  1.00  0.00     0.172 HD
ATOM     13  H41 UNL     1      -3.877   0.178   1.038  1.00  0.00     0.172 HD
ENDBRANCH  10  11
ENDBRANCH   9  10
ENDBRANCH   5   9
BRANCH   1  14
HETATM   14  N1  UNL     1       3.671   0.006   1.082  1.00  0.00    -0.384 N 
ATOM     15  H12 UNL     1       4.394  -0.638   0.760  1.00  0.00     0.157 HD
ATOM     16  H11 UNL     1       3.922   0.655   1.828  1.00  0.00     0.157 HD
ENDBRANCH   1  14
TORSDOF 4
