REMARK  2 active torsions:
REMARK  status: ('A' for Active; 'I' for Inactive)
REMARK    1  A    between atoms: N2_3  and  C2_5 
REMARK    2  A    between atoms: C3_8  and  N4_9 
ROOT
HETATM    1  N1  UNL     1      -2.841   0.281  -2.594  1.00  0.00    -0.171 NA
HETATM    2  C1  UNL     1      -2.434   0.054  -1.519  1.00  0.00     0.196 C 
HETATM    3  N2  UNL     1      -1.965  -0.233  -0.234  1.00  0.00    -0.124 N 
ATOM      4  H2  UNL     1      -2.629  -0.533   0.479  1.00  0.00     0.197 HD
ENDROOT
BRANCH   3   5
HETATM    5  C2  UNL     1      -0.590  -0.119   0.109  1.00  0.00     0.720 A 
HETATM    6  N3  UNL     1       0.389   0.261  -0.720  1.00  0.00    -0.019 N 
HETATM    7  C3  UNL     1       1.576   0.260  -0.069  1.00  0.00     0.705 A 
ATOM      8  H3  UNL     1       0.260   0.514  -1.700  1.00  0.00     0.203 HD
HETATM    9  N5  UNL     1       1.313  -0.130   1.185  1.00  0.00    -0.118 N 
HETATM   10  N6  UNL     1       0.004  -0.357   1.287  1.00  0.00    -0.117 N 
ATOM     11  H5  UNL     1       1.998  -0.235   1.934  1.00  0.00     0.206 HD
ATOM     12  H6  UNL     1      -0.474  -0.665   2.134  1.00  0.00     0.206 HD
BRANCH   7  13
HETATM   13  N4  UNL     1       2.748   0.560  -0.506  1.00  0.00    -0.233 N 
ATOM     14  H42 UNL     1       2.948   0.857  -1.461  1.00  0.00     0.174 HD
ATOM     15  H41 UNL     1       3.642   0.559  -0.016  1.00  0.00     0.174 HD
ENDBRANCH   7  13
ENDBRANCH   3   5
TORSDOF 2
