REMARK  3 active torsions:
REMARK  status: ('A' for Active; 'I' for Inactive)
REMARK    1  A    between atoms: C4_5  and  C5_6 
REMARK    2  A    between atoms: C5_6  and  N2_7 
REMARK    3  A    between atoms: C5_6  and  N3_11 
ROOT
HETATM    1  C5  UNL     1       1.617   0.501  -0.369  1.00  0.00     0.427 C 
ENDROOT
BRANCH   1   2
HETATM    2  C4  UNL     1       0.222  -0.055  -0.262  1.00  0.00     0.068 A 
HETATM    3  C3  UNL     1      -0.178  -1.369  -0.370  1.00  0.00     0.032 A 
HETATM    4  C2  UNL     1      -1.548  -1.413  -0.205  1.00  0.00     0.047 A 
HETATM    5  C1  UNL     1      -1.990  -0.100   0.008  1.00  0.00     0.116 A 
HETATM    6  N1  UNL     1      -3.337   0.279   0.221  1.00  0.00    -0.083 NA
HETATM    7  N4  UNL     1      -0.885   0.656  -0.039  1.00  0.00    -0.345 N 
ATOM      8  H4  UNL     1      -0.889   1.669   0.083  1.00  0.00     0.167 HD
ENDBRANCH   1   2
BRANCH   1   9
HETATM    9  N2  UNL     1       1.786   1.444   0.715  1.00  0.00    -0.045 N 
ATOM     10  H23 UNL     1       1.068   2.168   0.730  1.00  0.00     0.277 HD
ATOM     11  H22 UNL     1       1.586   1.041   1.630  1.00  0.00     0.277 HD
ATOM     12  H21 UNL     1       2.731   1.821   0.643  1.00  0.00     0.277 HD
ENDBRANCH   1   9
BRANCH   1  13
HETATM   13  N3  UNL     1       2.578  -0.553  -0.377  1.00  0.00    -0.045 N 
ATOM     14  H33 UNL     1       2.475  -1.165   0.432  1.00  0.00     0.277 HD
ATOM     15  H32 UNL     1       2.385  -1.236  -1.110  1.00  0.00     0.277 HD
ATOM     16  H31 UNL     1       3.523  -0.176  -0.449  1.00  0.00     0.277 HD
ENDBRANCH   1  13
TORSDOF 3
