REMARK  4 active torsions:
REMARK  status: ('A' for Active; 'I' for Inactive)
REMARK    1  A    between atoms: C2_3  and  C3_4 
REMARK    2  A    between atoms: C2_3  and  C5_12 
REMARK    3  A    between atoms: C5_12  and  N5_13 
REMARK    4  A    between atoms: C5_12  and  N6_17 
ROOT
HETATM    1  N1  UNL     1      -0.507   3.155  -0.244  1.00  0.00    -0.196 NA
HETATM    2  C1  UNL     1      -0.448   2.043   0.029  1.00  0.00     0.075 C 
HETATM    3  C2  UNL     1      -0.388   0.624   0.360  1.00  0.00     0.219 C 
ENDROOT
BRANCH   3   4
HETATM    4  C3  UNL     1       0.978   0.138   0.118  1.00  0.00     0.118 A 
HETATM    5  N2  UNL     1       1.763  -0.454   1.037  1.00  0.00    -0.339 N 
HETATM    6  C4  UNL     1       2.953  -0.787   0.517  1.00  0.00     0.198 A 
ATOM      7  H2  UNL     1       1.488  -0.627   2.004  1.00  0.00     0.168 HD
HETATM    8  N3  UNL     1       2.898  -0.384  -0.769  1.00  0.00    -0.295 N 
HETATM    9  N4  UNL     1       1.719   0.167  -1.005  1.00  0.00    -0.287 N 
ATOM     10  H3  UNL     1       3.648  -0.488  -1.452  1.00  0.00     0.187 HD
ATOM     11  H4  UNL     1       1.418   0.554  -1.899  1.00  0.00     0.188 HD
ENDBRANCH   3   4
BRANCH   3  12
HETATM   12  C5  UNL     1      -1.402  -0.157  -0.484  1.00  0.00     0.402 C 
BRANCH  12  13
HETATM   13  N5  UNL     1      -2.711   0.412  -0.147  1.00  0.00    -0.049 N 
ATOM     14  H53 UNL     1      -2.917   0.405   0.852  1.00  0.00     0.276 HD
ATOM     15  H52 UNL     1      -2.764   1.423  -0.273  1.00  0.00     0.276 HD
ATOM     16  H51 UNL     1      -3.386  -0.108  -0.709  1.00  0.00     0.276 HD
ENDBRANCH  12  13
BRANCH  12  17
HETATM   17  N6  UNL     1      -1.395  -1.510   0.025  1.00  0.00    -0.049 N 
ATOM     18  H63 UNL     1      -0.467  -1.933   0.038  1.00  0.00     0.276 HD
ATOM     19  H62 UNL     1      -1.573  -1.567   1.028  1.00  0.00     0.276 HD
ATOM     20  H61 UNL     1      -2.070  -2.030  -0.537  1.00  0.00     0.276 HD
ENDBRANCH  12  17
ENDBRANCH   3  12
TORSDOF 4
