REMARK  5 active torsions:
REMARK  status: ('A' for Active; 'I' for Inactive)
REMARK    1  A    between atoms: N1_1  and  C1_4 
REMARK    2  A    between atoms: N4_10  and  C4_11 
REMARK    3  A    between atoms: C4_11  and  C5_12 
REMARK    4  A    between atoms: C5_12  and  C6_13 
REMARK    5  A    between atoms: C6_13  and  N5_14 
ROOT
HETATM    1  C1  UNL     1      -1.750  -0.468  -1.122  1.00  0.00     0.679 A 
HETATM    2  N2  UNL     1      -2.879   0.220  -1.139  1.00  0.00    -0.199 N 
ATOM      3  H2  UNL     1      -3.592   0.194  -1.868  1.00  0.00     0.183 HD
HETATM    4  C2  UNL     1      -2.912   0.960  -0.019  1.00  0.00     0.152 A 
HETATM    5  C3  UNL     1      -1.748   0.713   0.718  1.00  0.00     0.150 A 
HETATM    6  N3  UNL     1      -1.401   1.300   1.968  1.00  0.00    -0.080 NA
HETATM    7  N4  UNL     1      -1.062  -0.177  -0.005  1.00  0.00    -0.169 N 
ENDROOT
BRANCH   7   8
HETATM    8  C4  UNL     1       0.216  -0.757   0.325  1.00  0.00     0.150 C 
BRANCH   8   9
HETATM    9  C5  UNL     1       1.377   0.046  -0.208  1.00  0.00     0.048 C 
BRANCH   9  10
HETATM   10  C6  UNL     1       2.647  -0.690   0.219  1.00  0.00     0.231 C 
BRANCH  10  11
HETATM   11  N5  UNL     1       3.833  -0.017  -0.233  1.00  0.00    -0.079 N 
ATOM     12  H53 UNL     1       3.813   0.133  -1.242  1.00  0.00     0.274 HD
ATOM     13  H52 UNL     1       3.847   0.956   0.074  1.00  0.00     0.274 HD
ATOM     14  H51 UNL     1       4.680  -0.508   0.052  1.00  0.00     0.274 HD
ENDBRANCH  10  11
ENDBRANCH   9  10
ENDBRANCH   8   9
ENDBRANCH   7   8
BRANCH   1  15
HETATM   15  N1  UNL     1      -1.390  -1.300  -2.070  1.00  0.00    -0.234 N 
ATOM     16  H12 UNL     1      -1.912  -1.521  -2.918  1.00  0.00     0.174 HD
ATOM     17  H11 UNL     1      -0.519  -1.831  -2.057  1.00  0.00     0.174 HD
ENDBRANCH   1  15
TORSDOF 5
