REMARK  4 active torsions:
REMARK  status: ('A' for Active; 'I' for Inactive)
REMARK    1  A    between atoms: N1_1  and  C1_4 
REMARK    2  A    between atoms: N5_12  and  C3_13 
REMARK    3  A    between atoms: C3_13  and  C4_14 
REMARK    4  A    between atoms: C4_14  and  N6_15 
ROOT
HETATM    1  C1  UNL     1       2.726   0.058   0.759  1.00  0.00     0.679 A 
HETATM    2  N2  UNL     1       2.966   0.198  -0.556  1.00  0.00    -0.172 N 
ATOM      3  H2  UNL     1       3.890   0.189  -0.987  1.00  0.00     0.186 HD
HETATM    4  C2  UNL     1       1.802   0.353  -1.222  1.00  0.00     0.183 A 
HETATM    5  N3  UNL     1       1.207   0.532  -2.407  1.00  0.00    -0.267 N 
ATOM      6  H3  UNL     1       1.676   0.609  -3.309  1.00  0.00     0.190 HD
HETATM    7  N4  UNL     1      -0.106   0.592  -2.199  1.00  0.00    -0.237 N 
ATOM      8  H4  UNL     1      -0.802   0.724  -2.933  1.00  0.00     0.208 HD
HETATM    9  N5  UNL     1      -0.384   0.460  -0.932  1.00  0.00    -0.257 N 
HETATM   10  C5  UNL     1       0.788   0.308  -0.290  1.00  0.00     0.185 A 
HETATM   11  N7  UNL     1       1.390   0.129   0.891  1.00  0.00    -0.172 N 
ATOM     12  H7  UNL     1       0.897   0.056   1.781  1.00  0.00     0.186 HD
ENDROOT
BRANCH   9  13
HETATM   13  C3  UNL     1      -1.686   0.469  -0.297  1.00  0.00     0.179 C 
BRANCH  13  14
HETATM   14  C4  UNL     1      -2.279  -0.918  -0.216  1.00  0.00     0.251 C 
BRANCH  14  15
HETATM   15  N6  UNL     1      -3.585  -0.761   0.443  1.00  0.00    -0.078 N 
ATOM     16  H63 UNL     1      -3.532  -0.287   1.345  1.00  0.00     0.274 HD
ATOM     17  H62 UNL     1      -4.194  -0.084  -0.016  1.00  0.00     0.274 HD
ATOM     18  H61 UNL     1      -3.985  -1.698   0.498  1.00  0.00     0.274 HD
ENDBRANCH  14  15
ENDBRANCH  13  14
ENDBRANCH   9  13
BRANCH   1  19
HETATM   19  N1  UNL     1       3.575  -0.113   1.733  1.00  0.00    -0.234 N 
ATOM     20  H12 UNL     1       4.589  -0.167   1.633  1.00  0.00     0.174 HD
ATOM     21  H11 UNL     1       3.393  -0.219   2.731  1.00  0.00     0.174 HD
ENDBRANCH   1  19
TORSDOF 4
