REMARK  5 active torsions:
REMARK  status: ('A' for Active; 'I' for Inactive)
REMARK    1  A    between atoms: C4_6  and  C5_7 
REMARK    2  A    between atoms: C5_7  and  N2_8 
REMARK    3  A    between atoms: C5_7  and  C6_12 
REMARK    4  A    between atoms: C6_12  and  N3_13 
REMARK    5  A    between atoms: C6_12  and  N4_17 
ROOT
HETATM    1  C5  UNL     1      -1.141  -0.749   0.617  1.00  0.00     0.291 C 
ENDROOT
BRANCH   1   2
HETATM    2  C4  UNL     1       0.267  -0.651   0.161  1.00  0.00     0.060 A 
HETATM    3  C3  UNL     1       0.892  -1.602  -0.616  1.00  0.00     0.116 A 
HETATM    4  N1  UNL     1       2.143  -1.198  -0.836  1.00  0.00    -0.354 N 
HETATM    5  C2  UNL     1       2.335  -0.024  -0.227  1.00  0.00     0.077 A 
ATOM      6  H1  UNL     1       2.841  -1.703  -1.381  1.00  0.00     0.166 HD
HETATM    7  C1  UNL     1       3.621   0.721  -0.262  1.00  0.00     0.089 C 
HETATM    8  N5  UNL     1       1.176   0.308   0.387  1.00  0.00    -0.347 N 
ATOM      9  H5  UNL     1       1.019   1.154   0.935  1.00  0.00     0.167 HD
ENDBRANCH   1   2
BRANCH   1  10
HETATM   10  N2  UNL     1      -1.228  -0.394   2.022  1.00  0.00    -0.066 N 
ATOM     11  H23 UNL     1      -0.598  -0.952   2.598  1.00  0.00     0.275 HD
ATOM     12  H22 UNL     1      -0.826   0.524   2.211  1.00  0.00     0.275 HD
ATOM     13  H21 UNL     1      -2.196  -0.461   2.336  1.00  0.00     0.275 HD
ENDBRANCH   1  10
BRANCH   1  14
HETATM   14  C6  UNL     1      -2.036   0.199  -0.193  1.00  0.00     0.413 C 
BRANCH  14  15
HETATM   15  N3  UNL     1      -1.984  -0.139  -1.600  1.00  0.00    -0.048 N 
ATOM     16  H33 UNL     1      -1.027  -0.152  -1.953  1.00  0.00     0.276 HD
ATOM     17  H32 UNL     1      -2.219  -1.118  -1.765  1.00  0.00     0.276 HD
ATOM     18  H31 UNL     1      -2.579   0.491  -2.138  1.00  0.00     0.276 HD
ENDBRANCH  14  15
BRANCH  14  19
HETATM   19  N4  UNL     1      -1.615   1.527   0.101  1.00  0.00    -0.048 N 
ATOM     20  H43 UNL     1      -1.614   1.734   1.100  1.00  0.00     0.276 HD
ATOM     21  H42 UNL     1      -0.620   1.677  -0.065  1.00  0.00     0.276 HD
ATOM     22  H41 UNL     1      -2.210   2.157  -0.437  1.00  0.00     0.276 HD
ENDBRANCH  14  19
ENDBRANCH   1  14
TORSDOF 5
