REMARK  6 active torsions:
REMARK  status: ('A' for Active; 'I' for Inactive)
REMARK    1  A    between atoms: C2_2  and  N1_4 
REMARK    2  A    between atoms: N1_4  and  C4_6 
REMARK    3  A    between atoms: C4_6  and  N2_7 
REMARK    4  A    between atoms: C4_6  and  O1_11 
REMARK    5  A    between atoms: C4_6  and  C5_13 
REMARK    6  A    between atoms: C5_13  and  N3_15 
ROOT
HETATM    1  C4  UNL     1       0.647   0.223   0.609  1.00  0.00     0.326 C 
ENDROOT
BRANCH   1   2
HETATM    2  N1  UNL     1      -0.487  -0.591   0.641  1.00  0.00    -0.364 N 
ATOM      3  H1  UNL     1      -0.585  -1.255   1.409  1.00  0.00     0.158 HD
BRANCH   2   4
HETATM    4  C2  UNL     1      -1.497  -0.542  -0.328  1.00  0.00     0.073 C 
HETATM    5  C1  UNL     1      -2.239   0.768  -0.373  1.00  0.00     0.031 C 
HETATM    6  C3  UNL     1      -2.586  -1.600  -0.076  1.00  0.00     0.031 C 
ENDBRANCH   2   4
ENDBRANCH   1   2
BRANCH   1   7
HETATM    7  N2  UNL     1       1.503  -0.114   1.801  1.00  0.00    -0.026 N 
ATOM      8  H23 UNL     1       0.994  -0.045   2.682  1.00  0.00     0.280 HD
ATOM      9  H22 UNL     1       1.733  -1.106   1.852  1.00  0.00     0.280 HD
ATOM     10  H21 UNL     1       2.331   0.481   1.778  1.00  0.00     0.280 HD
ENDBRANCH   1   7
BRANCH   1  11
HETATM   11  O1  UNL     1       0.424   1.596   0.780  1.00  0.00    -0.348 OA
ATOM     12  H1  UNL     1       1.196   2.150   0.758  1.00  0.00     0.214 HD
ENDBRANCH   1  11
BRANCH   1  13
HETATM   13  C5  UNL     1       1.508  -0.026  -0.574  1.00  0.00     0.264 C 
HETATM   14  C6  UNL     1       2.922   0.450  -0.296  1.00  0.00     0.047 C 
BRANCH  13  15
HETATM   15  N3  UNL     1       0.981   0.487  -1.793  1.00  0.00    -0.069 N 
ATOM     16  H33 UNL     1       0.039   0.130  -1.954  1.00  0.00     0.275 HD
ATOM     17  H32 UNL     1       0.775   1.482  -1.703  1.00  0.00     0.275 HD
ATOM     18  H31 UNL     1       1.573   0.316  -2.606  1.00  0.00     0.275 HD
ENDBRANCH  13  15
ENDBRANCH   1  13
TORSDOF 6
