REMARK  3 active torsions:
REMARK  status: ('A' for Active; 'I' for Inactive)
REMARK    1  A    between atoms: C3_6  and  C4_7 
REMARK    2  A    between atoms: C4_7  and  N2_8 
REMARK    3  A    between atoms: N2_8  and  C5_11 
ROOT
HETATM    1  C4  UNL     1       0.014   0.398  -0.711  1.00  0.00     0.295 C 
ENDROOT
BRANCH   1   2
HETATM    2  C3  UNL     1      -1.398   0.619  -0.321  1.00  0.00     0.408 C 
HETATM    3  N1  UNL     1      -2.184  -0.637  -0.362  1.00  0.00    -0.043 N 
HETATM    4  C2  UNL     1      -3.366  -0.351   0.420  1.00  0.00     0.262 C 
ATOM      5  H12 UNL     1      -1.669  -1.461  -0.051  1.00  0.00     0.279 HD
ATOM      6  H11 UNL     1      -2.380  -0.974  -1.304  1.00  0.00     0.279 HD
HETATM    7  C1  UNL     1      -3.071   0.949   1.121  1.00  0.00     0.262 C 
HETATM    8  N4  UNL     1      -1.631   1.063   1.028  1.00  0.00    -0.043 N 
ATOM      9  H42 UNL     1      -1.251   1.981   1.257  1.00  0.00     0.279 HD
ATOM     10  H41 UNL     1      -1.107   0.565   1.748  1.00  0.00     0.279 HD
ENDBRANCH   1   2
BRANCH   1  11
HETATM   11  N2  UNL     1       0.751  -0.496   0.112  1.00  0.00    -0.064 N 
ATOM     12  H22 UNL     1       0.814  -0.145   1.068  1.00  0.00     0.277 HD
ATOM     13  H21 UNL     1       0.224  -1.352   0.284  1.00  0.00     0.277 HD
BRANCH  11  14
HETATM   14  C5  UNL     1       2.061  -0.793  -0.416  1.00  0.00     0.236 C 
HETATM   15  C6  UNL     1       3.040   0.298  -0.603  1.00  0.00     0.267 C 
HETATM   16  N3  UNL     1       3.665  -0.005   0.675  1.00  0.00    -0.071 N 
HETATM   17  C7  UNL     1       3.041  -1.286   0.626  1.00  0.00     0.267 C 
ATOM     18  H32 UNL     1       4.674   0.080   0.796  1.00  0.00     0.277 HD
ATOM     19  H31 UNL     1       3.534   0.609   1.479  1.00  0.00     0.277 HD
ENDBRANCH  11  14
ENDBRANCH   1  11
TORSDOF 3
