REMARK  6 active torsions:
REMARK  status: ('A' for Active; 'I' for Inactive)
REMARK    1  A    between atoms: N1_1  and  C1_4 
REMARK    2  A    between atoms: C1_4  and  N2_5 
REMARK    3  A    between atoms: N2_5  and  N3_7 
REMARK    4  A    between atoms: N3_7  and  C2_9 
REMARK    5  A    between atoms: C2_9  and  C3_10 
REMARK    6  A    between atoms: C5_16  and  O1_17 
ROOT
HETATM    1  C3  UNL     1      -0.806  -0.473  -0.048  1.00  0.00     0.101 A 
HETATM    2  N4  UNL     1      -0.390   0.633   0.612  1.00  0.00    -0.348 N 
ATOM      3  H4  UNL     1       0.565   0.807   0.924  1.00  0.00     0.167 HD
HETATM    4  C4  UNL     1      -1.421   1.462   0.792  1.00  0.00     0.183 A 
HETATM    5  N5  UNL     1      -2.494   0.882   0.246  1.00  0.00    -0.331 N 
ATOM      6  H5  UNL     1      -3.433   1.281   0.229  1.00  0.00     0.168 HD
HETATM    7  C5  UNL     1      -2.150  -0.302  -0.275  1.00  0.00     0.169 A 
ENDROOT
BRANCH   1   8
HETATM    8  C2  UNL     1       0.016  -1.602  -0.430  1.00  0.00     0.141 C 
BRANCH   8   9
HETATM    9  N3  UNL     1       1.253  -1.601  -0.140  1.00  0.00    -0.309 N 
ATOM     10  H3  UNL     1       1.808  -2.409  -0.421  1.00  0.00     0.186 HD
BRANCH   9  11
HETATM   11  N2  UNL     1       1.905  -0.566   0.539  1.00  0.00    -0.297 N 
ATOM     12  H2  UNL     1       1.777  -0.475   1.547  1.00  0.00     0.187 HD
BRANCH  11  13
HETATM   13  C1  UNL     1       2.743   0.363  -0.141  1.00  0.00     0.190 C 
BRANCH  13  14
HETATM   14  N1  UNL     1       3.762   0.820   0.503  1.00  0.00    -0.394 N 
ATOM     15  H12 UNL     1       3.946   0.518   1.460  1.00  0.00     0.156 HD
ATOM     16  H11 UNL     1       4.362   1.485   0.016  1.00  0.00     0.156 HD
ENDBRANCH  13  14
ENDBRANCH  11  13
ENDBRANCH   9  11
ENDBRANCH   8   9
ENDBRANCH   1   8
BRANCH   7  17
HETATM   17  O1  UNL     1      -3.001  -1.167  -0.915  1.00  0.00    -0.344 OA
ATOM     18  H1  UNL     1      -3.930  -1.049  -1.072  1.00  0.00     0.219 HD
ENDBRANCH   7  17
TORSDOF 6
