REMARK  4 active torsions:
REMARK  status: ('A' for Active; 'I' for Inactive)
REMARK    1  A    between atoms: C2_3  and  C3_4 
REMARK    2  A    between atoms: C3_4  and  N2_5 
REMARK    3  A    between atoms: C3_4  and  C4_9 
REMARK    4  A    between atoms: C5_14  and  N5_15 
ROOT
HETATM    1  N1  UNL     1      -4.293  -1.099  -0.113  1.00  0.00    -0.197 NA
HETATM    2  C1  UNL     1      -3.145  -0.922  -0.300  1.00  0.00     0.061 C 
HETATM    3  C2  UNL     1      -1.727  -0.710  -0.547  1.00  0.00     0.164 C 
ENDROOT
BRANCH   3   4
HETATM    4  C3  UNL     1      -1.058   0.011   0.610  1.00  0.00     0.265 C 
BRANCH   4   5
HETATM    5  N2  UNL     1      -1.612   1.292   0.872  1.00  0.00    -0.067 N 
ATOM      6  H23 UNL     1      -1.602   1.869   0.031  1.00  0.00     0.275 HD
ATOM      7  H22 UNL     1      -2.619   1.227   1.020  1.00  0.00     0.275 HD
ATOM      8  H21 UNL     1      -1.163   1.776   1.649  1.00  0.00     0.275 HD
ENDBRANCH   4   5
BRANCH   4   9
HETATM    9  C4  UNL     1       0.394   0.178   0.330  1.00  0.00     0.144 A 
HETATM   10  N3  UNL     1       0.987   1.095  -0.455  1.00  0.00    -0.272 N 
HETATM   11  N4  UNL     1       2.303   0.897  -0.433  1.00  0.00    -0.131 N 
ATOM     12  H3  UNL     1       0.506   1.824  -0.982  1.00  0.00     0.189 HD
HETATM   13  C5  UNL     1       2.510  -0.148   0.372  1.00  0.00     0.691 A 
ATOM     14  H4  UNL     1       3.011   1.436  -0.931  1.00  0.00     0.205 HD
HETATM   15  N6  UNL     1       1.354  -0.615   0.859  1.00  0.00    -0.176 N 
ATOM     16  H6  UNL     1       1.224  -1.402   1.495  1.00  0.00     0.185 HD
BRANCH  13  17
HETATM   17  N5  UNL     1       3.673  -0.650   0.649  1.00  0.00    -0.233 N 
ATOM     18  H52 UNL     1       4.554  -0.294   0.278  1.00  0.00     0.174 HD
ATOM     19  H51 UNL     1       3.831  -1.448   1.264  1.00  0.00     0.174 HD
ENDBRANCH  13  17
ENDBRANCH   4   9
ENDBRANCH   3   4
TORSDOF 4
