REMARK  3 active torsions:
REMARK  status: ('A' for Active; 'I' for Inactive)
REMARK    1  A    between atoms: C3_6  and  N2_7 
REMARK    2  A    between atoms: N2_7  and  N3_9 
REMARK    3  A    between atoms: N3_9  and  C4_11 
ROOT
HETATM    1  N1  UNL     1      -2.821   1.570   0.790  1.00  0.00    -0.385 N 
ATOM      2  H11 UNL     1      -3.661   1.441   1.353  1.00  0.00     0.157 HD
ATOM      3  H12 UNL     1      -2.593   2.498   0.432  1.00  0.00     0.157 HD
HETATM    4  C1  UNL     1      -2.051   0.564   0.533  1.00  0.00     0.103 A 
HETATM    5  C2  UNL     1      -0.928   0.737  -0.220  1.00  0.00     0.097 A 
HETATM    6  C3  UNL     1      -0.093  -0.318  -0.508  1.00  0.00     0.124 A 
HETATM    7  N4  UNL     1      -0.415  -1.528  -0.025  1.00  0.00    -0.337 N 
ATOM      8  H4  UNL     1       0.182  -2.332  -0.219  1.00  0.00     0.168 HD
HETATM    9  C5  UNL     1      -1.537  -1.679   0.722  1.00  0.00     0.183 A 
HETATM   10  N5  UNL     1      -2.348  -0.646   1.000  1.00  0.00    -0.339 N 
ATOM     11  H5  UNL     1      -3.185  -0.788   1.565  1.00  0.00     0.168 HD
ENDROOT
BRANCH   6  12
HETATM   12  N2  UNL     1       1.055  -0.085  -1.307  1.00  0.00    -0.283 N 
ATOM     13  H2  UNL     1       1.001  -0.295  -2.304  1.00  0.00     0.188 HD
BRANCH  12  14
HETATM   14  N3  UNL     1       2.246   0.413  -0.804  1.00  0.00    -0.276 N 
ATOM     15  H3  UNL     1       2.942   0.783  -1.452  1.00  0.00     0.189 HD
BRANCH  14  16
HETATM   16  C4  UNL     1       2.525   0.423   0.586  1.00  0.00     0.368 C 
HETATM   17  O1  UNL     1       1.705  -0.022   1.417  1.00  0.00    -0.282 OA
ENDBRANCH  14  16
ENDBRANCH  12  14
ENDBRANCH   6  12
TORSDOF 3
