REMARK  5 active torsions:
REMARK  status: ('A' for Active; 'I' for Inactive)
REMARK    1  A    between atoms: C2_2  and  N1_3 
REMARK    2  A    between atoms: N1_3  and  C3_5 
REMARK    3  A    between atoms: C3_5  and  C4_6 
REMARK    4  A    between atoms: C4_6  and  N2_7 
REMARK    5  A    between atoms: C4_6  and  N3_11 
ROOT
HETATM    1  C3  UNL     1      -0.389  -0.071  -0.060  1.00  0.00     0.108 C 
HETATM    2  C5  UNL     1      -1.180   0.660  -1.169  1.00  0.00     0.064 C 
HETATM    3  C6  UNL     1      -1.301   2.093  -0.699  1.00  0.00     0.235 C 
HETATM    4  N4  UNL     1      -0.563   2.215   0.521  1.00  0.00    -0.073 N 
ATOM      5  H41 UNL     1      -0.975   2.878   1.177  1.00  0.00     0.277 HD
ATOM      6  H42 UNL     1       0.332   2.690   0.405  1.00  0.00     0.277 HD
HETATM    7  C7  UNL     1      -0.435   0.873   1.065  1.00  0.00     0.267 C 
ENDROOT
BRANCH   1   8
HETATM    8  N1  UNL     1       0.806  -0.553  -0.572  1.00  0.00    -0.388 N 
ATOM      9  H1  UNL     1       0.776  -1.438  -1.078  1.00  0.00     0.159 HD
BRANCH   8  10
HETATM   10  C2  UNL     1       2.041   0.072  -0.451  1.00  0.00     0.052 C 
HETATM   11  C1  UNL     1       2.688   0.108   0.911  1.00  0.00     0.054 C 
ENDBRANCH   8  10
ENDBRANCH   1   8
BRANCH   1  12
HETATM   12  C4  UNL     1      -1.262  -1.310   0.257  1.00  0.00     0.407 C 
BRANCH  12  13
HETATM   13  N2  UNL     1      -0.523  -2.074   1.222  1.00  0.00    -0.048 N 
ATOM     14  H23 UNL     1       0.423  -2.308   0.919  1.00  0.00     0.276 HD
ATOM     15  H22 UNL     1      -0.258  -1.539   2.049  1.00  0.00     0.276 HD
ATOM     16  H21 UNL     1      -1.098  -2.890   1.431  1.00  0.00     0.276 HD
ENDBRANCH  12  13
BRANCH  12  17
HETATM   17  N3  UNL     1      -1.432  -2.108  -0.948  1.00  0.00    -0.048 N 
ATOM     18  H33 UNL     1      -1.808  -1.561  -1.722  1.00  0.00     0.276 HD
ATOM     19  H32 UNL     1      -0.539  -2.364  -1.369  1.00  0.00     0.276 HD
ATOM     20  H31 UNL     1      -2.007  -2.924  -0.739  1.00  0.00     0.276 HD
ENDBRANCH  12  17
ENDBRANCH   1  12
TORSDOF 5
