REMARK  2 active torsions:
REMARK  status: ('A' for Active; 'I' for Inactive)
REMARK    1  A    between atoms: C5_5  and  N1_6 
REMARK    2  A    between atoms: N1_6  and  N2_8 
ROOT
HETATM    1  C1  UNL     1      -3.356   0.266  -0.227  1.00  0.00     0.068 C 
HETATM    2  C2  UNL     1      -1.867   0.151  -0.133  1.00  0.00     0.006 A 
HETATM    3  C3  UNL     1      -1.270  -1.073  -0.355  1.00  0.00     0.027 A 
HETATM    4  C4  UNL     1       0.107  -1.217  -0.276  1.00  0.00     0.036 A 
HETATM    5  C5  UNL     1       0.902  -0.132   0.027  1.00  0.00     0.088 A 
HETATM    6  C6  UNL     1       0.265   1.095   0.247  1.00  0.00     0.144 A 
HETATM    7  N3  UNL     1       1.093   2.193   0.556  1.00  0.00    -0.080 NA
HETATM    8  N4  UNL     1      -1.076   1.196   0.162  1.00  0.00    -0.347 N 
ATOM      9  H4  UNL     1      -1.509   2.104   0.329  1.00  0.00     0.167 HD
ENDROOT
BRANCH   5  10
HETATM   10  N1  UNL     1       2.314  -0.240   0.117  1.00  0.00    -0.304 N 
ATOM     11  H1  UNL     1       2.885   0.574   0.343  1.00  0.00     0.186 HD
BRANCH  10  12
HETATM   12  N2  UNL     1       2.899  -1.471  -0.108  1.00  0.00    -0.345 N 
ATOM     13  H22 UNL     1       2.314  -2.276  -0.333  1.00  0.00     0.176 HD
ATOM     14  H21 UNL     1       3.914  -1.549  -0.043  1.00  0.00     0.176 HD
ENDBRANCH  10  12
ENDBRANCH   5  10
TORSDOF 2
