REMARK  3 active torsions:
REMARK  status: ('A' for Active; 'I' for Inactive)
REMARK    1  A    between atoms: C2_2  and  N1_4 
REMARK    2  A    between atoms: N1_4  and  N2_5 
REMARK    3  A    between atoms: N2_5  and  C4_7 
ROOT
HETATM    1  C4  UNL     1       1.708   0.269   0.337  1.00  0.00     0.133 A 
HETATM    2  C5  UNL     1       2.853   0.211   1.116  1.00  0.00     0.138 A 
HETATM    3  N3  UNL     1       3.626  -0.786   0.655  1.00  0.00    -0.358 N 
ATOM      4  H3  UNL     1       4.532  -1.059   1.037  1.00  0.00     0.166 HD
HETATM    5  C6  UNL     1       3.017  -1.361  -0.383  1.00  0.00     0.182 A 
HETATM    6  N4  UNL     1       1.852  -0.715  -0.570  1.00  0.00    -0.337 N 
ATOM      7  H4  UNL     1       1.173  -0.939  -1.297  1.00  0.00     0.168 HD
ENDROOT
BRANCH   1   8
HETATM    8  N2  UNL     1       0.619   1.164   0.461  1.00  0.00    -0.288 N 
ATOM      9  H2  UNL     1       0.624   1.873   1.195  1.00  0.00     0.184 HD
BRANCH   8  10
HETATM   10  N1  UNL     1      -0.447   1.080  -0.407  1.00  0.00    -0.136 NA
BRANCH  10  11
HETATM   11  C2  UNL     1      -1.632   0.504   0.167  1.00  0.00     0.091 C 
HETATM   12  C1  UNL     1      -2.693   0.494  -0.936  1.00  0.00     0.029 C 
HETATM   13  C3  UNL     1      -1.423  -0.967   0.536  1.00  0.00     0.029 C 
ENDBRANCH  10  11
ENDBRANCH   8  10
ENDBRANCH   1   8
TORSDOF 3
