REMARK  2 active torsions:
REMARK  status: ('A' for Active; 'I' for Inactive)
REMARK    1  A    between atoms: N1_1  and  N2_4 
REMARK    2  A    between atoms: N2_4  and  C1_6 
ROOT
HETATM    1  C1  UNL     1      -0.214  -0.322  -0.214  1.00  0.00     0.713 A 
HETATM    2  N3  UNL     1       0.508   0.250  -1.208  1.00  0.00    -0.128 N 
ATOM      3  H3  UNL     1       0.151   0.460  -2.140  1.00  0.00     0.205 HD
HETATM    4  N4  UNL     1       1.733   0.496  -0.801  1.00  0.00    -0.261 N 
ATOM      5  H4  UNL     1       2.473   0.921  -1.360  1.00  0.00     0.190 HD
HETATM    6  C2  UNL     1       1.847   0.088   0.490  1.00  0.00     0.205 A 
HETATM    7  S1  UNL     1       3.185   0.193   1.419  1.00  0.00    -0.039 SA
HETATM    8  N5  UNL     1       0.643  -0.413   0.839  1.00  0.00    -0.162 N 
ATOM      9  H5  UNL     1       0.411  -0.801   1.753  1.00  0.00     0.187 HD
ENDROOT
BRANCH   1  10
HETATM   10  N2  UNL     1      -1.578  -0.726  -0.267  1.00  0.00    -0.137 N 
ATOM     11  H2  UNL     1      -1.834  -1.698  -0.438  1.00  0.00     0.205 HD
BRANCH  10  12
HETATM   12  N1  UNL     1      -2.549   0.251  -0.077  1.00  0.00    -0.331 N 
ATOM     13  H12 UNL     1      -2.277   1.219   0.093  1.00  0.00     0.177 HD
ATOM     14  H11 UNL     1      -3.526  -0.038  -0.115  1.00  0.00     0.177 HD
ENDBRANCH  10  12
ENDBRANCH   1  10
TORSDOF 2
