REMARK  16 active torsions:
REMARK  status: ('A' for Active; 'I' for Inactive)
REMARK    1  A    between atoms: C2_2  and  C3_3 
REMARK    2  A    between atoms: C3_3  and  C4_4 
REMARK    3  A    between atoms: C4_4  and  C5_5 
REMARK    4  A    between atoms: C5_5  and  C6_6 
REMARK    5  A    between atoms: C6_6  and  C7_7 
REMARK    6  A    between atoms: C7_7  and  C8_8 
REMARK    7  A    between atoms: C8_8  and  C9_9 
REMARK    8  A    between atoms: C9_9  and  N1_10 
REMARK    9  A    between atoms: N1_10  and  C10_11 
REMARK   10  A    between atoms: C10_11  and  C11_12 
REMARK   11  A    between atoms: C11_12  and  C12_13 
REMARK   12  A    between atoms: C12_13  and  C13_14 
REMARK   13  A    between atoms: C13_14  and  C14_15 
REMARK   14  A    between atoms: C14_15  and  C15_16 
REMARK       I    between atoms: C15_16  and  N2_18 
REMARK   15  A    between atoms: C29_39  and  O2_40 
REMARK   16  A    between atoms: C30_42  and  C32_44 
ROOT
HETATM    1  N1  UNL     1      -1.605  -0.263  -0.055  1.00  0.00    -0.066 N 
HETATM    2  C24 UNL     1      -2.417  -0.344   1.107  1.00  0.00     0.237 C 
HETATM    3  C25 UNL     1      -3.765   0.215   1.150  1.00  0.00     0.028 C 
HETATM    4  C26 UNL     1      -4.618  -0.642   2.106  1.00  0.00     0.003 C 
HETATM    5  C27 UNL     1      -6.008  -0.852   1.649  1.00  0.00     0.020 C 
HETATM    6  C28 UNL     1      -6.327  -2.070   0.875  1.00  0.00     0.121 C 
HETATM    7  N5  UNL     1      -5.635  -3.274   1.193  1.00  0.00    -0.373 N 
ATOM      8  H5  UNL     1      -5.885  -3.676   2.096  1.00  0.00     0.161 HD
HETATM    9  C29 UNL     1      -4.670  -4.004   0.483  1.00  0.00     0.129 C 
HETATM   10  C30 UNL     1      -4.691  -4.720  -0.774  1.00  0.00     0.101 C 
HETATM   11  C31 UNL     1      -3.717  -5.969  -0.592  1.00  0.00     0.034 C 
HETATM   12  C34 UNL     1      -4.082  -4.048  -1.944  1.00  0.00     0.234 C 
HETATM   13  O3  UNL     1      -4.575  -4.408  -3.077  1.00  0.00    -0.272 OA
HETATM   14  N6  UNL     1      -3.060  -3.093  -1.991  1.00  0.00    -0.358 N 
ATOM     15  H6  UNL     1      -2.226  -3.367  -2.510  1.00  0.00     0.162 HD
HETATM   16  C35 UNL     1      -3.024  -1.774  -1.406  1.00  0.00     0.150 C 
HETATM   17  C36 UNL     1      -1.679  -1.506  -0.843  1.00  0.00     0.257 C 
ENDROOT
BRANCH   1  18
HETATM   18  C9  UNL     1      -1.853   0.819  -0.945  1.00  0.00     0.237 C 
BRANCH  18  19
HETATM   19  C8  UNL     1      -1.282   2.144  -0.597  1.00  0.00     0.028 C 
BRANCH  19  20
HETATM   20  C7  UNL     1      -1.619   3.185  -1.646  1.00  0.00     0.002 C 
BRANCH  20  21
HETATM   21  C6  UNL     1      -3.079   3.401  -1.839  1.00  0.00     0.000 C 
BRANCH  21  22
HETATM   22  C5  UNL     1      -3.746   3.887  -0.586  1.00  0.00     0.000 C 
BRANCH  22  23
HETATM   23  C4  UNL     1      -5.210   4.064  -0.905  1.00  0.00     0.000 C 
BRANCH  23  24
HETATM   24  C3  UNL     1      -6.039   4.554   0.234  1.00  0.00    -0.000 C 
BRANCH  24  25
HETATM   25  C2  UNL     1      -5.590   5.896   0.743  1.00  0.00    -0.005 C 
HETATM   26  C1  UNL     1      -5.671   6.946  -0.365  1.00  0.00     0.005 C 
ENDBRANCH  24  25
ENDBRANCH  23  24
ENDBRANCH  22  23
ENDBRANCH  21  22
ENDBRANCH  20  21
ENDBRANCH  19  20
ENDBRANCH  18  19
ENDBRANCH   1  18
BRANCH   1  27
HETATM   27  C10 UNL     1      -0.223  -0.276   0.437  1.00  0.00     0.237 C 
BRANCH  27  28
HETATM   28  C11 UNL     1       0.768  -0.898  -0.449  1.00  0.00     0.028 C 
BRANCH  28  29
HETATM   29  C12 UNL     1       2.152  -0.813   0.222  1.00  0.00     0.002 C 
BRANCH  29  30
HETATM   30  C13 UNL     1       3.197  -1.438  -0.632  1.00  0.00     0.009 C 
BRANCH  30  31
HETATM   31  C14 UNL     1       4.590  -1.424  -0.078  1.00  0.00     0.103 C 
BRANCH  31  32
HETATM   32  C15 UNL     1       5.145  -0.095   0.137  1.00  0.00     0.219 C 
HETATM   33  O1  UNL     1       4.478   0.898  -0.254  1.00  0.00    -0.273 OA
HETATM   34  N2  UNL     1       6.400   0.173   0.760  1.00  0.00    -0.350 N 
HETATM   35  C16 UNL     1       7.166  -0.954   1.206  1.00  0.00     0.131 C 
HETATM   36  C23 UNL     1       6.801   1.553   0.893  1.00  0.00     0.153 C 
HETATM   37  C17 UNL     1       8.069  -1.579   0.203  1.00  0.00     0.064 C 
HETATM   38  C18 UNL     1       8.581  -0.717  -0.873  1.00  0.00     0.057 C 
HETATM   39  N3  UNL     1       9.753   0.004  -0.739  1.00  0.00    -0.402 N 
HETATM   40  C19 UNL     1      10.527   0.011   0.427  1.00  0.00     0.120 C 
ATOM     41  H3  UNL     1      10.071   0.561  -1.532  1.00  0.00     0.158 HD
HETATM   42  C20 UNL     1      10.778   1.416   0.985  1.00  0.00     0.047 C 
HETATM   43  C21 UNL     1       9.873   2.437   0.390  1.00  0.00     0.234 C 
HETATM   44  N4  UNL     1       8.818   2.905   1.252  1.00  0.00    -0.074 N 
HETATM   45  C22 UNL     1       7.968   1.839   1.753  1.00  0.00     0.252 C 
ATOM     46  H42 UNL     1       9.197   3.457   2.021  1.00  0.00     0.277 HD
ATOM     47  H41 UNL     1       8.262   3.623   0.787  1.00  0.00     0.277 HD
ENDBRANCH  31  32
ENDBRANCH  30  31
ENDBRANCH  29  30
ENDBRANCH  28  29
ENDBRANCH  27  28
ENDBRANCH   1  27
BRANCH  10  48
HETATM   48  C32 UNL     1      -5.969  -5.388  -1.136  1.00  0.00     0.023 C 
HETATM   49  C33 UNL     1      -7.187  -4.573  -1.312  1.00  0.00     0.007 C 
ENDBRANCH  10  48
BRANCH   9  50
HETATM   50  O2  UNL     1      -3.502  -4.053   1.087  1.00  0.00    -0.349 OA
ATOM     51  H2  UNL     1      -2.849  -4.547   0.606  1.00  0.00     0.219 HD
ENDBRANCH   9  50
TORSDOF 16
