REMARK  16 active torsions:
REMARK  status: ('A' for Active; 'I' for Inactive)
REMARK    1  A    between atoms: C2_2  and  C4_4 
REMARK    2  A    between atoms: C4_4  and  N1_5 
REMARK       I    between atoms: N1_5  and  C5_7 
REMARK    3  A    between atoms: C5_7  and  C6_9 
REMARK    4  A    between atoms: C6_9  and  C7_10 
REMARK    5  A    between atoms: C7_10  and  C8_11 
REMARK    6  A    between atoms: C8_11  and  N2_12 
REMARK    7  A    between atoms: C8_11  and  C17_25 
REMARK       I    between atoms: N2_12  and  C9_14 
REMARK       I    between atoms: C9_14  and  N3_16 
REMARK    8  A    between atoms: N3_16  and  C10_18 
REMARK       I    between atoms: C17_25  and  N4_27 
REMARK    9  A    between atoms: N4_27  and  C18_28 
REMARK   10  A    between atoms: N4_27  and  C30_45 
REMARK   11  A    between atoms: C18_28  and  C19_29 
REMARK   12  A    between atoms: C19_29  and  C20_30 
REMARK       I    between atoms: C20_30  and  N5_32 
REMARK   13  A    between atoms: C24_36  and  C25_37 
REMARK       I    between atoms: C25_37  and  N6_39 
REMARK   14  A    between atoms: N6_39  and  C26_41 
REMARK   15  A    between atoms: C26_41  and  C27_42 
REMARK   16  A    between atoms: C30_45  and  C31_46 
ROOT
HETATM    1  C17 UNL     1      -0.864   0.060   0.189  1.00  0.00     0.242 C 
HETATM    2  O3  UNL     1      -0.687  -0.627  -0.888  1.00  0.00    -0.271 OA
HETATM    3  N4  UNL     1       0.294   0.368   0.951  1.00  0.00    -0.349 N 
ENDROOT
BRANCH   1   4
HETATM    4  C8  UNL     1      -2.253   0.418   0.459  1.00  0.00     0.179 C 
BRANCH   4   5
HETATM    5  C7  UNL     1      -2.635   1.702  -0.327  1.00  0.00     0.044 C 
BRANCH   5   6
HETATM    6  C6  UNL     1      -4.004   2.171  -0.079  1.00  0.00     0.105 C 
BRANCH   6   7
HETATM    7  C5  UNL     1      -4.237   2.616   1.313  1.00  0.00     0.217 C 
HETATM    8  N1  UNL     1      -5.581   2.873   1.778  1.00  0.00    -0.357 N 
ATOM      9  H1  UNL     1      -6.376   2.751   1.151  1.00  0.00     0.162 HD
HETATM   10  O1  UNL     1      -3.291   2.775   2.102  1.00  0.00    -0.274 OA
BRANCH   8  11
HETATM   11  C4  UNL     1      -5.783   3.298   3.119  1.00  0.00     0.155 C 
BRANCH  11  12
HETATM   12  C2  UNL     1      -7.164   3.526   3.536  1.00  0.00    -0.075 C 
HETATM   13  C1  UNL     1      -8.196   3.363   2.766  1.00  0.00     0.015 C 
HETATM   14  C3  UNL     1      -7.388   3.979   4.956  1.00  0.00     0.044 C 
ENDBRANCH  11  12
ENDBRANCH   8  11
ENDBRANCH   6   7
ENDBRANCH   5   6
ENDBRANCH   4   5
BRANCH   4  15
HETATM   15  N2  UNL     1      -3.171  -0.610   0.027  1.00  0.00    -0.330 N 
HETATM   16  C9  UNL     1      -3.769  -0.805  -1.218  1.00  0.00     0.317 C 
HETATM   17  O2  UNL     1      -3.628  -0.142  -2.264  1.00  0.00    -0.247 OA
HETATM   18  N3  UNL     1      -4.684  -1.923  -1.350  1.00  0.00    -0.334 N 
ATOM     19  H3  UNL     1      -4.863  -2.519  -0.542  1.00  0.00     0.165 HD
ATOM     20  H2  UNL     1      -3.419  -1.297   0.739  1.00  0.00     0.165 HD
BRANCH  18  21
HETATM   21  C10 UNL     1      -5.349  -2.212  -2.603  1.00  0.00     0.031 C 
HETATM   22  C11 UNL     1      -6.172  -0.993  -2.960  1.00  0.00     0.038 C 
HETATM   23  C12 UNL     1      -4.279  -2.379  -3.638  1.00  0.00     0.031 C 
HETATM   24  C13 UNL     1      -4.407  -3.668  -4.413  1.00  0.00     0.002 C 
HETATM   25  C14 UNL     1      -4.317  -4.771  -3.378  1.00  0.00     0.000 C 
HETATM   26  C15 UNL     1      -5.564  -4.730  -2.573  1.00  0.00     0.002 C 
HETATM   27  C16 UNL     1      -6.221  -3.410  -2.416  1.00  0.00     0.031 C 
ENDBRANCH  18  21
ENDBRANCH   4  15
ENDBRANCH   1   4
BRANCH   3  28
HETATM   28  C18 UNL     1       1.607  -0.044   0.418  1.00  0.00     0.135 C 
BRANCH  28  29
HETATM   29  C19 UNL     1       2.262   1.030  -0.399  1.00  0.00     0.123 C 
BRANCH  29  30
HETATM   30  C20 UNL     1       3.551   0.483  -0.917  1.00  0.00     0.222 C 
HETATM   31  O4  UNL     1       3.658  -0.770  -1.012  1.00  0.00    -0.273 OA
HETATM   32  N5  UNL     1       4.642   1.298  -1.303  1.00  0.00    -0.339 N 
HETATM   33  C21 UNL     1       4.634   2.752  -1.210  1.00  0.00     0.127 C 
HETATM   34  C24 UNL     1       5.889   0.821  -1.841  1.00  0.00     0.179 C 
HETATM   35  C22 UNL     1       6.111   3.108  -1.270  1.00  0.00     0.022 C 
HETATM   36  C23 UNL     1       6.732   2.054  -2.120  1.00  0.00     0.037 C 
BRANCH  34  37
HETATM   37  C25 UNL     1       6.605  -0.104  -0.939  1.00  0.00     0.240 C 
HETATM   38  O5  UNL     1       6.181  -0.363   0.215  1.00  0.00    -0.271 OA
HETATM   39  N6  UNL     1       7.801  -0.713  -1.397  1.00  0.00    -0.359 N 
ATOM     40  H6  UNL     1       8.145  -0.497  -2.332  1.00  0.00     0.162 HD
BRANCH  39  41
HETATM   41  C26 UNL     1       8.541  -1.633  -0.566  1.00  0.00     0.126 C 
BRANCH  41  42
HETATM   42  C27 UNL     1       9.786  -2.138  -1.278  1.00  0.00    -0.005 C 
HETATM   43  C28 UNL     1      10.529  -3.108  -0.383  1.00  0.00     0.011 C 
HETATM   44  C29 UNL     1      10.736  -0.984  -1.556  1.00  0.00     0.011 C 
ENDBRANCH  41  42
ENDBRANCH  39  41
ENDBRANCH  34  37
ENDBRANCH  29  30
ENDBRANCH  28  29
ENDBRANCH   3  28
BRANCH   3  45
HETATM   45  C30 UNL     1       0.300   1.029   2.211  1.00  0.00     0.134 C 
BRANCH  45  46
HETATM   46  C31 UNL     1       0.286   0.194   3.434  1.00  0.00    -0.035 C 
HETATM   47  C32 UNL     1      -0.862  -0.739   3.607  1.00  0.00     0.016 C 
HETATM   48  C33 UNL     1       1.574  -0.547   3.724  1.00  0.00     0.016 C 
HETATM   49  C34 UNL     1       0.170   1.199   4.615  1.00  0.00     0.016 C 
ENDBRANCH  45  46
ENDBRANCH   3  45
TORSDOF 16
