REMARK  16 active torsions:
REMARK  status: ('A' for Active; 'I' for Inactive)
REMARK    1  A    between atoms: C2_2  and  C3_3 
REMARK    2  A    between atoms: C3_3  and  C4_4 
REMARK    3  A    between atoms: C4_4  and  C5_5 
REMARK    4  A    between atoms: C5_5  and  C6_6 
REMARK       I    between atoms: C6_6  and  N1_8 
REMARK    5  A    between atoms: N1_8  and  C7_10 
REMARK    6  A    between atoms: C7_10  and  N2_11 
REMARK    7  A    between atoms: C7_10  and  C24_33 
REMARK       I    between atoms: N2_11  and  C8_13 
REMARK    8  A    between atoms: C8_13  and  C9_15 
REMARK    9  A    between atoms: C9_15  and  C10_16 
REMARK   10  A    between atoms: C9_15  and  N3_20 
REMARK   11  A    between atoms: C10_16  and  C11_17 
REMARK       I    between atoms: N3_20  and  C14_22 
REMARK   12  A    between atoms: C14_22  and  C15_24 
REMARK   13  A    between atoms: C15_24  and  C17_26 
REMARK   14  A    between atoms: C24_33  and  O4_34 
REMARK   15  A    between atoms: C24_33  and  C25_36 
REMARK       I    between atoms: C25_36  and  N4_38 
REMARK   16  A    between atoms: N4_38  and  C26_40 
ROOT
HETATM    1  C7  UNL     1      -0.488   0.953  -0.637  1.00  0.00     0.250 C 
ENDROOT
BRANCH   1   2
HETATM    2  N1  UNL     1       0.271   2.121  -0.116  1.00  0.00    -0.334 N 
HETATM    3  C6  UNL     1       0.076   3.378  -0.681  1.00  0.00     0.219 C 
HETATM    4  O1  UNL     1      -0.765   3.495  -1.632  1.00  0.00    -0.274 OA
ATOM      5  H1  UNL     1       0.932   2.001   0.652  1.00  0.00     0.165 HD
BRANCH   3   6
HETATM    6  C5  UNL     1       0.781   4.605  -0.250  1.00  0.00     0.103 C 
BRANCH   6   7
HETATM    7  C4  UNL     1       0.197   5.871  -0.789  1.00  0.00     0.009 C 
BRANCH   7   8
HETATM    8  C3  UNL     1      -1.247   6.104  -0.346  1.00  0.00     0.000 C 
BRANCH   8   9
HETATM    9  C2  UNL     1      -1.332   6.164   1.157  1.00  0.00    -0.005 C 
HETATM   10  C1  UNL     1      -2.740   6.409   1.608  1.00  0.00     0.005 C 
ENDBRANCH   8   9
ENDBRANCH   7   8
ENDBRANCH   6   7
ENDBRANCH   3   6
ENDBRANCH   1   2
BRANCH   1  11
HETATM   11  N2  UNL     1       0.339  -0.166  -0.834  1.00  0.00    -0.329 N 
HETATM   12  C8  UNL     1       1.534  -0.127  -1.643  1.00  0.00     0.266 C 
HETATM   13  O2  UNL     1       1.802   1.039  -2.111  1.00  0.00    -0.266 OA
ATOM     14  H2  UNL     1       0.083  -1.046  -0.385  1.00  0.00     0.165 HD
BRANCH  12  15
HETATM   15  C9  UNL     1       2.409  -1.220  -1.951  1.00  0.00     0.080 C 
BRANCH  15  16
HETATM   16  C10 UNL     1       1.923  -2.617  -2.028  1.00  0.00     0.067 C 
BRANCH  16  17
HETATM   17  C11 UNL     1       0.946  -2.937  -3.097  1.00  0.00    -0.017 C 
HETATM   18  C12 UNL     1       1.569  -2.634  -4.470  1.00  0.00     0.010 C 
HETATM   19  C13 UNL     1      -0.409  -2.388  -3.079  1.00  0.00     0.010 C 
ENDBRANCH  16  17
ENDBRANCH  15  16
BRANCH  15  20
HETATM   20  N3  UNL     1       3.820  -1.137  -1.728  1.00  0.00    -0.326 N 
HETATM   21  C14 UNL     1       4.755  -0.366  -2.446  1.00  0.00     0.226 C 
HETATM   22  O3  UNL     1       4.250   0.332  -3.376  1.00  0.00    -0.273 OA
ATOM     23  H3  UNL     1       4.191  -1.700  -0.962  1.00  0.00     0.168 HD
BRANCH  21  24
HETATM   24  C15 UNL     1       6.145  -0.359  -2.176  1.00  0.00     0.078 C 
HETATM   25  C16 UNL     1       6.796   0.646  -3.186  1.00  0.00     0.020 C 
BRANCH  24  26
HETATM   26  C17 UNL     1       6.807  -0.131  -0.914  1.00  0.00     0.003 C 
HETATM   27  C18 UNL     1       6.561  -1.021   0.272  1.00  0.00     0.010 C 
HETATM   28  C19 UNL     1       7.388  -0.223   1.318  1.00  0.00    -0.014 C 
HETATM   29  C20 UNL     1       8.668   0.306   0.779  1.00  0.00     0.005 C 
HETATM   30  C23 UNL     1       6.524   1.065   1.199  1.00  0.00     0.009 C 
HETATM   31  C21 UNL     1       8.327   1.559  -0.060  1.00  0.00     0.005 C 
HETATM   32  C22 UNL     1       6.834   1.240  -0.302  1.00  0.00    -0.009 C 
ENDBRANCH  24  26
ENDBRANCH  21  24
ENDBRANCH  15  20
ENDBRANCH  12  15
ENDBRANCH   1  11
BRANCH   1  33
HETATM   33  C24 UNL     1      -1.702   0.868   0.143  1.00  0.00     0.154 C 
BRANCH  33  34
HETATM   34  O4  UNL     1      -2.315   2.024   0.308  1.00  0.00    -0.357 OA
ATOM     35  H4  UNL     1      -3.113   1.968   0.821  1.00  0.00     0.217 HD
ENDBRANCH  33  34
BRANCH  33  36
HETATM   36  C25 UNL     1      -2.300  -0.284   0.740  1.00  0.00     0.274 C 
HETATM   37  O5  UNL     1      -1.720  -1.379   0.762  1.00  0.00    -0.266 OA
HETATM   38  N4  UNL     1      -3.581  -0.219   1.334  1.00  0.00    -0.350 N 
ATOM     39  H4  UNL     1      -4.041   0.690   1.280  1.00  0.00     0.163 HD
BRANCH  38  40
HETATM   40  C26 UNL     1      -4.318  -1.232   1.993  1.00  0.00     0.093 C 
HETATM   41  C27 UNL     1      -5.173  -0.812   3.115  1.00  0.00     0.030 C 
HETATM   42  C28 UNL     1      -6.631  -1.062   2.701  1.00  0.00    -0.011 C 
HETATM   43  C29 UNL     1      -7.153  -2.353   3.219  1.00  0.00     0.013 C 
HETATM   44  C36 UNL     1      -6.519  -1.191   1.184  1.00  0.00     0.016 C 
HETATM   45  C30 UNL     1      -6.447  -3.570   2.736  1.00  0.00    -0.047 C 
HETATM   46  C31 UNL     1      -5.894  -4.304   3.946  1.00  0.00     0.015 C 
HETATM   47  C32 UNL     1      -7.508  -4.504   2.138  1.00  0.00     0.015 C 
HETATM   48  C33 UNL     1      -5.406  -3.381   1.711  1.00  0.00     0.020 C 
HETATM   49  C34 UNL     1      -5.274  -2.014   1.098  1.00  0.00    -0.022 C 
HETATM   50  C35 UNL     1      -4.824  -2.124  -0.318  1.00  0.00     0.017 C 
ENDBRANCH  38  40
ENDBRANCH  33  36
ENDBRANCH   1  33
TORSDOF 16
