REMARK  16 active torsions:
REMARK  status: ('A' for Active; 'I' for Inactive)
REMARK    1  A    between atoms: C2_2  and  C3_3 
REMARK    2  A    between atoms: C10_11  and  C11_12 
REMARK    3  A    between atoms: C11_12  and  C12_13 
REMARK    4  A    between atoms: C13_16  and  C14_17 
REMARK    5  A    between atoms: C14_17  and  C15_18 
REMARK    6  A    between atoms: C15_18  and  C16_19 
REMARK    7  A    between atoms: C15_18  and  C23_26 
REMARK    8  A    between atoms: C16_19  and  C17_20 
REMARK    9  A    between atoms: C23_26  and  N3_27 
REMARK   10  A    between atoms: C25_30  and  C26_31 
REMARK   11  A    between atoms: C26_31  and  C27_32 
REMARK   12  A    between atoms: C27_32  and  C28_33 
REMARK   13  A    between atoms: C28_33  and  C29_34 
REMARK   14  A    between atoms: C29_34  and  N4_35 
REMARK       I    between atoms: N4_35  and  C30_37 
REMARK   15  A    between atoms: C31_44  and  C32_45 
REMARK   16  A    between atoms: C31_44  and  C34_47 
ROOT
HETATM    1  C15 UNL     1      -1.199  -0.860   0.325  1.00  0.00     0.007 C 
ENDROOT
BRANCH   1   2
HETATM    2  C14 UNL     1      -2.672  -0.776   0.316  1.00  0.00     0.036 C 
BRANCH   2   3
HETATM    3  C13 UNL     1      -3.342   0.521   0.519  1.00  0.00     0.113 C 
HETATM    4  C3  UNL     1      -4.869   0.382   0.544  1.00  0.00    -0.053 C 
HETATM    5  C4  UNL     1      -5.575   1.345  -0.368  1.00  0.00     0.023 C 
HETATM    6  C5  UNL     1      -5.666   2.666   0.350  1.00  0.00     0.019 C 
HETATM    7  C10 UNL     1      -5.076   1.444  -1.753  1.00  0.00     0.020 C 
HETATM    8  C6  UNL     1      -4.415   3.429   0.504  1.00  0.00     0.020 C 
HETATM    9  C7  UNL     1      -4.212   3.701   2.008  1.00  0.00     0.015 C 
HETATM   10  C8  UNL     1      -3.161   2.880  -0.024  1.00  0.00     0.063 C 
HETATM   11  N1  UNL     1      -3.089   1.538  -0.447  1.00  0.00    -0.384 N 
HETATM   12  C9  UNL     1      -3.568   1.280  -1.771  1.00  0.00     0.128 C 
BRANCH   4  13
HETATM   13  C2  UNL     1      -5.361  -0.990   0.537  1.00  0.00    -0.005 C 
HETATM   14  C1  UNL     1      -6.126  -1.608  -0.312  1.00  0.00     0.011 C 
ENDBRANCH   4  13
BRANCH   7  15
HETATM   15  C11 UNL     1      -5.517   2.672  -2.456  1.00  0.00     0.106 C 
BRANCH  15  16
HETATM   16  C12 UNL     1      -6.968   2.852  -2.630  1.00  0.00     0.231 C 
HETATM   17  N2  UNL     1      -7.528   4.014  -3.223  1.00  0.00    -0.062 NA
HETATM   18  O1  UNL     1      -7.756   1.950  -2.241  1.00  0.00    -0.277 OA
ENDBRANCH  15  16
ENDBRANCH   7  15
ENDBRANCH   2   3
ENDBRANCH   1   2
BRANCH   1  19
HETATM   19  C16 UNL     1      -0.711  -2.280   0.113  1.00  0.00     0.011 C 
BRANCH  19  20
HETATM   20  C17 UNL     1      -1.198  -3.255   1.151  1.00  0.00    -0.014 C 
HETATM   21  C18 UNL     1      -0.636  -4.618   0.793  1.00  0.00     0.005 C 
HETATM   22  C19 UNL     1       0.075  -5.266   1.961  1.00  0.00     0.000 C 
HETATM   23  C20 UNL     1      -0.920  -5.326   3.107  1.00  0.00     0.000 C 
HETATM   24  C21 UNL     1      -1.129  -3.905   3.569  1.00  0.00     0.000 C 
HETATM   25  C22 UNL     1      -0.724  -2.891   2.540  1.00  0.00     0.005 C 
ENDBRANCH  19  20
ENDBRANCH   1  19
BRANCH   1  26
HETATM   26  C23 UNL     1      -0.501   0.017  -0.649  1.00  0.00     0.140 C 
BRANCH  26  27
HETATM   27  N3  UNL     1       0.950  -0.066  -0.661  1.00  0.00    -0.284 N 
HETATM   28  C24 UNL     1       1.752   0.715   0.211  1.00  0.00     0.248 C 
HETATM   29  O2  UNL     1       1.367   1.021   1.340  1.00  0.00    -0.271 OA
HETATM   30  C25 UNL     1       3.100   1.130  -0.369  1.00  0.00     0.171 C 
HETATM   31  N7  UNL     1       3.797  -0.051  -0.703  1.00  0.00    -0.393 N 
HETATM   32  C31 UNL     1       3.101  -1.082  -1.405  1.00  0.00     0.108 C 
ATOM     33  H7  UNL     1       4.778  -0.166  -0.448  1.00  0.00     0.155 HD
HETATM   34  C36 UNL     1       1.655  -0.883  -1.581  1.00  0.00     0.254 C 
HETATM   35  O3  UNL     1       1.029  -1.437  -2.560  1.00  0.00    -0.270 OA
BRANCH  30  36
HETATM   36  C26 UNL     1       3.818   1.979   0.611  1.00  0.00     0.034 C 
BRANCH  36  37
HETATM   37  C27 UNL     1       5.142   2.510   0.203  1.00  0.00     0.004 C 
BRANCH  37  38
HETATM   38  C28 UNL     1       6.217   1.536  -0.122  1.00  0.00     0.020 C 
BRANCH  38  39
HETATM   39  C29 UNL     1       7.522   2.293  -0.471  1.00  0.00     0.122 C 
BRANCH  39  40
HETATM   40  N4  UNL     1       7.953   3.113   0.645  1.00  0.00    -0.365 N 
HETATM   41  C30 UNL     1       8.430   2.605   1.873  1.00  0.00     0.181 C 
HETATM   42  N5  UNL     1       8.524   3.374   2.902  1.00  0.00    -0.374 N 
HETATM   43  N6  UNL     1       8.825   1.236   2.037  1.00  0.00    -0.064 NA
ATOM     44  H52 UNL     1       8.243   4.348   2.785  1.00  0.00     0.158 HD
ATOM     45  H51 UNL     1       8.869   3.007   3.789  1.00  0.00     0.158 HD
ATOM     46  H4  UNL     1       7.908   4.126   0.535  1.00  0.00     0.162 HD
ENDBRANCH  39  40
ENDBRANCH  38  39
ENDBRANCH  37  38
ENDBRANCH  36  37
ENDBRANCH  30  36
BRANCH  32  47
HETATM   47  C32 UNL     1       3.377  -2.365  -0.633  1.00  0.00     0.036 C 
HETATM   48  C33 UNL     1       2.790  -3.598  -1.187  1.00  0.00     0.008 C 
ENDBRANCH  32  47
BRANCH  32  49
HETATM   49  C34 UNL     1       3.709  -1.259  -2.790  1.00  0.00     0.036 C 
HETATM   50  C35 UNL     1       5.150  -1.651  -2.747  1.00  0.00     0.008 C 
ENDBRANCH  32  49
ENDBRANCH  26  27
ENDBRANCH   1  26
TORSDOF 16
