REMARK  16 active torsions:
REMARK  status: ('A' for Active; 'I' for Inactive)
REMARK    1  A    between atoms: C2_2  and  C3_3 
REMARK    2  A    between atoms: C3_3  and  C4_4 
REMARK    3  A    between atoms: C4_4  and  N1_5 
REMARK       I    between atoms: N1_5  and  C5_7 
REMARK    4  A    between atoms: C5_7  and  C6_9 
REMARK    5  A    between atoms: C6_9  and  C7_10 
REMARK    6  A    between atoms: C6_9  and  N2_17 
REMARK    7  A    between atoms: C7_10  and  C8_11 
REMARK    8  A    between atoms: N2_17  and  C14_19 
REMARK    9  A    between atoms: C14_19  and  C15_20 
REMARK   10  A    between atoms: C14_19  and  C16_23 
REMARK   11  A    between atoms: C16_23  and  C17_24 
REMARK   12  A    between atoms: C16_23  and  C25_35 
REMARK   13  A    between atoms: C17_24  and  C18_25 
REMARK       I    between atoms: C18_25  and  N4_27 
REMARK   14  A    between atoms: N4_27  and  C19_29 
REMARK   15  A    between atoms: C25_35  and  C26_36 
REMARK   16  A    between atoms: C26_36  and  C27_38 
REMARK       I    between atoms: C27_38  and  N5_40 
ROOT
HETATM    1  C16 UNL     1       1.055   1.892   0.384  1.00  0.00     0.033 C 
ENDROOT
BRANCH   1   2
HETATM    2  C14 UNL     1       0.361   0.982  -0.596  1.00  0.00     0.176 C 
BRANCH   2   3
HETATM    3  N2  UNL     1      -1.035   0.896  -0.312  1.00  0.00    -0.372 N 
ATOM      4  H2  UNL     1      -1.496   1.620   0.240  1.00  0.00     0.160 HD
BRANCH   3   5
HETATM    5  C6  UNL     1      -1.775  -0.212  -0.808  1.00  0.00     0.097 C 
BRANCH   5   6
HETATM    6  C5  UNL     1      -1.540  -1.543  -0.291  1.00  0.00     0.267 C 
HETATM    7  N1  UNL     1      -2.554  -2.445   0.197  1.00  0.00    -0.356 N 
ATOM      8  H1  UNL     1      -3.528  -2.143   0.179  1.00  0.00     0.162 HD
HETATM    9  O1  UNL     1      -0.364  -2.020  -0.216  1.00  0.00    -0.266 OA
BRANCH   7  10
HETATM   10  C4  UNL     1      -2.245  -3.762   0.711  1.00  0.00     0.123 C 
BRANCH  10  11
HETATM   11  C3  UNL     1      -3.439  -4.533   1.137  1.00  0.00     0.019 C 
BRANCH  11  12
HETATM   12  C2  UNL     1      -4.260  -3.898   2.230  1.00  0.00    -0.003 C 
HETATM   13  C1  UNL     1      -5.444  -4.723   2.616  1.00  0.00     0.005 C 
ENDBRANCH  11  12
ENDBRANCH  10  11
ENDBRANCH   7  10
ENDBRANCH   5   6
BRANCH   5  14
HETATM   14  C7  UNL     1      -3.085   0.067  -1.418  1.00  0.00     0.037 C 
BRANCH  14  15
HETATM   15  C8  UNL     1      -3.506  -0.560  -2.666  1.00  0.00    -0.078 C 
HETATM   16  C9  UNL     1      -3.664  -1.983  -2.903  1.00  0.00     0.034 C 
HETATM   17  C10 UNL     1      -5.021  -2.554  -2.547  1.00  0.00     0.004 C 
HETATM   18  C11 UNL     1      -6.141  -1.707  -3.110  1.00  0.00     0.001 C 
HETATM   19  C12 UNL     1      -6.013  -0.272  -2.710  1.00  0.00     0.004 C 
HETATM   20  C13 UNL     1      -4.694   0.254  -3.210  1.00  0.00     0.034 C 
ENDBRANCH  14  15
ENDBRANCH   5  14
ENDBRANCH   3   5
ENDBRANCH   2   3
BRANCH   2  21
HETATM   21  C15 UNL     1       0.763   1.160  -1.969  1.00  0.00     0.254 C 
HETATM   22  N3  UNL     1       2.070   0.936  -2.509  1.00  0.00    -0.060 NA
HETATM   23  O2  UNL     1      -0.116   1.550  -2.820  1.00  0.00    -0.275 OA
ENDBRANCH   2  21
ENDBRANCH   1   2
BRANCH   1  24
HETATM   24  C17 UNL     1       0.547   3.274   0.508  1.00  0.00     0.110 C 
BRANCH  24  25
HETATM   25  C18 UNL     1       0.628   4.178  -0.627  1.00  0.00     0.218 C 
HETATM   26  O3  UNL     1       1.520   4.077  -1.498  1.00  0.00    -0.274 OA
HETATM   27  N4  UNL     1      -0.349   5.206  -0.736  1.00  0.00    -0.356 N 
ATOM     28  H4  UNL     1      -1.083   5.301  -0.034  1.00  0.00     0.162 HD
BRANCH  27  29
HETATM   29  C19 UNL     1      -0.283   6.109  -1.854  1.00  0.00     0.084 C 
HETATM   30  C20 UNL     1      -0.443   7.543  -1.477  1.00  0.00     0.025 C 
HETATM   31  C21 UNL     1      -1.607   8.193  -2.212  1.00  0.00     0.002 C 
HETATM   32  C22 UNL     1      -1.502   8.012  -3.715  1.00  0.00     0.000 C 
HETATM   33  C23 UNL     1      -1.100   6.620  -4.096  1.00  0.00     0.002 C 
HETATM   34  C24 UNL     1      -1.305   5.696  -2.922  1.00  0.00     0.025 C 
ENDBRANCH  27  29
ENDBRANCH  24  25
ENDBRANCH   1  24
BRANCH   1  35
HETATM   35  C25 UNL     1       1.341   1.330   1.727  1.00  0.00     0.096 C 
BRANCH  35  36
HETATM   36  C26 UNL     1       2.267   0.173   1.767  1.00  0.00     0.217 C 
HETATM   37  O4  UNL     1       2.831  -0.171   0.701  1.00  0.00    -0.287 OA
BRANCH  36  38
HETATM   38  C27 UNL     1       2.523  -0.553   3.017  1.00  0.00     0.289 C 
HETATM   39  O5  UNL     1       1.902  -0.148   4.055  1.00  0.00    -0.264 OA
HETATM   40  N5  UNL     1       3.396  -1.628   3.088  1.00  0.00    -0.346 N 
HETATM   41  C28 UNL     1       4.117  -2.117   1.956  1.00  0.00     0.127 C 
HETATM   42  C36 UNL     1       3.614  -2.312   4.357  1.00  0.00     0.127 C 
HETATM   43  C29 UNL     1       4.967  -3.332   2.308  1.00  0.00     0.029 C 
HETATM   44  C30 UNL     1       5.788  -3.127   3.555  1.00  0.00    -0.037 C 
HETATM   45  C31 UNL     1       6.139  -4.492   4.107  1.00  0.00     0.010 C 
HETATM   46  C34 UNL     1       7.102  -2.480   3.176  1.00  0.00     0.010 C 
HETATM   47  C35 UNL     1       5.113  -2.320   4.611  1.00  0.00     0.029 C 
HETATM   48  C32 UNL     1       7.453  -4.870   3.457  1.00  0.00     0.001 C 
HETATM   49  C33 UNL     1       8.148  -3.566   3.138  1.00  0.00     0.001 C 
ENDBRANCH  36  38
ENDBRANCH  35  36
ENDBRANCH   1  35
TORSDOF 16
