REMARK  16 active torsions:
REMARK  status: ('A' for Active; 'I' for Inactive)
REMARK    1  A    between atoms: C2_2  and  C3_3 
REMARK    2  A    between atoms: C3_3  and  C5_5 
REMARK    3  A    between atoms: C5_5  and  N1_6 
REMARK    4  A    between atoms: C5_5  and  C20_28 
REMARK       I    between atoms: N1_6  and  C6_8 
REMARK    5  A    between atoms: C6_8  and  C7_10 
REMARK    6  A    between atoms: C7_10  and  N2_12 
REMARK       I    between atoms: N2_12  and  C9_14 
REMARK    7  A    between atoms: C9_14  and  C10_16 
REMARK    8  A    between atoms: C12_18  and  O3_19 
REMARK       I    between atoms: C20_28  and  N3_30 
REMARK    9  A    between atoms: N3_30  and  C21_32 
REMARK   10  A    between atoms: C21_32  and  C22_33 
REMARK   11  A    between atoms: C21_32  and  C27_38 
REMARK   12  A    between atoms: C22_33  and  C23_34 
REMARK   13  A    between atoms: C23_34  and  C24_35 
REMARK       I    between atoms: C27_38  and  N4_40 
REMARK   14  A    between atoms: N4_40  and  C28_41 
REMARK   15  A    between atoms: N4_40  and  C32_45 
REMARK   16  A    between atoms: C28_41  and  C29_42 
ROOT
HETATM    1  C5  UNL     1      -0.230  -1.155   0.703  1.00  0.00     0.180 C 
ENDROOT
BRANCH   1   2
HETATM    2  C3  UNL     1      -0.252  -2.406   1.578  1.00  0.00     0.013 C 
HETATM    3  C4  UNL     1       0.826  -3.355   1.167  1.00  0.00     0.012 C 
BRANCH   2   4
HETATM    4  C2  UNL     1      -0.383  -2.156   3.032  1.00  0.00     0.002 C 
HETATM    5  C1  UNL     1       0.805  -1.594   3.732  1.00  0.00     0.005 C 
ENDBRANCH   2   4
ENDBRANCH   1   2
BRANCH   1   6
HETATM    6  N1  UNL     1       0.872  -0.284   1.046  1.00  0.00    -0.346 N 
HETATM    7  C6  UNL     1       2.073  -0.194   0.346  1.00  0.00     0.240 C 
HETATM    8  O1  UNL     1       2.272  -0.911  -0.660  1.00  0.00    -0.271 OA
ATOM      9  H1  UNL     1       0.761   0.312   1.866  1.00  0.00     0.163 HD
BRANCH   7  10
HETATM   10  C7  UNL     1       3.123   0.744   0.775  1.00  0.00     0.172 C 
HETATM   11  C8  UNL     1       2.613   2.184   0.772  1.00  0.00     0.042 C 
BRANCH  10  12
HETATM   12  N2  UNL     1       4.313   0.659  -0.054  1.00  0.00    -0.348 N 
HETATM   13  C9  UNL     1       5.586   0.578   0.534  1.00  0.00     0.222 C 
HETATM   14  O2  UNL     1       5.707   0.587   1.795  1.00  0.00    -0.273 OA
ATOM     15  H2  UNL     1       4.223   0.658  -1.070  1.00  0.00     0.163 HD
BRANCH  13  16
HETATM   16  C10 UNL     1       6.822   0.478  -0.272  1.00  0.00     0.080 C 
HETATM   17  C11 UNL     1       6.830   1.466  -1.416  1.00  0.00     0.046 C 
HETATM   18  C12 UNL     1       8.032   1.099  -2.275  1.00  0.00     0.123 C 
HETATM   19  C13 UNL     1       9.323   1.231  -1.524  1.00  0.00     0.018 C 
HETATM   20  C14 UNL     1      10.061  -0.088  -1.581  1.00  0.00     0.007 C 
HETATM   21  C18 UNL     1       9.041   1.649  -0.098  1.00  0.00    -0.007 C 
HETATM   22  C15 UNL     1      11.396   0.121  -0.881  1.00  0.00     0.000 C 
HETATM   23  C16 UNL     1      11.120   0.424   0.563  1.00  0.00     0.000 C 
HETATM   24  C17 UNL     1      10.313   1.694   0.724  1.00  0.00     0.005 C 
HETATM   25  C19 UNL     1       8.040   0.770   0.590  1.00  0.00     0.019 C 
BRANCH  18  26
HETATM   26  O3  UNL     1       8.021   1.861  -3.456  1.00  0.00    -0.395 OA
ATOM     27  H3  UNL     1       8.771   1.632  -3.992  1.00  0.00     0.210 HD
ENDBRANCH  18  26
ENDBRANCH  13  16
ENDBRANCH  10  12
ENDBRANCH   7  10
ENDBRANCH   1   6
BRANCH   1  28
HETATM   28  C20 UNL     1      -1.522  -0.477   0.685  1.00  0.00     0.241 C 
HETATM   29  O4  UNL     1      -1.709   0.438   1.543  1.00  0.00    -0.271 OA
HETATM   30  N3  UNL     1      -2.593  -0.735  -0.197  1.00  0.00    -0.346 N 
ATOM     31  H3  UNL     1      -2.487  -1.457  -0.910  1.00  0.00     0.163 HD
BRANCH  30  32
HETATM   32  C21 UNL     1      -3.859   0.011  -0.114  1.00  0.00     0.177 C 
BRANCH  32  33
HETATM   33  C22 UNL     1      -3.842   1.061  -1.229  1.00  0.00     0.035 C 
BRANCH  33  34
HETATM   34  C23 UNL     1      -3.723   0.393  -2.584  1.00  0.00     0.006 C 
BRANCH  34  35
HETATM   35  C24 UNL     1      -3.693   1.487  -3.642  1.00  0.00    -0.023 C 
HETATM   36  C25 UNL     1      -2.514   2.403  -3.407  1.00  0.00     0.009 C 
HETATM   37  C26 UNL     1      -4.956   2.319  -3.576  1.00  0.00     0.009 C 
ENDBRANCH  34  35
ENDBRANCH  33  34
ENDBRANCH  32  33
BRANCH  32  38
HETATM   38  C27 UNL     1      -4.941  -0.948  -0.218  1.00  0.00     0.246 C 
HETATM   39  O5  UNL     1      -4.697  -2.117  -0.710  1.00  0.00    -0.271 OA
HETATM   40  N4  UNL     1      -6.321  -0.756   0.177  1.00  0.00    -0.325 N 
BRANCH  40  41
HETATM   41  C28 UNL     1      -7.200  -1.823  -0.136  1.00  0.00     0.071 C 
BRANCH  41  42
HETATM   42  C29 UNL     1      -7.349  -3.005   0.706  1.00  0.00     0.016 C 
HETATM   43  C30 UNL     1      -7.828  -2.912   2.094  1.00  0.00     0.015 C 
HETATM   44  C31 UNL     1      -8.348  -3.942  -0.029  1.00  0.00     0.015 C 
ENDBRANCH  41  42
ENDBRANCH  40  41
BRANCH  40  45
HETATM   45  C32 UNL     1      -6.670   0.510   0.757  1.00  0.00     0.092 C 
HETATM   46  C33 UNL     1      -7.671   1.250  -0.066  1.00  0.00     0.026 C 
HETATM   47  C34 UNL     1      -8.607   1.903   0.904  1.00  0.00     0.002 C 
HETATM   48  C35 UNL     1      -8.659   0.869   2.044  1.00  0.00     0.002 C 
HETATM   49  C36 UNL     1      -7.158   0.535   2.155  1.00  0.00     0.026 C 
ENDBRANCH  40  45
ENDBRANCH  32  38
ENDBRANCH  30  32
ENDBRANCH   1  28
TORSDOF 16
