REMARK  17 active torsions:
REMARK  status: ('A' for Active; 'I' for Inactive)
REMARK    1  A    between atoms: C3_3  and  C4_4 
REMARK    2  A    between atoms: C6_8  and  C7_9 
REMARK    3  A    between atoms: C7_9  and  C8_10 
REMARK    4  A    between atoms: C7_9  and  N6_39 
REMARK    5  A    between atoms: C8_10  and  C9_11 
REMARK       I    between atoms: C9_11  and  N2_13 
REMARK    6  A    between atoms: C12_16  and  C13_17 
REMARK       I    between atoms: C13_17  and  N3_19 
REMARK    7  A    between atoms: N3_19  and  C14_21 
REMARK    8  A    between atoms: C14_21  and  C16_23 
REMARK       I    between atoms: C16_23  and  N4_25 
REMARK    9  A    between atoms: C19_28  and  C20_29 
REMARK   10  A    between atoms: C20_29  and  C21_30 
REMARK   11  A    between atoms: C21_30  and  N5_31 
REMARK   12  A    between atoms: N6_39  and  C26_42 
REMARK   13  A    between atoms: C26_42  and  C27_43 
REMARK   14  A    between atoms: C27_43  and  C28_44 
REMARK   15  A    between atoms: C28_44  and  C29_45 
REMARK   16  A    between atoms: C29_45  and  C30_46 
REMARK   17  A    between atoms: C30_46  and  C31_47 
ROOT
HETATM    1  C1  UNL     1      -6.341  -6.861   2.792  1.00  0.00     0.112 C 
HETATM    2  C2  UNL     1      -5.451  -5.896   2.106  1.00  0.00    -0.105 C 
HETATM    3  C3  UNL     1      -4.731  -5.119   1.524  1.00  0.00    -0.066 C 
ENDROOT
BRANCH   3   4
HETATM    4  C4  UNL     1      -3.877  -4.202   0.803  1.00  0.00     0.035 A 
HETATM    5  C5  UNL     1      -2.631  -4.424   0.259  1.00  0.00     0.108 A 
HETATM    6  N1  UNL     1      -2.189  -3.300  -0.337  1.00  0.00    -0.366 N 
HETATM    7  C6  UNL     1      -3.098  -2.309  -0.217  1.00  0.00     0.041 A 
ATOM      8  H1  UNL     1      -1.292  -3.210  -0.813  1.00  0.00     0.165 HD
HETATM    9  C37 UNL     1      -4.153  -2.869   0.494  1.00  0.00     0.049 A 
BRANCH   7  10
HETATM   10  C7  UNL     1      -2.985  -0.932  -0.754  1.00  0.00     0.244 C 
BRANCH  10  11
HETATM   11  C8  UNL     1      -2.561   0.076   0.269  1.00  0.00     0.142 C 
BRANCH  11  12
HETATM   12  C9  UNL     1      -1.226  -0.255   0.837  1.00  0.00     0.222 C 
HETATM   13  O1  UNL     1      -1.220  -0.924   1.904  1.00  0.00    -0.273 OA
HETATM   14  N2  UNL     1      -0.077   0.181   0.173  1.00  0.00    -0.342 N 
HETATM   15  C10 UNL     1       0.225   0.924  -1.026  1.00  0.00     0.090 C 
HETATM   16  C24 UNL     1       1.351   0.102   0.360  1.00  0.00     0.102 C 
HETATM   17  C11 UNL     1       0.864  -0.156  -1.873  1.00  0.00     0.041 C 
HETATM   18  C25 UNL     1       1.403   1.486  -0.262  1.00  0.00     0.051 C 
HETATM   19  C12 UNL     1       1.764  -0.768  -0.771  1.00  0.00     0.103 C 
BRANCH  19  20
HETATM   20  C13 UNL     1       3.197  -0.585  -1.140  1.00  0.00     0.224 C 
HETATM   21  O2  UNL     1       3.435  -0.179  -2.299  1.00  0.00    -0.273 OA
HETATM   22  N3  UNL     1       4.200  -0.861  -0.222  1.00  0.00    -0.348 N 
ATOM     23  H3  UNL     1       3.891  -1.167   0.701  1.00  0.00     0.163 HD
BRANCH  22  24
HETATM   24  C14 UNL     1       5.616  -0.768  -0.413  1.00  0.00     0.172 C 
HETATM   25  C15 UNL     1       5.921  -0.826  -1.909  1.00  0.00     0.042 C 
BRANCH  24  26
HETATM   26  C16 UNL     1       6.177   0.392   0.266  1.00  0.00     0.242 C 
HETATM   27  O3  UNL     1       5.327   1.157   0.856  1.00  0.00    -0.271 OA
HETATM   28  N4  UNL     1       7.538   0.778   0.353  1.00  0.00    -0.350 N 
HETATM   29  C17 UNL     1       7.810   2.015   1.056  1.00  0.00     0.126 C 
HETATM   30  C23 UNL     1       8.554  -0.070  -0.240  1.00  0.00     0.126 C 
HETATM   31  C18 UNL     1       9.243   2.232   1.437  1.00  0.00     0.024 C 
HETATM   32  C19 UNL     1      10.115   1.706   0.343  1.00  0.00    -0.010 C 
HETATM   33  C22 UNL     1       9.941   0.203   0.336  1.00  0.00     0.024 C 
BRANCH  32  34
HETATM   34  C20 UNL     1      11.530   2.139   0.363  1.00  0.00     0.032 C 
BRANCH  34  35
HETATM   35  C21 UNL     1      12.330   1.783   1.567  1.00  0.00     0.230 C 
BRANCH  35  36
HETATM   36  N5  UNL     1      12.434   0.365   1.815  1.00  0.00    -0.079 N 
ATOM     37  H53 UNL     1      11.506  -0.056   1.867  1.00  0.00     0.274 HD
ATOM     38  H52 UNL     1      12.798  -0.115   0.992  1.00  0.00     0.274 HD
ATOM     39  H51 UNL     1      12.982   0.121   2.640  1.00  0.00     0.274 HD
ENDBRANCH  35  36
ENDBRANCH  34  35
ENDBRANCH  32  34
ENDBRANCH  24  26
ENDBRANCH  22  24
ENDBRANCH  19  20
ENDBRANCH  11  12
ENDBRANCH  10  11
BRANCH  10  40
HETATM   40  N6  UNL     1      -4.220  -0.474  -1.371  1.00  0.00    -0.065 N 
ATOM     41  H62 UNL     1      -5.012  -0.600  -0.741  1.00  0.00     0.278 HD
ATOM     42  H61 UNL     1      -4.234   0.543  -1.452  1.00  0.00     0.278 HD
BRANCH  40  43
HETATM   43  C26 UNL     1      -4.466  -1.091  -2.632  1.00  0.00     0.233 C 
BRANCH  43  44
HETATM   44  C27 UNL     1      -5.711  -0.643  -3.289  1.00  0.00     0.027 C 
BRANCH  44  45
HETATM   45  C28 UNL     1      -6.992  -0.875  -2.599  1.00  0.00     0.002 C 
BRANCH  45  46
HETATM   46  C29 UNL     1      -7.228  -0.228  -1.289  1.00  0.00     0.000 C 
BRANCH  46  47
HETATM   47  C30 UNL     1      -7.190   1.271  -1.322  1.00  0.00     0.004 C 
BRANCH  47  48
HETATM   48  C31 UNL     1      -7.452   1.796   0.078  1.00  0.00    -0.014 C 
HETATM   49  C32 UNL     1      -8.807   1.324   0.528  1.00  0.00     0.004 C 
HETATM   50  C33 UNL     1      -9.487   2.410   1.324  1.00  0.00     0.000 C 
HETATM   51  C34 UNL     1      -8.470   3.047   2.236  1.00  0.00     0.000 C 
HETATM   52  C35 UNL     1      -7.516   3.860   1.403  1.00  0.00     0.000 C 
HETATM   53  C36 UNL     1      -7.407   3.313  -0.005  1.00  0.00     0.004 C 
ENDBRANCH  47  48
ENDBRANCH  46  47
ENDBRANCH  45  46
ENDBRANCH  44  45
ENDBRANCH  43  44
ENDBRANCH  40  43
ENDBRANCH  10  40
ENDBRANCH   7  10
ENDBRANCH   3   4
TORSDOF 17
