REMARK  15 active torsions:
REMARK  status: ('A' for Active; 'I' for Inactive)
REMARK    1  A    between atoms: C2_2  and  C3_3 
REMARK    2  A    between atoms: C3_3  and  C4_4 
REMARK    3  A    between atoms: C4_4  and  N1_5 
REMARK       I    between atoms: N1_5  and  C5_7 
REMARK    4  A    between atoms: C5_7  and  C6_9 
REMARK    5  A    between atoms: C6_9  and  C7_10 
REMARK    6  A    between atoms: C7_10  and  C8_11 
REMARK    7  A    between atoms: C8_11  and  C9_12 
REMARK    8  A    between atoms: C9_12  and  C10_13 
REMARK    9  A    between atoms: C10_13  and  C11_14 
REMARK   10  A    between atoms: C11_14  and  C12_15 
REMARK   11  A    between atoms: C12_15  and  N2_16 
REMARK       I    between atoms: N2_16  and  C13_18 
REMARK       I    between atoms: C13_18  and  N3_20 
REMARK   12  A    between atoms: C16_23  and  N4_24 
REMARK       I    between atoms: N4_24  and  C17_26 
REMARK   13  A    between atoms: C17_26  and  C18_28 
REMARK   14  A    between atoms: C21_31  and  C22_32 
REMARK   15  A    between atoms: C22_32  and  N5_33 
ROOT
HETATM    1  N2  UNL     1       2.960   0.980  -1.356  1.00  0.00    -0.343 N 
ATOM      2  H2  UNL     1       2.525   0.309  -1.989  1.00  0.00     0.164 HD
HETATM    3  C13 UNL     1       2.592   0.983   0.007  1.00  0.00     0.325 C 
HETATM    4  O2  UNL     1       3.117   1.790   0.835  1.00  0.00    -0.247 OA
HETATM    5  N3  UNL     1       1.597   0.053   0.460  1.00  0.00    -0.270 N 
HETATM    6  C14 UNL     1       0.985  -0.869  -0.477  1.00  0.00     0.139 C 
HETATM    7  C15 UNL     1      -0.403  -1.262   0.005  1.00  0.00     0.046 C 
HETATM    8  C16 UNL     1      -0.967  -0.137   0.865  1.00  0.00     0.095 C 
HETATM    9  C35 UNL     1      -0.248  -0.067   2.171  1.00  0.00     0.128 C 
HETATM   10  C36 UNL     1       1.215   0.027   1.823  1.00  0.00     0.229 C 
HETATM   11  O4  UNL     1       2.115   0.084   2.709  1.00  0.00    -0.273 OA
ENDROOT
BRANCH   8  12
HETATM   12  N4  UNL     1      -2.371  -0.283   0.971  1.00  0.00    -0.352 N 
HETATM   13  C17 UNL     1      -3.213   0.726   0.429  1.00  0.00     0.252 C 
HETATM   14  O3  UNL     1      -2.671   1.717  -0.116  1.00  0.00    -0.268 OA
ATOM     15  H4  UNL     1      -2.773  -1.101   1.430  1.00  0.00     0.163 HD
BRANCH  13  16
HETATM   16  C18 UNL     1      -4.656   0.583   0.511  1.00  0.00     0.032 A 
HETATM   17  C19 UNL     1      -5.337   0.445  -0.700  1.00  0.00     0.017 A 
HETATM   18  C20 UNL     1      -6.699   0.312  -0.698  1.00  0.00     0.011 A 
HETATM   19  C21 UNL     1      -7.405   0.315   0.512  1.00  0.00    -0.020 A 
HETATM   20  C33 UNL     1      -6.756   0.449   1.695  1.00  0.00     0.011 A 
HETATM   21  C34 UNL     1      -5.388   0.581   1.678  1.00  0.00     0.017 A 
BRANCH  19  22
HETATM   22  C22 UNL     1      -8.908   0.139   0.358  1.00  0.00     0.186 C 
HETATM   23  C27 UNL     1      -9.251   1.067  -0.778  1.00  0.00     0.047 C 
HETATM   24  C28 UNL     1     -10.460   1.913  -0.561  1.00  0.00     0.003 C 
HETATM   25  C29 UNL     1     -10.412   2.773   0.663  1.00  0.00     0.000 C 
HETATM   26  C30 UNL     1     -11.297   2.132   1.687  1.00  0.00     0.000 C 
HETATM   27  C31 UNL     1     -10.966   0.656   1.742  1.00  0.00     0.003 C 
HETATM   28  C32 UNL     1      -9.507   0.450   1.657  1.00  0.00     0.047 C 
BRANCH  22  29
HETATM   29  N5  UNL     1      -9.017  -1.201  -0.124  1.00  0.00     0.106 N 
HETATM   30  C23 UNL     1     -10.294  -1.629  -0.604  1.00  0.00     0.301 C 
HETATM   31  C24 UNL     1      -9.999  -2.810  -1.546  1.00  0.00     0.262 C 
HETATM   32  N6  UNL     1      -8.586  -3.139  -1.563  1.00  0.00    -0.072 N 
HETATM   33  C25 UNL     1      -8.031  -3.343  -0.256  1.00  0.00     0.262 C 
ATOM     34  H62 UNL     1      -8.410  -3.947  -2.160  1.00  0.00     0.277 HD
ATOM     35  H61 UNL     1      -8.057  -2.432  -2.074  1.00  0.00     0.277 HD
HETATM   36  C26 UNL     1      -8.478  -2.238   0.697  1.00  0.00     0.301 C 
ENDBRANCH  22  29
ENDBRANCH  19  22
ENDBRANCH  13  16
ENDBRANCH   8  12
BRANCH   1  37
HETATM   37  C12 UNL     1       3.927   1.895  -1.867  1.00  0.00     0.124 C 
BRANCH  37  38
HETATM   38  C11 UNL     1       5.286   1.759  -1.261  1.00  0.00     0.020 C 
BRANCH  38  39
HETATM   39  C10 UNL     1       5.896   0.409  -1.458  1.00  0.00     0.002 C 
BRANCH  39  40
HETATM   40  C9  UNL     1       7.305   0.295  -0.894  1.00  0.00     0.000 C 
BRANCH  40  41
HETATM   41  C8  UNL     1       8.233   1.268  -1.566  1.00  0.00     0.000 C 
BRANCH  41  42
HETATM   42  C7  UNL     1       9.637   1.159  -1.057  1.00  0.00     0.009 C 
BRANCH  42  43
HETATM   43  C6  UNL     1      10.218  -0.197  -1.273  1.00  0.00     0.103 C 
BRANCH  43  44
HETATM   44  C5  UNL     1      11.676  -0.185  -0.786  1.00  0.00     0.221 C 
HETATM   45  N1  UNL     1      12.377  -1.382  -0.856  1.00  0.00    -0.337 N 
ATOM     46  H1  UNL     1      11.821  -2.152  -1.228  1.00  0.00     0.168 HD
HETATM   47  O1  UNL     1      12.134   0.893  -0.365  1.00  0.00    -0.273 OA
BRANCH  45  48
HETATM   48  C4  UNL     1      13.689  -1.757  -0.523  1.00  0.00     0.087 C 
BRANCH  48  49
HETATM   49  C3  UNL     1      14.204  -1.699   0.844  1.00  0.00    -0.010 C 
BRANCH  49  50
HETATM   50  C2  UNL     1      14.367  -0.432   1.569  1.00  0.00     0.024 C 
HETATM   51  C1  UNL     1      15.349   0.528   0.892  1.00  0.00     0.009 C 
ENDBRANCH  49  50
ENDBRANCH  48  49
ENDBRANCH  45  48
ENDBRANCH  43  44
ENDBRANCH  42  43
ENDBRANCH  41  42
ENDBRANCH  40  41
ENDBRANCH  39  40
ENDBRANCH  38  39
ENDBRANCH  37  38
ENDBRANCH   1  37
TORSDOF 15
