REMARK  19 active torsions:
REMARK  status: ('A' for Active; 'I' for Inactive)
REMARK    1  A    between atoms: C2_2  and  C3_3 
REMARK    2  A    between atoms: C3_3  and  C4_4 
REMARK    3  A    between atoms: C4_4  and  C5_5 
REMARK    4  A    between atoms: C5_5  and  C6_6 
REMARK    5  A    between atoms: C6_6  and  C7_7 
REMARK    6  A    between atoms: C7_7  and  O2_9 
REMARK    7  A    between atoms: O2_9  and  C8_10 
REMARK    8  A    between atoms: C8_10  and  C9_11 
REMARK    9  A    between atoms: C9_11  and  C10_12 
REMARK   10  A    between atoms: C10_12  and  C11_13 
REMARK   11  A    between atoms: N1_15  and  C13_16 
REMARK   12  A    between atoms: C13_16  and  C14_17 
REMARK   13  A    between atoms: N2_20  and  C17_21 
REMARK   14  A    between atoms: C20_29  and  N5_30 
REMARK       I    between atoms: N5_30  and  C21_32 
REMARK   15  A    between atoms: C21_32  and  C22_34 
REMARK   16  A    between atoms: C22_34  and  C23_35 
REMARK   17  A    between atoms: C22_34  and  N6_41 
REMARK   18  A    between atoms: C23_35  and  C24_36 
REMARK       I    between atoms: N6_41  and  C29_43 
REMARK       I    between atoms: C29_43  and  N7_45 
REMARK   19  A    between atoms: N7_45  and  C30_47 
ROOT
HETATM    1  C11 UNL     1       0.012   0.946  -2.823  1.00  0.00     0.004 A 
HETATM    2  C12 UNL     1      -0.034   2.317  -2.832  1.00  0.00     0.121 A 
HETATM    3  N1  UNL     1      -0.816   2.720  -1.819  1.00  0.00    -0.301 N 
HETATM    4  N4  UNL     1      -1.254   1.666  -1.186  1.00  0.00    -0.283 N 
ATOM      5  H4  UNL     1      -1.870   1.692  -0.373  1.00  0.00     0.189 HD
HETATM    6  C20 UNL     1      -0.787   0.553  -1.747  1.00  0.00     0.130 A 
ENDROOT
BRANCH   6   7
HETATM    7  N5  UNL     1      -0.989  -0.677  -1.431  1.00  0.00    -0.310 N 
HETATM    8  C21 UNL     1      -1.766  -1.166  -0.376  1.00  0.00     0.246 C 
HETATM    9  O3  UNL     1      -1.889  -0.497   0.702  1.00  0.00    -0.271 OA
ATOM     10  H5  UNL     1      -0.530  -1.375  -2.016  1.00  0.00     0.170 HD
BRANCH   8  11
HETATM   11  C22 UNL     1      -2.480  -2.474  -0.455  1.00  0.00     0.179 C 
BRANCH  11  12
HETATM   12  C23 UNL     1      -3.216  -2.635  -1.753  1.00  0.00     0.039 C 
BRANCH  12  13
HETATM   13  C24 UNL     1      -4.239  -1.598  -2.033  1.00  0.00    -0.012 C 
HETATM   14  C25 UNL     1      -4.928  -1.865  -3.384  1.00  0.00     0.005 C 
HETATM   15  C26 UNL     1      -6.023  -0.820  -3.332  1.00  0.00     0.000 C 
HETATM   16  C27 UNL     1      -6.533  -0.947  -1.911  1.00  0.00     0.000 C 
HETATM   17  C28 UNL     1      -5.372  -1.473  -1.097  1.00  0.00     0.005 C 
ENDBRANCH  12  13
ENDBRANCH  11  12
BRANCH  11  18
HETATM   18  N6  UNL     1      -3.215  -2.793   0.722  1.00  0.00    -0.330 N 
HETATM   19  C29 UNL     1      -2.961  -3.957   1.519  1.00  0.00     0.322 C 
HETATM   20  O4  UNL     1      -2.038  -4.717   1.128  1.00  0.00    -0.247 OA
HETATM   21  N7  UNL     1      -3.665  -4.296   2.689  1.00  0.00    -0.295 N 
ATOM     22  H7  UNL     1      -3.447  -3.817   3.563  1.00  0.00     0.172 HD
ATOM     23  H6  UNL     1      -3.961  -2.161   1.013  1.00  0.00     0.165 HD
BRANCH  21  24
HETATM   24  C30 UNL     1      -4.586  -5.207   2.673  1.00  0.00     0.108 A 
HETATM   25  C31 UNL     1      -4.897  -5.873   1.482  1.00  0.00     0.049 A 
HETATM   26  C32 UNL     1      -5.893  -6.846   1.506  1.00  0.00     0.005 A 
HETATM   27  C33 UNL     1      -6.555  -7.143   2.678  1.00  0.00     0.017 A 
HETATM   28  C34 UNL     1      -6.232  -6.472   3.848  1.00  0.00     0.089 A 
HETATM   29  N8  UNL     1      -5.272  -5.553   3.765  1.00  0.00    -0.352 N 
ATOM     30  H8  UNL     1      -5.036  -5.061   4.627  1.00  0.00     0.166 HD
ENDBRANCH  21  24
ENDBRANCH  11  18
ENDBRANCH   8  11
ENDBRANCH   6   7
BRANCH   1  31
HETATM   31  C10 UNL     1       0.737   0.072  -3.768  1.00  0.00     0.046 C 
BRANCH  31  32
HETATM   32  C9  UNL     1       1.944  -0.572  -3.160  1.00  0.00     0.031 C 
BRANCH  32  33
HETATM   33  C8  UNL     1       2.938   0.438  -2.677  1.00  0.00     0.179 C 
BRANCH  33  34
HETATM   34  O2  UNL     1       4.067  -0.208  -2.092  1.00  0.00    -0.321 OA
BRANCH  34  35
HETATM   35  C7  UNL     1       5.082   0.557  -1.586  1.00  0.00     0.258 C 
HETATM   36  O1  UNL     1       5.055   1.802  -1.623  1.00  0.00    -0.265 OA
BRANCH  35  37
HETATM   37  C6  UNL     1       6.273  -0.128  -0.962  1.00  0.00     0.111 C 
BRANCH  37  38
HETATM   38  C5  UNL     1       6.069  -0.150   0.531  1.00  0.00     0.010 C 
BRANCH  38  39
HETATM   39  C4  UNL     1       7.200  -0.834   1.211  1.00  0.00     0.000 C 
BRANCH  39  40
HETATM   40  C3  UNL     1       8.497  -0.138   0.942  1.00  0.00    -0.000 C 
BRANCH  40  41
HETATM   41  C2  UNL     1       9.654  -0.837   1.654  1.00  0.00    -0.005 C 
HETATM   42  C1  UNL     1       9.388  -0.824   3.140  1.00  0.00     0.005 C 
ENDBRANCH  40  41
ENDBRANCH  39  40
ENDBRANCH  38  39
ENDBRANCH  37  38
ENDBRANCH  35  37
ENDBRANCH  34  35
ENDBRANCH  33  34
ENDBRANCH  32  33
ENDBRANCH  31  32
ENDBRANCH   1  31
BRANCH   3  43
HETATM   43  C13 UNL     1      -1.081   4.127  -1.570  1.00  0.00     0.154 C 
BRANCH  43  44
HETATM   44  C14 UNL     1      -0.070   4.740  -0.644  1.00  0.00     0.025 C 
HETATM   45  C15 UNL     1      -0.394   6.217  -0.416  1.00  0.00     0.028 C 
HETATM   46  C16 UNL     1       0.217   6.481   0.927  1.00  0.00     0.124 C 
HETATM   47  N2  UNL     1       0.019   5.253   1.641  1.00  0.00    -0.371 N 
HETATM   48  C19 UNL     1      -0.134   4.134   0.737  1.00  0.00     0.130 C 
BRANCH  47  49
HETATM   49  C17 UNL     1      -0.024   5.141   3.059  1.00  0.00     0.068 C 
HETATM   50  C18 UNL     1       0.680   6.127   3.938  1.00  0.00     0.088 C 
HETATM   51  N3  UNL     1      -0.673   4.185   3.613  1.00  0.00    -0.389 N 
ATOM     52  H32 UNL     1      -1.153   3.513   3.014  1.00  0.00     0.157 HD
ATOM     53  H31 UNL     1      -0.704   4.105   4.629  1.00  0.00     0.157 HD
ENDBRANCH  47  49
ENDBRANCH  43  44
ENDBRANCH   3  43
TORSDOF 19
