REMARK  10 active torsions:
REMARK  status: ('A' for Active; 'I' for Inactive)
REMARK    1  A    between atoms: C4_4  and  C5_5 
REMARK    2  A    between atoms: C5_5  and  N1_6 
REMARK    3  A    between atoms: N1_6  and  C6_8 
REMARK    4  A    between atoms: C7_11  and  N3_12 
REMARK    5  A    between atoms: N3_12  and  C8_14 
REMARK    6  A    between atoms: C8_14  and  N4_15 
REMARK    7  A    between atoms: C9_21  and  N6_22 
REMARK    8  A    between atoms: N6_22  and  C10_24 
REMARK    9  A    between atoms: C10_24  and  C11_25 
REMARK   10  A    between atoms: C11_25  and  O1_26 
ROOT
HETATM    1  C6  UNL     1       0.594   0.052   0.367  1.00  0.00     0.707 A 
HETATM    2  N2  UNL     1       0.273   1.327   0.622  1.00  0.00    -0.021 N 
ATOM      3  H2  UNL     1       0.995   2.005   0.864  1.00  0.00     0.203 HD
HETATM    4  C7  UNL     1      -1.039   1.704   0.553  1.00  0.00     0.708 A 
HETATM    5  N5  UNL     1      -2.009   0.846   0.241  1.00  0.00    -0.021 N 
ATOM      6  H5  UNL     1      -2.982   1.149   0.195  1.00  0.00     0.203 HD
HETATM    7  C9  UNL     1      -1.669  -0.438  -0.013  1.00  0.00     0.707 A 
HETATM    8  N7  UNL     1      -0.386  -0.830   0.048  1.00  0.00    -0.022 N 
ATOM      9  H7  UNL     1      -0.146  -1.802  -0.148  1.00  0.00     0.203 HD
ENDROOT
BRANCH   1  10
HETATM   10  N1  UNL     1       1.830  -0.302   0.432  1.00  0.00    -0.219 N 
ATOM     11  H1  UNL     1       2.527   0.401   0.676  1.00  0.00     0.178 HD
BRANCH  10  12
HETATM   12  C5  UNL     1       2.273  -1.658   0.173  1.00  0.00     0.205 C 
BRANCH  12  13
HETATM   13  C4  UNL     1       3.754  -1.673  -0.025  1.00  0.00     0.096 A 
HETATM   14  C3  UNL     1       4.640  -0.633   0.016  1.00  0.00     0.063 A 
HETATM   15  C2  UNL     1       5.882  -1.189  -0.232  1.00  0.00     0.031 A 
HETATM   16  C1  UNL     1       7.193  -0.483  -0.297  1.00  0.00     0.070 C 
HETATM   17  N8  UNL     1       5.703  -2.504  -0.407  1.00  0.00    -0.266 N 
HETATM   18  O2  UNL     1       4.439  -2.759  -0.280  1.00  0.00    -0.241 OA
ATOM     19  H8  UNL     1       6.434  -3.187  -0.606  1.00  0.00     0.194 HD
ENDBRANCH  12  13
ENDBRANCH  10  12
ENDBRANCH   1  10
BRANCH   4  20
HETATM   20  N3  UNL     1      -1.286   2.929   0.805  1.00  0.00    -0.201 N 
ATOM     21  H3  UNL     1      -0.513   3.551   1.039  1.00  0.00     0.179 HD
BRANCH  20  22
HETATM   22  C8  UNL     1      -2.625   3.461   0.769  1.00  0.00     0.368 C 
BRANCH  22  23
HETATM   23  N4  UNL     1      -3.022   3.587  -0.622  1.00  0.00    -0.063 N 
ATOM     24  H43 UNL     1      -2.364   4.139  -1.171  1.00  0.00     0.276 HD
ATOM     25  H42 UNL     1      -2.931   2.712  -1.139  1.00  0.00     0.276 HD
ATOM     26  H41 UNL     1      -3.970   3.964  -0.647  1.00  0.00     0.276 HD
ENDBRANCH  22  23
ENDBRANCH  20  22
ENDBRANCH   4  20
BRANCH   7  27
HETATM   27  N6  UNL     1      -2.574  -1.281  -0.314  1.00  0.00    -0.223 N 
ATOM     28  H6  UNL     1      -2.312  -2.248  -0.505  1.00  0.00     0.177 HD
BRANCH  27  29
HETATM   29  C10 UNL     1      -3.953  -0.901  -0.390  1.00  0.00     0.164 C 
BRANCH  29  30
HETATM   30  C11 UNL     1      -4.816  -2.141  -0.605  1.00  0.00     0.184 C 
BRANCH  30  31
HETATM   31  O1  UNL     1      -6.142  -1.730  -0.673  1.00  0.00    -0.399 OA
ATOM     32  H1  UNL     1      -6.679  -2.502  -0.807  1.00  0.00     0.209 HD
ENDBRANCH  30  31
ENDBRANCH  29  30
ENDBRANCH  27  29
ENDBRANCH   7  27
TORSDOF 10
