REMARK  7 active torsions:
REMARK  status: ('A' for Active; 'I' for Inactive)
REMARK    1  A    between atoms: N1_1  and  C1_4 
REMARK    2  A    between atoms: C2_7  and  C3_8 
REMARK    3  A    between atoms: C3_8  and  C4_9 
REMARK    4  A    between atoms: C4_9  and  C5_10 
REMARK    5  A    between atoms: C5_10  and  C6_11 
REMARK    6  A    between atoms: C6_11  and  N3_12 
REMARK    7  A    between atoms: C10_25  and  N7_26 
ROOT
HETATM    1  C1  UNL     1      -4.454  -1.047  -0.566  1.00  0.00     0.691 A 
HETATM    2  N2  UNL     1      -3.134  -0.784  -0.595  1.00  0.00    -0.180 N 
ATOM      3  H2  UNL     1      -2.510  -1.453  -1.045  1.00  0.00     0.185 HD
HETATM    4  C2  UNL     1      -2.605   0.335  -0.049  1.00  0.00     0.113 A 
HETATM    5  N6  UNL     1      -3.479   1.183   0.532  1.00  0.00    -0.180 N 
ATOM      6  H6  UNL     1      -3.128   2.041   0.957  1.00  0.00     0.185 HD
HETATM    7  C10 UNL     1      -4.799   0.931   0.567  1.00  0.00     0.691 A 
HETATM    8  N8  UNL     1      -5.305  -0.185   0.019  1.00  0.00    -0.023 N 
ATOM      9  H8  UNL     1      -6.307  -0.374   0.045  1.00  0.00     0.203 HD
ENDROOT
BRANCH   4  10
HETATM   10  C3  UNL     1      -1.146   0.614  -0.087  1.00  0.00     0.077 C 
BRANCH  10  11
HETATM   11  C4  UNL     1      -0.468  -0.511  -0.795  1.00  0.00     0.009 C 
BRANCH  11  12
HETATM   12  C5  UNL     1       1.025  -0.337  -0.895  1.00  0.00     0.021 C 
BRANCH  12  13
HETATM   13  C6  UNL     1       1.651  -0.245   0.497  1.00  0.00     0.139 C 
BRANCH  13  14
HETATM   14  N3  UNL     1       3.084  -0.078   0.401  1.00  0.00    -0.251 N 
HETATM   15  C7  UNL     1       3.671   1.138   0.338  1.00  0.00     0.334 A 
HETATM   16  O1  UNL     1       2.950   2.149   0.364  1.00  0.00    -0.246 OA
HETATM   17  N4  UNL     1       5.002   1.272   0.250  1.00  0.00    -0.260 N 
HETATM   18  C8  UNL     1       5.807   0.219   0.219  1.00  0.00     0.332 A 
ATOM     19  H4  UNL     1       5.406   2.208   0.206  1.00  0.00     0.175 HD
HETATM   20  O2  UNL     1       7.067   0.369   0.135  1.00  0.00    -0.246 OA
HETATM   21  N5  UNL     1       5.258  -1.007   0.280  1.00  0.00    -0.260 N 
HETATM   22  C9  UNL     1       3.922  -1.146   0.369  1.00  0.00     0.334 A 
ATOM     23  H5  UNL     1       5.855  -1.834   0.259  1.00  0.00     0.175 HD
HETATM   24  O3  UNL     1       3.391  -2.285   0.427  1.00  0.00    -0.246 OA
ENDBRANCH  13  14
ENDBRANCH  12  13
ENDBRANCH  11  12
ENDBRANCH  10  11
ENDBRANCH   4  10
BRANCH   1  25
HETATM   25  N1  UNL     1      -4.933  -2.140  -1.104  1.00  0.00    -0.234 N 
ATOM     26  H12 UNL     1      -4.288  -2.794  -1.548  1.00  0.00     0.174 HD
ATOM     27  H11 UNL     1      -5.933  -2.339  -1.082  1.00  0.00     0.174 HD
ENDBRANCH   1  25
BRANCH   7  28
HETATM   28  N7  UNL     1      -5.570   1.789   1.140  1.00  0.00    -0.234 N 
ATOM     29  H72 UNL     1      -5.185   2.637   1.556  1.00  0.00     0.174 HD
ATOM     30  H71 UNL     1      -6.572   1.598   1.167  1.00  0.00     0.174 HD
ENDBRANCH   7  28
TORSDOF 7
