REMARK  6 active torsions:
REMARK  status: ('A' for Active; 'I' for Inactive)
REMARK    1  A    between atoms: N2_3  and  C2_5 
REMARK    2  A    between atoms: C2_5  and  C3_6 
REMARK    3  A    between atoms: C5_11  and  C6_12 
REMARK    4  A    between atoms: C6_12  and  C7_13 
REMARK    5  A    between atoms: C7_13  and  N4_14 
REMARK    6  A    between atoms: N4_14  and  C8_16 
ROOT
HETATM    1  N1  UNL     1      -6.288   0.424   2.364  1.00  0.00    -0.172 NA
HETATM    2  C1  UNL     1      -5.996   0.578   1.245  1.00  0.00     0.177 C 
HETATM    3  N2  UNL     1      -5.678   0.779  -0.088  1.00  0.00    -0.326 N 
ATOM      4  H2  UNL     1      -6.154   1.552  -0.553  1.00  0.00     0.171 HD
ENDROOT
BRANCH   3   5
HETATM    5  C2  UNL     1      -4.760   0.028  -0.888  1.00  0.00     0.166 C 
BRANCH   5   6
HETATM    6  C3  UNL     1      -3.317   0.202  -0.530  1.00  0.00     0.195 C 
HETATM    7  N3  UNL     1      -3.038  -0.237   0.789  1.00  0.00    -0.346 N 
HETATM    8  C4  UNL     1      -1.743  -0.075   1.430  1.00  0.00     0.224 C 
ATOM      9  H3  UNL     1      -3.785  -0.690   1.316  1.00  0.00     0.163 HD
HETATM   10  O1  UNL     1      -1.765   0.099   2.673  1.00  0.00    -0.273 OA
HETATM   11  C5  UNL     1      -0.422  -0.093   0.796  1.00  0.00     0.097 C 
HETATM   12  C11 UNL     1      -0.303  -1.098  -0.312  1.00  0.00     0.136 C 
HETATM   13  N7  UNL     1      -1.035  -0.723  -1.495  1.00  0.00    -0.358 N 
HETATM   14  C12 UNL     1      -2.416  -0.403  -1.546  1.00  0.00     0.242 C 
ATOM     15  H7  UNL     1      -0.515  -0.684  -2.372  1.00  0.00     0.162 HD
HETATM   16  O2  UNL     1      -2.978  -0.673  -2.627  1.00  0.00    -0.271 OA
BRANCH  11  17
HETATM   17  C6  UNL     1       0.096   1.255   0.398  1.00  0.00     0.035 C 
BRANCH  17  18
HETATM   18  C7  UNL     1       1.461   1.163  -0.256  1.00  0.00     0.123 C 
BRANCH  18  19
HETATM   19  N4  UNL     1       2.407   0.572   0.674  1.00  0.00    -0.362 N 
ATOM     20  H4  UNL     1       2.107   0.329   1.618  1.00  0.00     0.162 HD
BRANCH  19  21
HETATM   21  C8  UNL     1       3.757   0.329   0.272  1.00  0.00     0.171 C 
HETATM   22  N5  UNL     1       4.420   1.056  -0.590  1.00  0.00    -0.361 N 
HETATM   23  C9  UNL     1       5.757   0.529  -0.765  1.00  0.00     0.142 C 
ATOM     24  H5  UNL     1       4.049   1.876  -1.070  1.00  0.00     0.162 HD
HETATM   25  C10 UNL     1       5.944  -0.271   0.506  1.00  0.00     0.142 C 
HETATM   26  N6  UNL     1       4.585  -0.722   0.738  1.00  0.00    -0.361 N 
ATOM     27  H6  UNL     1       4.289  -1.607   1.149  1.00  0.00     0.162 HD
ENDBRANCH  19  21
ENDBRANCH  18  19
ENDBRANCH  17  18
ENDBRANCH  11  17
ENDBRANCH   5   6
ENDBRANCH   3   5
TORSDOF 6
