REMARK  6 active torsions:
REMARK  status: ('A' for Active; 'I' for Inactive)
REMARK    1  A    between atoms: C2_3  and  O1_4 
REMARK    2  A    between atoms: C2_3  and  C3_6 
REMARK    3  A    between atoms: C2_3  and  C7_14 
REMARK    4  A    between atoms: C3_6  and  C4_7 
REMARK    5  A    between atoms: C4_7  and  C5_8 
REMARK    6  A    between atoms: C5_8  and  N2_9 
ROOT
HETATM    1  N1  UNL     1      -0.043  -3.345   0.071  1.00  0.00    -0.194 NA
HETATM    2  C1  UNL     1      -0.497  -2.333  -0.314  1.00  0.00     0.103 C 
HETATM    3  C2  UNL     1      -1.051  -1.050  -0.844  1.00  0.00     0.182 C 
ENDROOT
BRANCH   3   4
HETATM    4  O1  UNL     1      -1.663  -1.446  -2.071  1.00  0.00    -0.371 OA
ATOM      5  H1  UNL     1      -2.015  -0.631  -2.408  1.00  0.00     0.212 HD
ENDBRANCH   3   4
BRANCH   3   6
HETATM    6  C3  UNL     1       0.119  -0.206  -1.195  1.00  0.00     0.061 C 
BRANCH   6   7
HETATM    7  C4  UNL     1       1.017   0.088  -0.009  1.00  0.00     0.024 C 
BRANCH   7   8
HETATM    8  C5  UNL     1       2.151   0.952  -0.541  1.00  0.00     0.122 C 
BRANCH   8   9
HETATM    9  N2  UNL     1       3.084   1.306   0.493  1.00  0.00    -0.367 N 
HETATM   10  C6  UNL     1       3.978   0.467   0.858  1.00  0.00     0.196 C 
HETATM   11  N3  UNL     1       4.025  -0.802   0.227  1.00  0.00    -0.067 NA
HETATM   12  N4  UNL     1       4.888   0.818   1.870  1.00  0.00    -0.067 NA
ATOM     13  H2  UNL     1       3.034   2.224   0.935  1.00  0.00     0.161 HD
ENDBRANCH   8   9
ENDBRANCH   7   8
ENDBRANCH   6   7
ENDBRANCH   3   6
BRANCH   3  14
HETATM   14  C7  UNL     1      -2.082  -0.467  -0.015  1.00  0.00     0.100 A 
HETATM   15  C8  UNL     1      -2.785   0.636  -0.489  1.00  0.00     0.136 A 
HETATM   16  N5  UNL     1      -2.504   1.134  -1.785  1.00  0.00    -0.082 NA
HETATM   17  N6  UNL     1      -3.738   1.228   0.252  1.00  0.00    -0.296 N 
HETATM   18  C9  UNL     1      -4.065   0.798   1.475  1.00  0.00     0.328 A 
ATOM     19  H6  UNL     1      -4.229   2.035  -0.133  1.00  0.00     0.171 HD
HETATM   20  O2  UNL     1      -4.969   1.366   2.168  1.00  0.00    -0.247 OA
HETATM   21  N7  UNL     1      -3.413  -0.261   1.971  1.00  0.00    -0.275 N 
HETATM   22  C10 UNL     1      -2.433  -0.891   1.241  1.00  0.00     0.263 A 
ATOM     23  H7  UNL     1      -3.646  -0.605   2.903  1.00  0.00     0.173 HD
HETATM   24  O3  UNL     1      -1.845  -1.877   1.736  1.00  0.00    -0.267 OA
ENDBRANCH   3  14
TORSDOF 6
