REMARK  6 active torsions:
REMARK  status: ('A' for Active; 'I' for Inactive)
REMARK    1  A    between atoms: N1_1  and  C1_4 
REMARK    2  A    between atoms: N5_18  and  C6_19 
REMARK    3  A    between atoms: C6_19  and  O3_20 
REMARK    4  A    between atoms: O3_20  and  C7_21 
REMARK    5  A    between atoms: C7_21  and  C8_22 
REMARK    6  A    between atoms: C8_22  and  C9_23 
ROOT
HETATM    1  C1  UNL     1      -2.296  -0.417  -2.005  1.00  0.00     0.679 A 
HETATM    2  N2  UNL     1      -3.370   0.213  -1.559  1.00  0.00    -0.176 N 
ATOM      3  H2  UNL     1      -4.108   0.478  -2.211  1.00  0.00     0.186 HD
HETATM    4  C2  UNL     1      -3.502   0.516  -0.213  1.00  0.00     0.134 A 
HETATM    5  N3  UNL     1      -4.532   1.112   0.164  1.00  0.00    -0.384 N 
ATOM      6  H31 UNL     1      -4.629   1.335   1.155  1.00  0.00     0.157 HD
ATOM      7  H32 UNL     1      -5.265   1.374  -0.496  1.00  0.00     0.157 HD
HETATM    8  C3  UNL     1      -2.507   0.160   0.683  1.00  0.00     0.121 A 
HETATM    9  C4  UNL     1      -2.569   0.406   2.034  1.00  0.00     0.267 A 
HETATM   10  O1  UNL     1      -3.561   0.997   2.509  1.00  0.00    -0.267 OA
HETATM   11  N4  UNL     1      -1.567   0.018   2.880  1.00  0.00    -0.274 N 
ATOM     12  H4  UNL     1      -1.638   0.212   3.879  1.00  0.00     0.173 HD
HETATM   13  C5  UNL     1      -0.504  -0.610   2.400  1.00  0.00     0.332 A 
HETATM   14  O2  UNL     1       0.427  -0.974   3.164  1.00  0.00    -0.246 OA
HETATM   15  N5  UNL     1      -0.428  -0.861   1.053  1.00  0.00    -0.262 N 
HETATM   16  C10 UNL     1      -1.384  -0.502   0.190  1.00  0.00     0.148 A 
HETATM   17  N7  UNL     1      -1.342  -0.753  -1.119  1.00  0.00    -0.175 N 
ATOM     18  H7  UNL     1      -0.520  -1.239  -1.477  1.00  0.00     0.186 HD
ENDROOT
BRANCH  15  19
HETATM   19  C6  UNL     1       0.754  -1.555   0.607  1.00  0.00     0.305 C 
BRANCH  19  20
HETATM   20  O3  UNL     1       1.814  -0.696   0.427  1.00  0.00    -0.371 OA
BRANCH  20  21
HETATM   21  C7  UNL     1       1.735   0.331  -0.429  1.00  0.00     0.178 C 
BRANCH  21  22
HETATM   22  C8  UNL     1       3.079   1.079  -0.364  1.00  0.00     0.126 C 
BRANCH  22  23
HETATM   23  C9  UNL     1       4.185   0.178  -0.746  1.00  0.00     0.233 C 
HETATM   24  N6  UNL     1       5.499   0.707  -0.740  1.00  0.00    -0.062 NA
HETATM   25  O4  UNL     1       3.974  -1.012  -1.063  1.00  0.00    -0.277 OA
ENDBRANCH  22  23
ENDBRANCH  21  22
ENDBRANCH  20  21
ENDBRANCH  19  20
ENDBRANCH  15  19
BRANCH   1  26
HETATM   26  N1  UNL     1      -2.163  -0.708  -3.280  1.00  0.00    -0.234 N 
ATOM     27  H12 UNL     1      -2.887  -0.453  -3.952  1.00  0.00     0.174 HD
ATOM     28  H11 UNL     1      -1.335  -1.194  -3.624  1.00  0.00     0.174 HD
ENDBRANCH   1  26
TORSDOF 6
