REMARK  8 active torsions:
REMARK  status: ('A' for Active; 'I' for Inactive)
REMARK    1  A    between atoms: C3_5  and  C4_6 
REMARK    2  A    between atoms: C4_6  and  N2_7 
REMARK    3  A    between atoms: N4_14  and  C6_16 
REMARK    4  A    between atoms: C6_16  and  C7_17 
REMARK    5  A    between atoms: C9_21  and  N6_22 
REMARK    6  A    between atoms: N6_22  and  C10_24 
REMARK    7  A    between atoms: C10_24  and  C11_25 
REMARK    8  A    between atoms: C11_25  and  O1_26 
ROOT
HETATM    1  C1  UNL     1      -5.933  -0.099   0.449  1.00  0.00     0.064 C 
HETATM    2  C2  UNL     1      -4.894   0.678   0.225  1.00  0.00     0.112 A 
HETATM    3  N1  UNL     1      -5.095   2.066   0.050  1.00  0.00    -0.331 N 
ATOM      4  H1  UNL     1      -6.042   2.443   0.101  1.00  0.00     0.168 HD
HETATM    5  C3  UNL     1      -4.093   2.881  -0.177  1.00  0.00     0.124 A 
HETATM    6  N3  UNL     1      -2.753   2.433  -0.262  1.00  0.00    -0.179 N 
ATOM      7  H3  UNL     1      -2.003   3.101  -0.440  1.00  0.00     0.185 HD
HETATM    8  C5  UNL     1      -2.449   1.037  -0.098  1.00  0.00     0.681 A 
HETATM    9  N4  UNL     1      -1.236   0.611  -0.172  1.00  0.00    -0.225 N 
ATOM     10  H4  UNL     1      -0.467   1.257  -0.349  1.00  0.00     0.177 HD
HETATM   11  N8  UNL     1      -3.568   0.176   0.149  1.00  0.00    -0.178 N 
ATOM     12  H8  UNL     1      -3.408  -0.824   0.273  1.00  0.00     0.185 HD
ENDROOT
BRANCH   9  13
HETATM   13  C6  UNL     1      -0.987  -0.803   0.001  1.00  0.00     0.146 C 
BRANCH  13  14
HETATM   14  C7  UNL     1       0.493  -1.111   0.046  1.00  0.00     0.041 C 
HETATM   15  C8  UNL     1       1.195  -0.694  -1.216  1.00  0.00     0.146 C 
HETATM   16  N5  UNL     1       2.575  -1.077  -1.118  1.00  0.00    -0.226 N 
HETATM   17  C9  UNL     1       3.043  -2.036  -0.386  1.00  0.00     0.669 C 
ATOM     18  H5  UNL     1       3.246  -0.547  -1.674  1.00  0.00     0.177 HD
HETATM   19  N7  UNL     1       2.132  -2.791   0.400  1.00  0.00    -0.226 N 
HETATM   20  C12 UNL     1       0.715  -2.601   0.189  1.00  0.00     0.146 C 
ATOM     21  H7  UNL     1       2.471  -3.453   1.098  1.00  0.00     0.177 HD
BRANCH  17  22
HETATM   22  N6  UNL     1       4.436  -2.343  -0.356  1.00  0.00    -0.225 N 
ATOM     23  H6  UNL     1       4.760  -3.308  -0.412  1.00  0.00     0.177 HD
BRANCH  22  24
HETATM   24  C10 UNL     1       5.372  -1.254  -0.245  1.00  0.00     0.164 C 
BRANCH  24  25
HETATM   25  C11 UNL     1       6.805  -1.736  -0.228  1.00  0.00     0.184 C 
BRANCH  25  26
HETATM   26  O1  UNL     1       7.635  -0.608  -0.118  1.00  0.00    -0.399 OA
ATOM     27  H1  UNL     1       8.535  -0.911  -0.107  1.00  0.00     0.209 HD
ENDBRANCH  25  26
ENDBRANCH  24  25
ENDBRANCH  22  24
ENDBRANCH  17  22
ENDBRANCH  13  14
ENDBRANCH   9  13
BRANCH   5  28
HETATM   28  C4  UNL     1      -4.399   4.328  -0.348  1.00  0.00     0.306 C 
BRANCH  28  29
HETATM   29  N2  UNL     1      -3.684   5.062   0.688  1.00  0.00    -0.073 N 
ATOM     30  H23 UNL     1      -3.891   4.723   1.627  1.00  0.00     0.274 HD
ATOM     31  H22 UNL     1      -2.683   4.867   0.691  1.00  0.00     0.274 HD
ATOM     32  H21 UNL     1      -3.894   6.053   0.571  1.00  0.00     0.274 HD
ENDBRANCH  28  29
ENDBRANCH   5  28
TORSDOF 8
