REMARK  14 active torsions:
REMARK  status: ('A' for Active; 'I' for Inactive)
REMARK    1  A    between atoms: N1_1  and  C1_5 
REMARK    2  A    between atoms: C1_5  and  C2_6 
REMARK    3  A    between atoms: C2_6  and  C3_7 
REMARK    4  A    between atoms: C3_7  and  N2_8 
REMARK    5  A    between atoms: N2_8  and  C4_11 
REMARK    6  A    between atoms: C4_11  and  C5_12 
REMARK    7  A    between atoms: C6_14  and  C7_15 
REMARK    8  A    between atoms: N3_19  and  C11_20 
REMARK    9  A    between atoms: C11_20  and  C12_21 
REMARK   10  A    between atoms: C12_21  and  C13_22 
REMARK   11  A    between atoms: C13_22  and  C14_23 
REMARK   12  A    between atoms: C14_23  and  C15_24 
REMARK   13  A    between atoms: C15_24  and  C16_25 
REMARK   14  A    between atoms: N6_35  and  N7_37 
ROOT
HETATM    1  C5  UNL     1      -3.088   0.617   0.857  1.00  0.00     0.194 C 
HETATM    2  O1  UNL     1      -1.734   0.601   0.475  1.00  0.00    -0.371 OA
HETATM    3  C6  UNL     1      -1.148   1.802   0.902  1.00  0.00     0.156 C 
HETATM    4  C19 UNL     1      -1.466   1.932   2.403  1.00  0.00     0.040 C 
HETATM    5  C20 UNL     1      -2.848   2.581   2.437  1.00  0.00     0.059 C 
HETATM    6  C21 UNL     1      -3.552   1.972   1.251  1.00  0.00     0.033 C 
HETATM    7  N6  UNL     1      -4.475   2.623   0.666  1.00  0.00    -0.313 N 
ATOM      8  H6  UNL     1      -4.949   2.208  -0.136  1.00  0.00     0.185 HD
ENDROOT
BRANCH   3   9
HETATM    9  C7  UNL     1       0.332   1.797   0.777  1.00  0.00     0.251 C 
HETATM   10  C8  UNL     1       0.877   3.193   1.004  1.00  0.00     0.040 C 
HETATM   11  C9  UNL     1       0.855   3.887  -0.365  1.00  0.00     0.032 C 
HETATM   12  C10 UNL     1       0.516   2.744  -1.260  1.00  0.00     0.273 C 
HETATM   13  N3  UNL     1       0.794   1.549  -0.577  1.00  0.00     0.095 N 
BRANCH  13  14
HETATM   14  C11 UNL     1       2.128   1.082  -0.531  1.00  0.00     0.273 C 
BRANCH  14  15
HETATM   15  C12 UNL     1       2.786   0.773  -1.817  1.00  0.00     0.030 C 
BRANCH  15  16
HETATM   16  C13 UNL     1       4.206   0.288  -1.634  1.00  0.00     0.002 C 
BRANCH  16  17
HETATM   17  C14 UNL     1       4.284  -0.970  -0.806  1.00  0.00     0.006 C 
BRANCH  17  18
HETATM   18  C15 UNL     1       5.744  -1.406  -0.667  1.00  0.00     0.058 C 
BRANCH  18  19
HETATM   19  C16 UNL     1       5.822  -2.641   0.146  1.00  0.00     0.025 A 
HETATM   20  C17 UNL     1       5.960  -2.773   1.515  1.00  0.00     0.113 A 
HETATM   21  N4  UNL     1       5.988  -4.092   1.837  1.00  0.00    -0.360 N 
HETATM   22  C18 UNL     1       5.868  -4.787   0.679  1.00  0.00     0.180 A 
ATOM     23  H4  UNL     1       6.082  -4.486   2.773  1.00  0.00     0.166 HD
HETATM   24  N5  UNL     1       5.769  -3.909  -0.328  1.00  0.00    -0.355 N 
ATOM     25  H5  UNL     1       5.668  -4.160  -1.312  1.00  0.00     0.166 HD
ENDBRANCH  18  19
ENDBRANCH  17  18
ENDBRANCH  16  17
ENDBRANCH  15  16
ENDBRANCH  14  15
ENDBRANCH  13  14
ENDBRANCH   3   9
BRANCH   1  26
HETATM   26  C4  UNL     1      -3.972   0.140  -0.272  1.00  0.00     0.270 C 
BRANCH  26  27
HETATM   27  N2  UNL     1      -3.674  -1.195  -0.688  1.00  0.00    -0.072 N 
ATOM     28  H22 UNL     1      -2.697  -1.279  -0.970  1.00  0.00     0.277 HD
ATOM     29  H21 UNL     1      -4.123  -1.408  -1.579  1.00  0.00     0.277 HD
BRANCH  27  30
HETATM   30  C3  UNL     1      -4.011  -2.187   0.311  1.00  0.00     0.234 C 
BRANCH  30  31
HETATM   31  C2  UNL     1      -3.677  -3.578  -0.174  1.00  0.00     0.055 C 
BRANCH  31  32
HETATM   32  C1  UNL     1      -4.427  -3.934  -1.432  1.00  0.00     0.231 C 
BRANCH  32  33
HETATM   33  N1  UNL     1      -4.092  -3.005  -2.486  1.00  0.00    -0.079 N 
ATOM     34  H13 UNL     1      -4.251  -2.037  -2.207  1.00  0.00     0.274 HD
ATOM     35  H12 UNL     1      -3.086  -2.951  -2.643  1.00  0.00     0.274 HD
ATOM     36  H11 UNL     1      -4.600  -3.246  -3.337  1.00  0.00     0.274 HD
ENDBRANCH  32  33
ENDBRANCH  31  32
ENDBRANCH  30  31
ENDBRANCH  27  30
ENDBRANCH  26  27
ENDBRANCH   1  26
BRANCH   7  37
HETATM   37  N7  UNL     1      -4.846   3.874   1.094  1.00  0.00    -0.345 N 
ATOM     38  H72 UNL     1      -4.362   4.274   1.898  1.00  0.00     0.176 HD
ATOM     39  H71 UNL     1      -5.586   4.396   0.625  1.00  0.00     0.176 HD
ENDBRANCH   7  37
TORSDOF 14
