REMARK  18 active torsions:
REMARK  status: ('A' for Active; 'I' for Inactive)
REMARK    1  A    between atoms: O1_1  and  C1_3 
REMARK    2  A    between atoms: C1_3  and  C2_4 
REMARK    3  A    between atoms: C3_6  and  O3_7 
REMARK    4  A    between atoms: O3_7  and  C4_8 
REMARK    5  A    between atoms: C4_8  and  C5_9 
REMARK    6  A    between atoms: C5_9  and  C6_10 
REMARK    7  A    between atoms: C6_10  and  C7_11 
REMARK    8  A    between atoms: C7_11  and  C8_12 
REMARK    9  A    between atoms: C8_12  and  C9_13 
REMARK   10  A    between atoms: C9_13  and  C10_14 
REMARK   11  A    between atoms: C10_14  and  C11_15 
REMARK   12  A    between atoms: C11_15  and  C12_16 
REMARK   13  A    between atoms: C12_16  and  C13_17 
REMARK   14  A    between atoms: C13_17  and  N1_18 
REMARK   15  A    between atoms: N1_18  and  C14_19 
REMARK   16  A    between atoms: C19_24  and  O4_25 
REMARK   17  A    between atoms: C20_27  and  O5_28 
REMARK   18  A    between atoms: C21_30  and  O6_31 
ROOT
HETATM    1  O3  UNL     1      -3.354  -0.390  -0.898  1.00  0.00    -0.359 OA
ENDROOT
BRANCH   1   2
HETATM    2  C3  UNL     1      -4.471  -0.359  -0.104  1.00  0.00     0.291 C 
HETATM    3  O2  UNL     1      -4.385  -1.342   0.899  1.00  0.00    -0.348 OA
HETATM    4  C2  UNL     1      -5.457  -1.175   1.756  1.00  0.00     0.179 C 
HETATM    5  C21 UNL     1      -6.692  -1.702   1.063  1.00  0.00     0.180 C 
HETATM    6  C20 UNL     1      -6.910  -0.839  -0.160  1.00  0.00     0.183 C 
HETATM    7  C19 UNL     1      -5.666  -0.723  -0.979  1.00  0.00     0.204 C 
BRANCH   4   8
HETATM    8  C1  UNL     1      -5.273  -1.886   3.063  1.00  0.00     0.198 C 
BRANCH   8   9
HETATM    9  O1  UNL     1      -6.400  -1.663   3.858  1.00  0.00    -0.398 OA
ATOM     10  H1  UNL     1      -6.283  -2.114   4.686  1.00  0.00     0.209 HD
ENDBRANCH   8   9
ENDBRANCH   4   8
BRANCH   5  11
HETATM   11  O6  UNL     1      -6.590  -3.014   0.670  1.00  0.00    -0.390 OA
ATOM     12  H6  UNL     1      -7.366  -3.345   0.234  1.00  0.00     0.210 HD
ENDBRANCH   5  11
BRANCH   6  13
HETATM   13  O5  UNL     1      -7.431   0.404   0.228  1.00  0.00    -0.390 OA
ATOM     14  H5  UNL     1      -8.222   0.330   0.749  1.00  0.00     0.210 HD
ENDBRANCH   6  13
BRANCH   7  15
HETATM   15  O4  UNL     1      -5.446  -1.897  -1.669  1.00  0.00    -0.388 OA
ATOM     16  H4  UNL     1      -6.190  -2.124  -2.214  1.00  0.00     0.210 HD
ENDBRANCH   7  15
ENDBRANCH   1   2
BRANCH   1  17
HETATM   17  C4  UNL     1      -2.651   0.784  -0.995  1.00  0.00     0.171 C 
BRANCH  17  18
HETATM   18  C5  UNL     1      -2.133   1.257   0.341  1.00  0.00     0.026 C 
BRANCH  18  19
HETATM   19  C6  UNL     1      -1.364   2.539   0.240  1.00  0.00     0.002 C 
BRANCH  19  20
HETATM   20  C7  UNL     1      -0.149   2.418  -0.673  1.00  0.00     0.000 C 
BRANCH  20  21
HETATM   21  C8  UNL     1       0.804   1.373  -0.173  1.00  0.00     0.000 C 
BRANCH  21  22
HETATM   22  C9  UNL     1       2.005   1.220  -1.098  1.00  0.00     0.000 C 
BRANCH  22  23
HETATM   23  C10 UNL     1       2.761   2.489  -1.194  1.00  0.00     0.000 C 
BRANCH  23  24
HETATM   24  C11 UNL     1       3.938   2.519  -2.085  1.00  0.00     0.006 C 
BRANCH  24  25
HETATM   25  C12 UNL     1       5.027   1.579  -1.747  1.00  0.00     0.059 C 
BRANCH  25  26
HETATM   26  C13 UNL     1       4.806   0.167  -1.796  1.00  0.00     0.154 C 
BRANCH  26  27
HETATM   27  N1  UNL     1       5.497  -0.585  -1.053  1.00  0.00    -0.431 NA
BRANCH  27  28
HETATM   28  C14 UNL     1       6.268  -1.189  -0.285  1.00  0.00     0.061 C 
HETATM   29  C15 UNL     1       7.566  -1.677  -0.676  1.00  0.00     0.068 C 
HETATM   30  C16 UNL     1       8.190  -2.072   0.648  1.00  0.00     0.007 C 
HETATM   31  C17 UNL     1       7.332  -1.526   1.740  1.00  0.00     0.007 C 
HETATM   32  C18 UNL     1       5.942  -1.465   1.095  1.00  0.00     0.068 C 
ENDBRANCH  27  28
ENDBRANCH  26  27
ENDBRANCH  25  26
ENDBRANCH  24  25
ENDBRANCH  23  24
ENDBRANCH  22  23
ENDBRANCH  21  22
ENDBRANCH  20  21
ENDBRANCH  19  20
ENDBRANCH  18  19
ENDBRANCH  17  18
ENDBRANCH   1  17
TORSDOF 18
