REMARK  12 active torsions:
REMARK  status: ('A' for Active; 'I' for Inactive)
REMARK    1  A    between atoms: C1_4  and  C2_6 
REMARK    2  A    between atoms: N3_8  and  C4_9 
REMARK    3  A    between atoms: C4_9  and  C5_10 
REMARK    4  A    between atoms: C5_10  and  C6_11 
REMARK    5  A    between atoms: C6_11  and  C7_12 
REMARK    6  A    between atoms: C7_12  and  C8_13 
REMARK    7  A    between atoms: C8_13  and  C9_14 
REMARK    8  A    between atoms: C9_14  and  C10_15 
REMARK    9  A    between atoms: C10_15  and  C11_16 
REMARK   10  A    between atoms: C11_16  and  N4_17 
REMARK   11  A    between atoms: C14_20  and  C15_21 
REMARK   12  A    between atoms: N8_33  and  N9_34 
ROOT
HETATM    1  C8  UNL     1       0.147  -2.083  -0.007  1.00  0.00     0.000 C 
ENDROOT
BRANCH   1   2
HETATM    2  C7  UNL     1       1.507  -2.039  -0.597  1.00  0.00     0.000 C 
BRANCH   2   3
HETATM    3  C6  UNL     1       2.386  -0.953  -0.044  1.00  0.00     0.002 C 
BRANCH   3   4
HETATM    4  C5  UNL     1       2.613  -1.063   1.430  1.00  0.00     0.020 C 
BRANCH   4   5
HETATM    5  C4  UNL     1       3.482   0.034   1.940  1.00  0.00     0.129 C 
BRANCH   5   6
HETATM    6  N3  UNL     1       4.801   0.078   1.347  1.00  0.00    -0.349 N 
HETATM    7  C3  UNL     1       5.099   0.781   0.245  1.00  0.00     0.127 A 
HETATM    8  C2  UNL     1       6.447   0.629  -0.086  1.00  0.00     0.113 A 
HETATM    9  N8  UNL     1       6.956  -0.192   0.855  1.00  0.00    -0.254 N 
HETATM   10  C21 UNL     1       5.931  -0.508   1.710  1.00  0.00     0.209 A 
BRANCH   8  11
HETATM   11  C1  UNL     1       7.130   1.251  -1.230  1.00  0.00     0.140 C 
HETATM   12  N1  UNL     1       8.349   1.108  -1.521  1.00  0.00    -0.386 N 
ATOM     13  H12 UNL     1       8.823   1.539  -2.315  1.00  0.00     0.157 HD
ATOM     14  H11 UNL     1       8.912   0.512  -0.915  1.00  0.00     0.157 HD
HETATM   15  N2  UNL     1       6.341   2.087  -2.080  1.00  0.00    -0.081 NA
ENDBRANCH   8  11
BRANCH   9  16
HETATM   16  N9  UNL     1       8.269  -0.646   0.960  1.00  0.00    -0.337 N 
ATOM     17  H92 UNL     1       9.031  -0.411   0.324  1.00  0.00     0.177 HD
ATOM     18  H91 UNL     1       8.654  -1.267   1.672  1.00  0.00     0.177 HD
ENDBRANCH   9  16
ENDBRANCH   5   6
ENDBRANCH   4   5
ENDBRANCH   3   4
ENDBRANCH   2   3
ENDBRANCH   1   2
BRANCH   1  19
HETATM   19  C9  UNL     1      -0.624  -0.772  -0.229  1.00  0.00     0.002 C 
BRANCH  19  20
HETATM   20  C10 UNL     1      -0.781  -0.492  -1.679  1.00  0.00     0.022 C 
BRANCH  20  21
HETATM   21  C11 UNL     1      -1.505   0.789  -1.912  1.00  0.00     0.148 C 
BRANCH  21  22
HETATM   22  N4  UNL     1      -2.815   0.750  -1.334  1.00  0.00    -0.304 N 
HETATM   23  C12 UNL     1      -3.014   1.180  -0.087  1.00  0.00     0.111 A 
HETATM   24  C13 UNL     1      -4.302   1.135   0.462  1.00  0.00     0.032 A 
HETATM   25  C14 UNL     1      -5.348   0.649  -0.285  1.00  0.00    -0.004 A 
HETATM   26  C20 UNL     1      -5.077   0.217  -1.576  1.00  0.00     0.119 A 
HETATM   27  N7  UNL     1      -3.821   0.287  -2.042  1.00  0.00    -0.309 N 
ATOM     28  H7  UNL     1      -3.638  -0.035  -2.992  1.00  0.00     0.186 HD
BRANCH  25  29
HETATM   29  C15 UNL     1      -6.719   0.557   0.197  1.00  0.00     0.017 A 
HETATM   30  C16 UNL     1      -7.758   1.018  -0.600  1.00  0.00     0.017 A 
HETATM   31  C17 UNL     1      -9.065   0.954  -0.180  1.00  0.00     0.018 A 
HETATM   32  C18 UNL     1      -9.315   0.414   1.065  1.00  0.00     0.089 A 
HETATM   33  N5  UNL     1      -8.304  -0.027   1.824  1.00  0.00    -0.354 N 
HETATM   34  C19 UNL     1      -7.015   0.028   1.427  1.00  0.00     0.127 A 
ATOM     35  H5  UNL     1      -8.517  -0.421   2.740  1.00  0.00     0.166 HD
HETATM   36  N6  UNL     1      -5.985  -0.455   2.263  1.00  0.00    -0.082 NA
ENDBRANCH  25  29
ENDBRANCH  21  22
ENDBRANCH  20  21
ENDBRANCH  19  20
ENDBRANCH   1  19
TORSDOF 12
