REMARK  7 active torsions:
REMARK  status: ('A' for Active; 'I' for Inactive)
REMARK    1  A    between atoms: N1_1  and  C1_4 
REMARK    2  A    between atoms: C3_9  and  C4_10 
REMARK    3  A    between atoms: C4_10  and  O1_11 
REMARK    4  A    between atoms: O1_11  and  C5_12 
REMARK    5  A    between atoms: C5_12  and  C6_13 
REMARK    6  A    between atoms: C6_13  and  C7_14 
REMARK    7  A    between atoms: C7_14  and  N4_15 
ROOT
HETATM    1  C1  UNL     1       3.684   1.010  -0.099  1.00  0.00     0.678 A 
HETATM    2  N2  UNL     1       3.636  -0.314  -0.206  1.00  0.00    -0.178 N 
ATOM      3  H2  UNL     1       4.482  -0.794  -0.514  1.00  0.00     0.185 HD
HETATM    4  C2  UNL     1       2.566  -1.060   0.059  1.00  0.00     0.144 A 
HETATM    5  N3  UNL     1       2.543  -2.475  -0.064  1.00  0.00    -0.081 NA
HETATM    6  C3  UNL     1       1.387  -0.437   0.484  1.00  0.00     0.051 A 
HETATM    7  C8  UNL     1       1.413   0.916   0.603  1.00  0.00     0.126 A 
HETATM    8  N5  UNL     1       0.441   1.621   1.048  1.00  0.00    -0.384 N 
ATOM      9  H51 UNL     1       0.461   2.637   1.137  1.00  0.00     0.157 HD
ATOM     10  H52 UNL     1      -0.409   1.102   1.266  1.00  0.00     0.157 HD
HETATM   11  N6  UNL     1       2.556   1.614   0.310  1.00  0.00    -0.177 N 
ATOM     12  H6  UNL     1       2.550   2.629   0.406  1.00  0.00     0.186 HD
ENDROOT
BRANCH   6  13
HETATM   13  C4  UNL     1       0.260  -1.301   0.844  1.00  0.00     0.213 C 
BRANCH  13  14
HETATM   14  O1  UNL     1      -0.944  -0.773   1.112  1.00  0.00    -0.386 OA
BRANCH  14  15
HETATM   15  C5  UNL     1      -1.677  -0.404   0.001  1.00  0.00     0.169 C 
BRANCH  15  16
HETATM   16  C6  UNL     1      -2.992   0.207   0.495  1.00  0.00     0.053 C 
BRANCH  16  17
HETATM   17  C7  UNL     1      -3.807   0.616  -0.730  1.00  0.00     0.231 C 
BRANCH  17  18
HETATM   18  N4  UNL     1      -5.068   1.201  -0.345  1.00  0.00    -0.079 N 
ATOM     19  H43 UNL     1      -5.598   0.581   0.268  1.00  0.00     0.274 HD
ATOM     20  H42 UNL     1      -4.938   1.983   0.297  1.00  0.00     0.274 HD
ATOM     21  H41 UNL     1      -5.612   1.474  -1.163  1.00  0.00     0.274 HD
ENDBRANCH  17  18
ENDBRANCH  16  17
ENDBRANCH  15  16
ENDBRANCH  14  15
ENDBRANCH  13  14
ENDBRANCH   6  13
BRANCH   1  22
HETATM   22  N1  UNL     1       4.750   1.710  -0.368  1.00  0.00    -0.234 N 
ATOM     23  H12 UNL     1       5.607   1.251  -0.679  1.00  0.00     0.174 HD
ATOM     24  H11 UNL     1       4.787   2.726  -0.286  1.00  0.00     0.174 HD
ENDBRANCH   1  22
TORSDOF 7
