REMARK  5 active torsions:
REMARK  status: ('A' for Active; 'I' for Inactive)
REMARK    1  A    between atoms: O1_1  and  C1_3 
REMARK    2  A    between atoms: N1_6  and  C4_7 
REMARK    3  A    between atoms: C5_9  and  C6_10 
REMARK    4  A    between atoms: C7_12  and  O3_13 
REMARK    5  A    between atoms: C8_15  and  O4_16 
ROOT
HETATM    1  C4  UNL     1      -0.074   0.141   0.385  1.00  0.00     0.259 C 
HETATM    2  O2  UNL     1       0.996   0.471  -0.444  1.00  0.00    -0.355 OA
HETATM    3  C5  UNL     1       2.083  -0.206   0.093  1.00  0.00     0.165 C 
HETATM    4  C7  UNL     1       1.571  -1.463   0.743  1.00  0.00     0.180 C 
HETATM    5  C8  UNL     1       0.079  -1.387   0.399  1.00  0.00     0.198 C 
ENDROOT
BRANCH   1   6
HETATM    6  N1  UNL     1      -1.336   0.530  -0.151  1.00  0.00    -0.335 N 
HETATM    7  C3  UNL     1      -1.603   1.700  -0.728  1.00  0.00     0.096 A 
HETATM    8  C2  UNL     1      -2.942   1.729  -1.134  1.00  0.00     0.055 A 
HETATM    9  C1  UNL     1      -3.451   0.497  -0.758  1.00  0.00     0.082 A 
HETATM   10  C9  UNL     1      -2.439  -0.236  -0.149  1.00  0.00     0.129 A 
BRANCH   9  11
HETATM   11  O1  UNL     1      -4.755   0.070  -0.959  1.00  0.00    -0.359 OA
ATOM     12  H1  UNL     1      -5.104  -0.775  -0.701  1.00  0.00     0.217 HD
ENDBRANCH   9  11
ENDBRANCH   1   6
BRANCH   5  13
HETATM   13  O4  UNL     1      -0.062  -1.874  -0.876  1.00  0.00    -0.388 OA
ATOM     14  H4  UNL     1       0.033  -2.819  -0.867  1.00  0.00     0.210 HD
ENDBRANCH   5  13
BRANCH   3  15
HETATM   15  C6  UNL     1       2.753   0.720   1.086  1.00  0.00     0.120 C 
HETATM   16  S1  UNL     1       3.287   2.209   0.196  1.00  0.00    -0.095 SA
ENDBRANCH   3  15
BRANCH   4  17
HETATM   17  O3  UNL     1       2.154  -2.611   0.240  1.00  0.00    -0.390 OA
ATOM     18  H3  UNL     1       1.831  -3.405   0.650  1.00  0.00     0.210 HD
ENDBRANCH   4  17
TORSDOF 5
