REMARK  7 active torsions:
REMARK  status: ('A' for Active; 'I' for Inactive)
REMARK    1  A    between atoms: O1_1  and  N1_3 
REMARK    2  A    between atoms: C1_5  and  C2_6 
REMARK    3  A    between atoms: N2_9  and  C5_10 
REMARK    4  A    between atoms: C6_11  and  O2_12 
REMARK    5  A    between atoms: C7_14  and  O3_15 
REMARK    6  A    between atoms: C8_17  and  O4_18 
REMARK    7  A    between atoms: C9_20  and  O5_21 
ROOT
HETATM    1  C5  UNL     1      -0.875  -0.356  -0.798  1.00  0.00     0.151 C 
HETATM    2  C6  UNL     1      -1.089   1.128  -0.986  1.00  0.00     0.175 C 
HETATM    3  C7  UNL     1      -2.513   1.380  -0.542  1.00  0.00     0.180 C 
HETATM    4  C8  UNL     1      -2.933   0.224   0.299  1.00  0.00     0.180 C 
HETATM    5  C9  UNL     1      -1.795  -0.776   0.320  1.00  0.00     0.175 C 
ENDROOT
BRANCH   1   6
HETATM    6  N2  UNL     1       0.480  -0.683  -0.416  1.00  0.00    -0.356 N 
HETATM    7  C4  UNL     1       0.776  -1.778   0.329  1.00  0.00     0.092 A 
HETATM    8  C3  UNL     1       2.132  -1.831   0.533  1.00  0.00     0.031 A 
HETATM    9  C2  UNL     1       2.648  -0.713  -0.127  1.00  0.00    -0.002 A 
HETATM   10  C10 UNL     1       1.601  -0.015  -0.709  1.00  0.00     0.104 A 
BRANCH   9  11
HETATM   11  C1  UNL     1       4.032  -0.335  -0.199  1.00  0.00     0.126 C 
HETATM   12  N1  UNL     1       4.418   0.716  -0.831  1.00  0.00    -0.280 N 
ATOM     13  H1  UNL     1       3.712   1.290  -1.291  1.00  0.00     0.193 HD
BRANCH  12  14
HETATM   14  O1  UNL     1       5.727   1.104  -0.919  1.00  0.00    -0.290 OA
ATOM     15  H1  UNL     1       6.012   1.881  -1.386  1.00  0.00     0.244 HD
ENDBRANCH  12  14
ENDBRANCH   9  11
ENDBRANCH   1   6
BRANCH   2  16
HETATM   16  O2  UNL     1      -0.266   1.897  -0.173  1.00  0.00    -0.391 OA
ATOM     17  H2  UNL     1      -0.401   2.830  -0.291  1.00  0.00     0.210 HD
ENDBRANCH   2  16
BRANCH   5  18
HETATM   18  O5  UNL     1      -2.271  -2.078   0.141  1.00  0.00    -0.391 OA
ATOM     19  H5  UNL     1      -2.851  -2.343   0.846  1.00  0.00     0.210 HD
ENDBRANCH   5  18
BRANCH   3  20
HETATM   20  O3  UNL     1      -2.610   2.539   0.229  1.00  0.00    -0.390 OA
ATOM     21  H3  UNL     1      -3.504   2.697   0.508  1.00  0.00     0.210 HD
ENDBRANCH   3  20
BRANCH   4  22
HETATM   22  O4  UNL     1      -4.117  -0.359  -0.166  1.00  0.00    -0.390 OA
ATOM     23  H4  UNL     1      -4.385  -1.096   0.370  1.00  0.00     0.210 HD
ENDBRANCH   4  22
TORSDOF 7
