REMARK  5 active torsions:
REMARK  status: ('A' for Active; 'I' for Inactive)
REMARK    1  A    between atoms: C1_2  and  C2_4 
REMARK    2  A    between atoms: C3_5  and  O3_6 
REMARK    3  A    between atoms: C4_8  and  O4_9 
REMARK    4  A    between atoms: C5_12  and  S1_13 
REMARK    5  A    between atoms: C6_15  and  O6_16 
ROOT
HETATM    1  C2  UNL     1      -0.548   0.734   0.694  1.00  0.00     0.152 C 
HETATM    2  C3  UNL     1      -1.732   0.156  -0.008  1.00  0.00     0.190 C 
HETATM    3  C4  UNL     1      -1.455  -0.830  -1.059  1.00  0.00     0.288 C 
HETATM    4  O5  UNL     1      -0.236  -1.391  -1.139  1.00  0.00    -0.340 OA
HETATM    5  C5  UNL     1       0.825  -0.733  -0.618  1.00  0.00     0.227 C 
HETATM    6  C6  UNL     1       0.507  -0.354   0.818  1.00  0.00     0.175 C 
ENDROOT
BRANCH   1   7
HETATM    7  C1  UNL     1      -0.046   1.900  -0.078  1.00  0.00     0.182 C 
HETATM    8  O1  UNL     1      -0.588   2.279  -1.149  1.00  0.00    -0.648 OA
HETATM    9  O2  UNL     1       1.056   2.611   0.374  1.00  0.00    -0.648 OA
ENDBRANCH   1   7
BRANCH   2  10
HETATM   10  O3  UNL     1      -2.572  -0.394   0.991  1.00  0.00    -0.390 OA
ATOM     11  H3  UNL     1      -3.325  -0.762   0.544  1.00  0.00     0.210 HD
ENDBRANCH   2  10
BRANCH   6  12
HETATM   12  O6  UNL     1       1.614   0.047   1.525  1.00  0.00    -0.391 OA
ATOM     13  H6  UNL     1       2.273  -0.633   1.602  1.00  0.00     0.210 HD
ENDBRANCH   6  12
BRANCH   3  14
HETATM   14  O4  UNL     1      -1.755  -0.244  -2.313  1.00  0.00    -0.369 OA
ATOM     15  H4  UNL     1      -1.576  -0.882  -2.993  1.00  0.00     0.212 HD
ENDBRANCH   3  14
BRANCH   5  16
HETATM   16  S1  UNL     1       2.270  -1.853  -0.675  1.00  0.00    -0.050 SA
HETATM   17  S2  UNL     1       3.988  -0.911   0.121  1.00  0.00    -0.011 SA
ENDBRANCH   5  16
TORSDOF 5
