REMARK  7 active torsions:
REMARK  status: ('A' for Active; 'I' for Inactive)
REMARK    1  A    between atoms: C3_4  and  S1_5 
REMARK    2  A    between atoms: S1_5  and  C4_6 
REMARK    3  A    between atoms: C4_6  and  O2_7 
REMARK    4  A    between atoms: N1_9  and  O3_11 
REMARK    5  A    between atoms: C5_13  and  O4_14 
REMARK    6  A    between atoms: C6_16  and  O5_17 
REMARK    7  A    between atoms: C7_19  and  O6_20 
ROOT
HETATM    1  C1  UNL     1      -0.725   0.291   2.733  1.00  0.00     0.042 C 
HETATM    2  C2  UNL     1      -0.908   0.580   1.243  1.00  0.00     0.150 C 
HETATM    3  O1  UNL     1       0.283   0.380   0.638  1.00  0.00    -0.365 OA
HETATM    4  C3  UNL     1       0.372   0.319  -0.704  1.00  0.00     0.223 C 
HETATM    5  C5  UNL     1      -0.821  -0.012  -1.508  1.00  0.00     0.188 C 
HETATM    6  C6  UNL     1      -2.124   0.015  -0.756  1.00  0.00     0.181 C 
HETATM    7  C7  UNL     1      -1.914  -0.424   0.695  1.00  0.00     0.178 C 
ENDROOT
BRANCH   4   8
HETATM    8  S1  UNL     1       1.706  -0.892  -1.072  1.00  0.00    -0.050 SA
BRANCH   8   9
HETATM    9  C4  UNL     1       3.284  -0.251  -0.538  1.00  0.00     0.202 C 
HETATM   10  N1  UNL     1       4.318  -0.998  -0.723  1.00  0.00    -0.242 N 
ATOM     11  H1  UNL     1       4.218  -1.915  -1.158  1.00  0.00     0.197 HD
BRANCH   9  12
HETATM   12  O2  UNL     1       3.433   0.997   0.059  1.00  0.00    -0.340 OA
ATOM     13  H2  UNL     1       4.273   1.338   0.343  1.00  0.00     0.220 HD
ENDBRANCH   9  12
BRANCH  10  14
HETATM   14  O3  UNL     1       5.556  -0.551  -0.330  1.00  0.00    -0.287 OA
ATOM     15  H3  UNL     1       6.318  -1.102  -0.466  1.00  0.00     0.244 HD
ENDBRANCH  10  14
ENDBRANCH   8   9
ENDBRANCH   4   8
BRANCH   5  16
HETATM   16  O4  UNL     1      -0.697  -1.295  -2.069  1.00  0.00    -0.389 OA
ATOM     17  H4  UNL     1      -1.465  -1.508  -2.586  1.00  0.00     0.210 HD
ENDBRANCH   5  16
BRANCH   6  18
HETATM   18  O5  UNL     1      -3.109  -0.735  -1.386  1.00  0.00    -0.390 OA
ATOM     19  H5  UNL     1      -3.932  -0.718  -0.911  1.00  0.00     0.210 HD
ENDBRANCH   6  18
BRANCH   7  20
HETATM   20  O6  UNL     1      -3.145  -0.276   1.357  1.00  0.00    -0.390 OA
ATOM     21  H6  UNL     1      -3.772  -0.902   1.015  1.00  0.00     0.210 HD
ENDBRANCH   7  20
TORSDOF 7
