REMARK  7 active torsions:
REMARK  status: ('A' for Active; 'I' for Inactive)
REMARK    1  A    between atoms: O1_1  and  C1_3 
REMARK    2  A    between atoms: C1_3  and  C2_4 
REMARK    3  A    between atoms: C3_6  and  C4_7 
REMARK    4  A    between atoms: C4_7  and  O3_8 
REMARK    5  A    between atoms: C5_10  and  O4_11 
REMARK    6  A    between atoms: C6_13  and  N1_14 
REMARK    7  A    between atoms: C9_17  and  O5_18 
ROOT
HETATM    1  C2  UNL     1      -1.668  -1.136   0.471  1.00  0.00     0.286 C 
HETATM    2  O2  UNL     1      -2.142  -0.087  -0.275  1.00  0.00    -0.349 OA
HETATM    3  C3  UNL     1      -1.625   1.151   0.105  1.00  0.00     0.181 C 
HETATM    4  C5  UNL     1      -0.170   1.056   0.252  1.00  0.00     0.198 C 
HETATM    5  C6  UNL     1       0.289  -0.289  -0.306  1.00  0.00     0.261 C 
HETATM    6  O6  UNL     1      -0.301  -1.335   0.368  1.00  0.00    -0.332 OA
ENDROOT
BRANCH   5   7
HETATM    7  N1  UNL     1       1.740  -0.356  -0.203  1.00  0.00    -0.335 N 
HETATM    8  C7  UNL     1       2.591   0.297  -1.013  1.00  0.00     0.096 A 
HETATM    9  C8  UNL     1       3.882   0.004  -0.628  1.00  0.00     0.055 A 
HETATM   10  C9  UNL     1       3.829  -0.852   0.449  1.00  0.00     0.082 A 
HETATM   11  C10 UNL     1       2.481  -1.048   0.678  1.00  0.00     0.129 A 
BRANCH  10  12
HETATM   12  O5  UNL     1       4.912  -1.398   1.151  1.00  0.00    -0.359 OA
ATOM     13  H5  UNL     1       4.875  -1.989   1.894  1.00  0.00     0.217 HD
ENDBRANCH  10  12
ENDBRANCH   5   7
BRANCH   4  14
HETATM   14  O4  UNL     1       0.579   2.028  -0.381  1.00  0.00    -0.388 OA
ATOM     15  H4  UNL     1       1.522   1.966  -0.286  1.00  0.00     0.210 HD
ENDBRANCH   4  14
BRANCH   3  16
HETATM   16  C4  UNL     1      -2.143   2.177  -0.850  1.00  0.00     0.199 C 
BRANCH  16  17
HETATM   17  O3  UNL     1      -1.729   3.457  -0.617  1.00  0.00    -0.398 OA
ATOM     18  H3  UNL     1      -2.058   4.109  -1.224  1.00  0.00     0.209 HD
ENDBRANCH  16  17
ENDBRANCH   3  16
BRANCH   1  19
HETATM   19  C1  UNL     1      -2.424  -2.375  -0.032  1.00  0.00     0.224 C 
BRANCH  19  20
HETATM   20  O1  UNL     1      -3.764  -2.133   0.184  1.00  0.00    -0.396 OA
ATOM     21  H1  UNL     1      -4.232  -2.899  -0.127  1.00  0.00     0.209 HD
ENDBRANCH  19  20
ENDBRANCH   1  19
TORSDOF 7
