REMARK  4 active torsions:
REMARK  status: ('A' for Active; 'I' for Inactive)
REMARK    1  A    between atoms: C2_2  and  N1_4 
REMARK    2  A    between atoms: N1_4  and  C4_6 
REMARK    3  A    between atoms: C4_6  and  C5_7 
REMARK    4  A    between atoms: C9_11  and  N2_12 
ROOT
HETATM    1  C5  UNL     1      -0.354   0.128   0.265  1.00  0.00     0.025 C 
HETATM    2  C6  UNL     1      -0.833  -1.274   0.187  1.00  0.00     0.010 C 
HETATM    3  C7  UNL     1      -2.253  -1.563   0.021  1.00  0.00     0.003 C 
HETATM    4  C8  UNL     1      -3.252  -0.520   0.322  1.00  0.00     0.033 C 
HETATM    5  C9  UNL     1      -2.753   0.831   0.647  1.00  0.00     0.184 C 
HETATM    6  C10 UNL     1      -1.397   1.186   0.185  1.00  0.00     0.042 C 
ENDROOT
BRANCH   1   7
HETATM    7  C4  UNL     1       0.653   0.458  -0.849  1.00  0.00     0.060 C 
BRANCH   7   8
HETATM    8  N1  UNL     1       1.808  -0.305  -0.874  1.00  0.00    -0.398 N 
ATOM      9  H1  UNL     1       1.946  -0.959  -1.645  1.00  0.00     0.159 HD
BRANCH   8  10
HETATM   10  C2  UNL     1       2.792  -0.216   0.114  1.00  0.00     0.072 C 
HETATM   11  C1  UNL     1       3.480   1.126   0.252  1.00  0.00     0.031 C 
HETATM   12  C3  UNL     1       3.902  -1.206  -0.281  1.00  0.00     0.031 C 
ENDBRANCH   8  10
ENDBRANCH   7   8
ENDBRANCH   1   7
BRANCH   5  13
HETATM   13  N2  UNL     1      -3.653   1.850   0.068  1.00  0.00    -0.075 N 
ATOM     14  H23 UNL     1      -3.784   1.721  -0.935  1.00  0.00     0.274 HD
ATOM     15  H22 UNL     1      -4.621   1.718   0.361  1.00  0.00     0.274 HD
ATOM     16  H21 UNL     1      -3.308   2.783   0.293  1.00  0.00     0.274 HD
ENDBRANCH   5  13
TORSDOF 4
