REMARK  7 active torsions:
REMARK  status: ('A' for Active; 'I' for Inactive)
REMARK    1  A    between atoms: O1_2  and  C2_3 
REMARK    2  A    between atoms: C2_3  and  C3_4 
REMARK    3  A    between atoms: C3_4  and  S1_5 
REMARK    4  A    between atoms: S1_5  and  C4_6 
REMARK    5  A    between atoms: C8_19  and  C9_20 
REMARK    6  A    between atoms: N6_28  and  C14_29 
REMARK    7  A    between atoms: C14_29  and  C15_30 
ROOT
HETATM    1  C4  UNL     1       2.929   0.045   1.561  1.00  0.00     0.117 A 
HETATM    2  N1  UNL     1       2.898  -0.959   2.449  1.00  0.00    -0.184 N 
ATOM      3  H1  UNL     1       3.773  -1.379   2.764  1.00  0.00     0.185 HD
HETATM    4  C5  UNL     1       1.712  -1.428   2.938  1.00  0.00     0.678 A 
HETATM    5  N2  UNL     1       1.703  -2.400   3.796  1.00  0.00    -0.234 N 
ATOM      6  H21 UNL     1       0.817  -2.750   4.161  1.00  0.00     0.174 HD
ATOM      7  H22 UNL     1       2.597  -2.794   4.088  1.00  0.00     0.174 HD
HETATM    8  N3  UNL     1       0.539  -0.911   2.555  1.00  0.00    -0.174 N 
ATOM      9  H3  UNL     1      -0.335  -1.278   2.933  1.00  0.00     0.186 HD
HETATM   10  C6  UNL     1       0.526   0.114   1.652  1.00  0.00     0.154 A 
HETATM   11  C7  UNL     1       1.727   0.584   1.161  1.00  0.00     0.113 A 
HETATM   12  N4  UNL     1       1.443   1.570   0.316  1.00  0.00    -0.340 N 
ATOM     13  H4  UNL     1       2.138   2.109  -0.201  1.00  0.00     0.167 HD
HETATM   14  C8  UNL     1       0.120   1.759   0.236  1.00  0.00     0.090 A 
HETATM   15  N6  UNL     1      -0.439   0.846   1.073  1.00  0.00    -0.320 N 
ENDROOT
BRANCH  14  16
HETATM   16  C9  UNL     1      -0.614   2.773  -0.604  1.00  0.00     0.057 C 
HETATM   17  C10 UNL     1      -0.097   4.168  -0.279  1.00  0.00     0.040 C 
HETATM   18  C11 UNL     1       0.377   4.903  -1.498  1.00  0.00     0.233 C 
HETATM   19  N5  UNL     1      -0.718   4.836  -2.479  1.00  0.00    -0.075 N 
HETATM   20  C12 UNL     1      -0.700   3.497  -3.011  1.00  0.00     0.233 C 
ATOM     21  H52 UNL     1      -1.623   5.108  -2.096  1.00  0.00     0.277 HD
ATOM     22  H51 UNL     1      -0.664   5.558  -3.197  1.00  0.00     0.277 HD
HETATM   23  C13 UNL     1      -0.262   2.457  -2.037  1.00  0.00     0.040 C 
ENDBRANCH  14  16
BRANCH  15  24
HETATM   24  C14 UNL     1      -1.857   0.699   1.282  1.00  0.00     0.136 C 
BRANCH  24  25
HETATM   25  C15 UNL     1      -2.537  -0.226   0.305  1.00  0.00     0.004 C 
HETATM   26  C16 UNL     1      -1.964  -1.594   0.380  1.00  0.00     0.006 C 
HETATM   27  C17 UNL     1      -2.742  -2.528  -0.560  1.00  0.00     0.005 C 
HETATM   28  C18 UNL     1      -4.114  -2.684   0.061  1.00  0.00    -0.019 C 
HETATM   29  C19 UNL     1      -4.880  -3.714  -0.724  1.00  0.00     0.010 C 
HETATM   30  C20 UNL     1      -4.777  -1.313  -0.087  1.00  0.00     0.005 C 
HETATM   31  C21 UNL     1      -4.013  -0.269   0.645  1.00  0.00     0.006 C 
ENDBRANCH  24  25
ENDBRANCH  15  24
BRANCH   1  32
HETATM   32  S1  UNL     1       4.435   0.709   0.881  1.00  0.00    -0.107 SA
BRANCH  32  33
HETATM   33  C3  UNL     1       4.824  -0.223  -0.624  1.00  0.00     0.107 C 
BRANCH  33  34
HETATM   34  C2  UNL     1       5.160  -1.662  -0.316  1.00  0.00     0.177 C 
BRANCH  34  35
HETATM   35  O1  UNL     1       6.267  -1.698   0.529  1.00  0.00    -0.395 OA
HETATM   36  C1  UNL     1       6.631  -2.997   0.852  1.00  0.00     0.201 C 
ENDBRANCH  34  35
ENDBRANCH  33  34
ENDBRANCH  32  33
ENDBRANCH   1  32
TORSDOF 7
