REMARK  9 active torsions:
REMARK  status: ('A' for Active; 'I' for Inactive)
REMARK    1  A    between atoms: C2_2  and  C3_3 
REMARK    2  A    between atoms: C2_2  and  C16_23 
REMARK    3  A    between atoms: C3_3  and  C4_4 
REMARK    4  A    between atoms: C4_4  and  O1_6 
REMARK    5  A    between atoms: C4_4  and  C6_8 
REMARK    6  A    between atoms: C7_9  and  C8_10 
REMARK    7  A    between atoms: N1_12  and  C10_13 
REMARK    8  A    between atoms: C17_24  and  O2_25 
REMARK    9  A    between atoms: C19_29  and  O3_30 
ROOT
HETATM    1  C4  UNL     1      -0.271  -0.590  -0.434  1.00  0.00     0.076 C 
HETATM    2  C5  UNL     1      -0.188  -1.572  -1.482  1.00  0.00     0.050 C 
ENDROOT
BRANCH   1   3
HETATM    3  C3  UNL     1      -1.622   0.137  -0.197  1.00  0.00     0.076 C 
BRANCH   3   4
HETATM    4  C2  UNL     1      -2.736  -0.772  -0.102  1.00  0.00    -0.063 C 
HETATM    5  C1  UNL     1      -2.806  -1.926   0.845  1.00  0.00     0.044 C 
BRANCH   4   6
HETATM    6  C16 UNL     1      -4.107  -0.128  -0.101  1.00  0.00     0.052 A 
HETATM    7  C17 UNL     1      -4.486   1.122   0.299  1.00  0.00     0.103 A 
HETATM    8  C18 UNL     1      -5.842   1.311  -0.043  1.00  0.00     0.048 A 
HETATM    9  N4  UNL     1      -6.256   0.188  -0.645  1.00  0.00    -0.328 N 
HETATM   10  C23 UNL     1      -6.847   2.359   0.209  1.00  0.00     0.060 C 
HETATM   11  C19 UNL     1      -5.244  -0.699  -0.696  1.00  0.00     0.156 A 
HETATM   12  C20 UNL     1      -7.652   0.225  -1.113  1.00  0.00     0.131 C 
HETATM   13  C21 UNL     1      -8.541   0.478   0.091  1.00  0.00     0.021 C 
HETATM   14  C22 UNL     1      -8.026   1.624   0.898  1.00  0.00     0.008 C 
BRANCH   7  15
HETATM   15  O2  UNL     1      -3.830   2.121   0.921  1.00  0.00    -0.358 OA
ATOM     16  H2  UNL     1      -4.094   2.990   1.199  1.00  0.00     0.217 HD
ENDBRANCH   7  15
BRANCH  11  17
HETATM   17  O3  UNL     1      -5.280  -1.960  -1.231  1.00  0.00    -0.345 OA
ATOM     18  H3  UNL     1      -6.049  -2.346  -1.633  1.00  0.00     0.219 HD
ENDBRANCH  11  17
ENDBRANCH   4   6
ENDBRANCH   3   4
ENDBRANCH   1   3
BRANCH   1  19
HETATM   19  O1  UNL     1       0.459   0.582  -1.072  1.00  0.00    -0.386 OA
ATOM     20  H1  UNL     1       1.286   0.137  -1.217  1.00  0.00     0.211 HD
ENDBRANCH   1  19
BRANCH   1  21
HETATM   21  C6  UNL     1       0.419  -0.669   0.833  1.00  0.00     0.013 C 
HETATM   22  C7  UNL     1       1.658  -1.373   1.077  1.00  0.00     0.031 C 
BRANCH  22  23
HETATM   23  C8  UNL     1       2.885  -1.097   0.346  1.00  0.00     0.066 A 
HETATM   24  C9  UNL     1       3.880  -0.141   0.587  1.00  0.00     0.143 A 
HETATM   25  N1  UNL     1       4.891  -0.332  -0.308  1.00  0.00    -0.282 N 
HETATM   26  N2  UNL     1       4.510  -1.358  -1.054  1.00  0.00    -0.240 N 
HETATM   27  N3  UNL     1       3.351  -1.816  -0.691  1.00  0.00    -0.285 N 
ATOM     28  H2  UNL     1       5.061  -1.742  -1.822  1.00  0.00     0.208 HD
ATOM     29  H3  UNL     1       2.867  -2.602  -1.126  1.00  0.00     0.188 HD
BRANCH  25  30
HETATM   30  C10 UNL     1       6.146   0.336  -0.483  1.00  0.00     0.109 C 
HETATM   31  C11 UNL     1       7.235  -0.720  -0.631  1.00  0.00     0.027 C 
HETATM   32  C12 UNL     1       8.594  -0.122  -0.715  1.00  0.00     0.002 C 
HETATM   33  C13 UNL     1       8.884   0.821   0.435  1.00  0.00     0.000 C 
HETATM   34  C14 UNL     1       7.771   1.812   0.644  1.00  0.00     0.002 C 
HETATM   35  C15 UNL     1       6.443   1.135   0.755  1.00  0.00     0.027 C 
ENDBRANCH  25  30
ENDBRANCH  22  23
ENDBRANCH   1  21
TORSDOF 9
