REMARK  10 active torsions:
REMARK  status: ('A' for Active; 'I' for Inactive)
REMARK    1  A    between atoms: C2_2  and  N1_3 
REMARK    2  A    between atoms: N1_3  and  C3_4 
REMARK    3  A    between atoms: N1_3  and  C7_8 
REMARK    4  A    between atoms: C3_4  and  C4_5 
REMARK    5  A    between atoms: C9_10  and  O1_11 
REMARK    6  A    between atoms: C10_13  and  O2_14 
REMARK    7  A    between atoms: C14_18  and  O3_19 
REMARK    8  A    between atoms: C16_23  and  C17_24 
REMARK    9  A    between atoms: C20_27  and  O5_28 
REMARK   10  A    between atoms: C21_30  and  O6_31 
ROOT
HETATM    1  C7  UNL     1      -0.252   0.230   0.272  1.00  0.00     0.156 C 
HETATM    2  C8  UNL     1      -1.131  -0.912   0.001  1.00  0.00     0.040 A 
HETATM    3  C9  UNL     1      -2.031  -1.569   0.806  1.00  0.00     0.111 A 
HETATM    4  C10 UNL     1      -2.711  -2.651   0.282  1.00  0.00     0.110 A 
HETATM    5  C12 UNL     1      -2.526  -3.105  -1.024  1.00  0.00     0.010 A 
HETATM    6  C13 UNL     1      -3.303  -4.295  -1.518  1.00  0.00     0.054 C 
HETATM    7  C14 UNL     1      -1.619  -2.422  -1.798  1.00  0.00     0.108 A 
HETATM    8  C15 UNL     1      -0.927  -1.338  -1.298  1.00  0.00     0.114 A 
HETATM    9  O4  UNL     1       0.024  -0.518  -1.909  1.00  0.00    -0.335 OA
HETATM   10  C16 UNL     1       0.666   0.231  -0.918  1.00  0.00     0.189 C 
ENDROOT
BRANCH  10  11
HETATM   11  C17 UNL     1       2.031  -0.302  -0.624  1.00  0.00    -0.024 A 
HETATM   12  C18 UNL     1       2.267  -1.662  -0.548  1.00  0.00     0.013 A 
HETATM   13  C19 UNL     1       3.534  -2.166  -0.265  1.00  0.00     0.040 A 
HETATM   14  C20 UNL     1       4.607  -1.335  -0.047  1.00  0.00     0.099 A 
HETATM   15  C21 UNL     1       4.374   0.031  -0.123  1.00  0.00     0.101 A 
HETATM   16  C23 UNL     1       3.114   0.521  -0.405  1.00  0.00     0.049 A 
BRANCH  14  17
HETATM   17  O5  UNL     1       5.882  -1.811   0.238  1.00  0.00    -0.358 OA
ATOM     18  H5  UNL     1       6.624  -1.237   0.389  1.00  0.00     0.217 HD
ENDBRANCH  14  17
BRANCH  15  19
HETATM   19  O6  UNL     1       5.465   0.855   0.102  1.00  0.00    -0.353 OA
HETATM   20  C22 UNL     1       5.334   2.270   0.047  1.00  0.00     0.210 C 
ENDBRANCH  15  19
ENDBRANCH  10  11
BRANCH   1  21
HETATM   21  N1  UNL     1      -0.819   1.462   0.603  1.00  0.00    -0.382 N 
BRANCH  21  22
HETATM   22  C2  UNL     1      -1.645   2.229  -0.179  1.00  0.00     0.054 C 
HETATM   23  C1  UNL     1      -2.545   1.624  -1.197  1.00  0.00     0.054 C 
ENDBRANCH  21  22
BRANCH  21  24
HETATM   24  C3  UNL     1      -0.162   2.099   1.696  1.00  0.00     0.127 C 
BRANCH  24  25
HETATM   25  C4  UNL     1       0.874   3.116   1.400  1.00  0.00     0.003 A 
HETATM   26  C5  UNL     1       0.694   4.364   0.671  1.00  0.00     0.007 A 
HETATM   27  C6  UNL     1       0.776   4.456   2.179  1.00  0.00     0.007 A 
ENDBRANCH  24  25
ENDBRANCH  21  24
ENDBRANCH   1  21
BRANCH   3  28
HETATM   28  O1  UNL     1      -2.278  -1.179   2.127  1.00  0.00    -0.357 OA
ATOM     29  H1  UNL     1      -2.900  -1.633   2.683  1.00  0.00     0.217 HD
ENDBRANCH   3  28
BRANCH   7  30
HETATM   30  O3  UNL     1      -1.420  -2.857  -3.100  1.00  0.00    -0.357 OA
ATOM     31  H3  UNL     1      -0.793  -2.385  -3.635  1.00  0.00     0.217 HD
ENDBRANCH   7  30
BRANCH   4  32
HETATM   32  O2  UNL     1      -3.611  -3.302   1.099  1.00  0.00    -0.352 OA
HETATM   33  C11 UNL     1      -4.982  -2.962   1.190  1.00  0.00     0.210 C 
ENDBRANCH   4  32
TORSDOF 10
