REMARK  9 active torsions:
REMARK  status: ('A' for Active; 'I' for Inactive)
REMARK    1  A    between atoms: C2_2  and  C3_3 
REMARK    2  A    between atoms: C3_3  and  O1_4 
REMARK    3  A    between atoms: O1_4  and  C4_5 
REMARK    4  A    between atoms: C7_8  and  C8_9 
REMARK    5  A    between atoms: C12_16  and  C13_17 
REMARK    6  A    between atoms: C13_17  and  N2_18 
REMARK    7  A    between atoms: C14_19  and  O2_20 
REMARK    8  A    between atoms: C17_24  and  O3_25 
REMARK    9  A    between atoms: C22_32  and  O5_33 
ROOT
HETATM    1  C8  UNL     1      -0.053  -1.835   0.797  1.00  0.00     0.159 C 
HETATM    2  C9  UNL     1       0.386  -3.265   0.457  1.00  0.00     0.069 C 
HETATM    3  C10 UNL     1      -0.744  -4.166   0.833  1.00  0.00     0.187 C 
HETATM    4  C11 UNL     1      -0.526  -5.553   0.215  1.00  0.00     0.040 C 
HETATM    5  N1  UNL     1      -2.031  -3.713   0.358  1.00  0.00    -0.043 N 
ATOM      6  H11 UNL     1      -2.784  -4.205   0.839  1.00  0.00     0.280 HD
ATOM      7  H12 UNL     1      -2.195  -4.037  -0.595  1.00  0.00     0.280 HD
HETATM    8  C12 UNL     1      -2.218  -2.302   0.447  1.00  0.00     0.340 C 
HETATM    9  O4  UNL     1      -1.141  -1.564  -0.031  1.00  0.00    -0.348 OA
ENDROOT
BRANCH   8  10
HETATM   10  C13 UNL     1      -3.428  -1.930  -0.385  1.00  0.00     0.194 C 
BRANCH  10  11
HETATM   11  N2  UNL     1      -3.695  -0.515  -0.354  1.00  0.00    -0.303 N 
HETATM   12  C14 UNL     1      -4.470   0.133   0.513  1.00  0.00     0.151 A 
HETATM   13  C15 UNL     1      -4.466   1.470   0.206  1.00  0.00     0.004 A 
HETATM   14  C16 UNL     1      -3.654   1.604  -0.886  1.00  0.00     0.004 A 
HETATM   15  C20 UNL     1      -4.986   2.830   0.579  1.00  0.00     0.044 C 
HETATM   16  C17 UNL     1      -3.195   0.374  -1.209  1.00  0.00     0.151 A 
HETATM   17  C18 UNL     1      -3.585   3.042  -1.300  1.00  0.00     0.044 C 
HETATM   18  C19 UNL     1      -3.921   3.743  -0.005  1.00  0.00     0.009 C 
BRANCH  12  19
HETATM   19  O2  UNL     1      -5.205  -0.371   1.588  1.00  0.00    -0.345 OA
ATOM     20  H2  UNL     1      -5.758   0.091   2.207  1.00  0.00     0.219 HD
ENDBRANCH  12  19
BRANCH  16  21
HETATM   21  O3  UNL     1      -2.330   0.089  -2.276  1.00  0.00    -0.345 OA
ATOM     22  H3  UNL     1      -1.973   0.724  -2.886  1.00  0.00     0.219 HD
ENDBRANCH  16  21
ENDBRANCH  10  11
ENDBRANCH   8  10
BRANCH   1  23
HETATM   23  C7  UNL     1       1.038  -0.871   0.644  1.00  0.00    -0.026 A 
HETATM   24  C6  UNL     1       1.658  -0.352   1.762  1.00  0.00     0.012 A 
HETATM   25  C5  UNL     1       2.702   0.568   1.651  1.00  0.00     0.040 A 
HETATM   26  C4  UNL     1       3.126   0.971   0.396  1.00  0.00     0.102 A 
HETATM   27  C22 UNL     1       2.506   0.451  -0.720  1.00  0.00     0.102 A 
HETATM   28  C21 UNL     1       1.463  -0.470  -0.586  1.00  0.00     0.049 A 
BRANCH  26  29
HETATM   29  O1  UNL     1       4.146   1.871   0.235  1.00  0.00    -0.348 OA
BRANCH  29  30
HETATM   30  C3  UNL     1       4.866   2.480   1.264  1.00  0.00     0.175 C 
BRANCH  30  31
HETATM   31  C2  UNL     1       5.895   3.400   0.604  1.00  0.00     0.022 C 
HETATM   32  C1  UNL     1       6.828   2.642  -0.281  1.00  0.00     0.007 C 
ENDBRANCH  30  31
ENDBRANCH  29  30
ENDBRANCH  26  29
BRANCH  27  33
HETATM   33  O5  UNL     1       2.942   0.864  -1.971  1.00  0.00    -0.353 OA
HETATM   34  C23 UNL     1       2.299   0.325  -3.127  1.00  0.00     0.210 C 
ENDBRANCH  27  33
ENDBRANCH   1  23
TORSDOF 9
