REMARK  6 active torsions:
REMARK  status: ('A' for Active; 'I' for Inactive)
REMARK    1  A    between atoms: C2_2  and  C3_3 
REMARK    2  A    between atoms: C6_6  and  C7_7 
REMARK    3  A    between atoms: C7_7  and  S1_8 
REMARK    4  A    between atoms: S1_8  and  C8_9 
REMARK    5  A    between atoms: N3_17  and  C12_18 
REMARK    6  A    between atoms: C15_23  and  N5_24 
ROOT
HETATM    1  C8  UNL     1       1.743  -2.033   0.490  1.00  0.00     0.119 A 
HETATM    2  N1  UNL     1       2.543  -1.035  -0.001  1.00  0.00    -0.330 N 
ATOM      3  H1  UNL     1       2.395  -0.684  -0.947  1.00  0.00     0.168 HD
HETATM    4  C9  UNL     1       3.528  -0.514   0.765  1.00  0.00     0.155 A 
HETATM    5  C10 UNL     1       3.771  -0.947   2.043  1.00  0.00     0.153 A 
HETATM    6  N2  UNL     1       4.802  -0.251   2.530  1.00  0.00    -0.335 N 
ATOM      7  H2  UNL     1       5.206  -0.361   3.460  1.00  0.00     0.168 HD
HETATM    8  C11 UNL     1       5.225   0.628   1.584  1.00  0.00     0.186 A 
HETATM    9  N3  UNL     1       4.444   0.460   0.513  1.00  0.00    -0.322 N 
HETATM   10  N4  UNL     1       2.998  -1.933   2.555  1.00  0.00    -0.324 N 
ATOM     11  H4  UNL     1       3.149  -2.281   3.502  1.00  0.00     0.169 HD
HETATM   12  C15 UNL     1       2.015  -2.445   1.769  1.00  0.00     0.135 A 
ENDROOT
BRANCH   1  13
HETATM   13  S1  UNL     1       0.514  -2.784  -0.553  1.00  0.00    -0.080 SA
BRANCH  13  14
HETATM   14  C7  UNL     1      -0.609  -1.702  -1.322  1.00  0.00     0.067 C 
BRANCH  14  15
HETATM   15  C6  UNL     1      -1.716  -1.019  -0.642  1.00  0.00     0.016 A 
HETATM   16  C4  UNL     1      -2.505  -0.107  -1.376  1.00  0.00    -0.040 A 
HETATM   17  C3  UNL     1      -3.583   0.560  -0.849  1.00  0.00    -0.027 A 
HETATM   18  C5  UNL     1      -2.067   0.100  -2.793  1.00  0.00     0.050 C 
HETATM   19  C19 UNL     1      -3.925   0.355   0.447  1.00  0.00     0.062 A 
HETATM   20  C17 UNL     1      -3.193  -0.524   1.215  1.00  0.00     0.002 A 
HETATM   21  N6  UNL     1      -5.015   1.070   1.002  1.00  0.00    -0.101 NA
HETATM   22  C16 UNL     1      -2.094  -1.204   0.655  1.00  0.00     0.135 A 
HETATM   23  C18 UNL     1      -3.586  -0.744   2.627  1.00  0.00     0.053 C 
HETATM   24  F1  UNL     1      -1.501  -2.081   1.482  1.00  0.00    -0.205 F 
BRANCH  17  25
HETATM   25  C2  UNL     1      -4.308   1.418  -1.797  1.00  0.00     0.036 C 
HETATM   26  C1  UNL     1      -5.602   1.981  -1.399  1.00  0.00     0.010 C 
ENDBRANCH  17  25
ENDBRANCH  14  15
ENDBRANCH  13  14
ENDBRANCH   1  13
BRANCH  12  27
HETATM   27  N5  UNL     1       1.365  -3.461   2.260  1.00  0.00    -0.383 N 
ATOM     28  H52 UNL     1       0.627  -3.845   1.670  1.00  0.00     0.157 HD
ATOM     29  H51 UNL     1       1.567  -3.768   3.212  1.00  0.00     0.157 HD
ENDBRANCH  12  27
BRANCH   9  30
HETATM   30  C12 UNL     1       4.523   1.172  -0.764  1.00  0.00     0.084 C 
HETATM   31  C13 UNL     1       5.300   0.341  -1.790  1.00  0.00     0.032 C 
HETATM   32  C14 UNL     1       5.311   2.450  -0.571  1.00  0.00     0.032 C 
ENDBRANCH   9  30
TORSDOF 6
