REMARK  5 active torsions:
REMARK  status: ('A' for Active; 'I' for Inactive)
REMARK    1  A    between atoms: C2_2  and  C3_3 
REMARK    2  A    between atoms: C3_3  and  C4_4 
REMARK    3  A    between atoms: C4_4  and  N1_5 
REMARK       I    between atoms: C5_7  and  N2_8 
REMARK       I    between atoms: C5_7  and  N3_11 
REMARK    4  A    between atoms: N3_11  and  N4_13 
REMARK    5  A    between atoms: C10_21  and  C11_22 
ROOT
HETATM    1  N4  UNL     1       0.694   0.102  -0.643  1.00  0.00    -0.265 N 
ATOM      2  H4  UNL     1       0.729   0.271  -1.648  1.00  0.00     0.189 HD
HETATM    3  C7  UNL     1       1.794  -0.146  -0.036  1.00  0.00     0.165 C 
HETATM    4  N5  UNL     1       2.087  -0.418   1.320  1.00  0.00    -0.325 N 
ATOM      5  H5  UNL     1       1.359  -0.688   1.982  1.00  0.00     0.169 HD
HETATM    6  C8  UNL     1       3.411  -0.300   1.705  1.00  0.00     0.119 C 
HETATM    7  S1  UNL     1       3.949  -0.577   3.251  1.00  0.00    -0.059 SA
HETATM    8  C9  UNL     1       4.348   0.090   0.672  1.00  0.00     0.048 C 
HETATM    9  C10 UNL     1       5.580   0.552   0.749  1.00  0.00     0.043 C 
HETATM   10  S4  UNL     1       3.412  -0.209  -0.855  1.00  0.00    -0.050 SA
ENDROOT
BRANCH   1  11
HETATM   11  N3  UNL     1      -0.545   0.155  -0.016  1.00  0.00    -0.131 N 
HETATM   12  C5  UNL     1      -1.513  -0.819  -0.332  1.00  0.00     0.688 C 
HETATM   13  N1  UNL     1      -2.568  -0.970   0.373  1.00  0.00    -0.225 N 
HETATM   14  N2  UNL     1      -1.322  -1.654  -1.451  1.00  0.00    -0.229 N 
ATOM     15  H1  UNL     1      -3.247  -1.686   0.115  1.00  0.00     0.177 HD
HETATM   16  C6  UNL     1      -1.338  -3.083  -1.283  1.00  0.00     0.165 C 
ATOM     17  H2  UNL     1      -1.173  -1.248  -2.375  1.00  0.00     0.177 HD
ATOM     18  H3  UNL     1      -0.751   0.888   0.663  1.00  0.00     0.205 HD
BRANCH  13  19
HETATM   19  C4  UNL     1      -2.813  -0.142   1.530  1.00  0.00     0.138 C 
BRANCH  19  20
HETATM   20  C3  UNL     1      -3.522   1.120   1.044  1.00  0.00     0.020 C 
BRANCH  20  21
HETATM   21  C2  UNL     1      -4.824   0.678   0.384  1.00  0.00    -0.003 C 
HETATM   22  C1  UNL     1      -5.556   1.926  -0.117  1.00  0.00     0.005 C 
ENDBRANCH  20  21
ENDBRANCH  19  20
ENDBRANCH  13  19
ENDBRANCH   1  11
BRANCH   9  23
HETATM   23  C11 UNL     1       6.362   0.890  -0.446  1.00  0.00     0.042 A 
HETATM   24  S2  UNL     1       5.808   1.598  -1.889  1.00  0.00    -0.049 SA
HETATM   25  S3  UNL     1       7.762   1.389  -2.332  1.00  0.00    -0.039 SA
HETATM   26  C12 UNL     1       7.700   0.745  -0.746  1.00  0.00     0.099 A 
HETATM   27 CL1  UNL     1       9.084   0.096   0.149  1.00  0.00    -0.074 Cl
ENDBRANCH   9  23
TORSDOF 5
