REMARK  8 active torsions:
REMARK  status: ('A' for Active; 'I' for Inactive)
REMARK    1  A    between atoms: C3_4  and  C4_5 
REMARK    2  A    between atoms: C5_6  and  C6_7 
REMARK    3  A    between atoms: C12_13  and  O1_14 
REMARK    4  A    between atoms: C12_13  and  C13_16 
REMARK    5  A    between atoms: C13_16  and  C14_18 
REMARK    6  A    between atoms: C14_18  and  C15_19 
REMARK    7  A    between atoms: C17_21  and  O3_22 
REMARK    8  A    between atoms: C18_25  and  O5_26 
ROOT
HETATM    1  C6  UNL     1       1.861  -0.877  -0.106  1.00  0.00     0.008 C 
HETATM    2  C7  UNL     1       2.668  -2.050  -0.540  1.00  0.00     0.023 C 
HETATM    3  C8  UNL     1       1.496   0.004  -1.242  1.00  0.00     0.020 C 
HETATM    4  C9  UNL     1       0.171  -0.062  -1.833  1.00  0.00    -0.014 C 
HETATM    5  C10 UNL     1       0.218  -1.101  -2.980  1.00  0.00     0.010 C 
HETATM    6  C11 UNL     1      -1.054  -0.336  -1.105  1.00  0.00     0.053 C 
HETATM    7  C12 UNL     1      -1.186   0.288   0.288  1.00  0.00     0.147 C 
HETATM    8  C19 UNL     1       0.035   0.053   1.027  1.00  0.00     0.200 A 
HETATM    9  O6  UNL     1       0.431  -0.738   2.011  1.00  0.00    -0.365 OA
HETATM   10  C20 UNL     1       0.648  -1.204   0.716  1.00  0.00     0.098 A 
HETATM   11  C21 UNL     1       0.234  -2.599   0.712  1.00  0.00     0.050 C 
ENDROOT
BRANCH   7  12
HETATM   12  O1  UNL     1      -1.283   1.682  -0.007  1.00  0.00    -0.379 OA
ATOM     13  H1  UNL     1      -1.365   2.069   0.857  1.00  0.00     0.211 HD
ENDBRANCH   7  12
BRANCH   7  14
HETATM   14  C13 UNL     1      -2.468  -0.065   0.900  1.00  0.00     0.168 C 
HETATM   15  O2  UNL     1      -2.739  -1.186   1.245  1.00  0.00    -0.294 OA
BRANCH  14  16
HETATM   16  C14 UNL     1      -3.492   0.990   1.112  1.00  0.00     0.125 C 
BRANCH  16  17
HETATM   17  C15 UNL     1      -4.739   0.653   0.391  1.00  0.00     0.012 A 
HETATM   18  C16 UNL     1      -5.231   1.187  -0.792  1.00  0.00     0.076 A 
HETATM   19  C17 UNL     1      -6.406   0.558  -1.055  1.00  0.00     0.186 A 
HETATM   20  O4  UNL     1      -6.633  -0.308  -0.102  1.00  0.00    -0.264 OA
HETATM   21  C18 UNL     1      -5.653  -0.288   0.795  1.00  0.00     0.192 A 
BRANCH  19  22
HETATM   22  O3  UNL     1      -7.233   0.789  -2.146  1.00  0.00    -0.341 OA
ATOM     23  H3  UNL     1      -8.055   0.349  -2.330  1.00  0.00     0.220 HD
ENDBRANCH  19  22
BRANCH  21  24
HETATM   24  O5  UNL     1      -5.550  -1.067   1.941  1.00  0.00    -0.340 OA
ATOM     25  H5  UNL     1      -6.183  -1.718   2.221  1.00  0.00     0.220 HD
ENDBRANCH  21  24
ENDBRANCH  16  17
ENDBRANCH  14  16
ENDBRANCH   7  14
BRANCH   1  26
HETATM   26  C5  UNL     1       2.754  -0.075   0.807  1.00  0.00    -0.014 C 
HETATM   27  C4  UNL     1       3.835   0.493   0.317  1.00  0.00    -0.001 C 
BRANCH  27  28
HETATM   28  C3  UNL     1       4.697   1.264   1.184  1.00  0.00     0.037 C 
HETATM   29  C2  UNL     1       5.779   1.835   0.708  1.00  0.00     0.090 C 
HETATM   30  C1  UNL     1       6.640   2.618   1.614  1.00  0.00     0.082 C 
HETATM   31  F1  UNL     1       6.073   1.684  -0.621  1.00  0.00    -0.211 F 
ENDBRANCH  27  28
ENDBRANCH   1  26
TORSDOF 8
