REMARK  7 active torsions:
REMARK  status: ('A' for Active; 'I' for Inactive)
REMARK    1  A    between atoms: O1_1  and  N1_3 
REMARK    2  A    between atoms: C1_5  and  O2_6 
REMARK    3  A    between atoms: C1_5  and  C2_8 
REMARK    4  A    between atoms: C2_8  and  C3_9 
REMARK    5  A    between atoms: C3_9  and  S1_10 
REMARK    6  A    between atoms: S1_10  and  C4_11 
REMARK    7  A    between atoms: C5_14  and  C6_15 
ROOT
HETATM    1  C2  UNL     1      -1.472  -1.135  -0.058  1.00  0.00     0.043 C 
HETATM    2  C10 UNL     1      -2.798  -0.592  -0.551  1.00  0.00     0.004 C 
HETATM    3  C11 UNL     1      -3.580  -0.058   0.605  1.00  0.00     0.013 C 
HETATM    4  C12 UNL     1      -2.836   1.039   1.355  1.00  0.00     0.021 C 
HETATM    5  C13 UNL     1      -1.508   0.546   1.827  1.00  0.00     0.013 C 
HETATM    6  C14 UNL     1      -0.754  -0.025   0.611  1.00  0.00     0.004 C 
HETATM    7  C15 UNL     1      -0.572   1.180  -0.301  1.00  0.00     0.013 C 
HETATM    8  C16 UNL     1      -1.879   1.707  -0.789  1.00  0.00     0.021 C 
HETATM    9  C17 UNL     1      -2.594   0.602  -1.495  1.00  0.00     0.013 C 
HETATM   10  C18 UNL     1      -2.699   2.194   0.386  1.00  0.00     0.178 C 
HETATM   11  F1  UNL     1      -2.136   3.297   0.986  1.00  0.00    -0.249 F 
ENDROOT
BRANCH   1  12
HETATM   12  C1  UNL     1      -1.783  -2.240   0.885  1.00  0.00     0.145 C 
HETATM   13  N1  UNL     1      -2.723  -3.049   0.891  1.00  0.00    -0.250 N 
ATOM     14  H1  UNL     1      -2.651  -3.692   1.679  1.00  0.00     0.196 HD
BRANCH  13  15
HETATM   15  O1  UNL     1      -3.794  -3.309   0.158  1.00  0.00    -0.288 OA
ATOM     16  H1  UNL     1      -4.514  -3.929   0.163  1.00  0.00     0.244 HD
ENDBRANCH  13  15
BRANCH  12  17
HETATM   17  O2  UNL     1      -0.835  -2.368   1.931  1.00  0.00    -0.347 OA
ATOM     18  H2  UNL     1      -0.115  -1.748   1.926  1.00  0.00     0.219 HD
ENDBRANCH  12  17
ENDBRANCH   1  12
BRANCH   1  19
HETATM   19  C3  UNL     1      -0.673  -1.754  -1.161  1.00  0.00     0.101 C 
BRANCH  19  20
HETATM   20  S1  UNL     1       0.806  -2.555  -0.745  1.00  0.00    -0.091 SA
BRANCH  20  21
HETATM   21  C4  UNL     1       2.281  -1.766  -0.401  1.00  0.00     0.160 A 
HETATM   22  N2  UNL     1       2.688  -0.517  -0.569  1.00  0.00    -0.319 N 
HETATM   23  C5  UNL     1       3.956  -0.347  -0.212  1.00  0.00     0.156 A 
ATOM     24  H2  UNL     1       2.095   0.230  -0.931  1.00  0.00     0.169 HD
HETATM   25  N3  UNL     1       4.358  -1.561   0.201  1.00  0.00    -0.281 N 
HETATM   26  N4  UNL     1       3.379  -2.423   0.099  1.00  0.00    -0.278 N 
ATOM     27  H3  UNL     1       5.293  -1.779   0.545  1.00  0.00     0.188 HD
ATOM     28  H4  UNL     1       3.423  -3.411   0.348  1.00  0.00     0.189 HD
BRANCH  23  29
HETATM   29  C6  UNL     1       4.750   0.898  -0.259  1.00  0.00     0.120 A 
HETATM   30  C7  UNL     1       6.048   1.034   0.118  1.00  0.00     0.043 A 
HETATM   31  C8  UNL     1       6.405   2.346  -0.084  1.00  0.00     0.027 A 
HETATM   32  C9  UNL     1       5.267   2.951  -0.587  1.00  0.00     0.142 A 
HETATM   33  O3  UNL     1       4.320   2.048  -0.670  1.00  0.00    -0.319 OA
ENDBRANCH  23  29
ENDBRANCH  20  21
ENDBRANCH  19  20
ENDBRANCH   1  19
TORSDOF 7
