REMARK  7 active torsions:
REMARK  status: ('A' for Active; 'I' for Inactive)
REMARK    1  A    between atoms: O1_2  and  C2_3 
REMARK    2  A    between atoms: N1_7  and  O2_8 
REMARK    3  A    between atoms: C6_10  and  N2_11 
REMARK       I    between atoms: N2_11  and  C7_12 
REMARK       I    between atoms: N2_11  and  C9_15 
REMARK    4  A    between atoms: C9_15  and  C10_17 
REMARK    5  A    between atoms: C10_17  and  C11_18 
REMARK    6  A    between atoms: C11_18  and  C12_19 
REMARK       I    between atoms: C12_19  and  N3_21 
REMARK    7  A    between atoms: C14_26  and  C15_27 
ROOT
HETATM    1  C12 UNL     1       0.353   0.470  -0.269  1.00  0.00     0.236 C 
HETATM    2  O5  UNL     1      -0.225   0.039  -1.325  1.00  0.00    -0.273 OA
HETATM    3  N3  UNL     1       1.652   0.904  -0.337  1.00  0.00    -0.158 N 
ATOM      4  H3  UNL     1       1.738   1.899  -0.544  1.00  0.00     0.187 HD
HETATM    5  C13 UNL     1       2.769   0.318  -0.194  1.00  0.00     0.703 A 
HETATM    6  N4  UNL     1       4.003   0.919  -0.298  1.00  0.00    -0.173 N 
ATOM      7  H4  UNL     1       4.163   1.905  -0.502  1.00  0.00     0.186 HD
HETATM    8  C14 UNL     1       4.949   0.018  -0.092  1.00  0.00     0.146 A 
HETATM    9  N5  UNL     1       4.323  -1.139   0.141  1.00  0.00    -0.268 N 
ATOM     10  H5  UNL     1       4.780  -2.029   0.337  1.00  0.00     0.189 HD
HETATM   11  N6  UNL     1       3.013  -0.946   0.077  1.00  0.00    -0.126 N 
HETATM   12  C21 UNL     1       2.084  -2.036   0.289  1.00  0.00     0.197 C 
ENDROOT
BRANCH   1  13
HETATM   13  C11 UNL     1      -0.455   0.463   0.976  1.00  0.00     0.113 C 
BRANCH  13  14
HETATM   14  C10 UNL     1      -1.897   0.090   0.705  1.00  0.00     0.113 C 
BRANCH  14  15
HETATM   15  C9  UNL     1      -2.521   1.102  -0.216  1.00  0.00     0.232 C 
HETATM   16  N2  UNL     1      -3.787   0.882  -0.816  1.00  0.00    -0.233 N 
HETATM   17  C7  UNL     1      -4.370   1.834  -1.675  1.00  0.00     0.228 C 
HETATM   18  C8  UNL     1      -3.744   3.122  -2.023  1.00  0.00     0.118 C 
HETATM   19  O3  UNL     1      -5.494   1.561  -2.173  1.00  0.00    -0.273 OA
HETATM   20  O4  UNL     1      -1.903   2.162  -0.451  1.00  0.00    -0.273 OA
BRANCH  16  21
HETATM   21  C6  UNL     1      -4.449  -0.358  -0.511  1.00  0.00     0.177 A 
HETATM   22  C2  UNL     1      -5.183  -0.444   0.642  1.00  0.00     0.115 A 
HETATM   23  C3  UNL     1      -5.850  -1.624   0.998  1.00  0.00     0.042 A 
HETATM   24  C4  UNL     1      -5.735  -2.692   0.139  1.00  0.00     0.023 A 
HETATM   25  C5  UNL     1      -4.985  -2.568  -1.016  1.00  0.00     0.125 A 
HETATM   26  N1  UNL     1      -4.363  -1.419  -1.318  1.00  0.00    -0.216 N 
BRANCH  22  27
HETATM   27  O1  UNL     1      -5.307   0.621   1.514  1.00  0.00    -0.352 OA
HETATM   28  C1  UNL     1      -6.064   0.537   2.704  1.00  0.00     0.210 C 
ENDBRANCH  22  27
BRANCH  26  29
HETATM   29  O2  UNL     1      -3.629  -1.379  -2.498  1.00  0.00    -0.281 OA
ATOM     30  H2  UNL     1      -3.188  -0.565  -2.712  1.00  0.00     0.245 HD
ENDBRANCH  26  29
ENDBRANCH  16  21
ENDBRANCH  14  15
ENDBRANCH  13  14
ENDBRANCH   1  13
BRANCH   8  31
HETATM   31  C15 UNL     1       6.403   0.253  -0.114  1.00  0.00     0.013 A 
HETATM   32  C16 UNL     1       6.927   1.496  -0.378  1.00  0.00     0.015 A 
HETATM   33  C17 UNL     1       8.315   1.672  -0.388  1.00  0.00     0.004 A 
HETATM   34  C18 UNL     1       9.191   0.636  -0.141  1.00  0.00     0.042 A 
HETATM   35  C19 UNL     1       8.649  -0.603   0.122  1.00  0.00     0.117 A 
HETATM   36  F1  UNL     1       9.526  -1.614   0.364  1.00  0.00    -0.206 F 
HETATM   37  C20 UNL     1       7.278  -0.782   0.133  1.00  0.00     0.057 A 
ENDBRANCH   8  31
TORSDOF 7
