REMARK  7 active torsions:
REMARK  status: ('A' for Active; 'I' for Inactive)
REMARK    1  A    between atoms: C3_3  and  C4_4 
REMARK    2  A    between atoms: C4_4  and  C5_5 
REMARK    3  A    between atoms: C8_8  and  C9_9 
REMARK       I    between atoms: C9_9  and  N1_11 
REMARK    4  A    between atoms: N1_11  and  C10_13 
REMARK    5  A    between atoms: C10_13  and  C11_14 
REMARK    6  A    between atoms: C16_22  and  O2_23 
REMARK    7  A    between atoms: N5_28  and  C19_29 
ROOT
HETATM    1  C5  UNL     1      -0.056  -0.451  -1.733  1.00  0.00    -0.002 A 
HETATM    2  C6  UNL     1       0.568   0.768  -1.876  1.00  0.00     0.015 A 
HETATM    3  C7  UNL     1       1.968   0.761  -1.824  1.00  0.00     0.018 A 
HETATM    4  C8  UNL     1       2.684  -0.399  -1.640  1.00  0.00     0.034 A 
HETATM    5  C15 UNL     1       2.002  -1.597  -1.502  1.00  0.00     0.054 A 
HETATM    6  C16 UNL     1       0.641  -1.617  -1.549  1.00  0.00     0.079 A 
ENDROOT
BRANCH   1   7
HETATM    7  C4  UNL     1      -1.506  -0.475  -1.783  1.00  0.00     0.029 C 
BRANCH   7   8
HETATM    8  C3  UNL     1      -2.221   0.045  -0.799  1.00  0.00     0.010 A 
HETATM    9  C2  UNL     1      -3.615   0.086  -0.726  1.00  0.00     0.059 A 
HETATM   10  C1  UNL     1      -4.417  -0.395  -1.638  1.00  0.00     0.046 C 
HETATM   11  N5  UNL     1      -3.974   0.693   0.424  1.00  0.00    -0.256 N 
HETATM   12  N4  UNL     1      -2.866   1.024   1.052  1.00  0.00    -0.304 N 
HETATM   13  C18 UNL     1      -1.788   0.655   0.357  1.00  0.00     0.121 A 
ATOM     14  H4  UNL     1      -2.835   1.501   1.953  1.00  0.00     0.186 HD
BRANCH  11  15
HETATM   15  C19 UNL     1      -5.308   0.922   0.855  1.00  0.00     0.072 A 
HETATM   16  C20 UNL     1      -5.756   2.214   1.039  1.00  0.00     0.037 A 
HETATM   17  C21 UNL     1      -7.049   2.481   1.459  1.00  0.00     0.064 A 
HETATM   18  C22 UNL     1      -7.889   1.423   1.692  1.00  0.00     0.190 A 
HETATM   19  F1  UNL     1      -9.154   1.668   2.102  1.00  0.00    -0.186 F 
HETATM   20  N6  UNL     1      -7.470   0.163   1.519  1.00  0.00    -0.336 N 
HETATM   21  C23 UNL     1      -8.395  -0.919   1.777  1.00  0.00     0.158 C 
HETATM   22  C24 UNL     1      -6.199  -0.084   1.107  1.00  0.00     0.124 A 
ENDBRANCH  11  15
ENDBRANCH   7   8
ENDBRANCH   1   7
BRANCH   6  23
HETATM   23  O2  UNL     1      -0.080  -2.791  -1.416  1.00  0.00    -0.355 OA
HETATM   24  C17 UNL     1       0.603  -3.996  -1.227  1.00  0.00     0.210 C 
ENDBRANCH   6  23
BRANCH   4  25
HETATM   25  C9  UNL     1       4.127  -0.359  -1.587  1.00  0.00     0.252 C 
HETATM   26  O1  UNL     1       4.823  -1.432  -1.623  1.00  0.00    -0.268 OA
HETATM   27  N1  UNL     1       4.827   0.858  -1.493  1.00  0.00    -0.351 N 
ATOM     28  H1  UNL     1       4.298   1.729  -1.461  1.00  0.00     0.163 HD
BRANCH  27  29
HETATM   29  C10 UNL     1       6.286   0.917  -1.440  1.00  0.00     0.181 C 
BRANCH  29  30
HETATM   30  C11 UNL     1       6.728   0.528  -0.096  1.00  0.00     0.043 A 
HETATM   31  C12 UNL     1       6.947   1.390   0.965  1.00  0.00     0.118 A 
HETATM   32  N2  UNL     1       7.345   0.685   2.042  1.00  0.00    -0.355 N 
HETATM   33  C13 UNL     1       7.679   1.166   3.347  1.00  0.00     0.156 C 
HETATM   34  C14 UNL     1       7.373  -0.593   1.655  1.00  0.00     0.182 A 
HETATM   35  N3  UNL     1       7.000  -0.696   0.361  1.00  0.00    -0.353 N 
ATOM     36  H3  UNL     1       6.937  -1.561  -0.175  1.00  0.00     0.166 HD
ENDBRANCH  29  30
ENDBRANCH  27  29
ENDBRANCH   4  25
TORSDOF 7
