REMARK  7 active torsions:
REMARK  status: ('A' for Active; 'I' for Inactive)
REMARK    1  A    between atoms: O1_2  and  C2_3 
REMARK    2  A    between atoms: C2_3  and  C3_5 
REMARK    3  A    between atoms: C3_5  and  C4_6 
REMARK    4  A    between atoms: C3_5  and  N1_10 
REMARK    5  A    between atoms: C4_6  and  C5_7 
REMARK    6  A    between atoms: C5_7  and  S1_8 
REMARK       I    between atoms: N1_10  and  C7_12 
REMARK       I    between atoms: C7_12  and  N2_14 
REMARK    7  A    between atoms: N2_14  and  C9_16 
REMARK       I    between atoms: N3_19  and  C12_20 
ROOT
HETATM    1  C9  UNL     1      -1.475   0.633   0.326  1.00  0.00     0.107 C 
HETATM    2  C10 UNL     1      -1.990   1.321  -0.891  1.00  0.00     0.046 C 
HETATM    3  C11 UNL     1      -3.358   0.888  -1.326  1.00  0.00     0.129 C 
HETATM    4  N3  UNL     1      -4.244   1.098  -0.188  1.00  0.00    -0.334 N 
HETATM    5  C12 UNL     1      -5.465   1.748  -0.420  1.00  0.00     0.216 C 
HETATM    6  C13 UNL     1      -6.416   1.998   0.680  1.00  0.00     0.117 C 
HETATM    7  O4  UNL     1      -5.732   2.119  -1.615  1.00  0.00    -0.274 OA
HETATM    8  C14 UNL     1      -3.897   0.666   1.133  1.00  0.00     0.210 C 
HETATM    9  C15 UNL     1      -4.885  -0.329   1.557  1.00  0.00     0.086 C 
HETATM   10  N4  UNL     1      -5.661  -1.144   1.907  1.00  0.00    -0.195 NA
HETATM   11  C16 UNL     1      -2.518   0.101   1.262  1.00  0.00     0.118 C 
HETATM   12 BR1  UNL     1      -1.974   0.275   3.117  1.00  0.00    -0.086 Br
ENDROOT
BRANCH   1  13
HETATM   13  N2  UNL     1      -0.444  -0.338   0.038  1.00  0.00    -0.333 N 
HETATM   14  C7  UNL     1       0.886  -0.171   0.487  1.00  0.00     0.319 C 
HETATM   15  N1  UNL     1       1.901  -1.122   0.206  1.00  0.00    -0.329 N 
HETATM   16  O3  UNL     1       1.246   0.840   1.167  1.00  0.00    -0.247 OA
ATOM     17  H1  UNL     1       1.664  -1.954  -0.335  1.00  0.00     0.165 HD
HETATM   18  C8  UNL     1      -0.739  -1.521  -0.724  1.00  0.00     0.155 C 
BRANCH  15  19
HETATM   19  C3  UNL     1       3.265  -0.946   0.666  1.00  0.00     0.186 C 
BRANCH  19  20
HETATM   20  C2  UNL     1       3.597  -2.034   1.658  1.00  0.00     0.281 C 
HETATM   21  O2  UNL     1       2.741  -2.897   1.955  1.00  0.00    -0.263 OA
BRANCH  20  22
HETATM   22  O1  UNL     1       4.840  -2.094   2.249  1.00  0.00    -0.325 OA
HETATM   23  C1  UNL     1       5.225  -3.082   3.186  1.00  0.00     0.213 C 
ENDBRANCH  20  22
ENDBRANCH  19  20
BRANCH  19  24
HETATM   24  C4  UNL     1       4.175  -1.122  -0.525  1.00  0.00     0.045 C 
BRANCH  24  25
HETATM   25  C5  UNL     1       3.921  -0.083  -1.562  1.00  0.00     0.076 C 
BRANCH  25  26
HETATM   26  S1  UNL     1       4.234   1.554  -0.847  1.00  0.00    -0.173 SA
HETATM   27  C6  UNL     1       3.911   2.788  -2.150  1.00  0.00     0.089 C 
ENDBRANCH  25  26
ENDBRANCH  24  25
ENDBRANCH  19  24
ENDBRANCH  15  19
ENDBRANCH   1  13
TORSDOF 7
