REMARK  7 active torsions:
REMARK  status: ('A' for Active; 'I' for Inactive)
REMARK    1  A    between atoms: C4_4  and  C5_5 
REMARK    2  A    between atoms: C5_5  and  N1_6 
REMARK    3  A    between atoms: N3_12  and  C9_14 
REMARK    4  A    between atoms: C9_14  and  C10_15 
REMARK       I    between atoms: C10_15  and  N4_17 
REMARK    5  A    between atoms: N4_17  and  C11_18 
REMARK    6  A    between atoms: N4_17  and  C13_20 
REMARK    7  A    between atoms: C13_20  and  C14_21 
ROOT
HETATM    1  C1  UNL     1       8.079   2.665  -3.469  1.00  0.00     0.027 C 
HETATM    2  C2  UNL     1       7.656   1.981  -2.552  1.00  0.00    -0.026 C 
HETATM    3  C3  UNL     1       7.179   1.188  -1.477  1.00  0.00    -0.014 C 
HETATM    4  C4  UNL     1       6.783   0.522  -0.545  1.00  0.00    -0.071 C 
ENDROOT
BRANCH   4   5
HETATM    5  C5  UNL     1       6.316  -0.268   0.598  1.00  0.00     0.245 C 
BRANCH   5   6
HETATM    6  N1  UNL     1       4.870  -0.328   0.661  1.00  0.00    -0.265 N 
HETATM    7  N2  UNL     1       4.104   0.516   1.294  1.00  0.00    -0.306 N 
HETATM    8  C6  UNL     1       2.796   0.159   1.143  1.00  0.00     0.126 A 
ATOM      9  H2  UNL     1       4.434   1.323   1.823  1.00  0.00     0.186 HD
HETATM   10  C7  UNL     1       2.771  -0.970   0.373  1.00  0.00     0.070 A 
HETATM   11  C8  UNL     1       1.771  -1.779  -0.110  1.00  0.00     0.121 A 
HETATM   12  C21 UNL     1       4.097  -1.248   0.087  1.00  0.00     0.139 A 
HETATM   13  N3  UNL     1       0.564  -1.587   0.108  1.00  0.00    -0.346 N 
HETATM   14  N5  UNL     1       2.142  -2.863  -0.878  1.00  0.00    -0.338 N 
ATOM     15  H3  UNL     1      -0.034  -2.289  -0.328  1.00  0.00     0.167 HD
HETATM   16  C20 UNL     1       3.415  -3.124  -1.148  1.00  0.00     0.183 A 
ATOM     17  H5  UNL     1       1.419  -3.480  -1.248  1.00  0.00     0.168 HD
HETATM   18  N6  UNL     1       4.378  -2.322  -0.668  1.00  0.00    -0.337 N 
ATOM     19  H6  UNL     1       5.352  -2.535  -0.883  1.00  0.00     0.168 HD
BRANCH  13  20
HETATM   20  C9  UNL     1      -0.161  -0.618   0.822  1.00  0.00     0.164 C 
BRANCH  20  21
HETATM   21  C10 UNL     1      -1.628  -0.919   0.803  1.00  0.00     0.259 C 
HETATM   22  O1  UNL     1      -2.028  -1.955   0.196  1.00  0.00    -0.267 OA
HETATM   23  N4  UNL     1      -2.539  -0.052   1.457  1.00  0.00    -0.344 N 
BRANCH  23  24
HETATM   24  C11 UNL     1      -2.006   1.139   2.115  1.00  0.00     0.122 C 
HETATM   25  C12 UNL     1      -1.934   2.351   1.262  1.00  0.00     0.026 C 
ENDBRANCH  23  24
BRANCH  23  26
HETATM   26  C13 UNL     1      -3.944  -0.382   1.558  1.00  0.00     0.166 C 
BRANCH  26  27
HETATM   27  C14 UNL     1      -4.806   0.017   0.447  1.00  0.00    -0.023 A 
HETATM   28  C15 UNL     1      -4.337   0.567  -0.715  1.00  0.00     0.010 A 
HETATM   29  C16 UNL     1      -5.161   0.906  -1.788  1.00  0.00     0.001 A 
HETATM   30  C17 UNL     1      -6.506   0.663  -1.641  1.00  0.00     0.001 A 
HETATM   31  C18 UNL     1      -7.012   0.106  -0.481  1.00  0.00     0.019 A 
HETATM   32  C19 UNL     1      -6.192  -0.211   0.541  1.00  0.00     0.018 A 
HETATM   33 BR1  UNL     1      -6.845  -0.987   2.179  1.00  0.00    -0.051 Br
ENDBRANCH  26  27
ENDBRANCH  23  26
ENDBRANCH  20  21
ENDBRANCH  13  20
ENDBRANCH   5   6
ENDBRANCH   4   5
TORSDOF 7
