REMARK  7 active torsions:
REMARK  status: ('A' for Active; 'I' for Inactive)
REMARK    1  A    between atoms: C10_17  and  N4_18 
REMARK    2  A    between atoms: N4_18  and  C12_20 
REMARK    3  A    between atoms: C12_20  and  C13_21 
REMARK    4  A    between atoms: C13_21  and  C14_22 
REMARK    5  A    between atoms: C14_22  and  O2_23 
REMARK    6  A    between atoms: O2_23  and  N5_24 
REMARK    7  A    between atoms: N5_24  and  C15_25 
ROOT
HETATM    1  C1  UNL     1      -5.855  -0.288  -1.502  1.00  0.00     0.050 C 
HETATM    2  C2  UNL     1      -5.084  -0.545  -0.259  1.00  0.00    -0.039 A 
HETATM    3  C3  UNL     1      -3.839   0.081  -0.102  1.00  0.00     0.027 A 
HETATM    4  C4  UNL     1      -3.107  -0.112   1.052  1.00  0.00     0.052 A 
HETATM    5  C5  UNL     1      -3.663  -0.951   2.010  1.00  0.00     0.122 A 
HETATM    6  N1  UNL     1      -4.876  -1.536   1.805  1.00  0.00    -0.345 N 
ATOM      7  H1  UNL     1      -5.245  -2.143   2.537  1.00  0.00     0.167 HD
HETATM    8  C6  UNL     1      -5.611  -1.363   0.706  1.00  0.00     0.013 A 
HETATM    9  C7  UNL     1      -6.939  -2.038   0.590  1.00  0.00     0.068 C 
HETATM   10  N2  UNL     1      -3.164  -1.385   3.112  1.00  0.00    -0.311 N 
ATOM     11  H2  UNL     1      -3.772  -1.996   3.657  1.00  0.00     0.170 HD
HETATM   12  C8  UNL     1      -1.901  -1.137   3.671  1.00  0.00     0.240 C 
HETATM   13  O1  UNL     1      -1.734  -1.559   4.833  1.00  0.00    -0.271 OA
HETATM   14  C9  UNL     1      -0.698  -0.447   3.115  1.00  0.00     0.224 C 
HETATM   15  N3  UNL     1      -1.086   0.592   2.221  1.00  0.00    -0.367 N 
ATOM     16  H3  UNL     1      -0.619   1.483   2.392  1.00  0.00     0.161 HD
HETATM   17  C10 UNL     1      -2.017   0.618   1.119  1.00  0.00     0.113 C 
ENDROOT
BRANCH  17  18
HETATM   18  N4  UNL     1      -1.695   1.535   0.100  1.00  0.00    -0.371 N 
HETATM   19  C11 UNL     1      -2.484   2.687  -0.232  1.00  0.00     0.151 C 
BRANCH  18  20
HETATM   20  C12 UNL     1      -0.449   1.336  -0.575  1.00  0.00     0.126 C 
BRANCH  20  21
HETATM   21  C13 UNL     1      -0.452   0.938  -2.010  1.00  0.00     0.050 C 
BRANCH  21  22
HETATM   22  C14 UNL     1       1.036   0.898  -2.443  1.00  0.00     0.219 C 
BRANCH  22  23
HETATM   23  O2  UNL     1       1.732  -0.014  -1.603  1.00  0.00    -0.209 OA
BRANCH  23  24
HETATM   24  N5  UNL     1       2.880  -0.369  -1.444  1.00  0.00    -0.285 NA
BRANCH  24  25
HETATM   25  C15 UNL     1       4.042  -0.752  -1.296  1.00  0.00     0.128 C 
HETATM   26  C16 UNL     1       4.728  -2.002  -1.720  1.00  0.00     0.081 C 
HETATM   27  C17 UNL     1       5.713  -2.206  -0.575  1.00  0.00     0.047 C 
HETATM   28  C18 UNL     1       6.107  -0.836  -0.188  1.00  0.00    -0.043 A 
HETATM   29  C19 UNL     1       7.226  -0.331   0.479  1.00  0.00     0.031 A 
HETATM   30  C23 UNL     1       5.124  -0.003  -0.608  1.00  0.00     0.009 A 
HETATM   31  C20 UNL     1       7.326   1.018   0.710  1.00  0.00     0.034 A 
HETATM   32 CL1  UNL     1       8.697   1.747   1.549  1.00  0.00    -0.084 Cl
HETATM   33  C21 UNL     1       6.312   1.855   0.273  1.00  0.00     0.025 A 
HETATM   34  C22 UNL     1       5.203   1.367  -0.386  1.00  0.00     0.017 A 
ENDBRANCH  24  25
ENDBRANCH  23  24
ENDBRANCH  22  23
ENDBRANCH  21  22
ENDBRANCH  20  21
ENDBRANCH  18  20
ENDBRANCH  17  18
TORSDOF 7
