REMARK  7 active torsions:
REMARK  status: ('A' for Active; 'I' for Inactive)
REMARK    1  A    between atoms: O1_2  and  C2_3 
REMARK    2  A    between atoms: C2_3  and  C3_4 
REMARK    3  A    between atoms: C3_4  and  N1_5 
REMARK       I    between atoms: N1_5  and  C5_7 
REMARK    4  A    between atoms: C5_7  and  C6_9 
REMARK    5  A    between atoms: C6_9  and  C7_10 
REMARK    6  A    between atoms: C7_10  and  C8_11 
REMARK       I    between atoms: C8_11  and  N2_13 
REMARK    7  A    between atoms: N2_13  and  C9_15 
ROOT
HETATM    1  C9  UNL     1       2.601  -2.155   0.556  1.00  0.00     0.685 A 
HETATM    2  N3  UNL     1       3.065  -0.977   0.153  1.00  0.00    -0.190 N 
ATOM      3  H3  UNL     1       2.392  -0.299  -0.205  1.00  0.00     0.184 HD
HETATM    4  C10 UNL     1       4.360  -0.617   0.185  1.00  0.00     0.077 A 
HETATM    5  C11 UNL     1       5.263  -1.551   0.676  1.00  0.00     0.059 A 
HETATM    6  C12 UNL     1       4.779  -2.774   1.094  1.00  0.00     0.124 A 
HETATM    7  N4  UNL     1       3.464  -3.074   1.036  1.00  0.00    -0.201 N 
ATOM      8  H4  UNL     1       3.127  -3.984   1.351  1.00  0.00     0.183 HD
HETATM    9  C13 UNL     1       6.574  -0.913   0.600  1.00  0.00     0.198 A 
HETATM   10  O4  UNL     1       7.659  -1.448   0.958  1.00  0.00    -0.286 OA
HETATM   11  C14 UNL     1       6.439   0.432   0.050  1.00  0.00     0.048 A 
HETATM   12  C15 UNL     1       7.306   1.471  -0.244  1.00  0.00     0.041 A 
HETATM   13 BR1  UNL     1       9.153   1.221   0.103  1.00  0.00    -0.049 Br
HETATM   14  C16 UNL     1       6.884   2.672  -0.776  1.00  0.00     0.107 A 
HETATM   15  N5  UNL     1       5.552   2.803  -1.007  1.00  0.00    -0.373 N 
ATOM     16  H5  UNL     1       5.197   3.675  -1.399  1.00  0.00     0.164 HD
HETATM   17  C17 UNL     1       4.688   1.805  -0.729  1.00  0.00     0.102 A 
HETATM   18  C18 UNL     1       5.092   0.599  -0.197  1.00  0.00     0.023 A 
ENDROOT
BRANCH   1  19
HETATM   19  N2  UNL     1       1.356  -2.500   0.525  1.00  0.00    -0.160 N 
HETATM   20  C8  UNL     1       0.443  -1.511   0.012  1.00  0.00     0.236 C 
HETATM   21  O3  UNL     1       0.770  -0.856  -0.987  1.00  0.00    -0.273 OA
ATOM     22  H2  UNL     1       1.040  -3.416   0.844  1.00  0.00     0.187 HD
BRANCH  20  23
HETATM   23  C7  UNL     1      -0.860  -1.333   0.722  1.00  0.00     0.113 C 
BRANCH  23  24
HETATM   24  C6  UNL     1      -1.619  -0.265   0.006  1.00  0.00     0.112 C 
BRANCH  24  25
HETATM   25  C5  UNL     1      -2.933   0.027   0.591  1.00  0.00     0.219 C 
HETATM   26  N1  UNL     1      -3.742   1.025  -0.006  1.00  0.00    -0.354 N 
HETATM   27  C4  UNL     1      -3.243   1.717  -1.170  1.00  0.00     0.152 C 
HETATM   28  O2  UNL     1      -3.340  -0.612   1.627  1.00  0.00    -0.273 OA
BRANCH  26  29
HETATM   29  C3  UNL     1      -5.053   1.377   0.505  1.00  0.00     0.151 C 
BRANCH  29  30
HETATM   30  C2  UNL     1      -6.147   0.541  -0.126  1.00  0.00     0.186 C 
BRANCH  30  31
HETATM   31  O1  UNL     1      -7.357   0.932   0.407  1.00  0.00    -0.394 OA
HETATM   32  C1  UNL     1      -8.375   0.154  -0.180  1.00  0.00     0.201 C 
ENDBRANCH  30  31
ENDBRANCH  29  30
ENDBRANCH  26  29
ENDBRANCH  24  25
ENDBRANCH  23  24
ENDBRANCH  20  23
ENDBRANCH   1  19
TORSDOF 7
