REMARK  6 active torsions:
REMARK  status: ('A' for Active; 'I' for Inactive)
REMARK    1  A    between atoms: C2_2  and  N1_3 
REMARK    2  A    between atoms: C4_6  and  C5_7 
REMARK    3  A    between atoms: C4_6  and  C9_13 
REMARK    4  A    between atoms: N3_22  and  C16_23 
REMARK    5  A    between atoms: C16_23  and  C17_24 
REMARK    6  A    between atoms: C17_24  and  N4_25 
ROOT
HETATM    1  N1  UNL     1      -0.117  -0.816   0.391  1.00  0.00    -0.255 N 
HETATM    2  C3  UNL     1      -1.049   0.133   0.984  1.00  0.00     0.267 C 
HETATM    3  O1  UNL     1      -1.124   0.349   2.211  1.00  0.00    -0.269 OA
HETATM    4  C4  UNL     1      -1.786   0.691  -0.174  1.00  0.00     0.193 C 
HETATM    5  C15 UNL     1      -0.838   0.547  -1.266  1.00  0.00     0.267 C 
HETATM    6  O2  UNL     1      -0.738   1.232  -2.299  1.00  0.00    -0.269 OA
HETATM    7  N3  UNL     1       0.017  -0.568  -0.957  1.00  0.00    -0.253 N 
ENDROOT
BRANCH   4   8
HETATM    8  C5  UNL     1      -2.110   2.125   0.062  1.00  0.00     0.033 C 
HETATM    9  C6  UNL     1      -3.327   2.628   0.066  1.00  0.00     0.002 C 
HETATM   10  C7  UNL     1      -3.314   4.087   0.330  1.00  0.00     0.048 C 
HETATM   11  C8  UNL     1      -1.910   4.337   0.834  1.00  0.00     0.123 C 
HETATM   12  N2  UNL     1      -1.200   3.194   0.315  1.00  0.00    -0.391 N 
ATOM     13  H2  UNL     1      -0.194   3.156   0.153  1.00  0.00     0.159 HD
ENDBRANCH   4   8
BRANCH   4  14
HETATM   14  C9  UNL     1      -3.022  -0.074  -0.324  1.00  0.00    -0.022 A 
HETATM   15  C10 UNL     1      -3.511  -0.541  -1.526  1.00  0.00     0.009 A 
HETATM   16  C11 UNL     1      -4.677  -1.262  -1.646  1.00  0.00     0.004 A 
HETATM   17  C12 UNL     1      -5.405  -1.539  -0.516  1.00  0.00     0.042 A 
HETATM   18  C13 UNL     1      -4.954  -1.094   0.687  1.00  0.00     0.117 A 
HETATM   19  F1  UNL     1      -5.696  -1.383   1.798  1.00  0.00    -0.206 F 
HETATM   20  C14 UNL     1      -3.766  -0.361   0.800  1.00  0.00     0.051 A 
ENDBRANCH   4  14
BRANCH   1  21
HETATM   21  C2  UNL     1       0.504  -1.890   1.189  1.00  0.00     0.148 C 
HETATM   22  C1  UNL     1      -0.407  -3.124   1.140  1.00  0.00     0.028 C 
ENDBRANCH   1  21
BRANCH   7  23
HETATM   23  C16 UNL     1       0.813  -1.305  -1.920  1.00  0.00     0.173 C 
BRANCH  23  24
HETATM   24  C17 UNL     1       2.148  -0.760  -2.226  1.00  0.00     0.157 C 
BRANCH  24  25
HETATM   25  N4  UNL     1       3.079  -0.647  -1.153  1.00  0.00    -0.278 N 
HETATM   26  C18 UNL     1       4.060  -1.611  -0.720  1.00  0.00     0.261 A 
HETATM   27  O3  UNL     1       4.220  -2.733  -1.270  1.00  0.00    -0.267 OA
HETATM   28  C19 UNL     1       4.779  -1.046   0.413  1.00  0.00     0.048 A 
HETATM   29  C20 UNL     1       5.802  -1.521   1.205  1.00  0.00     0.018 A 
HETATM   30  C24 UNL     1       4.293   0.206   0.698  1.00  0.00     0.048 A 
HETATM   31  C21 UNL     1       6.299  -0.755   2.230  1.00  0.00     0.001 A 
HETATM   32  C22 UNL     1       5.795   0.488   2.489  1.00  0.00     0.001 A 
HETATM   33  C23 UNL     1       4.780   0.988   1.723  1.00  0.00     0.018 A 
HETATM   34  C25 UNL     1       3.247   0.467  -0.256  1.00  0.00     0.261 A 
HETATM   35  O4  UNL     1       2.555   1.526  -0.318  1.00  0.00    -0.267 OA
ENDBRANCH  24  25
ENDBRANCH  23  24
ENDBRANCH   7  23
TORSDOF 6
