REMARK  8 active torsions:
REMARK  status: ('A' for Active; 'I' for Inactive)
REMARK    1  A    between atoms: C2_2  and  C3_3 
REMARK    2  A    between atoms: C2_2  and  N3_25 
REMARK    3  A    between atoms: C3_3  and  O1_4 
REMARK    4  A    between atoms: O1_4  and  C4_5 
REMARK    5  A    between atoms: C7_8  and  C8_9 
REMARK    6  A    between atoms: C8_9  and  C9_10 
REMARK    7  A    between atoms: N2_18  and  O2_19 
REMARK    8  A    between atoms: C16_22  and  O3_23 
ROOT
HETATM    1  C4  UNL     1      -0.445  -0.642   0.823  1.00  0.00     0.102 A 
HETATM    2  C5  UNL     1      -0.749  -0.316  -0.478  1.00  0.00     0.040 A 
HETATM    3  C6  UNL     1      -2.004  -0.571  -1.029  1.00  0.00     0.010 A 
HETATM    4  C7  UNL     1      -3.005  -1.161  -0.296  1.00  0.00    -0.050 A 
HETATM    5  C15 UNL     1      -2.725  -1.495   1.005  1.00  0.00     0.047 A 
HETATM    6  C16 UNL     1      -1.489  -1.247   1.556  1.00  0.00     0.099 A 
ENDROOT
BRANCH   1   7
HETATM    7  O1  UNL     1       0.739  -0.444   1.456  1.00  0.00    -0.346 OA
BRANCH   7   8
HETATM    8  C3  UNL     1       1.958   0.049   1.137  1.00  0.00     0.201 C 
BRANCH   8   9
HETATM    9  C2  UNL     1       2.637  -0.804   0.085  1.00  0.00     0.116 C 
HETATM   10  C1  UNL     1       2.650  -2.223   0.514  1.00  0.00     0.035 C 
BRANCH   9  11
HETATM   11  N3  UNL     1       3.910  -0.213  -0.180  1.00  0.00    -0.273 N 
HETATM   12  C17 UNL     1       4.261   0.341  -1.443  1.00  0.00     0.262 A 
HETATM   13  O4  UNL     1       3.567   0.413  -2.493  1.00  0.00    -0.267 OA
HETATM   14  C18 UNL     1       5.622   0.855  -1.369  1.00  0.00     0.050 A 
HETATM   15  C19 UNL     1       6.427   1.477  -2.294  1.00  0.00     0.018 A 
HETATM   16  C23 UNL     1       6.084   0.610  -0.072  1.00  0.00     0.070 A 
HETATM   17  C20 UNL     1       7.694   1.847  -1.895  1.00  0.00     0.003 A 
HETATM   18  C21 UNL     1       8.182   1.621  -0.626  1.00  0.00     0.025 A 
HETATM   19  C22 UNL     1       7.371   1.001   0.284  1.00  0.00     0.050 A 
HETATM   20 CL1  UNL     1       7.869   0.656   1.930  1.00  0.00    -0.083 Cl
HETATM   21  C24 UNL     1       5.020  -0.053   0.665  1.00  0.00     0.263 A 
HETATM   22  O5  UNL     1       5.080  -0.418   1.842  1.00  0.00    -0.267 OA
ENDBRANCH   9  11
ENDBRANCH   8   9
ENDBRANCH   7   8
ENDBRANCH   1   7
BRANCH   6  23
HETATM   23  O3  UNL     1      -1.239  -1.594   2.866  1.00  0.00    -0.358 OA
ATOM     24  H3  UNL     1      -1.941  -2.001   3.359  1.00  0.00     0.217 HD
ENDBRANCH   6  23
BRANCH   4  25
HETATM   25  C8  UNL     1      -4.346  -1.438  -0.869  1.00  0.00     0.101 C 
BRANCH  25  26
HETATM   26  C9  UNL     1      -5.268  -0.268  -0.655  1.00  0.00     0.074 A 
HETATM   27  C10 UNL     1      -6.414  -0.049  -0.047  1.00  0.00     0.087 A 
HETATM   28  N1  UNL     1      -7.448  -0.537   0.691  1.00  0.00    -0.362 N 
HETATM   29  C14 UNL     1      -6.424   1.278  -0.407  1.00  0.00     0.091 A 
HETATM   30  C11 UNL     1      -8.442   0.267   1.048  1.00  0.00     0.088 A 
ATOM     31  H1  UNL     1      -7.459  -1.518   0.969  1.00  0.00     0.165 HD
HETATM   32  C12 UNL     1      -8.492   1.622   0.704  1.00  0.00     0.019 A 
HETATM   33  C13 UNL     1      -7.458   2.124  -0.038  1.00  0.00     0.036 A 
HETATM   34  N2  UNL     1      -5.300   1.090  -1.010  1.00  0.00    -0.224 N 
BRANCH  34  35
HETATM   35  O2  UNL     1      -4.457   1.923  -1.732  1.00  0.00    -0.282 OA
ATOM     36  H2  UNL     1      -4.479   2.842  -1.972  1.00  0.00     0.245 HD
ENDBRANCH  34  35
ENDBRANCH  25  26
ENDBRANCH   4  25
TORSDOF 8
