REMARK  10 active torsions:
REMARK  status: ('A' for Active; 'I' for Inactive)
REMARK    1  A    between atoms: C3_3  and  C4_4 
REMARK    2  A    between atoms: C4_4  and  C5_5 
REMARK    3  A    between atoms: C5_5  and  N1_6 
REMARK    4  A    between atoms: C5_5  and  C15_24 
REMARK    5  A    between atoms: N1_6  and  C6_9 
REMARK    6  A    between atoms: C6_9  and  C7_10 
REMARK    7  A    between atoms: N3_21  and  O1_22 
REMARK    8  A    between atoms: C15_24  and  O3_26 
REMARK    9  A    between atoms: O3_26  and  C16_27 
REMARK   10  A    between atoms: C16_27  and  C17_28 
REMARK       I    between atoms: C17_28  and  N4_30 
ROOT
HETATM    1  C1  UNL     1       2.712  -4.355   1.251  1.00  0.00     0.112 C 
HETATM    2  C2  UNL     1       1.657  -3.422   0.800  1.00  0.00    -0.111 C 
HETATM    3  C3  UNL     1       0.772  -2.674   0.436  1.00  0.00    -0.104 C 
ENDROOT
BRANCH   3   4
HETATM    4  C4  UNL     1      -0.315  -1.803   0.007  1.00  0.00     0.137 C 
BRANCH   4   5
HETATM    5  C5  UNL     1      -0.069  -0.419   0.493  1.00  0.00     0.296 C 
BRANCH   5   6
HETATM    6  N1  UNL     1      -1.123   0.505   0.114  1.00  0.00    -0.057 N 
ATOM      7  H12 UNL     1      -0.861   1.464   0.341  1.00  0.00     0.278 HD
ATOM      8  H11 UNL     1      -1.188   0.583  -0.901  1.00  0.00     0.278 HD
BRANCH   6   9
HETATM    9  C6  UNL     1      -2.395   0.180   0.679  1.00  0.00     0.274 C 
BRANCH   9  10
HETATM   10  C7  UNL     1      -3.421   1.155   0.218  1.00  0.00    -0.002 A 
HETATM   11  C8  UNL     1      -3.102   2.176  -0.650  1.00  0.00     0.030 A 
HETATM   12  C9  UNL     1      -4.084   3.063  -1.067  1.00  0.00     0.013 A 
HETATM   13 BR1  UNL     1      -3.588   4.454  -2.267  1.00  0.00    -0.051 Br
HETATM   14  C10 UNL     1      -5.380   2.930  -0.620  1.00  0.00     0.053 A 
HETATM   15  C11 UNL     1      -5.729   1.912   0.254  1.00  0.00     0.090 A 
HETATM   16  C12 UNL     1      -4.748   1.038   0.662  1.00  0.00     0.069 A 
HETATM   17  N3  UNL     1      -6.997   1.766   0.707  1.00  0.00    -0.233 N 
HETATM   18  N2  UNL     1      -5.038   0.033   1.513  1.00  0.00    -0.362 N 
HETATM   19  C13 UNL     1      -6.311  -0.089   1.948  1.00  0.00     0.108 A 
ATOM     20  H2  UNL     1      -4.315  -0.618   1.820  1.00  0.00     0.165 HD
HETATM   21  C14 UNL     1      -7.323   0.771   1.559  1.00  0.00     0.140 A 
BRANCH  17  22
HETATM   22  O1  UNL     1      -7.931   2.675   0.259  1.00  0.00    -0.283 OA
ATOM     23  H1  UNL     1      -8.820   2.573   0.577  1.00  0.00     0.245 HD
ENDBRANCH  17  22
ENDBRANCH   9  10
ENDBRANCH   6   9
ENDBRANCH   5   6
BRANCH   5  24
HETATM   24  C15 UNL     1       1.184   0.077  -0.125  1.00  0.00     0.291 C 
HETATM   25  O2  UNL     1       1.100   1.129  -0.841  1.00  0.00    -0.263 OA
BRANCH  24  26
HETATM   26  O3  UNL     1       2.427  -0.524   0.025  1.00  0.00    -0.310 OA
BRANCH  26  27
HETATM   27  C16 UNL     1       3.510   0.118  -0.656  1.00  0.00     0.281 C 
BRANCH  27  28
HETATM   28  C17 UNL     1       4.799  -0.565  -0.445  1.00  0.00     0.243 C 
HETATM   29  O4  UNL     1       4.835  -1.578   0.282  1.00  0.00    -0.271 OA
HETATM   30  N4  UNL     1       5.955  -0.053  -1.072  1.00  0.00    -0.359 N 
HETATM   31  C18 UNL     1       5.933   1.124  -1.923  1.00  0.00     0.152 C 
HETATM   32  C19 UNL     1       7.218  -0.760  -0.833  1.00  0.00     0.152 C 
ENDBRANCH  27  28
ENDBRANCH  26  27
ENDBRANCH  24  26
ENDBRANCH   5  24
ENDBRANCH   4   5
ENDBRANCH   3   4
TORSDOF 10
