REMARK  9 active torsions:
REMARK  status: ('A' for Active; 'I' for Inactive)
REMARK    1  A    between atoms: C2_2  and  C4_4 
REMARK    2  A    between atoms: C4_4  and  C5_5 
REMARK    3  A    between atoms: C4_4  and  N6_32 
REMARK    4  A    between atoms: C5_5  and  C6_6 
REMARK    5  A    between atoms: C5_5  and  N1_9 
REMARK    6  A    between atoms: C11_15  and  N3_16 
REMARK    7  A    between atoms: N3_16  and  C12_18 
REMARK    8  A    between atoms: C15_21  and  S1_22 
REMARK    9  A    between atoms: S1_22  and  N4_25 
ROOT
HETATM    1  N1  UNL     1      -1.944   0.104   0.264  1.00  0.00    -0.248 N 
HETATM    2  C9  UNL     1      -1.414   1.262   0.748  1.00  0.00     0.160 A 
HETATM    3  C10 UNL     1      -0.070   1.507   0.854  1.00  0.00     0.136 A 
HETATM    4 CL1  UNL     1       0.545   3.039   1.493  1.00  0.00    -0.062 Cl
HETATM    5  N2  UNL     1       0.772   0.546   0.457  1.00  0.00    -0.178 N 
ATOM      6  H2  UNL     1       1.782   0.677   0.515  1.00  0.00     0.185 HD
HETATM    7  C11 UNL     1       0.252  -0.591  -0.018  1.00  0.00     0.699 A 
HETATM    8  N5  UNL     1      -1.094  -0.810  -0.113  1.00  0.00    -0.125 N 
ATOM      9  H5  UNL     1      -1.437  -1.697  -0.482  1.00  0.00     0.206 HD
ENDROOT
BRANCH   7  10
HETATM   10  N3  UNL     1       1.073  -1.520  -0.401  1.00  0.00    -0.190 N 
ATOM     11  H3  UNL     1       0.693  -2.394  -0.765  1.00  0.00     0.184 HD
BRANCH  10  12
HETATM   12  C12 UNL     1       2.463  -1.363  -0.332  1.00  0.00     0.049 A 
HETATM   13  C13 UNL     1       3.123  -0.668  -1.342  1.00  0.00     0.031 A 
HETATM   14  C14 UNL     1       4.492  -0.512  -1.275  1.00  0.00     0.027 A 
HETATM   15  C15 UNL     1       5.263  -1.014  -0.246  1.00  0.00     0.074 A 
HETATM   16  C18 UNL     1       4.599  -1.707   0.761  1.00  0.00     0.027 A 
HETATM   17  C19 UNL     1       3.231  -1.869   0.704  1.00  0.00     0.031 A 
BRANCH  15  18
HETATM   18  S1  UNL     1       6.992  -0.803  -0.185  1.00  0.00     0.242 S 
HETATM   19  O1  UNL     1       7.530  -0.673  -1.596  1.00  0.00    -0.206 OA
HETATM   20  O2  UNL     1       7.599  -1.978   0.494  1.00  0.00    -0.206 OA
BRANCH  18  21
HETATM   21  N4  UNL     1       7.417   0.649   0.654  1.00  0.00    -0.215 NA
HETATM   22  C16 UNL     1       6.874   1.803  -0.035  1.00  0.00     0.129 C 
HETATM   23  C17 UNL     1       8.862   0.737   0.744  1.00  0.00     0.129 C 
ENDBRANCH  18  21
ENDBRANCH  15  18
ENDBRANCH  10  12
ENDBRANCH   7  10
BRANCH   1  24
HETATM   24  C5  UNL     1      -3.373  -0.098   0.198  1.00  0.00     0.087 C 
BRANCH  24  25
HETATM   25  C4  UNL     1      -4.126   0.859  -0.602  1.00  0.00     0.112 C 
BRANCH  25  26
HETATM   26  C2  UNL     1      -5.489   1.278  -0.240  1.00  0.00     0.036 C 
HETATM   27  C1  UNL     1      -6.606   0.397  -0.688  1.00  0.00     0.016 C 
HETATM   28  C3  UNL     1      -5.840   2.710  -0.549  1.00  0.00     0.016 C 
ENDBRANCH  25  26
BRANCH  25  29
HETATM   29  N6  UNL     1      -3.588   1.298  -1.683  1.00  0.00    -0.117 N 
HETATM   30  O3  UNL     1      -4.305   2.161  -2.490  1.00  0.00    -0.532 OA
HETATM   31  O4  UNL     1      -2.320   0.956  -2.122  1.00  0.00    -0.532 OA
ENDBRANCH  25  29
ENDBRANCH  24  25
BRANCH  24  32
HETATM   32  C6  UNL     1      -3.766  -1.520   0.234  1.00  0.00    -0.057 C 
HETATM   33  C7  UNL     1      -3.815  -2.245  -1.077  1.00  0.00     0.045 C 
HETATM   34  C8  UNL     1      -4.932  -1.857   1.122  1.00  0.00     0.045 C 
ENDBRANCH  24  32
ENDBRANCH   1  24
TORSDOF 9
