REMARK  7 active torsions:
REMARK  status: ('A' for Active; 'I' for Inactive)
REMARK    1  A    between atoms: C2_2  and  N1_5 
REMARK    2  A    between atoms: N1_5  and  C5_8 
REMARK    3  A    between atoms: C5_8  and  C6_9 
REMARK    4  A    between atoms: C7_12  and  C8_13 
REMARK    5  A    between atoms: C8_13  and  O1_14 
REMARK    6  A    between atoms: C8_13  and  N3_16 
REMARK    7  A    between atoms: N3_16  and  C9_18 
ROOT
HETATM    1  C6  UNL     1       1.237   1.465   0.568  1.00  0.00     0.077 A 
HETATM    2  N2  UNL     1       0.222   0.890  -0.051  1.00  0.00    -0.352 N 
ATOM      3  H2  UNL     1       0.376   0.055  -0.617  1.00  0.00     0.166 HD
HETATM    4  C7  UNL     1      -0.971   1.386   0.060  1.00  0.00     0.065 A 
HETATM    5  C13 UNL     1      -1.120   2.509   0.835  1.00  0.00     0.081 A 
HETATM    6  S1  UNL     1       0.501   2.775   1.356  1.00  0.00    -0.085 SA
ENDROOT
BRANCH   4   7
HETATM    7  C8  UNL     1      -2.194   0.788  -0.621  1.00  0.00     0.266 C 
BRANCH   7   8
HETATM    8  O1  UNL     1      -2.941   1.828  -1.167  1.00  0.00    -0.371 OA
ATOM      9  H1  UNL     1      -3.704   1.455  -1.592  1.00  0.00     0.212 HD
ENDBRANCH   7   8
BRANCH   7  10
HETATM   10  N3  UNL     1      -2.907   0.086   0.385  1.00  0.00    -0.384 N 
ATOM     11  H3  UNL     1      -2.603   0.069   1.359  1.00  0.00     0.156 HD
BRANCH  10  12
HETATM   12  C9  UNL     1      -4.083  -0.597  -0.063  1.00  0.00     0.017 C 
HETATM   13  C10 UNL     1      -5.148   0.321  -0.621  1.00  0.00     0.037 C 
HETATM   14  C11 UNL     1      -4.683  -1.287   1.169  1.00  0.00     0.037 C 
HETATM   15  C12 UNL     1      -3.809  -1.667  -1.079  1.00  0.00     0.037 C 
ENDBRANCH  10  12
ENDBRANCH   7  10
ENDBRANCH   4   7
BRANCH   1  16
HETATM   16  C5  UNL     1       2.686   1.073   0.584  1.00  0.00     0.297 C 
BRANCH  16  17
HETATM   17  N1  UNL     1       2.905  -0.129  -0.151  1.00  0.00    -0.062 N 
ATOM     18  H12 UNL     1       2.542  -0.049  -1.101  1.00  0.00     0.278 HD
ATOM     19  H11 UNL     1       2.307  -0.881   0.191  1.00  0.00     0.278 HD
BRANCH  17  20
HETATM   20  C2  UNL     1       4.268  -0.525  -0.158  1.00  0.00     0.115 C 
HETATM   21  C1  UNL     1       4.820  -0.834   1.213  1.00  0.00     0.045 C 
HETATM   22  C3  UNL     1       5.160   0.516  -0.791  1.00  0.00     0.045 C 
HETATM   23  C4  UNL     1       4.479  -1.803  -0.990  1.00  0.00     0.045 C 
ENDBRANCH  17  20
ENDBRANCH  16  17
ENDBRANCH   1  16
TORSDOF 7
