REMARK  4 active torsions:
REMARK  status: ('A' for Active; 'I' for Inactive)
REMARK    1  A    between atoms: C2_2  and  N1_3 
REMARK    2  A    between atoms: C2_2  and  C12_21 
REMARK    3  A    between atoms: N1_3  and  C3_5 
REMARK    4  A    between atoms: C10_12  and  N2_13 
ROOT
HETATM    1  C3  UNL     1       0.930   0.516   0.052  1.00  0.00     0.077 C 
HETATM    2  C4  UNL     1       0.341  -0.614   0.853  1.00  0.00     0.027 C 
HETATM    3  C5  UNL     1      -1.013  -0.234   1.481  1.00  0.00     0.033 C 
HETATM    4  C6  UNL     1      -2.044  -0.056   0.422  1.00  0.00     0.033 C 
HETATM    5  C7  UNL     1      -1.388   0.480  -0.826  1.00  0.00     0.033 C 
HETATM    6  C8  UNL     1      -0.229   1.365  -0.469  1.00  0.00     0.027 C 
HETATM    7  C9  UNL     1      -3.135   0.918   0.830  1.00  0.00     0.071 C 
HETATM    8  C10 UNL     1      -4.377   0.279   0.306  1.00  0.00     0.249 C 
HETATM    9  C11 UNL     1      -4.010  -1.138   0.109  1.00  0.00     0.120 C 
HETATM   10  N3  UNL     1      -4.969  -2.162  -0.129  1.00  0.00    -0.086 NA
HETATM   11  N4  UNL     1      -2.732  -1.306   0.176  1.00  0.00    -0.371 N 
ATOM     12  H4  UNL     1      -2.265  -2.207   0.069  1.00  0.00     0.161 HD
ENDROOT
BRANCH   8  13
HETATM   13  N2  UNL     1      -4.868   0.835  -0.913  1.00  0.00    -0.069 N 
ATOM     14  H23 UNL     1      -5.003   1.841  -0.813  1.00  0.00     0.275 HD
ATOM     15  H22 UNL     1      -4.138   0.825  -1.625  1.00  0.00     0.275 HD
ATOM     16  H21 UNL     1      -5.717   0.398  -1.271  1.00  0.00     0.275 HD
ENDBRANCH   8  13
BRANCH   1  17
HETATM   17  N1  UNL     1       1.705   0.119  -1.062  1.00  0.00    -0.407 N 
ATOM     18  H1  UNL     1       1.381   0.333  -2.005  1.00  0.00     0.154 HD
BRANCH  17  19
HETATM   19  C2  UNL     1       2.919  -0.568  -0.882  1.00  0.00     0.130 C 
HETATM   20  C1  UNL     1       2.912  -1.891  -0.215  1.00  0.00     0.039 C 
BRANCH  19  21
HETATM   21  C12 UNL     1       3.999   0.308  -0.303  1.00  0.00     0.074 A 
HETATM   22  C13 UNL     1       4.842  -0.037   0.721  1.00  0.00     0.037 A 
HETATM   23  C14 UNL     1       5.683   1.052   0.944  1.00  0.00     0.027 A 
HETATM   24  C15 UNL     1       5.293   1.999   0.033  1.00  0.00     0.142 A 
HETATM   25  O1  UNL     1       4.302   1.516  -0.676  1.00  0.00    -0.325 OA
ENDBRANCH  19  21
ENDBRANCH  17  19
ENDBRANCH   1  17
TORSDOF 4
