REMARK  6 active torsions:
REMARK  status: ('A' for Active; 'I' for Inactive)
REMARK    1  A    between atoms: O1_2  and  C2_3 
REMARK    2  A    between atoms: C2_3  and  C3_5 
REMARK    3  A    between atoms: C3_5  and  C4_6 
REMARK    4  A    between atoms: C3_5  and  S1_10 
REMARK    5  A    between atoms: S1_10  and  C8_11 
REMARK    6  A    between atoms: C9_13  and  N1_14 
ROOT
HETATM    1  C8  UNL     1       2.065  -0.348   0.726  1.00  0.00     0.087 A 
HETATM    2  S2  UNL     1       3.087  -0.737   2.077  1.00  0.00    -0.044 SA
HETATM    3  C9  UNL     1       4.451   0.174   1.635  1.00  0.00     0.144 A 
HETATM    4  N2  UNL     1       4.080   0.732   0.487  1.00  0.00    -0.324 N 
ATOM      5  H2  UNL     1       4.717   1.347  -0.019  1.00  0.00     0.169 HD
HETATM    6  C10 UNL     1       2.883   0.479   0.016  1.00  0.00     0.142 A 
HETATM    7  N3  UNL     1       2.456   1.022  -1.256  1.00  0.00    -0.081 NA
ENDROOT
BRANCH   1   8
HETATM    8  S1  UNL     1       0.433  -1.004   0.468  1.00  0.00    -0.100 SA
BRANCH   8   9
HETATM    9  C3  UNL     1      -0.504  -0.335  -0.864  1.00  0.00     0.175 C 
BRANCH   9  10
HETATM   10  C2  UNL     1      -1.107   1.000  -0.645  1.00  0.00     0.276 C 
HETATM   11  O2  UNL     1      -2.330   1.192  -1.005  1.00  0.00    -0.264 OA
BRANCH  10  12
HETATM   12  O1  UNL     1      -0.507   2.105  -0.087  1.00  0.00    -0.325 OA
HETATM   13  C1  UNL     1      -1.191   3.347   0.070  1.00  0.00     0.213 C 
ENDBRANCH  10  12
ENDBRANCH   9  10
BRANCH   9  14
HETATM   14  C4  UNL     1      -1.600  -1.275  -1.227  1.00  0.00     0.001 C 
HETATM   15  C5  UNL     1      -2.438  -1.803  -0.338  1.00  0.00    -0.090 C 
HETATM   16  C6  UNL     1      -2.411  -1.546   1.110  1.00  0.00     0.042 C 
HETATM   17  C7  UNL     1      -3.503  -2.734  -0.861  1.00  0.00     0.042 C 
ENDBRANCH   9  14
ENDBRANCH   8   9
ENDBRANCH   1   8
BRANCH   3  18
HETATM   18  N1  UNL     1       5.594   0.299   2.266  1.00  0.00    -0.380 N 
ATOM     19  H12 UNL     1       5.879  -0.129   3.147  1.00  0.00     0.158 HD
ATOM     20  H11 UNL     1       6.413   0.846   2.001  1.00  0.00     0.158 HD
ENDBRANCH   3  18
TORSDOF 6
