REMARK  1 active torsions:
REMARK  status: ('A' for Active; 'I' for Inactive)
REMARK    1  A    between atoms: C4_8  and  O3_9 
ROOT
HETATM    1  O1  UNL     1      -1.950   1.276   1.638  1.00  0.00    -0.217 OA
HETATM    2  S1  UNL     1      -1.669   1.054   0.157  1.00  0.00     0.195 S 
HETATM    3  O2  UNL     1      -2.680   1.840  -0.627  1.00  0.00    -0.217 OA
HETATM    4  C1  UNL     1      -1.852  -0.688  -0.195  1.00  0.00     0.177 C 
HETATM    5  C2  UNL     1      -0.848  -0.559  -1.306  1.00  0.00     0.131 C 
HETATM    6  S2  UNL     1       0.516  -1.775  -1.121  1.00  0.00    -0.149 SA
HETATM    7  C3  UNL     1       1.291  -1.230   0.405  1.00  0.00     0.117 C 
HETATM    8  C4  UNL     1       1.694   0.225   0.181  1.00  0.00     0.195 C 
HETATM    9  S3  UNL     1       0.066   1.037  -0.502  1.00  0.00    -0.058 SA
ENDROOT
BRANCH   8  10
HETATM   10  O3  UNL     1       2.170   0.775   1.339  1.00  0.00    -0.384 OA
ATOM     11  H3  UNL     1       2.421   1.681   1.200  1.00  0.00     0.211 HD
ENDBRANCH   8  10
TORSDOF 1
