REMARK  4 active torsions:
REMARK  status: ('A' for Active; 'I' for Inactive)
REMARK    1  A    between atoms: N1_5  and  C4_6 
REMARK    2  A    between atoms: C6_8  and  O2_9 
REMARK    3  A    between atoms: C7_11  and  C8_12 
REMARK    4  A    between atoms: C8_12  and  O3_13 
ROOT
HETATM    1  C4  UNL     1       0.028  -0.643  -0.510  1.00  0.00     0.229 C 
HETATM    2  C5  UNL     1      -0.556  -1.135   0.798  1.00  0.00     0.088 C 
HETATM    3  C6  UNL     1      -2.049  -0.984   0.541  1.00  0.00     0.153 C 
HETATM    4  C7  UNL     1      -2.080  -0.026  -0.599  1.00  0.00     0.176 C 
HETATM    5  O4  UNL     1      -0.792   0.425  -0.815  1.00  0.00    -0.356 OA
ENDROOT
BRANCH   1   6
HETATM    6  N1  UNL     1       1.405  -0.212  -0.343  1.00  0.00    -0.339 N 
HETATM    7  C3  UNL     1       2.356  -1.133  -0.165  1.00  0.00     0.097 A 
HETATM    8  C2  UNL     1       3.689  -0.839   0.003  1.00  0.00     0.072 A 
HETATM    9  C1  UNL     1       4.099   0.477  -0.008  1.00  0.00     0.174 A 
HETATM   10  O1  UNL     1       5.305   0.806   0.141  1.00  0.00    -0.288 OA
HETATM   11  C10 UNL     1       3.095   1.434  -0.195  1.00  0.00     0.072 A 
HETATM   12  C9  UNL     1       1.780   1.076  -0.357  1.00  0.00     0.097 A 
ENDBRANCH   1   6
BRANCH   3  13
HETATM   13  O2  UNL     1      -2.677  -0.523   1.686  1.00  0.00    -0.393 OA
ATOM     14  H2  UNL     1      -3.609  -0.429   1.526  1.00  0.00     0.210 HD
ENDBRANCH   3  13
BRANCH   4  15
HETATM   15  C8  UNL     1      -3.074   1.091  -0.435  1.00  0.00     0.198 C 
BRANCH  15  16
HETATM   16  O3  UNL     1      -2.813   1.931   0.614  1.00  0.00    -0.398 OA
ATOM     17  H3  UNL     1      -3.441   2.636   0.718  1.00  0.00     0.209 HD
ENDBRANCH  15  16
ENDBRANCH   4  15
TORSDOF 4
