REMARK  4 active torsions:
REMARK  status: ('A' for Active; 'I' for Inactive)
REMARK    1  A    between atoms: O1_1  and  C1_3 
REMARK    2  A    between atoms: C1_3  and  C2_4 
REMARK    3  A    between atoms: C7_12  and  C8_13 
REMARK    4  A    between atoms: C8_13  and  O5_14 
ROOT
HETATM    1  C2  UNL     1       1.095  -0.386   0.156  1.00  0.00     0.090 C 
HETATM    2  C3  UNL     1       1.007   0.241  -1.226  1.00  0.00     0.078 C 
HETATM    3  C4  UNL     1      -0.453   0.528  -1.360  1.00  0.00     0.200 C 
HETATM    4  O2  UNL     1      -1.107  -0.531  -2.032  1.00  0.00    -0.230 OA
HETATM    5  O3  UNL     1      -0.363  -1.587  -1.828  1.00  0.00    -0.205 OA
HETATM    6  C5  UNL     1      -0.363  -2.049  -0.539  1.00  0.00     0.321 C 
HETATM    7  C6  UNL     1      -1.554  -1.697   0.272  1.00  0.00     0.232 C 
HETATM    8  O4  UNL     1      -1.970  -0.419   0.252  1.00  0.00    -0.370 OA
HETATM    9  C7  UNL     1      -1.049   0.556   0.024  1.00  0.00     0.114 C 
HETATM   10  C9  UNL     1       0.158   0.494   0.928  1.00  0.00     0.083 C 
HETATM   11  O6  UNL     1       0.781  -1.712   0.179  1.00  0.00    -0.343 OA
ENDROOT
BRANCH   1  12
HETATM   12  C1  UNL     1       2.534  -0.244   0.665  1.00  0.00     0.202 C 
BRANCH  12  13
HETATM   13  O1  UNL     1       2.933   1.086   0.672  1.00  0.00    -0.398 OA
ATOM     14  H1  UNL     1       3.825   1.174   0.987  1.00  0.00     0.209 HD
ENDBRANCH  12  13
ENDBRANCH   1  12
BRANCH   9  15
HETATM   15  C8  UNL     1      -1.740   1.903   0.166  1.00  0.00     0.205 C 
BRANCH  15  16
HETATM   16  O5  UNL     1      -2.261   2.028   1.456  1.00  0.00    -0.398 OA
ATOM     17  H5  UNL     1      -2.693   2.870   1.545  1.00  0.00     0.209 HD
ENDBRANCH  15  16
ENDBRANCH   9  15
TORSDOF 4
