REMARK  5 active torsions:
REMARK  status: ('A' for Active; 'I' for Inactive)
REMARK    1  A    between atoms: C2_2  and  O1_3 
REMARK    2  A    between atoms: O1_3  and  C3_4 
REMARK    3  A    between atoms: C3_4  and  C4_5 
REMARK    4  A    between atoms: C9_12  and  O4_13 
REMARK    5  A    between atoms: C10_15  and  O5_16 
ROOT
HETATM    1  C4  UNL     1       0.552  -0.346   0.851  1.00  0.00     0.224 C 
HETATM    2  O2  UNL     1       0.802   0.984   0.603  1.00  0.00    -0.229 OA
HETATM    3  O3  UNL     1       0.116   1.389  -0.416  1.00  0.00    -0.226 OA
HETATM    4  C5  UNL     1      -1.063   0.697  -0.495  1.00  0.00     0.129 C 
HETATM    5  C6  UNL     1      -1.323   0.367  -1.944  1.00  0.00     0.052 C 
HETATM    6  C7  UNL     1      -2.224   1.505   0.008  1.00  0.00     0.047 C 
HETATM    7  C8  UNL     1      -2.957   0.483   0.883  1.00  0.00     0.038 C 
HETATM    8  C9  UNL     1      -1.782  -0.200   1.555  1.00  0.00     0.158 C 
HETATM    9  C10 UNL     1      -0.887  -0.487   0.380  1.00  0.00     0.148 C 
ENDROOT
BRANCH   1  10
HETATM   10  C3  UNL     1       1.458  -1.319   0.180  1.00  0.00     0.205 C 
BRANCH  10  11
HETATM   11  O1  UNL     1       2.777  -1.264   0.478  1.00  0.00    -0.389 OA
BRANCH  11  12
HETATM   12  C2  UNL     1       3.476  -0.132   0.217  1.00  0.00     0.163 C 
HETATM   13  C1  UNL     1       3.477   0.279  -1.246  1.00  0.00     0.033 C 
ENDBRANCH  11  12
ENDBRANCH  10  11
ENDBRANCH   1  10
BRANCH   9  14
HETATM   14  O5  UNL     1      -1.132  -1.701  -0.210  1.00  0.00    -0.381 OA
ATOM     15  H5  UNL     1      -2.031  -1.789  -0.504  1.00  0.00     0.211 HD
ENDBRANCH   9  14
BRANCH   8  16
HETATM   16  O4  UNL     1      -2.134  -1.315   2.270  1.00  0.00    -0.392 OA
ATOM     17  H4  UNL     1      -1.398  -1.743   2.691  1.00  0.00     0.210 HD
ENDBRANCH   8  16
TORSDOF 5
