REMARK  4 active torsions:
REMARK  status: ('A' for Active; 'I' for Inactive)
REMARK    1  A    between atoms: O1_1  and  C1_3 
REMARK    2  A    between atoms: C3_6  and  O3_7 
REMARK    3  A    between atoms: O3_7  and  C4_8 
REMARK    4  A    between atoms: C9_15  and  O6_16 
ROOT
HETATM    1  C1  UNL     1      -3.273   0.308   0.274  1.00  0.00     0.170 C 
HETATM    2  C2  UNL     1      -2.241   1.175   0.898  1.00  0.00     0.205 C 
HETATM    3  O2  UNL     1      -1.142   0.423   1.324  1.00  0.00    -0.359 OA
HETATM    4  C3  UNL     1      -0.493   0.007   0.164  1.00  0.00     0.262 C 
HETATM    5  C8  UNL     1      -1.308  -0.992  -0.608  1.00  0.00     0.095 C 
HETATM    6  C9  UNL     1      -2.764  -0.927  -0.377  1.00  0.00     0.153 C 
ENDROOT
BRANCH   4   7
HETATM    7  O3  UNL     1       0.724  -0.556   0.529  1.00  0.00    -0.352 OA
BRANCH   7   8
HETATM    8  C4  UNL     1       1.781   0.150   0.003  1.00  0.00     0.172 C 
HETATM    9  C5  UNL     1       2.562   0.744   1.152  1.00  0.00     0.204 C 
HETATM   10  O4  UNL     1       3.772   1.196   0.586  1.00  0.00    -0.364 OA
HETATM   11  C6  UNL     1       4.521   0.094   0.290  1.00  0.00     0.337 C 
HETATM   12  O5  UNL     1       3.923  -0.874  -0.443  1.00  0.00    -0.364 OA
HETATM   13  C7  UNL     1       2.670  -0.650  -0.899  1.00  0.00     0.204 C 
ENDBRANCH   7   8
ENDBRANCH   4   7
BRANCH   6  14
HETATM   14  O6  UNL     1      -3.203  -2.065   0.340  1.00  0.00    -0.393 OA
ATOM     15  H6  UNL     1      -2.878  -2.855  -0.076  1.00  0.00     0.210 HD
ENDBRANCH   6  14
BRANCH   1  16
HETATM   16  O1  UNL     1      -3.990   1.107  -0.648  1.00  0.00    -0.391 OA
ATOM     17  H1  UNL     1      -4.650   0.552  -1.047  1.00  0.00     0.210 HD
ENDBRANCH   1  16
TORSDOF 4
