REMARK  2 active torsions:
REMARK  status: ('A' for Active; 'I' for Inactive)
REMARK    1  A    between atoms: C2_2  and  N1_3 
REMARK    2  A    between atoms: N1_3  and  C3_5 
ROOT
HETATM    1  C3  UNL     1      -0.120   0.335   0.336  1.00  0.00     0.076 A 
HETATM    2  N2  UNL     1      -1.050   0.353   1.247  1.00  0.00    -0.380 N 
ATOM      3  H2  UNL     1      -0.887   0.561   2.232  1.00  0.00     0.160 HD
HETATM    4  C4  UNL     1      -2.333   0.042   0.686  1.00  0.00     0.121 A 
HETATM    5  C5  UNL     1      -2.142  -0.170  -0.781  1.00  0.00     0.027 A 
HETATM    6  C6  UNL     1      -0.669   0.001  -0.983  1.00  0.00     0.078 A 
ENDROOT
BRANCH   1   7
HETATM    7  N1  UNL     1       1.237   0.612   0.650  1.00  0.00    -0.357 N 
ATOM      8  H1  UNL     1       1.497   1.577   0.855  1.00  0.00     0.166 HD
BRANCH   7   9
HETATM    9  C2  UNL     1       2.250  -0.380   0.694  1.00  0.00     0.079 C 
HETATM   10  C1  UNL     1       3.347  -0.193   0.014  1.00  0.00     0.029 C 
ENDBRANCH   7   9
ENDBRANCH   1   7
TORSDOF 2
