REMARK  1 active torsions:
REMARK  status: ('A' for Active; 'I' for Inactive)
REMARK    1  A    between atoms: N1_2  and  C2_4 
ROOT
HETATM    1  C2  UNL     1       0.338  -0.439   0.178  1.00  0.00     0.283 C 
HETATM    2  C3  UNL     1       0.351   1.071  -0.088  1.00  0.00     0.056 C 
HETATM    3  C4  UNL     1      -1.058   1.256  -0.629  1.00  0.00     0.031 C 
HETATM    4  C5  UNL     1      -1.461  -0.129  -1.128  1.00  0.00     0.235 C 
HETATM    5  N2  UNL     1      -0.230  -0.913  -1.062  1.00  0.00    -0.054 N 
ATOM      6  H21 UNL     1      -0.351  -1.924  -1.129  1.00  0.00     0.279 HD
ATOM      7  H22 UNL     1       0.379  -0.841  -1.877  1.00  0.00     0.279 HD
ENDROOT
BRANCH   1   8
HETATM    8  N1  UNL     1       1.652  -0.896   0.424  1.00  0.00    -0.382 N 
HETATM    9  C1  UNL     1       2.034  -0.999   1.634  1.00  0.00     0.114 C 
ATOM     10  H1  UNL     1       2.277  -1.136  -0.346  1.00  0.00     0.160 HD
ENDBRANCH   1   8
TORSDOF 1
