REMARK  0 active torsions:
REMARK  status: ('A' for Active; 'I' for Inactive)
ROOT
HETATM    1  C1  UNL     1       2.635   0.533  -0.133  1.00  0.00     0.097 C 
HETATM    2  C2  UNL     1       1.427   0.369  -0.371  1.00  0.00    -0.181 C 
HETATM    3  C3  UNL     1       0.038   0.180  -0.645  1.00  0.00     0.079 C 
HETATM    4  C4  UNL     1      -0.364  -1.227  -0.177  1.00  0.00     0.045 C 
HETATM    5  C5  UNL     1      -1.362  -1.030   0.896  1.00  0.00     0.233 C 
HETATM    6  N1  UNL     1      -1.972   0.269   0.639  1.00  0.00    -0.074 N 
ATOM      7  H11 UNL     1      -2.507   0.652   1.418  1.00  0.00     0.277 HD
ATOM      8  H12 UNL     1      -2.751   0.253  -0.020  1.00  0.00     0.277 HD
HETATM    9  C6  UNL     1      -0.843   1.072   0.225  1.00  0.00     0.248 C 
ENDROOT
TORSDOF 0
