REMARK  1 active torsions:
REMARK  status: ('A' for Active; 'I' for Inactive)
REMARK    1  A    between atoms: C2_2  and  C3_3 
ROOT
HETATM    1  C3  UNL     1      -0.086  -0.441  -0.342  1.00  0.00     0.122 C 
HETATM    2  C4  UNL     1       0.167  -0.859   1.084  1.00  0.00     0.149 C 
HETATM    3  N1  UNL     1      -0.963  -0.344   1.811  1.00  0.00    -0.384 N 
ATOM      4  H1  UNL     1      -1.024  -0.320   2.829  1.00  0.00     0.160 HD
HETATM    5  C5  UNL     1      -1.894   0.085   1.019  1.00  0.00     0.171 C 
HETATM    6  N2  UNL     1      -1.482  -0.099  -0.317  1.00  0.00    -0.377 N 
ATOM      7  H2  UNL     1      -2.081  -0.004  -1.137  1.00  0.00     0.161 HD
ENDROOT
BRANCH   1   8
HETATM    8  C2  UNL     1       0.712   0.770  -0.678  1.00  0.00    -0.011 C 
HETATM    9  C1  UNL     1       1.934   0.727  -1.160  1.00  0.00     0.009 C 
ENDBRANCH   1   8
TORSDOF 1
