REMARK  1 active torsions:
REMARK  status: ('A' for Active; 'I' for Inactive)
REMARK    1  A    between atoms: C2_2  and  C3_3 
ROOT
HETATM    1  C3  UNL     1       0.092  -0.106   0.551  1.00  0.00     0.255 C 
HETATM    2  N1  UNL     1      -0.071  -1.071  -0.536  1.00  0.00    -0.058 N 
ATOM      3  H11 UNL     1       0.338  -2.004  -0.488  1.00  0.00     0.278 HD
ATOM      4  H12 UNL     1       0.397  -0.948  -1.434  1.00  0.00     0.278 HD
HETATM    5  C4  UNL     1      -1.495  -0.859  -0.388  1.00  0.00     0.287 C 
HETATM    6  C5  UNL     1      -1.164   0.522   0.064  1.00  0.00     0.040 C 
HETATM    7  N2  UNL     1      -1.646   1.690   0.071  1.00  0.00    -0.402 N 
ATOM      8  H21 UNL     1      -2.508   2.121  -0.263  1.00  0.00     0.155 HD
ATOM      9  H22 UNL     1      -1.419   2.635   0.380  1.00  0.00     0.155 HD
ENDROOT
BRANCH   1  10
HETATM   10  C2  UNL     1       1.301   0.728   0.447  1.00  0.00     0.002 C 
HETATM   11  C1  UNL     1       2.371   0.284  -0.228  1.00  0.00     0.009 C 
ENDBRANCH   1  10
TORSDOF 1
