REMARK  3 active torsions:
REMARK  status: ('A' for Active; 'I' for Inactive)
REMARK    1  A    between atoms: C2_2  and  O1_3 
REMARK    2  A    between atoms: C2_2  and  N1_5 
REMARK    3  A    between atoms: C3_6  and  N2_7 
ROOT
HETATM    1  N1  UNL     1      -0.737  -0.189  -0.319  1.00  0.00     0.013 N 
HETATM    2  C3  UNL     1      -0.888  -1.457   0.117  1.00  0.00     0.699 A 
HETATM    3  N3  UNL     1       0.101  -2.134   0.729  1.00  0.00    -0.140 N 
ATOM      4  H3  UNL     1      -0.054  -3.091   1.045  1.00  0.00     0.189 HD
HETATM    5  C4  UNL     1       1.281  -1.551   0.921  1.00  0.00     0.360 A 
HETATM    6  O2  UNL     1       2.198  -2.190   1.493  1.00  0.00    -0.245 OA
HETATM    7  N4  UNL     1       1.471  -0.302   0.506  1.00  0.00    -0.082 N 
HETATM    8  C5  UNL     1       2.554   0.486   0.586  1.00  0.00     0.180 A 
HETATM    9  C6  UNL     1       3.803   0.115   1.171  1.00  0.00     0.122 C 
HETATM   10  N5  UNL     1       4.807  -0.196   1.658  1.00  0.00    -0.190 NA
HETATM   11  C7  UNL     1       2.235   1.698   0.005  1.00  0.00     0.168 A 
HETATM   12  C8  UNL     1       3.133   2.828  -0.114  1.00  0.00     0.121 C 
HETATM   13  N6  UNL     1       3.858   3.732  -0.192  1.00  0.00    -0.190 NA
HETATM   14  N7  UNL     1       0.962   1.590  -0.405  1.00  0.00    -0.177 N 
ATOM     15  H7  UNL     1       0.437   2.327  -0.877  1.00  0.00     0.185 HD
HETATM   16  C9  UNL     1       0.473   0.362  -0.103  1.00  0.00     0.714 A 
ENDROOT
BRANCH   1  17
HETATM   17  C2  UNL     1      -1.796   0.541  -0.976  1.00  0.00     0.257 C 
HETATM   18  C1  UNL     1      -3.060   0.593  -0.163  1.00  0.00     0.064 C 
BRANCH  17  19
HETATM   19  O1  UNL     1      -2.034   0.031  -2.256  1.00  0.00    -0.375 OA
ATOM     20  H1  UNL     1      -1.235  -0.002  -2.770  1.00  0.00     0.212 HD
ENDBRANCH  17  19
ENDBRANCH   1  17
BRANCH   2  21
HETATM   21  N2  UNL     1      -2.029  -2.026  -0.067  1.00  0.00    -0.234 N 
ATOM     22  H22 UNL     1      -2.779  -1.513  -0.531  1.00  0.00     0.174 HD
ATOM     23  H21 UNL     1      -2.143  -2.985   0.263  1.00  0.00     0.174 HD
ENDBRANCH   2  21
TORSDOF 3
