REMARK  2 active torsions:
REMARK  status: ('A' for Active; 'I' for Inactive)
REMARK    1  A    between atoms: N2_13  and  N3_15 
REMARK    2  A    between atoms: C8_18  and  N4_19 
ROOT
HETATM    1  C1  UNL     1      -1.597  -0.921  -2.776  1.00  0.00     0.042 C 
HETATM    2  C2  UNL     1      -1.500  -0.696  -1.288  1.00  0.00     0.158 C 
HETATM    3  O1  UNL     1      -0.200  -0.950  -0.867  1.00  0.00    -0.320 OA
HETATM    4  C3  UNL     1       0.094  -0.112   0.171  1.00  0.00     0.389 C 
HETATM    5  N1  UNL     1       0.727  -0.680   1.330  1.00  0.00     0.021 N 
ATOM      6  H11 UNL     1       0.612  -1.656   1.602  1.00  0.00     0.288 HD
ATOM      7  H12 UNL     1       0.450  -0.447   2.283  1.00  0.00     0.288 HD
HETATM    8  C4  UNL     1       1.947  -0.166   0.708  1.00  0.00     0.230 C 
HETATM    9  C5  UNL     1       2.631  -1.149  -0.208  1.00  0.00     0.078 C 
HETATM   10  C6  UNL     1       2.924   0.461   1.653  1.00  0.00     0.078 C 
HETATM   11  O2  UNL     1       1.203   0.737  -0.056  1.00  0.00    -0.289 OA
HETATM   12  C7  UNL     1      -1.088   0.740   0.423  1.00  0.00     0.127 C 
HETATM   13  N2  UNL     1      -1.488   1.333   1.472  1.00  0.00    -0.306 N 
ATOM     14  H2  UNL     1      -2.350   1.872   1.392  1.00  0.00     0.186 HD
HETATM   15  C8  UNL     1      -1.741   0.746  -0.910  1.00  0.00     0.238 C 
ENDROOT
BRANCH  13  16
HETATM   16  N3  UNL     1      -0.880   1.324   2.703  1.00  0.00    -0.345 N 
ATOM     17  H32 UNL     1      -0.019   0.780   2.764  1.00  0.00     0.176 HD
ATOM     18  H31 UNL     1      -1.201   1.800   3.546  1.00  0.00     0.176 HD
ENDBRANCH  13  16
BRANCH  15  19
HETATM   19  N4  UNL     1      -3.088   1.142  -0.882  1.00  0.00    -0.142 N 
HETATM   20  O3  UNL     1      -3.599   1.568   0.156  1.00  0.00    -0.536 OA
HETATM   21  O4  UNL     1      -3.868   1.070  -1.991  1.00  0.00    -0.536 OA
ENDBRANCH  15  19
TORSDOF 2
