REMARK  2 active torsions:
REMARK  status: ('A' for Active; 'I' for Inactive)
REMARK    1  A    between atoms: N3_11  and  O3_12 
REMARK    2  A    between atoms: N4_17  and  O4_18 
ROOT
HETATM    1  C1  UNL     1       2.473  -1.695   0.429  1.00  0.00     0.163 C 
HETATM    2  N1  UNL     1       1.985  -0.349   0.179  1.00  0.00    -0.286 N 
HETATM    3  C2  UNL     1       0.692  -0.133  -0.116  1.00  0.00     0.171 A 
HETATM    4  C3  UNL     1       0.224   1.163  -0.356  1.00  0.00     0.174 A 
HETATM    5  C4  UNL     1       1.155   2.198  -0.273  1.00  0.00     0.282 A 
HETATM    6  O1  UNL     1       0.716   3.364  -0.492  1.00  0.00    -0.265 OA
HETATM    7  N2  UNL     1       2.437   1.958   0.023  1.00  0.00    -0.273 N 
ATOM      8  H2  UNL     1       3.107   2.725   0.081  1.00  0.00     0.173 HD
HETATM    9  C5  UNL     1       2.829   0.695   0.243  1.00  0.00     0.330 A 
HETATM   10  O2  UNL     1       4.043   0.447   0.526  1.00  0.00    -0.246 OA
HETATM   11  N3  UNL     1      -1.168   1.097  -0.642  1.00  0.00    -0.220 N 
HETATM   12  C6  UNL     1      -1.612  -0.165  -0.098  1.00  0.00     0.152 C 
HETATM   13  C7  UNL     1      -1.886   0.017   1.385  1.00  0.00     0.067 C 
HETATM   14  C8  UNL     1      -2.809  -0.722  -0.820  1.00  0.00     0.067 C 
HETATM   15  N4  UNL     1      -0.433  -0.989  -0.260  1.00  0.00    -0.210 N 
ENDROOT
BRANCH  11  16
HETATM   16  O3  UNL     1      -1.856   2.058  -1.294  1.00  0.00    -0.284 OA
ATOM     17  H3  UNL     1      -2.786   2.014  -1.485  1.00  0.00     0.245 HD
ENDBRANCH  11  16
BRANCH  15  18
HETATM   18  O4  UNL     1      -0.334  -2.312  -0.501  1.00  0.00    -0.283 OA
ATOM     19  H4  UNL     1      -1.086  -2.884  -0.597  1.00  0.00     0.245 HD
ENDBRANCH  15  18
TORSDOF 2
