REMARK  6 active torsions:
REMARK  status: ('A' for Active; 'I' for Inactive)
REMARK    1  A    between atoms: C2_2  and  O1_3 
REMARK    2  A    between atoms: O1_3  and  C3_4 
REMARK    3  A    between atoms: C3_4  and  C4_5 
REMARK    4  A    between atoms: C5_6  and  C6_7 
REMARK    5  A    between atoms: C6_7  and  O2_8 
REMARK    6  A    between atoms: N3_19  and  O5_21 
ROOT
HETATM    1  C6  UNL     1      -2.237   0.283   1.006  1.00  0.00     0.271 C 
HETATM    2  C7  UNL     1      -2.783   1.308   0.090  1.00  0.00     0.222 C 
HETATM    3  O3  UNL     1      -2.025   2.204  -0.342  1.00  0.00    -0.287 OA
HETATM    4  C8  UNL     1      -4.174   1.311  -0.328  1.00  0.00     0.162 C 
HETATM    5  N1  UNL     1      -4.892   0.243  -0.164  1.00  0.00    -0.305 N 
ATOM      6  H1  UNL     1      -5.868   0.252  -0.459  1.00  0.00     0.186 HD
HETATM    7  N2  UNL     1      -4.368  -0.915   0.403  1.00  0.00    -0.266 N 
ATOM      8  H2  UNL     1      -4.961  -1.737   0.516  1.00  0.00     0.190 HD
HETATM    9  C9  UNL     1      -3.031  -0.959   0.819  1.00  0.00     0.291 C 
HETATM   10  O4  UNL     1      -2.465  -2.082   1.049  1.00  0.00    -0.267 OA
ENDROOT
BRANCH   1  11
HETATM   11  C5  UNL     1      -0.855  -0.046   0.598  1.00  0.00    -0.041 C 
HETATM   12  C4  UNL     1       0.280  -0.325   0.283  1.00  0.00    -0.017 C 
BRANCH  12  13
HETATM   13  C3  UNL     1       1.626  -0.676  -0.076  1.00  0.00     0.219 C 
HETATM   14  N3  UNL     1       1.989  -1.913  -0.098  1.00  0.00    -0.240 N 
ATOM     15  H3  UNL     1       2.952  -2.130  -0.357  1.00  0.00     0.197 HD
BRANCH  13  16
HETATM   16  O1  UNL     1       2.591   0.264  -0.411  1.00  0.00    -0.328 OA
BRANCH  16  17
HETATM   17  C2  UNL     1       3.971   0.069  -0.062  1.00  0.00     0.173 C 
HETATM   18  C1  UNL     1       4.745   1.251  -0.561  1.00  0.00     0.034 C 
ENDBRANCH  16  17
ENDBRANCH  13  16
BRANCH  14  19
HETATM   19  O5  UNL     1       1.146  -2.956   0.209  1.00  0.00    -0.287 OA
ATOM     20  H5  UNL     1       1.413  -3.867   0.193  1.00  0.00     0.244 HD
ENDBRANCH  14  19
ENDBRANCH  12  13
ENDBRANCH   1  11
BRANCH   1  21
HETATM   21  O2  UNL     1      -2.276   0.730   2.324  1.00  0.00    -0.363 OA
ATOM     22  H2  UNL     1      -3.164   0.941   2.586  1.00  0.00     0.212 HD
ENDBRANCH   1  21
TORSDOF 6
