REMARK  1 active torsions:
REMARK  status: ('A' for Active; 'I' for Inactive)
REMARK       I    between atoms: C1_4  and  N3_6 
REMARK    1  A    between atoms: N4_12  and  O1_13 
ROOT
HETATM    1  N1  UNL     1      -3.056  -0.672  -0.100  1.00  0.00    -0.374 N 
ATOM      2  H11 UNL     1      -2.844  -1.654   0.075  1.00  0.00     0.158 HD
ATOM      3  H12 UNL     1      -4.031  -0.373  -0.124  1.00  0.00     0.158 HD
HETATM    4  C1  UNL     1      -2.141   0.227  -0.296  1.00  0.00     0.184 C 
HETATM    5  N2  UNL     1      -2.433   1.582  -0.537  1.00  0.00    -0.064 NA
HETATM    6  N3  UNL     1      -0.783  -0.190  -0.263  1.00  0.00    -0.348 N 
HETATM    7  C2  UNL     1       0.020  -0.263  -1.490  1.00  0.00     0.148 C 
HETATM    8  C3  UNL     1       1.410  -0.443  -0.867  1.00  0.00     0.106 C 
HETATM    9  C4  UNL     1       1.023  -1.517   0.170  1.00  0.00     0.050 C 
HETATM   10  C5  UNL     1       0.008  -0.588   0.865  1.00  0.00     0.103 C 
HETATM   11  C6  UNL     1       0.997   0.525   1.221  1.00  0.00     0.146 C 
HETATM   12  N4  UNL     1       1.652   0.705  -0.068  1.00  0.00    -0.192 NA
ENDROOT
BRANCH  12  13
HETATM   13  O1  UNL     1       2.940   1.054   0.046  1.00  0.00    -0.313 OA
ATOM     14  H1  UNL     1       3.102   1.822   0.581  1.00  0.00     0.237 HD
ENDBRANCH  12  13
TORSDOF 1
