REMARK  4 active torsions:
REMARK  status: ('A' for Active; 'I' for Inactive)
REMARK    1  A    between atoms: N1_1  and  C1_5 
REMARK    2  A    between atoms: C1_5  and  O1_6 
REMARK    3  A    between atoms: C1_5  and  C2_8 
REMARK    4  A    between atoms: C3_9  and  C4_10 
ROOT
HETATM    1  C1  UNL     1       2.529  -0.465   0.654  1.00  0.00     0.398 C 
ENDROOT
BRANCH   1   2
HETATM    2  N1  UNL     1       3.473  -0.014  -0.327  1.00  0.00    -0.042 N 
ATOM      3  H13 UNL     1       3.518   1.005  -0.340  1.00  0.00     0.278 HD
ATOM      4  H12 UNL     1       4.426  -0.224  -0.031  1.00  0.00     0.278 HD
ATOM      5  H11 UNL     1       3.299  -0.378  -1.264  1.00  0.00     0.278 HD
ENDBRANCH   1   2
BRANCH   1   6
HETATM    6  O1  UNL     1       2.765   0.029   1.927  1.00  0.00    -0.361 OA
ATOM      7  H1  UNL     1       2.140  -0.270   2.577  1.00  0.00     0.213 HD
ENDBRANCH   1   6
BRANCH   1   8
HETATM    8  C2  UNL     1       1.199  -0.019   0.222  1.00  0.00    -0.045 C 
HETATM    9  C3  UNL     1       0.097   0.344  -0.114  1.00  0.00    -0.087 C 
BRANCH   9  10
HETATM   10  C4  UNL     1      -1.263   0.782  -0.503  1.00  0.00     0.127 C 
HETATM   11  C5  UNL     1      -2.184  -0.369  -0.840  1.00  0.00     0.038 C 
HETATM   12  C6  UNL     1      -3.363   0.171  -0.085  1.00  0.00     0.077 C 
HETATM   13  S1  UNL     1      -2.307   1.214   0.912  1.00  0.00    -0.152 SA
ENDBRANCH   9  10
ENDBRANCH   1   8
TORSDOF 4
