REMARK  3 active torsions:
REMARK  status: ('A' for Active; 'I' for Inactive)
REMARK    1  A    between atoms: O1_1  and  C1_3 
REMARK    2  A    between atoms: C2_4  and  O2_5 
REMARK    3  A    between atoms: C7_11  and  O3_12 
ROOT
HETATM    1  C1  UNL     1      -0.960   1.361  -0.130  1.00  0.00     0.176 C 
HETATM    2  C2  UNL     1       0.322   1.313   0.699  1.00  0.00     0.154 C 
HETATM    3  C3  UNL     1       0.515  -0.144   0.930  1.00  0.00     0.024 C 
HETATM    4  C4  UNL     1       1.684  -0.802   0.283  1.00  0.00     0.008 C 
HETATM    5  C5  UNL     1       0.714  -1.810  -0.338  1.00  0.00     0.008 C 
HETATM    6  C6  UNL     1      -0.404  -0.886  -0.021  1.00  0.00     0.024 C 
HETATM    7  C7  UNL     1      -0.734   0.163  -1.048  1.00  0.00     0.154 C 
ENDROOT
BRANCH   1   8
HETATM    8  O1  UNL     1      -2.026   1.008   0.705  1.00  0.00    -0.390 OA
ATOM      9  H1  UNL     1      -2.823   1.038   0.189  1.00  0.00     0.210 HD
ENDBRANCH   1   8
BRANCH   2  10
HETATM   10  O2  UNL     1       1.375   1.885  -0.008  1.00  0.00    -0.393 OA
ATOM     11  H2  UNL     1       2.172   1.855   0.508  1.00  0.00     0.210 HD
ENDBRANCH   2  10
BRANCH   7  12
HETATM   12  O3  UNL     1      -1.949  -0.121  -1.670  1.00  0.00    -0.393 OA
ATOM     13  H3  UNL     1      -1.808  -0.867  -2.241  1.00  0.00     0.210 HD
ENDBRANCH   7  12
TORSDOF 3
