REMARK  4 active torsions:
REMARK  status: ('A' for Active; 'I' for Inactive)
REMARK    1  A    between atoms: C2_2  and  C4_4 
REMARK    2  A    between atoms: C4_4  and  N4_11 
REMARK    3  A    between atoms: N1_5  and  N2_7 
REMARK    4  A    between atoms: N4_11  and  C6_13 
ROOT
HETATM    1  N2  UNL     1      -2.304   2.475  -0.952  1.00  0.00    -0.235 N 
ATOM      2  H2  UNL     1      -2.753   2.025  -1.749  1.00  0.00     0.199 HD
HETATM    3  C5  UNL     1      -2.709   3.744  -0.549  1.00  0.00     0.197 C 
HETATM    4  N3  UNL     1      -3.038   4.817  -0.225  1.00  0.00    -0.170 NA
ENDROOT
BRANCH   1   5
HETATM    5  N1  UNL     1      -1.299   1.830  -0.275  1.00  0.00    -0.280 N 
HETATM    6  C4  UNL     1      -1.371   0.621   0.167  1.00  0.00     0.096 C 
ATOM      7  H1  UNL     1      -0.434   2.344  -0.110  1.00  0.00     0.189 HD
BRANCH   6   8
HETATM    8  C2  UNL     1      -2.632  -0.128  -0.075  1.00  0.00     0.046 C 
HETATM    9  C1  UNL     1      -3.236  -0.528   1.265  1.00  0.00     0.017 C 
HETATM   10  C3  UNL     1      -2.408  -1.361  -0.933  1.00  0.00     0.017 C 
ENDBRANCH   6   8
BRANCH   6  11
HETATM   11  N4  UNL     1      -0.284   0.059   0.847  1.00  0.00    -0.374 N 
ATOM     12  H4  UNL     1      -0.369  -0.048   1.858  1.00  0.00     0.161 HD
BRANCH  11  13
HETATM   13  C6  UNL     1       0.936  -0.378   0.242  1.00  0.00     0.082 C 
HETATM   14  C7  UNL     1       1.668   0.758  -0.482  1.00  0.00     0.025 C 
HETATM   15  C8  UNL     1       2.875   0.230  -1.175  1.00  0.00     0.002 C 
HETATM   16  C9  UNL     1       3.779  -0.611  -0.376  1.00  0.00     0.000 C 
HETATM   17  C10 UNL     1       3.141  -1.462   0.673  1.00  0.00     0.002 C 
HETATM   18  C11 UNL     1       1.910  -0.867   1.283  1.00  0.00     0.025 C 
ENDBRANCH  11  13
ENDBRANCH   6  11
ENDBRANCH   1   5
TORSDOF 4
