REMARK  3 active torsions:
REMARK  status: ('A' for Active; 'I' for Inactive)
REMARK    1  A    between atoms: O1_2  and  C2_3 
REMARK    2  A    between atoms: C4_5  and  C5_6 
REMARK    3  A    between atoms: C8_11  and  C10_13 
ROOT
HETATM    1  C2  UNL     1      -0.057   1.003  -0.075  1.00  0.00     0.140 C 
HETATM    2  C3  UNL     1       1.240   0.524  -0.640  1.00  0.00     0.048 C 
HETATM    3  C4  UNL     1       1.842  -0.635   0.103  1.00  0.00     0.089 C 
HETATM    4  C6  UNL     1       0.844  -1.717   0.316  1.00  0.00     0.017 C 
HETATM    5  C7  UNL     1      -0.441  -1.264   0.954  1.00  0.00     0.024 C 
HETATM    6  C8  UNL     1      -1.031  -0.050   0.307  1.00  0.00     0.071 C 
HETATM    7  C9  UNL     1      -2.083   0.525   1.235  1.00  0.00     0.029 C 
ENDROOT
BRANCH   6   8
HETATM    8  C10 UNL     1      -1.735  -0.520  -0.905  1.00  0.00     0.184 C 
HETATM    9  O4  UNL     1      -1.421  -0.017  -2.005  1.00  0.00    -0.647 OA
HETATM   10  O5  UNL     1      -2.721  -1.483  -0.889  1.00  0.00    -0.647 OA
ENDBRANCH   6   8
BRANCH   1  11
HETATM   11  O1  UNL     1      -0.608   1.930  -0.947  1.00  0.00    -0.389 OA
HETATM   12  C1  UNL     1      -0.646   3.168  -0.345  1.00  0.00     0.202 C 
ENDBRANCH   1  11
BRANCH   3  13
HETATM   13  C5  UNL     1       2.926  -1.218  -0.755  1.00  0.00     0.177 C 
HETATM   14  O2  UNL     1       3.197  -0.726  -1.899  1.00  0.00    -0.648 OA
HETATM   15  O3  UNL     1       3.675  -2.316  -0.331  1.00  0.00    -0.648 OA
ENDBRANCH   3  13
TORSDOF 3
