REMARK  4 active torsions:
REMARK  status: ('A' for Active; 'I' for Inactive)
REMARK    1  A    between atoms: C2_2  and  C3_3 
REMARK    2  A    between atoms: C3_3  and  C4_4 
REMARK    3  A    between atoms: C4_4  and  C5_5 
REMARK    4  A    between atoms: C6_9  and  N4_10 
ROOT
HETATM    1  C5  UNL     1       0.758   0.104   0.203  1.00  0.00     0.144 C 
HETATM    2  N1  UNL     1       0.759   0.290   1.618  1.00  0.00    -0.122 NA
HETATM    3  N2  UNL     1       1.911  -0.274   2.126  1.00  0.00    -0.038 NA
HETATM    4  N3  UNL     1       2.768  -0.569   1.096  1.00  0.00    -0.095 NA
HETATM    5  C6  UNL     1       2.199  -0.066  -0.133  1.00  0.00     0.313 C 
ENDROOT
BRANCH   1   6
HETATM    6  C4  UNL     1      -0.094  -1.060  -0.241  1.00  0.00     0.026 C 
BRANCH   6   7
HETATM    7  C3  UNL     1      -1.526  -0.920   0.144  1.00  0.00     0.001 C 
BRANCH   7   8
HETATM    8  C2  UNL     1      -2.133   0.324  -0.470  1.00  0.00    -0.004 C 
HETATM    9  C1  UNL     1      -3.593   0.451  -0.068  1.00  0.00     0.005 C 
ENDBRANCH   7   8
ENDBRANCH   6   7
ENDBRANCH   1   6
BRANCH   5  10
HETATM   10  N4  UNL     1       2.777   1.227  -0.421  1.00  0.00    -0.058 N 
ATOM     11  H43 UNL     1       2.266   1.726  -1.150  1.00  0.00     0.276 HD
ATOM     12  H42 UNL     1       2.633   1.893   0.338  1.00  0.00     0.276 HD
ATOM     13  H41 UNL     1       3.764   1.111  -0.651  1.00  0.00     0.276 HD
ENDBRANCH   5  10
TORSDOF 4
