REMARK  3 active torsions:
REMARK  status: ('A' for Active; 'I' for Inactive)
REMARK    1  A    between atoms: C2_4  and  N2_5 
REMARK    2  A    between atoms: N2_5  and  N3_7 
REMARK    3  A    between atoms: N3_7  and  C3_8 
ROOT
HETATM    1  N2  UNL     1       0.273   0.391   0.643  1.00  0.00    -0.284 N 
ATOM      2  H2  UNL     1      -0.093   1.092   1.287  1.00  0.00     0.184 HD
ENDROOT
BRANCH   1   3
HETATM    3  C2  UNL     1       1.649   0.057   0.669  1.00  0.00     0.133 A 
HETATM    4  N1  UNL     1       2.247  -0.753   1.549  1.00  0.00    -0.337 N 
HETATM    5  C1  UNL     1       3.548  -0.810   1.206  1.00  0.00     0.182 A 
ATOM      6  H1  UNL     1       1.803  -1.235   2.330  1.00  0.00     0.168 HD
HETATM    7  N5  UNL     1       3.805  -0.059   0.129  1.00  0.00    -0.358 N 
HETATM    8  C5  UNL     1       2.638   0.486  -0.217  1.00  0.00     0.138 A 
ATOM      9  H5  UNL     1       4.706   0.070  -0.332  1.00  0.00     0.166 HD
ENDBRANCH   1   3
BRANCH   1  10
HETATM   10  N3  UNL     1      -0.580  -0.236  -0.259  1.00  0.00    -0.078 NA
BRANCH  10  11
HETATM   11  C3  UNL     1      -1.913   0.275  -0.079  1.00  0.00     0.442 C 
HETATM   12  N4  UNL     1      -2.925  -0.207  -0.997  1.00  0.00    -0.012 N 
HETATM   13  C4  UNL     1      -3.795  -0.054   0.183  1.00  0.00     0.408 C 
ATOM     14  H42 UNL     1      -3.119   0.231  -1.897  1.00  0.00     0.284 HD
ATOM     15  H41 UNL     1      -2.838  -1.078  -1.520  1.00  0.00     0.284 HD
HETATM   16  O1  UNL     1      -2.639  -0.396   0.934  1.00  0.00    -0.318 OA
ENDBRANCH  10  11
ENDBRANCH   1  10
TORSDOF 3
