REMARK  3 active torsions:
REMARK  status: ('A' for Active; 'I' for Inactive)
REMARK    1  A    between atoms: C2_2  and  N1_3 
REMARK    2  A    between atoms: C2_2  and  C3_7 
REMARK    3  A    between atoms: N1_3  and  N2_4 
ROOT
HETATM    1  C3  UNL     1       0.395  -0.153   0.127  1.00  0.00     0.119 A 
HETATM    2  N3  UNL     1       1.198  -1.052  -0.480  1.00  0.00    -0.340 N 
ATOM      3  H3  UNL     1       0.813  -1.952  -0.765  1.00  0.00     0.168 HD
HETATM    4  C4  UNL     1       2.496  -0.787  -0.718  1.00  0.00     0.199 A 
HETATM    5  N4  UNL     1       3.053   0.385  -0.364  1.00  0.00    -0.188 N 
ATOM      6  H4  UNL     1       4.037   0.581  -0.547  1.00  0.00     0.185 HD
HETATM    7  C5  UNL     1       2.261   1.288   0.240  1.00  0.00     0.678 A 
HETATM    8  N5  UNL     1       2.805   2.412   0.577  1.00  0.00    -0.234 N 
ATOM      9  H51 UNL     1       2.204   3.097   1.035  1.00  0.00     0.174 HD
ATOM     10  H52 UNL     1       3.788   2.617   0.398  1.00  0.00     0.174 HD
HETATM   11  N6  UNL     1       0.960   1.017   0.477  1.00  0.00    -0.179 N 
ATOM     12  H6  UNL     1       0.386   1.723   0.937  1.00  0.00     0.185 HD
ENDROOT
BRANCH   1  13
HETATM   13  C2  UNL     1      -1.045  -0.434   0.397  1.00  0.00     0.162 C 
HETATM   14  C1  UNL     1      -1.512  -1.625  -0.392  1.00  0.00     0.038 C 
BRANCH  13  15
HETATM   15  N1  UNL     1      -1.878   0.705   0.037  1.00  0.00    -0.136 NA
BRANCH  15  16
HETATM   16  N2  UNL     1      -3.197   0.398   0.348  1.00  0.00    -0.348 N 
ATOM     17  H22 UNL     1      -3.513  -0.481   0.759  1.00  0.00     0.172 HD
ATOM     18  H21 UNL     1      -3.780   1.196   0.096  1.00  0.00     0.172 HD
ENDBRANCH  15  16
ENDBRANCH  13  15
ENDBRANCH   1  13
TORSDOF 3
