REMARK  5 active torsions:
REMARK  status: ('A' for Active; 'I' for Inactive)
REMARK    1  A    between atoms: N1_2  and  C2_5 
REMARK    2  A    between atoms: C2_5  and  C4_8 
REMARK    3  A    between atoms: C4_8  and  N3_9 
REMARK    4  A    between atoms: C4_8  and  C5_13 
REMARK    5  A    between atoms: N3_9  and  N4_10 
ROOT
HETATM    1  C2  UNL     1      -0.705   0.409   0.009  1.00  0.00     0.314 C 
HETATM    2  C3  UNL     1      -0.923   1.534   0.947  1.00  0.00     0.094 C 
HETATM    3  N2  UNL     1      -1.127   2.413   1.700  1.00  0.00    -0.195 NA
ENDROOT
BRANCH   1   4
HETATM    4  N1  UNL     1      -1.580  -0.663   0.502  1.00  0.00    -0.061 N 
HETATM    5  C1  UNL     1      -2.936  -0.121   0.383  1.00  0.00     0.268 C 
ATOM      6  H12 UNL     1      -1.345  -0.992   1.438  1.00  0.00     0.278 HD
ATOM      7  H11 UNL     1      -1.448  -1.557   0.029  1.00  0.00     0.278 HD
ENDBRANCH   1   4
BRANCH   1   8
HETATM    8  C4  UNL     1       0.714   0.015  -0.001  1.00  0.00     0.174 C 
BRANCH   8   9
HETATM    9  N3  UNL     1       1.531   1.074  -0.518  1.00  0.00    -0.138 NA
BRANCH   9  10
HETATM   10  N4  UNL     1       1.534   2.176   0.275  1.00  0.00    -0.348 N 
ATOM     11  H42 UNL     1       1.005   2.229   1.145  1.00  0.00     0.172 HD
ATOM     12  H41 UNL     1       2.115   2.929  -0.093  1.00  0.00     0.172 HD
ENDBRANCH   9  10
ENDBRANCH   8   9
BRANCH   8  13
HETATM   13  C5  UNL     1       0.996  -1.187  -0.879  1.00  0.00     0.169 A 
HETATM   14  C6  UNL     1       1.500  -2.396  -0.399  1.00  0.00     0.202 A 
HETATM   15  O1  UNL     1       2.474  -1.456  -0.731  1.00  0.00    -0.379 OA
ENDBRANCH   8  13
ENDBRANCH   1   8
TORSDOF 5
