REMARK  4 active torsions:
REMARK  status: ('A' for Active; 'I' for Inactive)
REMARK    1  A    between atoms: C1_4  and  N2_5 
REMARK    2  A    between atoms: N2_5  and  N3_7 
REMARK    3  A    between atoms: C2_9  and  C3_10 
REMARK    4  A    between atoms: C4_13  and  N5_14 
ROOT
HETATM    1  C3  UNL     1      -1.032  -0.164  -0.158  1.00  0.00     0.202 A 
HETATM    2  N4  UNL     1      -1.919   0.782  -0.510  1.00  0.00    -0.166 N 
ATOM      3  H4  UNL     1      -1.679   1.706  -0.868  1.00  0.00     0.186 HD
HETATM    4  C4  UNL     1      -3.173   0.327  -0.319  1.00  0.00     0.698 A 
HETATM    5  N6  UNL     1      -3.022  -0.919   0.158  1.00  0.00    -0.089 N 
ATOM      6  H6  UNL     1      -3.778  -1.555   0.412  1.00  0.00     0.213 HD
HETATM    7  O1  UNL     1      -1.738  -1.181   0.242  1.00  0.00    -0.203 OA
ENDROOT
BRANCH   1   8
HETATM    8  C2  UNL     1       0.427  -0.109  -0.198  1.00  0.00     0.166 C 
HETATM    9  N3  UNL     1       1.154  -1.109   0.177  1.00  0.00    -0.307 N 
ATOM     10  H3  UNL     1       0.725  -1.971   0.514  1.00  0.00     0.186 HD
BRANCH   9  11
HETATM   11  N2  UNL     1       2.528  -0.981   0.109  1.00  0.00    -0.297 N 
ATOM     12  H2  UNL     1       3.100  -1.785  -0.150  1.00  0.00     0.187 HD
BRANCH  11  13
HETATM   13  C1  UNL     1       3.142   0.252   0.395  1.00  0.00     0.190 C 
HETATM   14  N1  UNL     1       4.416   0.324   0.604  1.00  0.00    -0.394 N 
ATOM     15  H12 UNL     1       4.968  -0.533   0.557  1.00  0.00     0.156 HD
ATOM     16  H11 UNL     1       4.861   1.218   0.811  1.00  0.00     0.156 HD
ENDBRANCH  11  13
ENDBRANCH   9  11
ENDBRANCH   1   8
BRANCH   4  17
HETATM   17  N5  UNL     1      -4.263   0.974  -0.553  1.00  0.00    -0.233 N 
ATOM     18  H52 UNL     1      -4.378   1.921  -0.915  1.00  0.00     0.174 HD
ATOM     19  H51 UNL     1      -5.212   0.630  -0.408  1.00  0.00     0.174 HD
ENDBRANCH   4  17
TORSDOF 4
