REMARK  3 active torsions:
REMARK  status: ('A' for Active; 'I' for Inactive)
REMARK    1  A    between atoms: C2_5  and  N3_6 
REMARK    2  A    between atoms: N3_6  and  N4_8 
REMARK    3  A    between atoms: N4_8  and  C3_10 
ROOT
HETATM    1  C1  UNL     1      -2.756   1.156   0.501  1.00  0.00     0.198 C 
HETATM    2  N1  UNL     1      -1.636   0.240   0.273  1.00  0.00    -0.114 N 
HETATM    3  N2  UNL     1      -0.456   0.656  -0.127  1.00  0.00    -0.114 N 
ATOM      4  H2  UNL     1      -0.214   1.630  -0.311  1.00  0.00     0.206 HD
HETATM    5  C2  UNL     1       0.385  -0.378  -0.259  1.00  0.00     0.726 A 
HETATM    6  N5  UNL     1      -0.339  -1.462   0.080  1.00  0.00    -0.018 N 
ATOM      7  H5  UNL     1       0.008  -2.421   0.086  1.00  0.00     0.203 HD
HETATM    8  C4  UNL     1      -1.604  -1.086   0.414  1.00  0.00     0.707 A 
HETATM    9  N6  UNL     1      -2.567  -1.848   0.784  1.00  0.00    -0.233 N 
ATOM     10  H61 UNL     1      -2.543  -2.862   0.892  1.00  0.00     0.174 HD
ATOM     11  H62 UNL     1      -3.515  -1.566   1.034  1.00  0.00     0.174 HD
ENDROOT
BRANCH   5  12
HETATM   12  N3  UNL     1       1.741  -0.284  -0.679  1.00  0.00    -0.128 N 
ATOM     13  H3  UNL     1       1.944   0.219  -1.543  1.00  0.00     0.205 HD
BRANCH  12  14
HETATM   14  N4  UNL     1       2.804  -0.840   0.022  1.00  0.00    -0.263 N 
ATOM     15  H4  UNL     1       2.841  -1.845   0.193  1.00  0.00     0.190 HD
BRANCH  14  16
HETATM   16  C3  UNL     1       3.838   0.009   0.498  1.00  0.00     0.369 C 
HETATM   17  O1  UNL     1       3.810   1.265   0.299  1.00  0.00    -0.282 OA
ENDBRANCH  14  16
ENDBRANCH  12  14
ENDBRANCH   5  12
TORSDOF 3
