REMARK  3 active torsions:
REMARK  status: ('A' for Active; 'I' for Inactive)
REMARK    1  A    between atoms: C3_5  and  N2_6 
REMARK    2  A    between atoms: N2_6  and  N3_8 
REMARK    3  A    between atoms: N3_8  and  C4_10 
ROOT
HETATM    1  N3  UNL     1      -0.386  -1.136   0.169  1.00  0.00    -0.269 N 
ATOM      2  H3  UNL     1      -0.237  -1.885   0.845  1.00  0.00     0.190 HD
ENDROOT
BRANCH   1   3
HETATM    3  N2  UNL     1       0.632  -0.689  -0.637  1.00  0.00    -0.283 N 
ATOM      4  H2  UNL     1       0.473  -0.732  -1.644  1.00  0.00     0.188 HD
BRANCH   3   5
HETATM    5  C3  UNL     1       1.889  -0.171  -0.208  1.00  0.00     0.119 A 
HETATM    6  N1  UNL     1       3.073  -0.813  -0.225  1.00  0.00    -0.351 N 
HETATM    7  C2  UNL     1       4.045   0.004   0.244  1.00  0.00     0.090 A 
ATOM      8  H1  UNL     1       3.216  -1.771  -0.544  1.00  0.00     0.166 HD
HETATM    9  C1  UNL     1       3.501   1.225   0.585  1.00  0.00     0.021 A 
HETATM   10  C6  UNL     1       2.150   1.097   0.294  1.00  0.00     0.051 A 
ENDBRANCH   3   5
ENDBRANCH   1   3
BRANCH   1  11
HETATM   11  C4  UNL     1      -1.664  -0.509   0.022  1.00  0.00     0.207 A 
HETATM   12  N4  UNL     1      -2.072   0.071  -1.067  1.00  0.00    -0.273 N 
HETATM   13  N5  UNL     1      -3.356   0.594  -0.914  1.00  0.00    -0.119 NA
ATOM     14  H4  UNL     1      -1.523   0.136  -1.924  1.00  0.00     0.185 HD
HETATM   15  C5  UNL     1      -3.835   0.242   0.416  1.00  0.00     0.259 A 
HETATM   16  N6  UNL     1      -2.672  -0.416   0.997  1.00  0.00    -0.345 N 
ATOM     17  H6  UNL     1      -2.601  -0.755   1.957  1.00  0.00     0.164 HD
ENDBRANCH   1  11
TORSDOF 3
