REMARK  10 active torsions:
REMARK  status: ('A' for Active; 'I' for Inactive)
REMARK    1  A    between atoms: C5_5  and  O1_7 
REMARK    2  A    between atoms: O1_7  and  C7_8 
REMARK    3  A    between atoms: C7_8  and  C8_10 
REMARK    4  A    between atoms: C8_10  and  N1_11 
REMARK       I    between atoms: N1_11  and  C9_13 
REMARK    5  A    between atoms: C9_13  and  C10_15 
REMARK    6  A    between atoms: C10_15  and  O4_16 
REMARK    7  A    between atoms: C15_22  and  O5_23 
REMARK    8  A    between atoms: C15_22  and  C16_25 
REMARK    9  A    between atoms: C17_28  and  C18_29 
REMARK   10  A    between atoms: C18_29  and  O8_30 
ROOT
HETATM    1  C10 UNL     1      -2.200   0.285   0.201  1.00  0.00     0.147 C 
HETATM    2  C11 UNL     1      -1.937   1.482  -0.680  1.00  0.00     0.049 C 
HETATM    3  C12 UNL     1      -3.166   2.347  -0.832  1.00  0.00     0.011 C 
HETATM    4  C13 UNL     1      -4.428   1.559  -0.546  1.00  0.00     0.027 C 
HETATM    5  C14 UNL     1      -5.655   2.250  -1.099  1.00  0.00     0.014 C 
HETATM    6  C15 UNL     1      -4.289   0.151  -1.070  1.00  0.00     0.157 C 
HETATM    7  C17 UNL     1      -3.309  -0.600  -0.250  1.00  0.00     0.099 C 
ENDROOT
BRANCH   1   8
HETATM    8  C9  UNL     1      -0.917  -0.509   0.197  1.00  0.00     0.253 C 
HETATM    9  N1  UNL     1      -0.390  -1.033  -1.010  1.00  0.00    -0.349 N 
ATOM     10  H1  UNL     1      -0.890  -0.870  -1.884  1.00  0.00     0.163 HD
HETATM   11  O3  UNL     1      -0.287  -0.723   1.262  1.00  0.00    -0.270 OA
BRANCH   9  12
HETATM   12  C8  UNL     1       0.822  -1.782  -1.030  1.00  0.00     0.233 C 
BRANCH  12  13
HETATM   13  C7  UNL     1       2.017  -1.036  -0.559  1.00  0.00     0.279 C 
HETATM   14  O2  UNL     1       2.000   0.171  -0.186  1.00  0.00    -0.263 OA
BRANCH  13  15
HETATM   15  O1  UNL     1       3.275  -1.634  -0.494  1.00  0.00    -0.282 OA
BRANCH  15  16
HETATM   16  C5  UNL     1       4.429  -0.993  -0.064  1.00  0.00     0.170 C 
HETATM   17  C4  UNL     1       4.378  -0.473   1.343  1.00  0.00     0.073 C 
HETATM   18  C3  UNL     1       5.825  -0.123   1.726  1.00  0.00     0.041 C 
HETATM   19  C2  UNL     1       6.284   0.858   0.702  1.00  0.00    -0.066 C 
HETATM   20  C1  UNL     1       7.034   1.903   1.102  1.00  0.00     0.016 C 
HETATM   21  C19 UNL     1       5.912   0.666  -0.709  1.00  0.00     0.205 C 
HETATM   22  O9  UNL     1       4.697   0.065  -0.907  1.00  0.00    -0.351 OA
HETATM   23  C6  UNL     1       5.549  -2.044  -0.092  1.00  0.00     0.079 C 
ENDBRANCH  15  16
ENDBRANCH  13  15
ENDBRANCH  12  13
ENDBRANCH   9  12
ENDBRANCH   1   8
BRANCH   1  24
HETATM   24  O4  UNL     1      -2.454   0.657   1.518  1.00  0.00    -0.380 OA
ATOM     25  H4  UNL     1      -3.262   1.157   1.521  1.00  0.00     0.211 HD
ENDBRANCH   1  24
BRANCH   7  26
HETATM   26  C18 UNL     1      -3.906  -1.403   0.887  1.00  0.00     0.175 C 
BRANCH  26  27
HETATM   27  O8  UNL     1      -2.912  -2.219   1.481  1.00  0.00    -0.400 OA
ATOM     28  H8  UNL     1      -3.286  -2.723   2.194  1.00  0.00     0.209 HD
ENDBRANCH  26  27
ENDBRANCH   7  26
BRANCH   6  29
HETATM   29  O5  UNL     1      -3.728   0.251  -2.371  1.00  0.00    -0.378 OA
ATOM     30  H5  UNL     1      -3.640  -0.636  -2.701  1.00  0.00     0.211 HD
ENDBRANCH   6  29
BRANCH   6  31
HETATM   31  C16 UNL     1      -5.609  -0.467  -1.232  1.00  0.00     0.210 C 
HETATM   32  O6  UNL     1      -6.056  -0.875  -2.356  1.00  0.00    -0.646 OA
HETATM   33  O7  UNL     1      -6.477  -0.655  -0.164  1.00  0.00    -0.646 OA
ENDBRANCH   6  31
TORSDOF 10
