REMARK  10 active torsions:
REMARK  status: ('A' for Active; 'I' for Inactive)
REMARK    1  A    between atoms: C2_2  and  O1_3 
REMARK    2  A    between atoms: C6_8  and  C7_9 
REMARK    3  A    between atoms: C7_9  and  O2_10 
REMARK    4  A    between atoms: C9_13  and  C10_14 
REMARK    5  A    between atoms: C10_14  and  O3_15 
REMARK    6  A    between atoms: C11_18  and  C12_19 
REMARK    7  A    between atoms: C13_22  and  O7_23 
REMARK    8  A    between atoms: O7_23  and  C14_24 
REMARK    9  A    between atoms: C14_24  and  C15_25 
REMARK   10  A    between atoms: C17_29  and  O10_30 
ROOT
HETATM    1  C1  UNL     1       0.698   3.381  -0.144  1.00  0.00     0.047 C 
HETATM    2  C2  UNL     1       0.481   1.911   0.292  1.00  0.00     0.068 C 
HETATM    3  C3  UNL     1      -0.753   1.490  -0.314  1.00  0.00     0.025 C 
HETATM    4  C4  UNL     1      -1.697   2.609  -0.833  1.00  0.00     0.009 C 
HETATM    5  C5  UNL     1      -2.698   1.650  -1.510  1.00  0.00     0.012 C 
HETATM    6  C6  UNL     1      -2.612   0.333  -0.720  1.00  0.00    -0.012 C 
HETATM    7  C8  UNL     1      -1.862  -0.739  -1.403  1.00  0.00     0.055 C 
HETATM    8  C9  UNL     1      -0.781  -1.461  -0.653  1.00  0.00     0.110 C 
HETATM    9  O4  UNL     1       0.361  -0.964  -0.399  1.00  0.00    -0.350 OA
HETATM   10  C11 UNL     1       1.353  -0.263  -0.734  1.00  0.00     0.185 A 
HETATM   11  C13 UNL     1       2.291   0.050   0.501  1.00  0.00     0.178 A 
HETATM   12  C16 UNL     1       1.644   1.127  -0.247  1.00  0.00     0.101 A 
HETATM   13  C17 UNL     1      -1.383  -1.706   0.753  1.00  0.00     0.155 C 
HETATM   14  C18 UNL     1      -1.445  -0.322   1.353  1.00  0.00     0.041 C 
HETATM   15  C19 UNL     1      -1.776   0.772   0.463  1.00  0.00     0.005 C 
ENDROOT
BRANCH  11  16
HETATM   16  O7  UNL     1       3.633  -0.147   0.375  1.00  0.00    -0.371 OA
BRANCH  16  17
HETATM   17  C14 UNL     1       4.158  -0.559   1.596  1.00  0.00     0.281 C 
BRANCH  17  18
HETATM   18  C15 UNL     1       5.632  -0.776   1.462  1.00  0.00     0.197 C 
HETATM   19  O8  UNL     1       6.308  -1.150   2.442  1.00  0.00    -0.646 OA
HETATM   20  O9  UNL     1       6.244  -0.556   0.232  1.00  0.00    -0.646 OA
ENDBRANCH  17  18
ENDBRANCH  16  17
ENDBRANCH  11  16
BRANCH  10  21
HETATM   21  C12 UNL     1       2.241  -0.773  -1.856  1.00  0.00     0.212 C 
HETATM   22  O5  UNL     1       3.191  -0.049  -2.224  1.00  0.00    -0.646 OA
HETATM   23  O6  UNL     1       2.025  -1.975  -2.452  1.00  0.00    -0.646 OA
ENDBRANCH  10  21
BRANCH   2  24
HETATM   24  O1  UNL     1       0.500   2.001   1.683  1.00  0.00    -0.389 OA
ATOM     25  H1  UNL     1       0.367   1.099   1.950  1.00  0.00     0.210 HD
ENDBRANCH   2  24
BRANCH   8  26
HETATM   26  C10 UNL     1      -0.786  -2.870  -1.313  1.00  0.00     0.204 C 
BRANCH  26  27
HETATM   27  O3  UNL     1      -0.129  -3.805  -0.574  1.00  0.00    -0.398 OA
ATOM     28  H3  UNL     1      -0.132  -4.665  -0.977  1.00  0.00     0.209 HD
ENDBRANCH  26  27
ENDBRANCH   8  26
BRANCH  13  29
HETATM   29  O10 UNL     1      -0.437  -2.502   1.428  1.00  0.00    -0.392 OA
ATOM     30  H10 UNL     1      -0.806  -2.652   2.290  1.00  0.00     0.210 HD
ENDBRANCH  13  29
BRANCH   6  31
HETATM   31  C7  UNL     1      -4.031   0.013  -0.346  1.00  0.00     0.174 C 
BRANCH  31  32
HETATM   32  O2  UNL     1      -4.573   1.041   0.438  1.00  0.00    -0.400 OA
ATOM     33  H2  UNL     1      -5.471   0.839   0.675  1.00  0.00     0.209 HD
ENDBRANCH  31  32
ENDBRANCH   6  31
TORSDOF 10
