REMARK  11 active torsions:
REMARK  status: ('A' for Active; 'I' for Inactive)
REMARK    1  A    between atoms: C2_2  and  N1_3 
REMARK    2  A    between atoms: N1_3  and  C3_4 
REMARK    3  A    between atoms: N1_3  and  C7_8 
REMARK    4  A    between atoms: C12_13  and  O1_14 
REMARK    5  A    between atoms: O1_14  and  C13_15 
REMARK    6  A    between atoms: C14_16  and  O2_17 
REMARK    7  A    between atoms: C15_19  and  O3_20 
REMARK    8  A    between atoms: C16_22  and  O4_23 
REMARK    9  A    between atoms: C17_25  and  C18_26 
REMARK   10  A    between atoms: C19_29  and  O7_30 
REMARK   11  A    between atoms: C20_32  and  O8_33 
ROOT
HETATM    1  C13 UNL     1       1.324  -0.180   0.482  1.00  0.00     0.185 C 
HETATM    2  C14 UNL     1       2.361  -0.918   1.312  1.00  0.00     0.181 C 
HETATM    3  C15 UNL     1       3.740  -0.426   1.269  1.00  0.00     0.179 C 
HETATM    4  C16 UNL     1       4.175   0.340   0.066  1.00  0.00     0.166 C 
HETATM    5  C17 UNL     1       3.712   1.768   0.015  1.00  0.00     0.149 C 
HETATM    6  C19 UNL     1       2.316   1.895  -0.494  1.00  0.00     0.166 C 
HETATM    7  C20 UNL     1       1.395   1.277   0.572  1.00  0.00     0.179 C 
ENDROOT
BRANCH   1   8
HETATM    8  O1  UNL     1       0.107  -0.660   0.942  1.00  0.00    -0.369 OA
BRANCH   8   9
HETATM    9  C12 UNL     1      -0.559  -1.502   0.044  1.00  0.00     0.167 C 
HETATM   10  C7  UNL     1      -1.994  -1.294   0.079  1.00  0.00     0.014 C 
HETATM   11  C8  UNL     1      -2.801  -2.149  -0.854  1.00  0.00     0.055 C 
HETATM   12  C9  UNL     1      -2.421  -3.588  -0.617  1.00  0.00     0.006 C 
HETATM   13  C10 UNL     1      -1.563  -3.764   0.597  1.00  0.00     0.003 C 
HETATM   14  C11 UNL     1      -0.319  -2.959   0.582  1.00  0.00     0.038 C 
BRANCH  10  15
HETATM   15  N1  UNL     1      -2.493   0.055   0.175  1.00  0.00    -0.381 N 
BRANCH  15  16
HETATM   16  C2  UNL     1      -3.747   0.119   0.821  1.00  0.00     0.118 C 
HETATM   17  C1  UNL     1      -4.018   1.296   1.702  1.00  0.00     0.026 C 
ENDBRANCH  15  16
BRANCH  15  18
HETATM   18  C3  UNL     1      -2.198   0.898  -0.891  1.00  0.00     0.084 C 
HETATM   19  C4  UNL     1      -3.119   0.820  -2.109  1.00  0.00     0.025 C 
HETATM   20  C5  UNL     1      -3.648   2.206  -1.761  1.00  0.00     0.004 C 
HETATM   21  C6  UNL     1      -2.451   2.340  -0.830  1.00  0.00     0.025 C 
ENDBRANCH  15  18
ENDBRANCH  10  15
ENDBRANCH   8   9
ENDBRANCH   1   8
BRANCH   2  22
HETATM   22  O2  UNL     1       1.918  -0.916   2.644  1.00  0.00    -0.390 OA
ATOM     23  H2  UNL     1       2.566  -1.377   3.163  1.00  0.00     0.210 HD
ENDBRANCH   2  22
BRANCH   7  24
HETATM   24  O8  UNL     1       1.747   1.759   1.839  1.00  0.00    -0.390 OA
ATOM     25  H8  UNL     1       1.793   2.706   1.898  1.00  0.00     0.210 HD
ENDBRANCH   7  24
BRANCH   3  26
HETATM   26  O3  UNL     1       4.152   0.286   2.425  1.00  0.00    -0.390 OA
ATOM     27  H3  UNL     1       5.046   0.605   2.397  1.00  0.00     0.210 HD
ENDBRANCH   3  26
BRANCH   6  28
HETATM   28  O7  UNL     1       2.120   1.163  -1.656  1.00  0.00    -0.392 OA
ATOM     29  H7  UNL     1       1.231   1.244  -1.980  1.00  0.00     0.210 HD
ENDBRANCH   6  28
BRANCH   4  30
HETATM   30  O4  UNL     1       3.902  -0.377  -1.098  1.00  0.00    -0.392 OA
ATOM     31  H4  UNL     1       4.179   0.111  -1.864  1.00  0.00     0.210 HD
ENDBRANCH   4  30
BRANCH   5  32
HETATM   32  C18 UNL     1       4.621   2.526  -0.880  1.00  0.00     0.182 C 
HETATM   33  O5  UNL     1       4.155   3.047  -1.915  1.00  0.00    -0.648 OA
HETATM   34  O6  UNL     1       5.965   2.680  -0.614  1.00  0.00    -0.648 OA
ENDBRANCH   5  32
TORSDOF 11
