REMARK  10 active torsions:
REMARK  status: ('A' for Active; 'I' for Inactive)
REMARK    1  A    between atoms: C2_2  and  C4_4 
REMARK    2  A    between atoms: C5_5  and  C6_6 
REMARK    3  A    between atoms: C6_6  and  C8_8 
REMARK    4  A    between atoms: C9_10  and  C10_11 
REMARK    5  A    between atoms: C10_11  and  C13_14 
REMARK    6  A    between atoms: C13_14  and  O2_15 
REMARK    7  A    between atoms: C13_14  and  C14_17 
REMARK    8  A    between atoms: C17_22  and  O5_23 
REMARK    9  A    between atoms: C18_25  and  O6_26 
REMARK   10  A    between atoms: C19_28  and  O7_29 
ROOT
HETATM    1  C8  UNL     1       0.672  -0.198  -1.326  1.00  0.00     0.141 C 
HETATM    2  O1  UNL     1      -0.013  -0.035  -0.120  1.00  0.00    -0.377 OA
HETATM    3  C9  UNL     1      -1.310   0.170  -0.662  1.00  0.00     0.144 C 
HETATM    4  C15 UNL     1      -1.559  -1.028  -1.386  1.00  0.00     0.024 C 
HETATM    5  C16 UNL     1      -2.343  -0.616  -2.669  1.00  0.00     0.021 C 
HETATM    6  C17 UNL     1      -2.125  -2.288  -0.987  1.00  0.00     0.161 C 
HETATM    7  C18 UNL     1      -1.386  -3.241  -0.077  1.00  0.00     0.183 C 
HETATM    8  C19 UNL     1       0.096  -2.961   0.015  1.00  0.00     0.219 C 
HETATM    9  C20 UNL     1       0.429  -2.552  -1.375  1.00  0.00     0.165 C 
HETATM   10  O8  UNL     1       1.175  -3.248  -2.032  1.00  0.00    -0.295 OA
HETATM   11  C21 UNL     1      -0.142  -1.323  -1.936  1.00  0.00     0.101 C 
ENDROOT
BRANCH   3  12
HETATM   12  C10 UNL     1      -2.113   0.948   0.250  1.00  0.00     0.015 C 
HETATM   13  C11 UNL     1      -2.379   0.398   1.629  1.00  0.00     0.020 C 
HETATM   14  C12 UNL     1      -3.474   1.340  -0.316  1.00  0.00     0.020 C 
BRANCH  12  15
HETATM   15  C13 UNL     1      -1.303   2.227   0.536  1.00  0.00     0.229 C 
BRANCH  15  16
HETATM   16  O2  UNL     1      -0.079   1.958   1.129  1.00  0.00    -0.384 OA
ATOM     17  H2  UNL     1       0.420   2.747   1.305  1.00  0.00     0.210 HD
ENDBRANCH  15  16
BRANCH  15  18
HETATM   18  C14 UNL     1      -1.990   3.281   1.293  1.00  0.00     0.203 C 
HETATM   19  O3  UNL     1      -2.264   3.017   2.625  1.00  0.00    -0.646 OA
HETATM   20  O4  UNL     1      -3.053   3.901   0.632  1.00  0.00    -0.646 OA
ENDBRANCH  15  18
ENDBRANCH  12  15
ENDBRANCH   3  12
BRANCH   1  21
HETATM   21  C6  UNL     1       2.115  -0.559  -1.175  1.00  0.00     0.033 C 
HETATM   22  C7  UNL     1       2.685  -0.632  -2.594  1.00  0.00     0.017 C 
BRANCH  21  23
HETATM   23  C5  UNL     1       2.802   0.514  -0.425  1.00  0.00    -0.024 C 
HETATM   24  C4  UNL     1       3.393   0.243   0.719  1.00  0.00    -0.026 C 
BRANCH  24  25
HETATM   25  C2  UNL     1       4.098   1.294   1.510  1.00  0.00    -0.001 C 
HETATM   26  C1  UNL     1       5.553   0.968   1.728  1.00  0.00     0.013 C 
HETATM   27  C3  UNL     1       3.467   1.434   2.891  1.00  0.00     0.013 C 
ENDBRANCH  24  25
ENDBRANCH  21  23
ENDBRANCH   1  21
BRANCH   6  28
HETATM   28  O5  UNL     1      -3.444  -2.345  -0.555  1.00  0.00    -0.392 OA
ATOM     29  H5  UNL     1      -3.818  -3.178  -0.291  1.00  0.00     0.210 HD
ENDBRANCH   6  28
BRANCH   7  30
HETATM   30  O6  UNL     1      -1.991  -3.396   1.172  1.00  0.00    -0.390 OA
ATOM     31  H6  UNL     1      -1.526  -3.995   1.744  1.00  0.00     0.210 HD
ENDBRANCH   7  30
BRANCH   8  32
HETATM   32  O7  UNL     1       0.752  -4.169   0.338  1.00  0.00    -0.385 OA
ATOM     33  H7  UNL     1       1.684  -3.993   0.396  1.00  0.00     0.210 HD
ENDBRANCH   8  32
TORSDOF 10
