REMARK  7 active torsions:
REMARK  status: ('A' for Active; 'I' for Inactive)
REMARK    1  A    between atoms: N1_2  and  C2_5 
REMARK    2  A    between atoms: C2_5  and  C4_7 
REMARK    3  A    between atoms: C4_7  and  O1_8 
REMARK    4  A    between atoms: C4_7  and  N2_10 
REMARK    5  A    between atoms: N2_10  and  C5_12 
REMARK    6  A    between atoms: C5_12  and  C6_13 
REMARK       I    between atoms: C6_13  and  N3_15 
REMARK    7  A    between atoms: N3_15  and  C7_17 
ROOT
HETATM    1  C5  UNL     1      -0.257  -0.321  -0.473  1.00  0.00     0.210 C 
HETATM    2  C11 UNL     1      -0.572   0.817  -1.334  1.00  0.00     0.096 C 
HETATM    3  C12 UNL     1      -0.027   2.175  -1.094  1.00  0.00     0.188 C 
HETATM    4  N4  UNL     1       1.338   2.362  -1.559  1.00  0.00    -0.068 NA
HETATM    5  N5  UNL     1      -0.351   2.659   0.133  1.00  0.00    -0.407 NA
HETATM    6  C13 UNL     1      -0.392   3.297   1.115  1.00  0.00     0.157 C 
HETATM    7  C14 UNL     1      -1.401   2.895   2.193  1.00  0.00     0.069 C 
HETATM    8  C15 UNL     1      -2.135   1.635   1.685  1.00  0.00     0.109 C 
HETATM    9  C16 UNL     1      -1.127   0.553   1.796  1.00  0.00     0.220 C 
HETATM   10  O3  UNL     1      -0.561   0.533   2.958  1.00  0.00    -0.274 OA
HETATM   11  N6  UNL     1      -0.736  -0.390   0.857  1.00  0.00    -0.324 N 
ATOM     12  H6  UNL     1      -0.810  -1.347   1.202  1.00  0.00     0.165 HD
ENDROOT
BRANCH   1  13
HETATM   13  N2  UNL     1      -0.748  -1.509  -1.163  1.00  0.00    -0.358 N 
ATOM     14  H2  UNL     1      -0.170  -2.349  -1.179  1.00  0.00     0.159 HD
BRANCH  13  15
HETATM   15  C4  UNL     1      -1.965  -1.523  -1.789  1.00  0.00     0.246 C 
BRANCH  15  16
HETATM   16  C2  UNL     1      -3.233  -1.365  -0.986  1.00  0.00     0.229 C 
HETATM   17  C3  UNL     1      -4.399  -1.251  -1.992  1.00  0.00     0.044 C 
BRANCH  16  18
HETATM   18  N1  UNL     1      -3.476  -2.427  -0.055  1.00  0.00    -0.071 N 
HETATM   19  C1  UNL     1      -4.656  -2.193   0.737  1.00  0.00     0.267 C 
ATOM     20  H12 UNL     1      -2.661  -2.594   0.536  1.00  0.00     0.277 HD
ATOM     21  H11 UNL     1      -3.521  -3.330  -0.528  1.00  0.00     0.277 HD
ENDBRANCH  16  18
ENDBRANCH  15  16
BRANCH  15  22
HETATM   22  O1  UNL     1      -2.096  -2.760  -2.474  1.00  0.00    -0.375 OA
ATOM     23  H1  UNL     1      -1.298  -2.859  -2.979  1.00  0.00     0.212 HD
ENDBRANCH  15  22
ENDBRANCH  13  15
ENDBRANCH   1  13
BRANCH   1  24
HETATM   24  C6  UNL     1       1.232  -0.487  -0.472  1.00  0.00     0.272 C 
HETATM   25  O2  UNL     1       1.731  -1.235  -1.337  1.00  0.00    -0.268 OA
HETATM   26  N3  UNL     1       2.084   0.156   0.457  1.00  0.00    -0.343 N 
ATOM     27  H3  UNL     1       1.685   0.766   1.171  1.00  0.00     0.163 HD
BRANCH  26  28
HETATM   28  C7  UNL     1       3.531  -0.046   0.402  1.00  0.00     0.156 C 
HETATM   29  C8  UNL     1       4.288   1.252   0.468  1.00  0.00     0.110 C 
HETATM   30  S1  UNL     1       5.973   0.939   1.048  1.00  0.00    -0.166 SA
HETATM   31  C9  UNL     1       6.493  -0.719   0.513  1.00  0.00     0.084 C 
HETATM   32  C10 UNL     1       5.709  -1.772   1.279  1.00  0.00     0.086 C 
HETATM   33  S2  UNL     1       4.095  -1.083   1.797  1.00  0.00    -0.142 SA
ENDBRANCH  26  28
ENDBRANCH   1  24
TORSDOF 7
