REMARK  11 active torsions:
REMARK  status: ('A' for Active; 'I' for Inactive)
REMARK    1  A    between atoms: C3_3  and  O1_4 
REMARK    2  A    between atoms: C3_3  and  C16_26 
REMARK    3  A    between atoms: O1_4  and  C4_5 
REMARK    4  A    between atoms: C5_6  and  O2_7 
REMARK    5  A    between atoms: C6_9  and  O3_10 
REMARK    6  A    between atoms: C7_12  and  O4_13 
REMARK    7  A    between atoms: O4_13  and  C8_14 
REMARK    8  A    between atoms: C14_20  and  O5_21 
REMARK    9  A    between atoms: C15_23  and  O6_24 
REMARK   10  A    between atoms: C16_26  and  O7_27 
REMARK   11  A    between atoms: C19_31  and  N1_32 
ROOT
HETATM    1  C1  UNL     1      -3.884   1.402   3.230  1.00  0.00     0.015 C 
HETATM    2  C2  UNL     1      -3.600   0.577   2.405  1.00  0.00    -0.082 C 
HETATM    3  C3  UNL     1      -3.220  -0.477   1.377  1.00  0.00     0.234 C 
ENDROOT
BRANCH   3   4
HETATM    4  O1  UNL     1      -1.984  -0.164   0.940  1.00  0.00    -0.360 OA
BRANCH   4   5
HETATM    5  C4  UNL     1      -0.965  -1.030   1.252  1.00  0.00     0.185 C 
HETATM    6  C5  UNL     1      -0.339  -1.549  -0.002  1.00  0.00     0.181 C 
HETATM    7  C6  UNL     1       0.692  -0.587  -0.568  1.00  0.00     0.181 C 
HETATM    8  C7  UNL     1       1.855  -0.601   0.402  1.00  0.00     0.184 C 
HETATM    9  C14 UNL     1       1.456  -0.778   1.816  1.00  0.00     0.181 C 
HETATM   10  C15 UNL     1       0.063  -0.407   2.174  1.00  0.00     0.181 C 
BRANCH   6  11
HETATM   11  O2  UNL     1       0.399  -2.739   0.252  1.00  0.00    -0.390 OA
ATOM     12  H2  UNL     1       0.797  -3.069  -0.545  1.00  0.00     0.210 HD
ENDBRANCH   6  11
BRANCH   7  13
HETATM   13  O3  UNL     1       1.103  -1.150  -1.785  1.00  0.00    -0.390 OA
ATOM     14  H3  UNL     1       1.748  -0.549  -2.139  1.00  0.00     0.210 HD
ENDBRANCH   7  13
BRANCH   8  15
HETATM   15  O4  UNL     1       2.625   0.542   0.179  1.00  0.00    -0.375 OA
BRANCH  15  16
HETATM   16  C8  UNL     1       3.873   0.281  -0.325  1.00  0.00     0.122 C 
HETATM   17  C9  UNL     1       4.883   0.799   0.702  1.00  0.00     0.032 C 
HETATM   18  C10 UNL     1       6.174   1.180   0.009  1.00  0.00     0.002 C 
HETATM   19  C11 UNL     1       6.423   0.144  -1.080  1.00  0.00     0.000 C 
HETATM   20  C12 UNL     1       5.449   0.422  -2.206  1.00  0.00     0.002 C 
HETATM   21  C13 UNL     1       4.126   0.926  -1.671  1.00  0.00     0.032 C 
ENDBRANCH  15  16
ENDBRANCH   8  15
BRANCH   9  22
HETATM   22  O5  UNL     1       2.324   0.012   2.606  1.00  0.00    -0.390 OA
ATOM     23  H5  UNL     1       2.068  -0.102   3.514  1.00  0.00     0.210 HD
ENDBRANCH   9  22
BRANCH  10  24
HETATM   24  O6  UNL     1      -0.192  -0.868   3.459  1.00  0.00    -0.390 OA
ATOM     25  H6  UNL     1       0.453  -0.477   4.037  1.00  0.00     0.210 HD
ENDBRANCH  10  24
ENDBRANCH   4   5
ENDBRANCH   3   4
BRANCH   3  26
HETATM   26  C16 UNL     1      -4.261  -0.324   0.332  1.00  0.00     0.097 C 
HETATM   27  C17 UNL     1      -3.995  -0.930  -1.002  1.00  0.00     0.043 C 
HETATM   28  C18 UNL     1      -5.061  -0.246  -1.884  1.00  0.00     0.036 C 
HETATM   29  C19 UNL     1      -5.142   1.168  -1.352  1.00  0.00     0.186 C 
HETATM   30  C20 UNL     1      -4.344   1.171  -0.067  1.00  0.00     0.074 C 
BRANCH  26  31
HETATM   31  O7  UNL     1      -5.541  -0.672   0.807  1.00  0.00    -0.386 OA
ATOM     32  H7  UNL     1      -6.208  -0.574   0.138  1.00  0.00     0.210 HD
ENDBRANCH  26  31
BRANCH  29  33
HETATM   33  N1  UNL     1      -6.505   1.542  -1.006  1.00  0.00    -0.075 N 
ATOM     34  H13 UNL     1      -7.138   1.406  -1.794  1.00  0.00     0.274 HD
ATOM     35  H12 UNL     1      -6.917   0.876  -0.352  1.00  0.00     0.274 HD
ATOM     36  H11 UNL     1      -6.560   2.495  -0.647  1.00  0.00     0.274 HD
ENDBRANCH  29  33
ENDBRANCH   3  26
TORSDOF 11
