REMARK  7 active torsions:
REMARK  status: ('A' for Active; 'I' for Inactive)
REMARK       I    between atoms: C2_4  and  N3_6 
REMARK    1  A    between atoms: N3_6  and  C3_8 
REMARK    2  A    between atoms: C5_11  and  N4_12 
REMARK    3  A    between atoms: C7_14  and  N5_15 
REMARK    4  A    between atoms: C8_19  and  N6_21 
REMARK    5  A    between atoms: C11_26  and  C12_27 
REMARK    6  A    between atoms: C12_27  and  C13_28 
REMARK    7  A    between atoms: C12_27  and  S2_31 
ROOT
HETATM    1  C3  UNL     1       1.989  -0.312  -0.123  1.00  0.00     0.052 A 
HETATM    2  C4  UNL     1       2.079  -1.700  -0.134  1.00  0.00     0.082 A 
HETATM    3  S1  UNL     1       0.460  -2.200  -0.118  1.00  0.00    -0.081 SA
HETATM    4  C5  UNL     1      -0.301  -0.682  -0.098  1.00  0.00     0.082 A 
HETATM    5  C11 UNL     1       0.755   0.213  -0.105  1.00  0.00     0.034 A 
ENDROOT
BRANCH   4   6
HETATM    6  N4  UNL     1      -1.707  -0.460  -0.104  1.00  0.00    -0.370 N 
HETATM    7  C6  UNL     1      -2.457  -0.105  -1.307  1.00  0.00     0.159 C 
HETATM    8  C7  UNL     1      -3.724  -0.892  -1.112  1.00  0.00     0.238 C 
HETATM    9  C8  UNL     1      -4.000  -0.765   0.359  1.00  0.00     0.165 C 
HETATM   10  C9  UNL     1      -4.911   0.437   0.578  1.00  0.00     0.050 C 
HETATM   11  C10 UNL     1      -2.657  -0.558   0.981  1.00  0.00     0.164 C 
BRANCH   8  12
HETATM   12  N5  UNL     1      -3.558  -2.288  -1.484  1.00  0.00    -0.071 N 
ATOM     13  H53 UNL     1      -3.208  -2.378  -2.438  1.00  0.00     0.274 HD
ATOM     14  H52 UNL     1      -2.777  -2.714  -0.986  1.00  0.00     0.274 HD
ATOM     15  H51 UNL     1      -4.417  -2.822  -1.352  1.00  0.00     0.274 HD
ENDBRANCH   8  12
BRANCH   9  16
HETATM   16  N6  UNL     1      -4.686  -1.928   0.894  1.00  0.00    -0.067 N 
ATOM     17  H63 UNL     1      -5.542  -2.122   0.374  1.00  0.00     0.275 HD
ATOM     18  H62 UNL     1      -4.173  -2.785   0.688  1.00  0.00     0.275 HD
ATOM     19  H61 UNL     1      -4.873  -1.842   1.893  1.00  0.00     0.275 HD
ENDBRANCH   9  16
ENDBRANCH   4   6
BRANCH   5  20
HETATM   20  C12 UNL     1       0.438   1.694  -0.142  1.00  0.00     0.268 C 
BRANCH  20  21
HETATM   21  C13 UNL     1       1.110   2.397  -1.248  1.00  0.00     0.199 C 
HETATM   22  O1  UNL     1       1.550   1.681  -2.219  1.00  0.00    -0.647 OA
HETATM   23  O2  UNL     1       1.314   3.756  -1.339  1.00  0.00    -0.647 OA
ENDBRANCH  20  21
BRANCH  20  24
HETATM   24  S2  UNL     1       0.585   2.485   1.418  1.00  0.00     0.121 S 
HETATM   25  O3  UNL     1       1.959   2.549   1.987  1.00  0.00    -0.594 OA
HETATM   26  O4  UNL     1       0.101   3.935   1.315  1.00  0.00    -0.594 OA
HETATM   27  O5  UNL     1      -0.372   1.756   2.608  1.00  0.00    -0.594 OA
ENDBRANCH  20  24
ENDBRANCH   5  20
BRANCH   1  28
HETATM   28  N3  UNL     1       3.250   0.409  -0.114  1.00  0.00    -0.330 N 
HETATM   29  C2  UNL     1       4.507  -0.218  -0.119  1.00  0.00     0.188 C 
HETATM   30  N1  UNL     1       5.209  -0.264  -1.181  1.00  0.00    -0.369 N 
HETATM   31  N2  UNL     1       4.987  -0.800   1.074  1.00  0.00    -0.064 NA
HETATM   32  C1  UNL     1       6.516  -0.898  -1.245  1.00  0.00     0.148 C 
ATOM     33  H1  UNL     1       4.836   0.165  -2.028  1.00  0.00     0.161 HD
ATOM     34  H3  UNL     1       3.221   1.429  -0.103  1.00  0.00     0.168 HD
ENDBRANCH   1  28
TORSDOF 7
