REMARK  10 active torsions:
REMARK  status: ('A' for Active; 'I' for Inactive)
REMARK    1  A    between atoms: N1_4  and  C4_6 
REMARK    2  A    between atoms: C4_6  and  C5_7 
REMARK    3  A    between atoms: C5_7  and  C6_8 
REMARK    4  A    between atoms: C6_8  and  O1_9 
REMARK    5  A    between atoms: C9_13  and  O2_14 
REMARK    6  A    between atoms: C11_17  and  O3_18 
REMARK    7  A    between atoms: C18_27  and  O5_28 
REMARK    8  A    between atoms: C19_30  and  O6_31 
REMARK    9  A    between atoms: C19_30  and  C20_33 
REMARK   10  A    between atoms: C20_33  and  O7_34 
ROOT
HETATM    1  C6  UNL     1       0.934   0.305   0.128  1.00  0.00     0.067 C 
HETATM    2  C7  UNL     1       0.241  -0.478  -0.934  1.00  0.00     0.047 C 
HETATM    3  C8  UNL     1      -1.264  -0.421  -0.594  1.00  0.00     0.037 C 
HETATM    4  C9  UNL     1      -1.826  -1.777  -0.368  1.00  0.00     0.070 C 
HETATM    5  C10 UNL     1      -1.267  -2.231   0.918  1.00  0.00     0.071 C 
HETATM    6  C11 UNL     1      -0.129  -1.428   1.458  1.00  0.00     0.129 C 
HETATM    7  C12 UNL     1      -0.116   0.087   1.194  1.00  0.00     0.063 C 
HETATM    8  C13 UNL     1      -1.434   0.399   0.632  1.00  0.00     0.032 C 
HETATM    9  C14 UNL     1      -2.361   0.076   1.733  1.00  0.00     0.182 C 
HETATM   10  O4  UNL     1      -3.560  -0.496   1.459  1.00  0.00    -0.382 OA
HETATM   11  C15 UNL     1      -3.779  -0.275   0.107  1.00  0.00     0.159 C 
HETATM   12  C16 UNL     1      -3.286  -1.562  -0.499  1.00  0.00     0.048 C 
HETATM   13  C17 UNL     1      -3.696  -1.675  -1.958  1.00  0.00     0.016 C 
HETATM   14  C18 UNL     1      -3.362   0.998  -0.448  1.00  0.00     0.184 C 
HETATM   15  C19 UNL     1      -2.010   1.592   0.053  1.00  0.00     0.117 C 
ENDROOT
BRANCH   1  16
HETATM   16  C5  UNL     1       2.319  -0.143   0.478  1.00  0.00     0.058 C 
BRANCH  16  17
HETATM   17  C4  UNL     1       3.268   0.050  -0.718  1.00  0.00     0.122 C 
BRANCH  17  18
HETATM   18  N1  UNL     1       4.579  -0.392  -0.332  1.00  0.00    -0.397 N 
HETATM   19  C2  UNL     1       5.653   0.030  -0.888  1.00  0.00    -0.026 C 
HETATM   20  C1  UNL     1       5.671   1.019  -1.990  1.00  0.00     0.062 C 
HETATM   21  C3  UNL     1       6.935  -0.548  -0.349  1.00  0.00     0.062 C 
ATOM     22  H1  UNL     1       4.659  -1.075   0.421  1.00  0.00     0.159 HD
ENDBRANCH  17  18
ENDBRANCH  16  17
ENDBRANCH   1  16
BRANCH   1  23
HETATM   23  O1  UNL     1       1.122   1.647  -0.200  1.00  0.00    -0.389 OA
ATOM     24  H1  UNL     1       0.243   1.931  -0.422  1.00  0.00     0.210 HD
ENDBRANCH   1  23
BRANCH   6  25
HETATM   25  O3  UNL     1       0.052  -1.717   2.827  1.00  0.00    -0.395 OA
ATOM     26  H3  UNL     1       0.776  -1.206   3.170  1.00  0.00     0.210 HD
ENDBRANCH   6  25
BRANCH   4  27
HETATM   27  O2  UNL     1      -1.424  -2.564  -1.474  1.00  0.00    -0.389 OA
ATOM     28  H2  UNL     1      -1.783  -3.431  -1.329  1.00  0.00     0.210 HD
ENDBRANCH   4  27
BRANCH  15  29
HETATM   29  O6  UNL     1      -1.422   1.992  -1.186  1.00  0.00    -0.384 OA
ATOM     30  H6  UNL     1      -1.800   2.776  -1.566  1.00  0.00     0.210 HD
ENDBRANCH  15  29
BRANCH  15  31
HETATM   31  C20 UNL     1      -2.230   2.836   0.807  1.00  0.00     0.205 C 
BRANCH  31  32
HETATM   32  O7  UNL     1      -1.137   3.601   1.134  1.00  0.00    -0.398 OA
ATOM     33  H7  UNL     1      -1.279   4.404   1.621  1.00  0.00     0.209 HD
ENDBRANCH  31  32
ENDBRANCH  15  31
BRANCH  14  34
HETATM   34  O5  UNL     1      -4.325   1.965  -0.056  1.00  0.00    -0.390 OA
ATOM     35  H5  UNL     1      -4.052   2.799  -0.420  1.00  0.00     0.210 HD
ENDBRANCH  14  34
TORSDOF 10
