REMARK  11 active torsions:
REMARK  status: ('A' for Active; 'I' for Inactive)
REMARK    1  A    between atoms: C2_2  and  C4_4 
REMARK    2  A    between atoms: C4_4  and  O1_5 
REMARK    3  A    between atoms: C4_4  and  C5_7 
REMARK    4  A    between atoms: C6_9  and  O3_10 
REMARK    5  A    between atoms: O3_10  and  C7_11 
REMARK    6  A    between atoms: C7_11  and  C8_12 
REMARK    7  A    between atoms: C9_13  and  O4_14 
REMARK    8  A    between atoms: C16_22  and  O5_23 
REMARK    9  A    between atoms: C18_26  and  O6_27 
REMARK   10  A    between atoms: C19_29  and  O7_30 
REMARK   11  A    between atoms: C20_32  and  O8_33 
ROOT
HETATM    1  C5  UNL     1       2.979  -1.264   0.691  1.00  0.00     0.185 C 
HETATM    2  O2  UNL     1       1.611  -1.103   0.783  1.00  0.00    -0.348 OA
HETATM    3  C6  UNL     1       1.039  -0.919  -0.476  1.00  0.00     0.291 C 
HETATM    4  C18 UNL     1       1.391  -2.017  -1.423  1.00  0.00     0.204 C 
HETATM    5  C19 UNL     1       2.893  -2.107  -1.612  1.00  0.00     0.183 C 
HETATM    6  C20 UNL     1       3.553  -1.090  -0.664  1.00  0.00     0.181 C 
ENDROOT
BRANCH   3   7
HETATM    7  O3  UNL     1      -0.335  -0.756  -0.352  1.00  0.00    -0.358 OA
BRANCH   7   8
HETATM    8  C7  UNL     1      -0.769   0.494  -0.707  1.00  0.00     0.186 C 
BRANCH   8   9
HETATM    9  C8  UNL     1      -2.263   0.624  -0.523  1.00  0.00     0.046 A 
HETATM   10  C9  UNL     1      -2.769   0.417   0.837  1.00  0.00     0.141 C 
HETATM   11  C10 UNL     1      -4.166  -0.035   0.722  1.00  0.00    -0.007 A 
HETATM   12  C11 UNL     1      -5.071   0.232   1.774  1.00  0.00     0.018 A 
HETATM   13  C12 UNL     1      -5.272   0.910   0.539  1.00  0.00    -0.003 A 
HETATM   14  C17 UNL     1      -4.137  -0.930  -0.417  1.00  0.00     0.051 C 
HETATM   15  C13 UNL     1      -4.766   2.186   0.007  1.00  0.00     0.006 C 
HETATM   16  C14 UNL     1      -4.286   1.886  -1.392  1.00  0.00     0.009 C 
HETATM   17  C15 UNL     1      -3.104   1.079  -1.583  1.00  0.00     0.037 A 
HETATM   18  C16 UNL     1      -3.125  -0.355  -1.345  1.00  0.00     0.076 A 
BRANCH  10  19
HETATM   19  O4  UNL     1      -2.490   1.383   1.775  1.00  0.00    -0.394 OA
ATOM     20  H4  UNL     1      -2.818   1.249   2.656  1.00  0.00     0.210 HD
ENDBRANCH  10  19
BRANCH  18  21
HETATM   21  O5  UNL     1      -2.526  -1.248  -2.191  1.00  0.00    -0.388 OA
ATOM     22  H5  UNL     1      -3.057  -1.851  -2.697  1.00  0.00     0.210 HD
ENDBRANCH  18  21
ENDBRANCH   8   9
ENDBRANCH   7   8
ENDBRANCH   3   7
BRANCH   4  23
HETATM   23  O6  UNL     1       0.779  -1.755  -2.653  1.00  0.00    -0.388 OA
ATOM     24  H6  UNL     1       1.003  -2.454  -3.256  1.00  0.00     0.210 HD
ENDBRANCH   4  23
BRANCH   1  25
HETATM   25  C4  UNL     1       3.745  -0.499   1.720  1.00  0.00     0.153 C 
BRANCH  25  26
HETATM   26  C2  UNL     1       3.365   0.943   1.811  1.00  0.00     0.009 C 
HETATM   27  C1  UNL     1       4.033   1.494   3.080  1.00  0.00     0.012 C 
HETATM   28  C3  UNL     1       3.844   1.801   0.670  1.00  0.00     0.012 C 
ENDBRANCH  25  26
BRANCH  25  29
HETATM   29  O1  UNL     1       5.124  -0.613   1.622  1.00  0.00    -0.393 OA
ATOM     30  H1  UNL     1       5.366  -1.530   1.564  1.00  0.00     0.210 HD
ENDBRANCH  25  29
ENDBRANCH   1  25
BRANCH   5  31
HETATM   31  O7  UNL     1       3.386  -3.356  -1.256  1.00  0.00    -0.390 OA
ATOM     32  H7  UNL     1       4.327  -3.412  -1.374  1.00  0.00     0.210 HD
ENDBRANCH   5  31
BRANCH   6  33
HETATM   33  O8  UNL     1       4.931  -1.375  -0.602  1.00  0.00    -0.390 OA
ATOM     34  H8  UNL     1       5.299  -1.263  -1.471  1.00  0.00     0.210 HD
ENDBRANCH   6  33
TORSDOF 11
