REMARK  8 active torsions:
REMARK  status: ('A' for Active; 'I' for Inactive)
REMARK    1  A    between atoms: N1_1  and  S1_4 
REMARK    2  A    between atoms: S1_4  and  C1_7 
REMARK    3  A    between atoms: C3_9  and  O3_10 
REMARK    4  A    between atoms: N2_12  and  C4_13 
REMARK    5  A    between atoms: C4_13  and  C5_14 
REMARK    6  A    between atoms: C5_14  and  N3_15 
REMARK    7  A    between atoms: C5_14  and  C11_25 
REMARK       I    between atoms: N3_15  and  C6_17 
REMARK       I    between atoms: C6_17  and  N4_19 
REMARK    8  A    between atoms: C12_28  and  O7_29 
ROOT
HETATM    1  C1  UNL     1       3.078   0.719   0.718  1.00  0.00     0.134 A 
HETATM    2  C2  UNL     1       2.109   0.710   1.692  1.00  0.00     0.085 A 
HETATM    3  C3  UNL     1       1.302  -0.395   1.504  1.00  0.00     0.145 A 
HETATM    4  N2  UNL     1       1.776  -1.037   0.439  1.00  0.00    -0.305 N 
HETATM    5  C12 UNL     1       2.844  -0.391  -0.057  1.00  0.00     0.168 A 
ENDROOT
BRANCH   4   6
HETATM    6  C4  UNL     1       1.248  -2.257  -0.148  1.00  0.00     0.169 C 
BRANCH   6   7
HETATM    7  C5  UNL     1       0.229  -2.016  -1.226  1.00  0.00     0.205 C 
BRANCH   7   8
HETATM    8  N3  UNL     1      -0.887  -1.278  -0.621  1.00  0.00    -0.327 N 
HETATM    9  C6  UNL     1      -1.243   0.016  -1.075  1.00  0.00     0.319 C 
HETATM   10  O4  UNL     1      -0.604   0.571  -2.017  1.00  0.00    -0.247 OA
HETATM   11  N4  UNL     1      -2.320   0.711  -0.485  1.00  0.00    -0.333 N 
HETATM   12  C7  UNL     1      -3.064   0.088   0.581  1.00  0.00     0.137 C 
HETATM   13  C10 UNL     1      -2.704   2.051  -0.918  1.00  0.00     0.137 C 
HETATM   14  C8  UNL     1      -4.383   0.772   0.742  1.00  0.00     0.093 C 
HETATM   15  S2  UNL     1      -5.180   1.063  -0.884  1.00  0.00    -0.166 SA
HETATM   16  C9  UNL     1      -3.888   1.910  -1.881  1.00  0.00     0.093 C 
ATOM     17  H3  UNL     1      -1.416  -1.705   0.140  1.00  0.00     0.165 HD
ENDBRANCH   7   8
BRANCH   7  18
HETATM   18  C11 UNL     1      -0.294  -3.338  -1.648  1.00  0.00     0.198 C 
HETATM   19  O5  UNL     1      -1.471  -3.714  -1.498  1.00  0.00    -0.646 OA
HETATM   20  O6  UNL     1       0.592  -4.225  -2.255  1.00  0.00    -0.646 OA
ENDBRANCH   7  18
ENDBRANCH   6   7
ENDBRANCH   4   6
BRANCH   3  21
HETATM   21  O3  UNL     1       0.198  -0.739   2.312  1.00  0.00    -0.346 OA
ATOM     22  H3  UNL     1      -0.357  -1.499   2.183  1.00  0.00     0.219 HD
ENDBRANCH   3  21
BRANCH   5  23
HETATM   23  O7  UNL     1       3.608  -0.777  -1.183  1.00  0.00    -0.345 OA
ATOM     24  H7  UNL     1       3.446  -1.545  -1.719  1.00  0.00     0.219 HD
ENDBRANCH   5  23
BRANCH   1  25
HETATM   25  S1  UNL     1       4.370   1.854   0.441  1.00  0.00     0.261 S 
HETATM   26  O1  UNL     1       4.126   2.469  -0.925  1.00  0.00    -0.201 OA
HETATM   27  O2  UNL     1       5.667   1.116   0.465  1.00  0.00    -0.201 OA
BRANCH  25  28
HETATM   28  N1  UNL     1       4.389   3.122   1.579  1.00  0.00    -0.324 N 
ATOM     29  H12 UNL     1       4.258   4.111   1.365  1.00  0.00     0.169 HD
ATOM     30  H11 UNL     1       4.553   2.709   2.497  1.00  0.00     0.169 HD
ENDBRANCH  25  28
ENDBRANCH   1  25
TORSDOF 8
