REMARK  5 active torsions:
REMARK  status: ('A' for Active; 'I' for Inactive)
REMARK       I    between atoms: C1_4  and  N3_6 
REMARK    1  A    between atoms: N3_6  and  C2_8 
REMARK    2  A    between atoms: C4_12  and  N5_13 
REMARK    3  A    between atoms: N5_13  and  O1_14 
REMARK    4  A    between atoms: N5_13  and  N6_16 
REMARK    5  A    between atoms: N6_16  and  C5_18 
ROOT
HETATM    1  C2  UNL     1       1.226  -0.144  -0.700  1.00  0.00     0.687 A 
HETATM    2  N4  UNL     1       0.295  -0.616  -1.544  1.00  0.00    -0.199 N 
ATOM      3  H4  UNL     1       0.601  -1.232  -2.297  1.00  0.00     0.183 HD
HETATM    4  C3  UNL     1      -1.022  -0.327  -1.459  1.00  0.00     0.145 A 
HETATM    5  C4  UNL     1      -1.466   0.498  -0.456  1.00  0.00     0.165 A 
HETATM    6  C6  UNL     1      -0.497   0.992   0.426  1.00  0.00     0.292 A 
HETATM    7  O3  UNL     1      -0.901   1.755   1.356  1.00  0.00    -0.265 OA
HETATM    8  N7  UNL     1       0.797   0.669   0.290  1.00  0.00    -0.154 N 
ATOM      9  H7  UNL     1       1.475   1.047   0.951  1.00  0.00     0.187 HD
ENDROOT
BRANCH   1  10
HETATM   10  N3  UNL     1       2.476  -0.449  -0.826  1.00  0.00    -0.164 N 
HETATM   11  C1  UNL     1       3.491   0.011   0.022  1.00  0.00     0.200 C 
HETATM   12  N1  UNL     1       3.883   1.225  -0.087  1.00  0.00    -0.373 N 
HETATM   13  N2  UNL     1       4.084  -0.829   0.987  1.00  0.00    -0.063 NA
ATOM     14  H12 UNL     1       4.622   1.560   0.531  1.00  0.00     0.158 HD
ATOM     15  H11 UNL     1       3.454   1.833  -0.785  1.00  0.00     0.158 HD
ATOM     16  H3  UNL     1       2.740  -1.066  -1.594  1.00  0.00     0.187 HD
ENDBRANCH   1  10
BRANCH   5  17
HETATM   17  N5  UNL     1      -2.833   0.844  -0.291  1.00  0.00    -0.154 N 
BRANCH  17  18
HETATM   18  O1  UNL     1      -3.299   1.759  -0.996  1.00  0.00    -0.267 OA
ATOM     19  H1  UNL     1      -4.214   1.991  -0.886  1.00  0.00     0.247 HD
ENDBRANCH  17  18
BRANCH  17  20
HETATM   20  N6  UNL     1      -3.669   0.203   0.626  1.00  0.00    -0.250 N 
ATOM     21  H6  UNL     1      -4.104   0.774   1.350  1.00  0.00     0.192 HD
BRANCH  20  22
HETATM   22  C5  UNL     1      -3.954  -1.179   0.621  1.00  0.00     0.370 C 
HETATM   23  O2  UNL     1      -3.461  -1.939  -0.233  1.00  0.00    -0.282 OA
ENDBRANCH  20  22
ENDBRANCH  17  20
ENDBRANCH   5  17
TORSDOF 5
