REMARK  5 active torsions:
REMARK  status: ('A' for Active; 'I' for Inactive)
REMARK    1  A    between atoms: C1_4  and  N2_5 
REMARK    2  A    between atoms: N2_5  and  C2_7 
REMARK    3  A    between atoms: C2_7  and  C3_8 
REMARK    4  A    between atoms: C2_7  and  C7_21 
REMARK    5  A    between atoms: C3_8  and  C4_12 
ROOT
HETATM    1  C3  UNL     1      -0.024   0.124  -0.508  1.00  0.00     0.044 C 
HETATM    2  N3  UNL     1      -0.014   0.645  -1.659  1.00  0.00    -0.401 N 
ATOM      3  H31 UNL     1      -0.807   0.511  -2.286  1.00  0.00     0.155 HD
ATOM      4  H32 UNL     1       0.790   1.211  -1.930  1.00  0.00     0.155 HD
ENDROOT
BRANCH   1   5
HETATM    5  C2  UNL     1       1.123   0.318   0.399  1.00  0.00     0.220 C 
BRANCH   5   6
HETATM    6  N2  UNL     1       1.909  -0.920   0.501  1.00  0.00    -0.369 N 
ATOM      7  H2  UNL     1       2.874  -0.901   0.171  1.00  0.00     0.161 HD
BRANCH   6   8
HETATM    8  C1  UNL     1       1.421  -2.119   1.019  1.00  0.00     0.169 C 
HETATM    9  N1  UNL     1       1.631  -3.260   0.460  1.00  0.00    -0.396 N 
ATOM     10  H12 UNL     1       2.181  -3.269  -0.399  1.00  0.00     0.156 HD
ATOM     11  H11 UNL     1       1.274  -4.137   0.839  1.00  0.00     0.156 HD
ENDBRANCH   6   8
ENDBRANCH   5   6
BRANCH   5  12
HETATM   12  C7  UNL     1       2.070   1.366  -0.068  1.00  0.00     0.259 C 
HETATM   13  N6  UNL     1       1.733   2.718  -0.224  1.00  0.00    -0.060 NA
HETATM   14  O3  UNL     1       3.239   1.029  -0.338  1.00  0.00    -0.274 OA
ENDBRANCH   5  12
ENDBRANCH   1   5
BRANCH   1  15
HETATM   15  C4  UNL     1      -1.189  -0.696  -0.116  1.00  0.00     0.226 C 
HETATM   16  N4  UNL     1      -2.228  -0.649  -1.141  1.00  0.00    -0.324 N 
HETATM   17  C5  UNL     1      -3.230   0.245  -0.746  1.00  0.00     0.323 C 
ATOM     18  H4  UNL     1      -2.224  -1.184  -2.009  1.00  0.00     0.165 HD
HETATM   19  O1  UNL     1      -4.208   0.719  -1.386  1.00  0.00    -0.247 OA
HETATM   20  N5  UNL     1      -2.979   0.589   0.621  1.00  0.00    -0.277 N 
HETATM   21  C6  UNL     1      -1.826  -0.086   1.078  1.00  0.00     0.254 C 
ATOM     22  H5  UNL     1      -3.547   1.225   1.180  1.00  0.00     0.173 HD
HETATM   23  O2  UNL     1      -1.380  -0.186   2.241  1.00  0.00    -0.270 OA
ENDBRANCH   1  15
TORSDOF 5
