REMARK  4 active torsions:
REMARK  status: ('A' for Active; 'I' for Inactive)
REMARK    1  A    between atoms: C1_2  and  C2_4 
REMARK    2  A    between atoms: C3_5  and  N2_6 
REMARK    3  A    between atoms: C4_7  and  C5_8 
REMARK    4  A    between atoms: N3_9  and  N4_11 
ROOT
HETATM    1  N2  UNL     1       1.259  -0.443   0.186  1.00  0.00    -0.272 N 
HETATM    2  C4  UNL     1      -0.120  -0.398  -0.063  1.00  0.00     0.075 A 
HETATM    3  C7  UNL     1      -0.631  -1.661   0.015  1.00  0.00     0.124 A 
HETATM    4  N7  UNL     1       0.387  -2.463   0.301  1.00  0.00    -0.316 N 
ATOM      5  H7  UNL     1       0.324  -3.474   0.424  1.00  0.00     0.170 HD
HETATM    6  C8  UNL     1       1.523  -1.732   0.405  1.00  0.00     0.331 A 
HETATM    7  O2  UNL     1       2.630  -2.312   0.685  1.00  0.00    -0.246 OA
ENDROOT
BRANCH   2   8
HETATM    8  C5  UNL     1      -0.848   0.822  -0.379  1.00  0.00     0.138 C 
HETATM    9  N3  UNL     1      -2.080   0.921  -0.588  1.00  0.00    -0.308 N 
ATOM     10  H3  UNL     1      -2.424   1.858  -0.797  1.00  0.00     0.186 HD
BRANCH   9  11
HETATM   11  N4  UNL     1      -3.007  -0.060  -0.570  1.00  0.00    -0.276 N 
HETATM   12  C6  UNL     1      -4.250   0.081  -0.214  1.00  0.00     0.215 C 
HETATM   13  N5  UNL     1      -4.684   1.351   0.190  1.00  0.00    -0.065 NA
HETATM   14  N6  UNL     1      -5.120  -1.030  -0.240  1.00  0.00    -0.065 NA
ATOM     15  H4  UNL     1      -2.707  -0.991  -0.860  1.00  0.00     0.189 HD
ENDBRANCH   9  11
ENDBRANCH   2   8
BRANCH   1  16
HETATM   16  C3  UNL     1       2.054   0.710   0.272  1.00  0.00     0.107 C 
HETATM   17  C2  UNL     1       3.242   1.084   0.144  1.00  0.00     0.088 C 
BRANCH  17  18
HETATM   18  C1  UNL     1       4.484   0.490  -0.190  1.00  0.00     0.255 C 
HETATM   19  N1  UNL     1       5.705   1.318  -0.193  1.00  0.00    -0.058 NA
HETATM   20  O1  UNL     1       4.754  -0.676  -0.500  1.00  0.00    -0.272 OA
ENDBRANCH  17  18
ENDBRANCH   1  16
TORSDOF 4
