REMARK  2 active torsions:
REMARK  status: ('A' for Active; 'I' for Inactive)
REMARK    1  A    between atoms: N2_4  and  N3_6 
REMARK    2  A    between atoms: N4_8  and  C1_10 
ROOT
HETATM    1  N3  UNL     1       1.346   0.450  -0.271  1.00  0.00    -0.231 N 
ATOM      2  H3  UNL     1       1.058   1.067  -1.030  1.00  0.00     0.209 HD
HETATM    3  N4  UNL     1       0.531  -0.315   0.276  1.00  0.00    -0.289 N 
ATOM      4  H4  UNL     1       0.897  -0.900   1.027  1.00  0.00     0.184 HD
ENDROOT
BRANCH   1   5
HETATM    5  N2  UNL     1       2.668   0.440   0.185  1.00  0.00    -0.235 N 
HETATM    6  N1  UNL     1       3.378  -0.570  -0.164  1.00  0.00    -0.330 N 
ATOM      7  H12 UNL     1       2.986  -1.314  -0.741  1.00  0.00     0.178 HD
ATOM      8  H11 UNL     1       4.342  -0.577   0.169  1.00  0.00     0.178 HD
ATOM      9  H2  UNL     1       3.046   1.192   0.761  1.00  0.00     0.209 HD
ENDBRANCH   1   5
BRANCH   3  10
HETATM   10  C1  UNL     1      -0.853  -0.469  -0.024  1.00  0.00     0.325 A 
HETATM   11  C2  UNL     1      -1.835   0.424   0.570  1.00  0.00     0.290 A 
HETATM   12  N5  UNL     1      -1.651  -0.969   1.123  1.00  0.00    -0.048 N 
ATOM     13  H52 UNL     1      -2.252  -1.773   1.306  1.00  0.00     0.279 HD
ATOM     14  H51 UNL     1      -1.450  -1.377   2.036  1.00  0.00     0.279 HD
ENDBRANCH   3  10
TORSDOF 2
