REMARK  1 active torsions:
REMARK  status: ('A' for Active; 'I' for Inactive)
REMARK    1  A    between atoms: N2_3  and  N3_5 
ROOT
HETATM    1  N3  UNL     1       0.127   0.769  -0.769  1.00  0.00    -0.287 N 
ATOM      2  H3  UNL     1      -0.085   1.626  -1.280  1.00  0.00     0.188 HD
HETATM    3  C2  UNL     1       1.271   0.609  -0.219  1.00  0.00     0.110 A 
HETATM    4  C3  UNL     1       2.217  -0.199   0.570  1.00  0.00     0.198 A 
HETATM    5  N4  UNL     1       2.630   1.130   0.083  1.00  0.00    -0.370 N 
ATOM      6  H4  UNL     1       3.332   1.866   0.008  1.00  0.00     0.161 HD
ENDROOT
BRANCH   1   7
HETATM    7  N2  UNL     1      -0.826  -0.244  -0.660  1.00  0.00    -0.297 N 
HETATM    8  C1  UNL     1      -1.960   0.060  -0.123  1.00  0.00     0.206 C 
HETATM    9  N1  UNL     1      -2.912  -0.985  -0.023  1.00  0.00    -0.095 NA
ATOM     10  H2  UNL     1      -0.634  -1.189  -0.992  1.00  0.00     0.187 HD
ENDBRANCH   1   7
TORSDOF 1
