REMARK  1 active torsions:
REMARK  status: ('A' for Active; 'I' for Inactive)
REMARK    1  A    between atoms: N1_1  and  C1_4 
ROOT
HETATM    1  C1  UNL     1       1.812   0.036   0.659  1.00  0.00     0.707 A 
HETATM    2  N2  UNL     1       0.789  -0.067   1.525  1.00  0.00    -0.018 N 
ATOM      3  H2  UNL     1       0.869  -0.131   2.540  1.00  0.00     0.203 HD
HETATM    4  C2  UNL     1      -0.358  -0.071   0.823  1.00  0.00     0.738 A 
HETATM    5  N3  UNL     1      -1.718  -0.137   0.896  1.00  0.00    -0.136 N 
ATOM      6  H3  UNL     1      -2.255  -0.219   1.759  1.00  0.00     0.189 HD
HETATM    7  C3  UNL     1      -2.240  -0.078  -0.326  1.00  0.00     0.355 A 
HETATM    8  O1  UNL     1      -3.480  -0.115  -0.589  1.00  0.00    -0.245 OA
HETATM    9  N4  UNL     1      -1.201   0.026  -1.178  1.00  0.00    -0.214 N 
ATOM     10  H4  UNL     1      -1.276   0.092  -2.193  1.00  0.00     0.194 HD
HETATM   11  N5  UNL     1      -0.062   0.030  -0.491  1.00  0.00    -0.001 N 
HETATM   12  N6  UNL     1       1.258   0.094  -0.565  1.00  0.00    -0.095 N 
ATOM     13  H6  UNL     1       1.785   0.176  -1.435  1.00  0.00     0.208 HD
ENDROOT
BRANCH   1  14
HETATM   14  N1  UNL     1       3.088   0.075   0.933  1.00  0.00    -0.233 N 
ATOM     15  H12 UNL     1       3.508   0.031   1.861  1.00  0.00     0.174 HD
ATOM     16  H11 UNL     1       3.864   0.153   0.276  1.00  0.00     0.174 HD
ENDBRANCH   1  14
TORSDOF 1
