REMARK  1 active torsions:
REMARK  status: ('A' for Active; 'I' for Inactive)
REMARK    1  A    between atoms: N1_1  and  C1_4 
ROOT
HETATM    1  C1  UNL     1       1.428  -0.259  -0.024  1.00  0.00     0.694 A 
HETATM    2  N2  UNL     1       0.921   0.909   0.412  1.00  0.00    -0.139 N 
ATOM      3  H2  UNL     1       1.550   1.643   0.738  1.00  0.00     0.189 HD
HETATM    4  C2  UNL     1      -0.408   1.116   0.421  1.00  0.00     0.376 A 
HETATM    5  O1  UNL     1      -0.873   2.223   0.836  1.00  0.00    -0.243 OA
HETATM    6  N3  UNL     1      -1.282   0.175  -0.001  1.00  0.00    -0.014 N 
HETATM    7  N4  UNL     1      -2.529  -0.191  -0.215  1.00  0.00    -0.203 N 
ATOM      8  H4  UNL     1      -3.448   0.235  -0.096  1.00  0.00     0.210 HD
HETATM    9  N5  UNL     1      -2.070  -1.352  -0.652  1.00  0.00    -0.114 N 
ATOM     10  H5  UNL     1      -2.517  -2.195  -1.012  1.00  0.00     0.207 HD
HETATM   11  C3  UNL     1      -0.790  -0.998  -0.441  1.00  0.00     0.739 A 
HETATM   12  N6  UNL     1       0.545  -1.184  -0.441  1.00  0.00    -0.019 N 
ATOM     13  H6  UNL     1       0.906  -2.077  -0.776  1.00  0.00     0.203 HD
ENDROOT
BRANCH   1  14
HETATM   14  N1  UNL     1       2.718  -0.485  -0.043  1.00  0.00    -0.234 N 
ATOM     15  H12 UNL     1       3.388   0.216   0.273  1.00  0.00     0.174 HD
ATOM     16  H11 UNL     1       3.102  -1.370  -0.373  1.00  0.00     0.174 HD
ENDBRANCH   1  14
TORSDOF 1
