REMARK  2 active torsions:
REMARK  status: ('A' for Active; 'I' for Inactive)
REMARK    1  A    between atoms: N1_1  and  C1_4 
REMARK    2  A    between atoms: N3_7  and  N4_8 
ROOT
HETATM    1  C1  UNL     1      -1.640  -0.753   0.121  1.00  0.00     0.166 A 
HETATM    2  N2  UNL     1      -0.402  -1.275   0.126  1.00  0.00    -0.260 N 
ATOM      3  H2  UNL     1      -0.310  -2.287   0.213  1.00  0.00     0.191 HD
HETATM    4  N3  UNL     1       0.698  -0.562   0.026  1.00  0.00    -0.187 N 
HETATM    5  C2  UNL     1       0.648   0.777  -0.092  1.00  0.00     0.159 A 
HETATM    6  N5  UNL     1       1.838   1.565  -0.203  1.00  0.00    -0.079 NA
HETATM    7  C3  UNL     1      -0.594   1.377  -0.105  1.00  0.00     0.107 A 
HETATM    8  C4  UNL     1      -1.752   0.618   0.002  1.00  0.00     0.219 A 
HETATM    9  O1  UNL     1      -2.876   1.145  -0.008  1.00  0.00    -0.284 OA
ENDROOT
BRANCH   1  10
HETATM   10  N1  UNL     1      -2.666  -1.539   0.225  1.00  0.00    -0.381 N 
ATOM     11  H12 UNL     1      -2.583  -2.552   0.313  1.00  0.00     0.157 HD
ATOM     12  H11 UNL     1      -3.606  -1.143   0.221  1.00  0.00     0.157 HD
ENDBRANCH   1  10
BRANCH   4  13
HETATM   13  N4  UNL     1       1.964  -1.177   0.039  1.00  0.00    -0.323 N 
ATOM     14  H42 UNL     1       2.002  -2.192   0.128  1.00  0.00     0.179 HD
ATOM     15  H41 UNL     1       2.817  -0.624  -0.039  1.00  0.00     0.179 HD
ENDBRANCH   4  13
TORSDOF 2
