REMARK  9 active torsions:
REMARK  status: ('A' for Active; 'I' for Inactive)
REMARK       I    between atoms: N1_2  and  C2_4 
REMARK    1  A    between atoms: C2_4  and  C3_6 
REMARK    2  A    between atoms: C3_6  and  C4_7 
REMARK    3  A    between atoms: C3_6  and  C12_34 
REMARK    4  A    between atoms: N4_11  and  C5_12 
REMARK    5  A    between atoms: C5_12  and  C6_13 
REMARK    6  A    between atoms: C6_13  and  N5_14 
REMARK    7  A    between atoms: C9_19  and  N7_20 
REMARK    8  A    between atoms: C10_25  and  N9_26 
REMARK    9  A    between atoms: C15_41  and  N14_42 
ROOT
HETATM    1  C4  UNL     1       1.908  -0.050  -1.277  1.00  0.00     0.129 A 
HETATM    2  N2  UNL     1       1.235   0.442  -2.348  1.00  0.00    -0.269 N 
ATOM      3  H2  UNL     1       1.630   0.591  -3.277  1.00  0.00     0.185 HD
HETATM    4  N3  UNL     1      -0.012   0.698  -1.998  1.00  0.00    -0.003 NA
HETATM    5  N4  UNL     1      -0.179   0.387  -0.718  1.00  0.00    -0.215 N 
HETATM    6  N11 UNL     1       0.993  -0.065  -0.296  1.00  0.00    -0.272 N 
ATOM      7  H11 UNL     1       1.176  -0.384   0.655  1.00  0.00     0.189 HD
ENDROOT
BRANCH   5   8
HETATM    8  C5  UNL     1      -1.387   0.507   0.080  1.00  0.00     0.187 C 
BRANCH   8   9
HETATM    9  C6  UNL     1      -2.204  -0.768   0.014  1.00  0.00     0.154 C 
BRANCH   9  10
HETATM   10  N5  UNL     1      -3.415  -0.655   0.807  1.00  0.00    -0.325 N 
HETATM   11  C7  UNL     1      -3.608  -0.943   2.093  1.00  0.00     0.185 A 
HETATM   12  N6  UNL     1      -4.894  -0.687   2.436  1.00  0.00    -0.346 N 
HETATM   13  C8  UNL     1      -5.546  -0.225   1.363  1.00  0.00     0.123 A 
ATOM     14  H6  UNL     1      -5.299  -0.824   3.362  1.00  0.00     0.167 HD
HETATM   15  C9  UNL     1      -6.850   0.177   1.176  1.00  0.00     0.145 A 
HETATM   16  C11 UNL     1      -4.613  -0.208   0.344  1.00  0.00     0.155 A 
HETATM   17  N8  UNL     1      -7.186   0.593  -0.057  1.00  0.00    -0.175 N 
HETATM   18  C10 UNL     1      -6.303   0.624  -1.076  1.00  0.00     0.679 A 
ATOM     19  H8  UNL     1      -8.145   0.897  -0.229  1.00  0.00     0.186 HD
HETATM   20  N10 UNL     1      -5.024   0.221  -0.858  1.00  0.00    -0.174 N 
ATOM     21  H10 UNL     1      -4.358   0.245  -1.630  1.00  0.00     0.186 HD
BRANCH  15  22
HETATM   22  N7  UNL     1      -7.744   0.174   2.104  1.00  0.00    -0.383 N 
ATOM     23  H72 UNL     1      -7.489  -0.142   3.040  1.00  0.00     0.157 HD
ATOM     24  H71 UNL     1      -8.710   0.472   1.966  1.00  0.00     0.157 HD
ENDBRANCH  15  22
BRANCH  18  25
HETATM   25  N9  UNL     1      -6.682   1.033  -2.238  1.00  0.00    -0.234 N 
ATOM     26  H92 UNL     1      -7.642   1.336  -2.402  1.00  0.00     0.174 HD
ATOM     27  H91 UNL     1      -6.014   1.056  -3.009  1.00  0.00     0.174 HD
ENDBRANCH  18  25
ENDBRANCH   9  10
ENDBRANCH   8   9
ENDBRANCH   5   8
BRANCH   1  28
HETATM   28  C3  UNL     1       3.348  -0.468  -1.250  1.00  0.00     0.201 C 
BRANCH  28  29
HETATM   29  C2  UNL     1       3.517  -1.617  -0.365  1.00  0.00     0.234 C 
HETATM   30  N1  UNL     1       4.790  -2.194  -0.167  1.00  0.00    -0.364 N 
HETATM   31  C1  UNL     1       4.993  -3.342   0.708  1.00  0.00     0.149 C 
ATOM     32  H1  UNL     1       5.594  -1.795  -0.652  1.00  0.00     0.161 HD
HETATM   33  O1  UNL     1       2.536  -2.106   0.229  1.00  0.00    -0.272 OA
ENDBRANCH  28  29
BRANCH  28  34
HETATM   34  C12 UNL     1       4.147   0.700  -0.879  1.00  0.00     0.074 A 
HETATM   35  N12 UNL     1       4.839   1.351  -1.844  1.00  0.00    -0.364 N 
HETATM   36  C13 UNL     1       5.573   2.431  -1.506  1.00  0.00     0.105 A 
ATOM     37  H12 UNL     1       4.806   1.030  -2.811  1.00  0.00     0.165 HD
HETATM   38  C14 UNL     1       5.658   2.913  -0.220  1.00  0.00     0.106 A 
HETATM   39  N13 UNL     1       4.967   2.262   0.745  1.00  0.00    -0.350 N 
HETATM   40  C15 UNL     1       4.222   1.167   0.408  1.00  0.00     0.123 A 
ATOM     41  H13 UNL     1       5.002   2.585   1.712  1.00  0.00     0.166 HD
BRANCH  40  42
HETATM   42  N14 UNL     1       3.577   0.551   1.319  1.00  0.00    -0.384 N 
ATOM     43 2H14 UNL     1       3.021  -0.266   1.067  1.00  0.00     0.157 HD
ATOM     44 1H14 UNL     1       3.633   0.898   2.276  1.00  0.00     0.157 HD
ENDBRANCH  40  42
ENDBRANCH  28  34
ENDBRANCH   1  28
TORSDOF 9
