REMARK  11 active torsions:
REMARK  status: ('A' for Active; 'I' for Inactive)
REMARK    1  A    between atoms: C2_5  and  N3_6 
REMARK    2  A    between atoms: C2_5  and  C6_17 
REMARK    3  A    between atoms: N3_6  and  N4_8 
REMARK    4  A    between atoms: N4_8  and  C3_10 
REMARK    5  A    between atoms: C7_19  and  C8_20 
REMARK    6  A    between atoms: C10_24  and  C11_25 
REMARK    7  A    between atoms: N9_27  and  O2_29 
REMARK    8  A    between atoms: C14_35  and  C15_36 
REMARK    9  A    between atoms: C15_36  and  O3_37 
REMARK   10  A    between atoms: C15_36  and  C16_39 
REMARK   11  A    between atoms: C16_39  and  O4_40 
ROOT
HETATM    1  N1  UNL     1      -0.833   1.575   3.630  1.00  0.00    -0.172 NA
HETATM    2  C1  UNL     1       0.180   1.618   3.028  1.00  0.00     0.183 C 
HETATM    3  N2  UNL     1       1.388   1.677   2.342  1.00  0.00    -0.276 N 
ATOM      4  H2  UNL     1       2.180   2.178   2.745  1.00  0.00     0.179 HD
HETATM    5  C2  UNL     1       1.504   1.104   1.209  1.00  0.00     0.164 C 
ENDROOT
BRANCH   5   6
HETATM    6  N3  UNL     1       2.762   1.193   0.548  1.00  0.00    -0.280 N 
ATOM      7  H3  UNL     1       2.776   1.293  -0.467  1.00  0.00     0.188 HD
BRANCH   6   8
HETATM    8  N4  UNL     1       3.961   1.149   1.224  1.00  0.00    -0.270 N 
ATOM      9  H4  UNL     1       3.963   1.059   2.240  1.00  0.00     0.190 HD
BRANCH   8  10
HETATM   10  C3  UNL     1       5.201   1.228   0.520  1.00  0.00     0.190 C 
HETATM   11  N5  UNL     1       6.107   2.113   0.743  1.00  0.00    -0.360 N 
HETATM   12  C4  UNL     1       7.253   1.936  -0.130  1.00  0.00     0.142 C 
ATOM     13  H5  UNL     1       6.030   2.848   1.446  1.00  0.00     0.162 HD
HETATM   14  C5  UNL     1       7.071   0.518  -0.689  1.00  0.00     0.142 C 
HETATM   15  N6  UNL     1       5.639   0.372  -0.520  1.00  0.00    -0.360 N 
ATOM     16  H6  UNL     1       5.041  -0.249  -1.064  1.00  0.00     0.162 HD
ENDBRANCH   8  10
ENDBRANCH   6   8
ENDBRANCH   5   6
BRANCH   5  17
HETATM   17  C6  UNL     1       0.395   0.402   0.621  1.00  0.00     0.131 A 
HETATM   18  O1  UNL     1      -0.870   0.788   0.742  1.00  0.00    -0.302 OA
HETATM   19  C7  UNL     1      -1.664  -0.030   0.112  1.00  0.00     0.120 A 
HETATM   20  C13 UNL     1      -0.900  -1.012  -0.458  1.00  0.00     0.054 A 
HETATM   21  C14 UNL     1       0.423  -0.737  -0.133  1.00  0.00     0.013 A 
BRANCH  19  22
HETATM   22  C8  UNL     1      -3.118   0.067   0.021  1.00  0.00     0.139 A 
HETATM   23  N7  UNL     1      -3.813   1.046   0.592  1.00  0.00    -0.349 N 
HETATM   24  C9  UNL     1      -5.161   1.086   0.475  1.00  0.00     0.106 A 
ATOM     25  H7  UNL     1      -3.328   1.771   1.121  1.00  0.00     0.167 HD
HETATM   26  C10 UNL     1      -5.904   0.157  -0.217  1.00  0.00     0.037 A 
HETATM   27  C12 UNL     1      -5.121  -0.861  -0.804  1.00  0.00     0.106 A 
HETATM   28  N10 UNL     1      -3.796  -0.864  -0.665  1.00  0.00    -0.349 N 
ATOM     29  H10 UNL     1      -3.268  -1.617  -1.105  1.00  0.00     0.167 HD
BRANCH  26  30
HETATM   30  C11 UNL     1      -7.336   0.148  -0.375  1.00  0.00     0.148 C 
HETATM   31  N8  UNL     1      -7.893  -0.949  -1.156  1.00  0.00    -0.080 NA
HETATM   32  N9  UNL     1      -8.163   0.955   0.068  1.00  0.00    -0.255 N 
ATOM     33  H9  UNL     1      -9.134   0.753  -0.169  1.00  0.00     0.195 HD
BRANCH  32  34
HETATM   34  O2  UNL     1      -7.977   2.045   0.806  1.00  0.00    -0.288 OA
ATOM     35  H2  UNL     1      -8.612   2.665   1.146  1.00  0.00     0.244 HD
ENDBRANCH  32  34
ENDBRANCH  26  30
ENDBRANCH  19  22
BRANCH  21  36
HETATM   36  C15 UNL     1       1.594  -1.520  -0.529  1.00  0.00     0.177 C 
BRANCH  36  37
HETATM   37  O3  UNL     1       2.380  -1.945   0.538  1.00  0.00    -0.389 OA
ATOM     38  H3  UNL     1       3.140  -2.453   0.281  1.00  0.00     0.210 HD
ENDBRANCH  36  37
BRANCH  36  39
HETATM   39  C16 UNL     1       1.192  -2.761  -1.318  1.00  0.00     0.200 C 
BRANCH  39  40
HETATM   40  O4  UNL     1       2.331  -3.404  -1.780  1.00  0.00    -0.398 OA
ATOM     41  H4  UNL     1       2.080  -4.177  -2.272  1.00  0.00     0.209 HD
ENDBRANCH  39  40
ENDBRANCH  36  39
ENDBRANCH  21  36
ENDBRANCH   5  17
TORSDOF 11
