REMARK  8 active torsions:
REMARK  status: ('A' for Active; 'I' for Inactive)
REMARK       I    between atoms: C2_2  and  N1_4 
REMARK    1  A    between atoms: N1_4  and  C3_6 
REMARK    2  A    between atoms: C3_6  and  O2_7 
REMARK    3  A    between atoms: C3_6  and  C4_9 
REMARK    4  A    between atoms: C4_9  and  C5_10 
REMARK    5  A    between atoms: C4_9  and  N9_27 
REMARK    6  A    between atoms: C5_10  and  N2_11 
REMARK    7  A    between atoms: C7_13  and  C8_14 
REMARK    8  A    between atoms: C12_40  and  N14_41 
ROOT
HETATM    1  C4  UNL     1       0.254  -0.196   0.211  1.00  0.00     0.151 C 
ENDROOT
BRANCH   1   2
HETATM    2  C3  UNL     1       0.524   0.859   1.268  1.00  0.00     0.244 C 
BRANCH   2   3
HETATM    3  N1  UNL     1      -0.382   1.973   1.222  1.00  0.00    -0.333 N 
HETATM    4  C2  UNL     1       0.007   3.320   1.237  1.00  0.00     0.215 C 
HETATM    5  C1  UNL     1      -1.006   4.385   1.184  1.00  0.00     0.117 C 
HETATM    6  O1  UNL     1       1.216   3.615   1.294  1.00  0.00    -0.274 OA
ATOM      7  H1  UNL     1      -1.380   1.769   1.175  1.00  0.00     0.165 HD
ENDBRANCH   2   3
BRANCH   2   8
HETATM    8  O2  UNL     1       0.295   0.260   2.536  1.00  0.00    -0.375 OA
ATOM      9  H2  UNL     1       0.894  -0.477   2.566  1.00  0.00     0.212 HD
ENDBRANCH   2   8
ENDBRANCH   1   2
BRANCH   1  10
HETATM   10  C5  UNL     1       0.796   0.130  -1.136  1.00  0.00     0.179 C 
BRANCH  10  11
HETATM   11  N2  UNL     1       2.240   0.278  -1.120  1.00  0.00    -0.285 N 
HETATM   12  C6  UNL     1       3.166  -0.670  -1.306  1.00  0.00     0.146 A 
HETATM   13  C7  UNL     1       4.409  -0.087  -1.216  1.00  0.00     0.113 A 
HETATM   14  N7  UNL     1       4.160   1.207  -0.975  1.00  0.00    -0.281 N 
HETATM   15  N8  UNL     1       2.866   1.408  -0.920  1.00  0.00    -0.240 N 
ATOM     16  H7  UNL     1       4.871   1.928  -0.853  1.00  0.00     0.188 HD
ATOM     17  H8  UNL     1       2.417   2.307  -0.748  1.00  0.00     0.208 HD
BRANCH  13  18
HETATM   18  C8  UNL     1       5.693  -0.766  -1.358  1.00  0.00     0.167 A 
HETATM   19  N3  UNL     1       6.911  -0.203  -1.271  1.00  0.00    -0.267 N 
HETATM   20  N4  UNL     1       7.840  -1.154  -1.458  1.00  0.00    -0.227 N 
ATOM     21  H3  UNL     1       7.098   0.784  -1.092  1.00  0.00     0.190 HD
HETATM   22  N5  UNL     1       7.222  -2.297  -1.660  1.00  0.00    -0.227 N 
ATOM     23  H4  UNL     1       8.850  -1.014  -1.446  1.00  0.00     0.210 HD
HETATM   24  N6  UNL     1       5.917  -2.069  -1.600  1.00  0.00    -0.267 N 
ATOM     25  H5  UNL     1       7.667  -3.198  -1.832  1.00  0.00     0.210 HD
ATOM     26  H6  UNL     1       5.192  -2.776  -1.720  1.00  0.00     0.190 HD
ENDBRANCH  13  18
ENDBRANCH  10  11
ENDBRANCH   1  10
BRANCH   1  27
HETATM   27  N9  UNL     1      -1.056  -0.644   0.290  1.00  0.00    -0.364 N 
HETATM   28  C9  UNL     1      -2.153  -0.458  -0.248  1.00  0.00     0.134 A 
HETATM   29  N10 UNL     1      -2.574   0.333  -1.233  1.00  0.00    -0.283 N 
HETATM   30  C13 UNL     1      -3.311  -1.159   0.147  1.00  0.00     0.098 A 
HETATM   31  N11 UNL     1      -3.879   0.169  -1.462  1.00  0.00    -0.283 N 
ATOM     32  H10 UNL     1      -1.976   0.981  -1.746  1.00  0.00     0.188 HD
HETATM   33  C10 UNL     1      -4.365  -0.752  -0.620  1.00  0.00     0.138 A 
ATOM     34  H11 UNL     1      -4.421   0.667  -2.168  1.00  0.00     0.188 HD
HETATM   35  N12 UNL     1      -5.587  -1.303  -0.406  1.00  0.00    -0.337 N 
HETATM   36  C11 UNL     1      -5.778  -2.246   0.551  1.00  0.00     0.183 A 
ATOM     37  H12 UNL     1      -6.378  -1.002  -0.976  1.00  0.00     0.168 HD
HETATM   38  N13 UNL     1      -4.764  -2.659   1.313  1.00  0.00    -0.338 N 
HETATM   39  C12 UNL     1      -3.543  -2.122   1.113  1.00  0.00     0.117 A 
ATOM     40  H13 UNL     1      -4.909  -3.367   2.033  1.00  0.00     0.168 HD
ATOM     41  H9  UNL     1      -1.141  -1.349   1.023  1.00  0.00     0.161 HD
BRANCH  39  42
HETATM   42  N14 UNL     1      -2.562  -2.502   1.827  1.00  0.00    -0.385 N 
ATOM     43 2H14 UNL     1      -2.733  -3.212   2.539  1.00  0.00     0.157 HD
ATOM     44 1H14 UNL     1      -1.639  -2.096   1.676  1.00  0.00     0.157 HD
ENDBRANCH  39  42
ENDBRANCH   1  27
TORSDOF 8
