REMARK  8 active torsions:
REMARK  status: ('A' for Active; 'I' for Inactive)
REMARK    1  A    between atoms: N1_2  and  N2_3 
REMARK    2  A    between atoms: N1_2  and  C8_22 
REMARK    3  A    between atoms: N3_5  and  C2_7 
REMARK    4  A    between atoms: C4_9  and  N4_10 
REMARK    5  A    between atoms: C7_15  and  S1_16 
REMARK    6  A    between atoms: S1_16  and  N5_17 
REMARK    7  A    between atoms: C9_25  and  N7_26 
REMARK       I    between atoms: N7_26  and  C10_28 
REMARK       I    between atoms: C10_28  and  N8_29 
REMARK       I    between atoms: C10_28  and  N9_33 
REMARK    8  A    between atoms: C11_39  and  N11_40 
ROOT
HETATM    1  C8  UNL     1       1.393  -0.404  -0.221  1.00  0.00     0.729 A 
HETATM    2  N6  UNL     1       2.352   0.528  -0.219  1.00  0.00    -0.020 N 
ATOM      3  H6  UNL     1       2.066   1.507  -0.247  1.00  0.00     0.203 HD
HETATM    4  C9  UNL     1       3.680   0.255  -0.182  1.00  0.00     0.710 A 
HETATM    5  N10 UNL     1       4.021  -1.037  -0.146  1.00  0.00    -0.022 N 
ATOM      6  H10 UNL     1       5.010  -1.286  -0.118  1.00  0.00     0.203 HD
HETATM    7  C11 UNL     1       3.091  -2.030  -0.146  1.00  0.00     0.705 A 
HETATM    8  N12 UNL     1       1.784  -1.689  -0.183  1.00  0.00    -0.020 N 
ATOM      9  H12 UNL     1       1.077  -2.425  -0.182  1.00  0.00     0.203 HD
ENDROOT
BRANCH   1  10
HETATM   10  N1  UNL     1      -0.015  -0.093  -0.268  1.00  0.00    -0.113 N 
HETATM   11  C1  UNL     1      -0.688  -0.238  -1.529  1.00  0.00     0.199 C 
BRANCH  10  12
HETATM   12  N2  UNL     1      -0.614   0.328   0.868  1.00  0.00    -0.226 N 
HETATM   13  N3  UNL     1      -1.708   0.645   1.246  1.00  0.00    -0.284 N 
ATOM     14  H3  UNL     1      -1.713   0.907   2.232  1.00  0.00     0.188 HD
ATOM     15  H2  UNL     1       0.063   0.396   1.628  1.00  0.00     0.209 HD
BRANCH  13  16
HETATM   16  C2  UNL     1      -2.972   0.743   0.671  1.00  0.00     0.075 A 
HETATM   17  C3  UNL     1      -3.276   1.666  -0.306  1.00  0.00     0.068 A 
HETATM   18  C4  UNL     1      -4.535   1.762  -0.875  1.00  0.00     0.105 A 
HETATM   19  C5  UNL     1      -5.506   0.898  -0.438  1.00  0.00     0.038 A 
HETATM   20  C6  UNL     1      -5.260  -0.052   0.542  1.00  0.00     0.030 A 
HETATM   21  C7  UNL     1      -3.976  -0.107   1.081  1.00  0.00     0.107 A 
BRANCH  18  22
HETATM   22  N4  UNL     1      -4.819   2.732  -1.891  1.00  0.00    -0.116 N 
HETATM   23  O1  UNL     1      -3.946   3.505  -2.282  1.00  0.00    -0.532 OA
HETATM   24  O2  UNL     1      -6.076   2.794  -2.428  1.00  0.00    -0.532 OA
ENDBRANCH  18  22
BRANCH  21  25
HETATM   25  S1  UNL     1      -3.596  -1.277   2.326  1.00  0.00     0.259 S 
HETATM   26  O3  UNL     1      -3.196  -0.563   3.581  1.00  0.00    -0.201 OA
HETATM   27  O4  UNL     1      -2.535  -2.252   1.862  1.00  0.00    -0.201 OA
BRANCH  25  28
HETATM   28  N5  UNL     1      -5.008  -2.212   2.667  1.00  0.00    -0.324 N 
ATOM     29  H52 UNL     1      -5.911  -2.090   2.208  1.00  0.00     0.169 HD
ATOM     30  H51 UNL     1      -4.787  -2.894   3.393  1.00  0.00     0.169 HD
ENDBRANCH  25  28
ENDBRANCH  21  25
ENDBRANCH  13  16
ENDBRANCH  10  12
ENDBRANCH   1  10
BRANCH   4  31
HETATM   31  N7  UNL     1       4.554   1.195  -0.180  1.00  0.00    -0.172 N 
HETATM   32  C10 UNL     1       5.962   0.886  -0.137  1.00  0.00     0.494 C 
HETATM   33  N8  UNL     1       6.732   2.129  -0.361  1.00  0.00    -0.032 N 
HETATM   34  N9  UNL     1       6.336   0.412   1.208  1.00  0.00    -0.032 N 
ATOM     35  H83 UNL     1       6.464   2.603  -1.224  1.00  0.00     0.278 HD
ATOM     36  H82 UNL     1       6.476   2.869   0.293  1.00  0.00     0.278 HD
ATOM     37  H81 UNL     1       7.728   1.910  -0.331  1.00  0.00     0.278 HD
ATOM     38  H93 UNL     1       6.069   1.076   1.935  1.00  0.00     0.278 HD
ATOM     39  H92 UNL     1       5.763  -0.377   1.508  1.00  0.00     0.278 HD
ATOM     40  H91 UNL     1       7.332   0.193   1.238  1.00  0.00     0.278 HD
ATOM     41  H7  UNL     1       4.250   2.168  -0.209  1.00  0.00     0.181 HD
ENDBRANCH   4  31
BRANCH   7  42
HETATM   42  N11 UNL     1       3.507  -3.237  -0.111  1.00  0.00    -0.234 N 
ATOM     43 2H11 UNL     1       4.494  -3.494  -0.083  1.00  0.00     0.174 HD
ATOM     44 1H11 UNL     1       2.810  -3.981  -0.111  1.00  0.00     0.174 HD
ENDBRANCH   7  42
TORSDOF 8
