REMARK  11 active torsions:
REMARK  status: ('A' for Active; 'I' for Inactive)
REMARK    1  A    between atoms: C4_7  and  S1_8 
REMARK    2  A    between atoms: S1_8  and  C5_9 
REMARK    3  A    between atoms: C5_9  and  C6_10 
REMARK       I    between atoms: C6_10  and  N3_12 
REMARK    4  A    between atoms: N3_12  and  C7_14 
REMARK    5  A    between atoms: C7_14  and  C8_15 
REMARK    6  A    between atoms: C9_16  and  N4_17 
REMARK    7  A    between atoms: C11_23  and  C12_24 
REMARK    8  A    between atoms: C12_24  and  C13_25 
REMARK    9  A    between atoms: C13_25  and  N7_26 
REMARK   10  A    between atoms: N7_26  and  N8_28 
REMARK   11  A    between atoms: C14_33  and  N10_34 
ROOT
HETATM    1  C8  UNL     1      -1.330  -1.023  -0.902  1.00  0.00     0.066 A 
HETATM    2  C9  UNL     1      -2.672  -1.081  -0.470  1.00  0.00     0.145 A 
HETATM    3  N9  UNL     1      -2.974  -1.929   0.507  1.00  0.00    -0.175 N 
ATOM      4  H9  UNL     1      -3.940  -1.982   0.830  1.00  0.00     0.186 HD
HETATM    5  C14 UNL     1      -2.038  -2.732   1.094  1.00  0.00     0.678 A 
HETATM    6  N11 UNL     1      -0.767  -2.672   0.679  1.00  0.00    -0.178 N 
ATOM      7  H11 UNL     1      -0.067  -3.271   1.117  1.00  0.00     0.185 HD
HETATM    8  C15 UNL     1      -0.392  -1.821  -0.323  1.00  0.00     0.147 A 
HETATM    9  N12 UNL     1       0.959  -1.899  -0.710  1.00  0.00    -0.081 NA
ENDROOT
BRANCH   1  10
HETATM   10  C7  UNL     1      -1.069  -0.133  -2.002  1.00  0.00     0.109 C 
BRANCH  10  11
HETATM   11  N3  UNL     1       0.216   0.145  -2.473  1.00  0.00    -0.335 N 
HETATM   12  C6  UNL     1       1.102   1.026  -1.766  1.00  0.00     0.231 C 
HETATM   13  O1  UNL     1       0.758   1.561  -0.686  1.00  0.00    -0.272 OA
ATOM     14  H3  UNL     1       0.533  -0.288  -3.340  1.00  0.00     0.168 HD
BRANCH  12  15
HETATM   15  C5  UNL     1       2.442   1.323  -2.317  1.00  0.00     0.184 C 
BRANCH  15  16
HETATM   16  S1  UNL     1       3.731   0.352  -1.599  1.00  0.00    -0.101 SA
BRANCH  16  17
HETATM   17  C4  UNL     1       4.125   0.768   0.060  1.00  0.00     0.088 A 
HETATM   18  N1  UNL     1       4.946   0.038   0.848  1.00  0.00    -0.341 N 
HETATM   19  C1  UNL     1       5.631  -1.161   0.454  1.00  0.00     0.158 C 
HETATM   20  C2  UNL     1       5.026   0.601   2.065  1.00  0.00     0.183 A 
HETATM   21  N2  UNL     1       4.250   1.695   2.044  1.00  0.00    -0.359 N 
HETATM   22  C3  UNL     1       3.678   1.823   0.808  1.00  0.00     0.126 A 
ATOM     23  H2  UNL     1       4.108   2.332   2.828  1.00  0.00     0.166 HD
ENDBRANCH  16  17
ENDBRANCH  15  16
ENDBRANCH  12  15
ENDBRANCH  10  11
ENDBRANCH   1  10
BRANCH   2  24
HETATM   24  N4  UNL     1      -3.625  -0.250  -1.067  1.00  0.00    -0.268 N 
HETATM   25  C10 UNL     1      -4.195  -0.327  -2.276  1.00  0.00     0.209 A 
HETATM   26  N5  UNL     1      -5.077   0.669  -2.474  1.00  0.00    -0.293 N 
HETATM   27  N6  UNL     1      -5.054   1.386  -1.353  1.00  0.00    -0.277 N 
ATOM     28  H5  UNL     1      -5.643   0.839  -3.306  1.00  0.00     0.187 HD
HETATM   29  C11 UNL     1      -4.182   0.849  -0.485  1.00  0.00     0.187 A 
ATOM     30  H6  UNL     1      -5.615   2.220  -1.179  1.00  0.00     0.189 HD
BRANCH  29  31
HETATM   31  C12 UNL     1      -3.871   1.311   0.834  1.00  0.00    -0.004 C 
BRANCH  31  32
HETATM   32  C13 UNL     1      -3.625   1.687   1.960  1.00  0.00     0.034 C 
BRANCH  32  33
HETATM   33  N7  UNL     1      -3.363   2.110   3.269  1.00  0.00    -0.265 N 
ATOM     34  H7  UNL     1      -2.568   1.700   3.758  1.00  0.00     0.197 HD
BRANCH  33  35
HETATM   35  N8  UNL     1      -4.127   3.058   3.938  1.00  0.00    -0.338 N 
ATOM     36  H82 UNL     1      -4.918   3.458   3.434  1.00  0.00     0.177 HD
ATOM     37  H81 UNL     1      -3.936   3.366   4.891  1.00  0.00     0.177 HD
ENDBRANCH  33  35
ENDBRANCH  32  33
ENDBRANCH  31  32
ENDBRANCH  29  31
ENDBRANCH   2  24
BRANCH   5  38
HETATM   38  N10 UNL     1      -2.344  -3.541   2.032  1.00  0.00    -0.234 N 
ATOM     39 2H10 UNL     1      -3.313  -3.587   2.348  1.00  0.00     0.174 HD
ATOM     40 1H10 UNL     1      -1.645  -4.141   2.470  1.00  0.00     0.174 HD
ENDBRANCH   5  38
TORSDOF 11
