REMARK  9 active torsions:
REMARK  status: ('A' for Active; 'I' for Inactive)
REMARK    1  A    between atoms: C2_2  and  C10_24 
REMARK    2  A    between atoms: N1_3  and  N2_5 
REMARK       I    between atoms: N2_5  and  C3_7 
REMARK    3  A    between atoms: C3_7  and  C4_9 
REMARK    4  A    between atoms: C5_10  and  C6_11 
REMARK    5  A    between atoms: C6_11  and  O2_13 
REMARK    6  A    between atoms: C6_11  and  O3_15 
REMARK    7  A    between atoms: C8_20  and  C9_21 
REMARK    8  A    between atoms: C11_25  and  N5_26 
REMARK    9  A    between atoms: C12_31  and  N7_32 
ROOT
HETATM    1  C1  UNL     1       0.761   1.523  -1.441  1.00  0.00     0.071 C 
HETATM    2  C2  UNL     1       1.416   0.436  -0.612  1.00  0.00     0.040 C 
HETATM    3  N1  UNL     1       0.557  -0.419  -0.193  1.00  0.00    -0.301 N 
ATOM      4  H1  UNL     1       0.900  -1.192   0.377  1.00  0.00     0.186 HD
ENDROOT
BRANCH   3   5
HETATM    5  N2  UNL     1      -0.815  -0.370  -0.459  1.00  0.00    -0.266 N 
HETATM    6  C3  UNL     1      -1.778  -0.077   0.516  1.00  0.00     0.275 C 
HETATM    7  O1  UNL     1      -1.422   0.178   1.728  1.00  0.00    -0.266 OA
ATOM      8  H2  UNL     1      -1.131  -0.557  -1.411  1.00  0.00     0.190 HD
BRANCH   6   9
HETATM    9  C4  UNL     1      -3.203  -0.030   0.266  1.00  0.00     0.104 A 
HETATM   10  C5  UNL     1      -3.960  -1.086  -0.213  1.00  0.00     0.112 A 
HETATM   11  N3  UNL     1      -5.230  -0.589  -0.328  1.00  0.00    -0.258 N 
HETATM   12  O4  UNL     1      -5.245   0.628   0.038  1.00  0.00    -0.231 OA
ATOM     13  H3  UNL     1      -6.040  -1.115  -0.657  1.00  0.00     0.194 HD
HETATM   14  C8  UNL     1      -4.055   1.036   0.411  1.00  0.00     0.181 A 
BRANCH  10  15
HETATM   15  C6  UNL     1      -3.648  -2.469  -0.542  1.00  0.00     0.203 C 
HETATM   16  C7  UNL     1      -3.123  -3.208   0.716  1.00  0.00     0.086 C 
BRANCH  15  17
HETATM   17  O2  UNL     1      -2.727  -2.711  -1.516  1.00  0.00    -0.361 OA
ATOM     18  H2  UNL     1      -2.523  -3.614  -1.731  1.00  0.00     0.213 HD
ENDBRANCH  15  17
BRANCH  15  19
HETATM   19  O3  UNL     1      -4.838  -3.129  -0.933  1.00  0.00    -0.361 OA
ATOM     20  H3  UNL     1      -4.634  -4.032  -1.148  1.00  0.00     0.213 HD
ENDBRANCH  15  19
ENDBRANCH  10  15
BRANCH  14  21
HETATM   21  C9  UNL     1      -3.766   2.368   0.871  1.00  0.00     0.291 C 
HETATM   22  N4  UNL     1      -2.475   2.823   1.198  1.00  0.00    -0.055 NA
HETATM   23  O5  UNL     1      -4.700   3.228   1.008  1.00  0.00    -0.269 OA
ENDBRANCH  14  21
ENDBRANCH   6   9
ENDBRANCH   3   5
BRANCH   2  24
HETATM   24  C10 UNL     1       2.827   0.487  -0.386  1.00  0.00     0.082 A 
HETATM   25  C11 UNL     1       3.512  -0.414   0.395  1.00  0.00     0.204 A 
HETATM   26  N6  UNL     1       4.886  -0.383   0.421  1.00  0.00    -0.170 N 
HETATM   27  C12 UNL     1       5.586   0.486  -0.276  1.00  0.00     0.679 A 
ATOM     28  H6  UNL     1       5.381  -1.059   1.002  1.00  0.00     0.186 HD
HETATM   29  N8  UNL     1       4.975   1.382  -1.042  1.00  0.00    -0.176 N 
HETATM   30  C13 UNL     1       3.606   1.395  -1.107  1.00  0.00     0.131 A 
ATOM     31  H8  UNL     1       5.521   2.056  -1.579  1.00  0.00     0.186 HD
HETATM   32  N9  UNL     1       3.064   2.264  -1.848  1.00  0.00    -0.384 N 
ATOM     33  H92 UNL     1       2.045   2.274  -1.896  1.00  0.00     0.157 HD
ATOM     34  H91 UNL     1       3.633   2.927  -2.374  1.00  0.00     0.157 HD
BRANCH  25  35
HETATM   35  N5  UNL     1       2.942  -1.289   1.310  1.00  0.00    -0.096 N 
HETATM   36  O6  UNL     1       3.743  -2.161   1.844  1.00  0.00    -0.530 OA
HETATM   37  O7  UNL     1       1.654  -1.374   1.696  1.00  0.00    -0.530 OA
ENDBRANCH  25  35
BRANCH  27  38
HETATM   38  N7  UNL     1       6.900   0.456  -0.203  1.00  0.00    -0.234 N 
ATOM     39  H72 UNL     1       7.369  -0.232   0.385  1.00  0.00     0.174 HD
ATOM     40  H71 UNL     1       7.443   1.130  -0.743  1.00  0.00     0.174 HD
ENDBRANCH  27  38
ENDBRANCH   2  24
TORSDOF 9
