REMARK  4 active torsions:
REMARK  status: ('A' for Active; 'I' for Inactive)
REMARK    1  A    between atoms: C8_9  and  O2_10 
REMARK    2  A    between atoms: C8_9  and  C9_12 
REMARK    3  A    between atoms: C9_12  and  C10_14 
REMARK    4  A    between atoms: C10_14  and  O4_15 
ROOT
HETATM    1  C1  UNL     1       4.962   0.677  -1.344  1.00  0.00     0.043 C 
HETATM    2  C2  UNL     1       3.849   0.628  -0.317  1.00  0.00    -0.087 C 
HETATM    3  C3  UNL     1       2.982   1.608  -0.437  1.00  0.00    -0.024 C 
HETATM    4  C4  UNL     1       1.787   1.791   0.451  1.00  0.00     0.030 C 
HETATM    5  C5  UNL     1       0.603   1.332  -0.251  1.00  0.00     0.042 C 
HETATM    6  C6  UNL     1      -0.283   0.288   0.337  1.00  0.00     0.072 C 
HETATM    7  C7  UNL     1      -0.644   0.663   1.752  1.00  0.00     0.047 C 
HETATM    8  O1  UNL     1      -1.331   0.251  -0.532  1.00  0.00    -0.337 OA
HETATM    9  C8  UNL     1      -2.611   0.274  -0.181  1.00  0.00     0.232 C 
HETATM   10  C11 UNL     1      -3.013  -1.159   0.131  1.00  0.00     0.122 C 
HETATM   11  C12 UNL     1      -2.072  -2.151  -0.358  1.00  0.00     0.027 C 
HETATM   12  C13 UNL     1      -2.633  -3.208  -0.917  1.00  0.00     0.113 C 
HETATM   13 CL1  UNL     1      -1.573  -4.466  -1.541  1.00  0.00    -0.070 Cl
HETATM   14 CL2  UNL     1      -4.340  -3.429  -1.073  1.00  0.00    -0.070 Cl
HETATM   15  C14 UNL     1      -0.621  -2.095  -0.292  1.00  0.00     0.165 C 
HETATM   16  O5  UNL     1      -0.065  -3.031  -0.905  1.00  0.00    -0.292 OA
HETATM   17  C15 UNL     1       0.258  -1.111   0.382  1.00  0.00     0.095 C 
HETATM   18  C16 UNL     1       1.654  -1.296  -0.146  1.00  0.00     0.016 C 
HETATM   19  C17 UNL     1       2.676  -1.210   0.977  1.00  0.00     0.005 C 
HETATM   20  C18 UNL     1       3.899  -0.468   0.635  1.00  0.00     0.033 C 
ENDROOT
BRANCH   9  21
HETATM   21  O2  UNL     1      -3.034   1.052   0.840  1.00  0.00    -0.359 OA
ATOM     22  H2  UNL     1      -3.950   1.068   1.091  1.00  0.00     0.213 HD
ENDBRANCH   9  21
BRANCH   9  23
HETATM   23  C9  UNL     1      -3.384   0.672  -1.385  1.00  0.00     0.211 C 
HETATM   24  O3  UNL     1      -3.130   0.056  -2.415  1.00  0.00    -0.290 OA
BRANCH  23  25
HETATM   25  C10 UNL     1      -4.408   1.727  -1.433  1.00  0.00     0.248 C 
BRANCH  25  26
HETATM   26  O4  UNL     1      -4.605   2.357  -0.214  1.00  0.00    -0.393 OA
ATOM     27  H4  UNL     1      -5.266   3.038  -0.245  1.00  0.00     0.209 HD
ENDBRANCH  25  26
ENDBRANCH  23  25
ENDBRANCH   9  23
TORSDOF 4
