REMARK  5 active torsions:
REMARK  status: ('A' for Active; 'I' for Inactive)
REMARK    1  A    between atoms: C5_6  and  N1_7 
REMARK    2  A    between atoms: N1_7  and  C6_9 
REMARK    3  A    between atoms: C8_13  and  C9_14 
REMARK    4  A    between atoms: C12_22  and  N4_23 
REMARK    5  A    between atoms: N4_23  and  C13_25 
ROOT
HETATM    1  C1  UNL     1      -2.347  -0.308  -2.030  1.00  0.00     0.043 C 
HETATM    2  C2  UNL     1      -2.336   0.623  -0.870  1.00  0.00     0.173 C 
HETATM    3  O1  UNL     1      -1.190   1.384  -0.745  1.00  0.00    -0.348 OA
HETATM    4  C3  UNL     1      -0.417   0.832   0.266  1.00  0.00     0.363 C 
HETATM    5  C4  UNL     1       0.929   0.502  -0.303  1.00  0.00     0.089 C 
HETATM    6  C5  UNL     1       1.553  -0.721   0.297  1.00  0.00     0.089 C 
HETATM    7  C10 UNL     1       0.516  -1.824  -0.031  1.00  0.00     0.055 C 
HETATM    8  C11 UNL     1      -0.666  -1.538   0.838  1.00  0.00     0.280 C 
HETATM    9  N3  UNL     1      -1.149  -0.220   0.865  1.00  0.00     0.142 N 
HETATM   10  C12 UNL     1      -2.523  -0.123   0.435  1.00  0.00     0.355 C 
ENDROOT
BRANCH   6  11
HETATM   11  N1  UNL     1       2.784  -1.042  -0.285  1.00  0.00    -0.366 N 
ATOM     12  H1  UNL     1       2.761  -1.806  -0.960  1.00  0.00     0.162 HD
BRANCH  11  13
HETATM   13  C6  UNL     1       3.954  -0.508  -0.091  1.00  0.00     0.145 A 
HETATM   14  N2  UNL     1       4.302   0.507   0.725  1.00  0.00    -0.345 N 
HETATM   15  C7  UNL     1       5.566   0.819   0.835  1.00  0.00     0.114 A 
ATOM     16  H2  UNL     1       3.592   1.022   1.246  1.00  0.00     0.167 HD
HETATM   17  C8  UNL     1       6.463   0.083   0.110  1.00  0.00     0.107 A 
HETATM   18  S1  UNL     1       5.468  -1.024  -0.705  1.00  0.00    -0.048 SA
BRANCH  17  19
HETATM   19  C9  UNL     1       7.968   0.229   0.091  1.00  0.00     0.425 C 
HETATM   20  F1  UNL     1       8.518  -0.448   1.164  1.00  0.00    -0.165 F 
HETATM   21  F2  UNL     1       8.428  -0.194  -1.106  1.00  0.00    -0.165 F 
HETATM   22  F3  UNL     1       8.214   1.566   0.238  1.00  0.00    -0.165 F 
ENDBRANCH  17  19
ENDBRANCH  11  13
ENDBRANCH   6  11
BRANCH  10  23
HETATM   23  N4  UNL     1      -3.299   0.754   1.304  1.00  0.00    -0.339 N 
ATOM     24  H4  UNL     1      -2.855   1.304   2.039  1.00  0.00     0.163 HD
BRANCH  23  25
HETATM   25  C13 UNL     1      -4.595   0.804   1.099  1.00  0.00     0.145 A 
HETATM   26  N5  UNL     1      -5.337   0.150   0.205  1.00  0.00    -0.346 N 
HETATM   27  C14 UNL     1      -6.607   0.377   0.117  1.00  0.00     0.097 A 
ATOM     28  H5  UNL     1      -4.900  -0.534  -0.413  1.00  0.00     0.167 HD
HETATM   29  C15 UNL     1      -7.156   1.301   0.974  1.00  0.00     0.070 A 
HETATM   30  S2  UNL     1      -5.781   1.808   1.878  1.00  0.00    -0.065 SA
ENDBRANCH  23  25
ENDBRANCH  10  23
TORSDOF 5
