REMARK  2 active torsions:
REMARK  status: ('A' for Active; 'I' for Inactive)
REMARK    1  A    between atoms: C14_18  and  C15_19 
REMARK    2  A    between atoms: C17_23  and  O2_24 
ROOT
HETATM    1  C1  UNL     1      -2.642  -1.531   1.757  1.00  0.00     0.145 C 
HETATM    2  N1  UNL     1      -1.762  -1.352   0.712  1.00  0.00    -0.189 NA
HETATM    3  O1  UNL     1      -1.381  -0.226   0.280  1.00  0.00    -0.289 OA
HETATM    4  C2  UNL     1      -0.930  -0.055  -0.957  1.00  0.00     0.117 C 
HETATM    5  C3  UNL     1      -1.210   0.368  -2.300  1.00  0.00     0.052 C 
HETATM    6  C4  UNL     1      -0.197   1.107  -0.544  1.00  0.00     0.045 C 
HETATM    7  C5  UNL     1      -1.293   2.091  -0.145  1.00  0.00     0.067 C 
HETATM    8  C6  UNL     1      -1.063   2.610   1.279  1.00  0.00     0.013 C 
HETATM    9  C7  UNL     1       0.295   3.257   1.280  1.00  0.00     0.001 C 
HETATM   10  C8  UNL     1       1.366   2.268   0.932  1.00  0.00     0.009 C 
HETATM   11  C9  UNL     1       0.796   0.899   0.633  1.00  0.00     0.025 C 
HETATM   12  C10 UNL     1       1.767  -0.136   0.305  1.00  0.00    -0.045 C 
HETATM   13  C11 UNL     1       1.529  -1.380  -0.124  1.00  0.00    -0.067 C 
HETATM   14  C12 UNL     1       2.655  -2.288  -0.413  1.00  0.00     0.078 C 
HETATM   15  C13 UNL     1       3.968  -1.677  -0.598  1.00  0.00     0.060 C 
HETATM   16  N2  UNL     1       4.034  -0.280  -0.464  1.00  0.00    -0.389 N 
ATOM     17  H2  UNL     1       4.658   0.282  -1.043  1.00  0.00     0.159 HD
HETATM   18  C14 UNL     1       3.185   0.320   0.524  1.00  0.00     0.176 C 
HETATM   19  C16 UNL     1       0.226  -2.101  -0.334  1.00  0.00     0.078 C 
HETATM   20  C17 UNL     1      -0.797  -1.462  -1.164  1.00  0.00     0.116 C 
HETATM   21  C18 UNL     1      -2.247  -1.744  -0.628  1.00  0.00     0.146 C 
HETATM   22  C19 UNL     1      -3.314  -0.821  -0.942  1.00  0.00     0.002 C 
HETATM   23  C20 UNL     1      -3.653   0.471  -0.328  1.00  0.00     0.048 C 
HETATM   24  C21 UNL     1      -2.727   1.616  -0.256  1.00  0.00     0.153 C 
HETATM   25  O3  UNL     1      -3.372   2.654  -0.304  1.00  0.00    -0.293 OA
ENDROOT
BRANCH  18  26
HETATM   26  C15 UNL     1       3.725   0.012   1.888  1.00  0.00     0.379 C 
HETATM   27  F1  UNL     1       3.773  -1.292   2.250  1.00  0.00    -0.212 F 
HETATM   28  F2  UNL     1       5.054   0.474   1.998  1.00  0.00    -0.212 F 
ENDBRANCH  18  26
BRANCH  20  29
HETATM   29  O2  UNL     1      -0.851  -2.005  -2.445  1.00  0.00    -0.384 OA
ATOM     30  H2  UNL     1      -0.763  -2.941  -2.583  1.00  0.00     0.210 HD
ENDBRANCH  20  29
TORSDOF 2
