REMARK  3 active torsions:
REMARK  status: ('A' for Active; 'I' for Inactive)
REMARK    1  A    between atoms: C2_2  and  O2_4 
REMARK    2  A    between atoms: O2_4  and  C3_5 
REMARK    3  A    between atoms: C10_12  and  O3_14 
ROOT
HETATM    1  C3  UNL     1      -0.390   1.172  -0.801  1.00  0.00     0.122 C 
HETATM    2  C4  UNL     1      -0.825  -0.033  -0.587  1.00  0.00    -0.004 C 
HETATM    3  C5  UNL     1       0.068  -1.250  -0.554  1.00  0.00     0.056 C 
HETATM    4  C6  UNL     1      -0.127  -2.035   0.735  1.00  0.00     0.013 C 
HETATM    5  C7  UNL     1      -1.527  -2.096   1.204  1.00  0.00     0.008 C 
HETATM    6  C8  UNL     1      -2.325  -0.823   1.089  1.00  0.00     0.020 C 
HETATM    7  C9  UNL     1      -3.749  -1.146   1.493  1.00  0.00     0.013 C 
HETATM    8  C10 UNL     1      -2.249  -0.427  -0.372  1.00  0.00     0.084 C 
HETATM    9  C11 UNL     1      -3.303   0.452  -0.866  1.00  0.00     0.051 C 
HETATM   10  C12 UNL     1       1.498  -0.959  -0.829  1.00  0.00     0.105 A 
HETATM   11  C13 UNL     1       1.785  -1.190  -2.324  1.00  0.00     0.048 C 
HETATM   12  C14 UNL     1       2.478  -1.763  -0.103  1.00  0.00     0.185 A 
HETATM   13  O4  UNL     1       2.563  -3.005   0.080  1.00  0.00    -0.290 OA
HETATM   14  C15 UNL     1       3.446  -0.822   0.436  1.00  0.00     0.009 A 
HETATM   15  C16 UNL     1       4.688  -1.205   1.204  1.00  0.00     0.054 C 
HETATM   16  C17 UNL     1       3.079   0.416   0.156  1.00  0.00     0.017 A 
HETATM   17  C18 UNL     1       3.863   1.648   0.569  1.00  0.00     0.068 C 
HETATM   18  N1  UNL     1       1.871   0.394  -0.569  1.00  0.00    -0.326 N 
HETATM   19  C19 UNL     1       1.026   1.484  -1.050  1.00  0.00     0.240 C 
HETATM   20 CL1  UNL     1       1.313   1.692  -2.825  1.00  0.00    -0.070 Cl
HETATM   21 CL2  UNL     1       1.455   3.043  -0.319  1.00  0.00    -0.070 Cl
ENDROOT
BRANCH   1  22
HETATM   22  O2  UNL     1      -1.242   2.273  -0.817  1.00  0.00    -0.278 OA
BRANCH  22  23
HETATM   23  C2  UNL     1      -1.537   2.997   0.321  1.00  0.00     0.259 C 
HETATM   24  C1  UNL     1      -2.439   4.181   0.308  1.00  0.00     0.126 C 
HETATM   25  O1  UNL     1      -1.022   2.639   1.404  1.00  0.00    -0.265 OA
ENDBRANCH  22  23
ENDBRANCH   1  22
BRANCH   8  26
HETATM   26  O3  UNL     1      -2.402  -1.669  -1.068  1.00  0.00    -0.385 OA
ATOM     27  H3  UNL     1      -3.308  -1.920  -0.931  1.00  0.00     0.211 HD
ENDBRANCH   8  26
TORSDOF 3
