REMARK  5 active torsions:
REMARK  status: ('A' for Active; 'I' for Inactive)
REMARK    1  A    between atoms: N2_5  and  C4_6 
REMARK    2  A    between atoms: C5_7  and  O1_8 
REMARK    3  A    between atoms: N3_10  and  C6_11 
REMARK    4  A    between atoms: C6_11  and  C7_12 
REMARK    5  A    between atoms: N4_13  and  O2_15 
ROOT
HETATM    1  C4  UNL     1      -0.214   0.235  -0.129  1.00  0.00     0.095 A 
HETATM    2  C5  UNL     1      -1.078  -0.831  -0.260  1.00  0.00     0.171 A 
HETATM    3  N3  UNL     1      -2.203  -0.401  -0.856  1.00  0.00    -0.320 N 
HETATM    4  C8  UNL     1      -2.073   0.941  -1.112  1.00  0.00     0.056 A 
HETATM    5  C9  UNL     1      -2.894   1.873  -1.695  1.00  0.00     0.080 A 
HETATM    6  S1  UNL     1      -1.977   3.300  -1.629  1.00  0.00    -0.110 SA
HETATM    7  C10 UNL     1      -0.571   2.685  -0.864  1.00  0.00     0.065 A 
HETATM    8  C11 UNL     1      -0.872   1.358  -0.682  1.00  0.00     0.029 A 
ENDROOT
BRANCH   1   9
HETATM    9  N2  UNL     1       1.111   0.202   0.446  1.00  0.00    -0.373 N 
HETATM   10  C3  UNL     1       1.569  -1.078   0.880  1.00  0.00     0.153 C 
HETATM   11  C2  UNL     1       2.941  -1.219   1.375  1.00  0.00     0.291 C 
HETATM   12  N1  UNL     1       3.804  -0.090   1.168  1.00  0.00     0.087 N 
HETATM   13  C1  UNL     1       4.415  -0.178  -0.142  1.00  0.00     0.310 C 
HETATM   14  C13 UNL     1       3.146   1.162   1.400  1.00  0.00     0.291 C 
HETATM   15  C12 UNL     1       1.910   1.360   0.589  1.00  0.00     0.153 C 
ENDBRANCH   1   9
BRANCH   2  16
HETATM   16  O1  UNL     1      -0.870  -2.157   0.142  1.00  0.00    -0.344 OA
ATOM     17  H1  UNL     1      -1.465  -2.892   0.052  1.00  0.00     0.219 HD
ENDBRANCH   2  16
BRANCH   3  18
HETATM   18  C6  UNL     1      -3.330  -1.261  -1.150  1.00  0.00     0.178 C 
BRANCH  18  19
HETATM   19  C7  UNL     1      -4.282  -1.275  -0.007  1.00  0.00     0.107 C 
HETATM   20  N4  UNL     1      -3.898  -0.761   1.119  1.00  0.00    -0.283 N 
ATOM     21  H4  UNL     1      -2.967  -0.357   1.221  1.00  0.00     0.192 HD
BRANCH  20  22
HETATM   22  O2  UNL     1      -4.783  -0.777   2.172  1.00  0.00    -0.291 OA
ATOM     23  H2  UNL     1      -4.502  -0.400   2.997  1.00  0.00     0.244 HD
ENDBRANCH  20  22
ENDBRANCH  18  19
ENDBRANCH   3  18
TORSDOF 5
