REMARK  4 active torsions:
REMARK  status: ('A' for Active; 'I' for Inactive)
REMARK    1  A    between atoms: C2_2  and  C3_3 
REMARK    2  A    between atoms: C3_3  and  C4_4 
REMARK    3  A    between atoms: C4_4  and  O1_5 
REMARK    4  A    between atoms: C8_12  and  S1_13 
ROOT
HETATM    1  S1  UNL     1       4.859  -0.356  -0.563  1.00  0.00    -0.038 SA
HETATM    2  C9  UNL     1       5.687   1.094  -1.085  1.00  0.00     0.134 C 
HETATM    3  N1  UNL     1       6.216   2.057  -1.431  1.00  0.00    -0.184 NA
ENDROOT
BRANCH   1   4
HETATM    4  C8  UNL     1       3.332   0.094   0.284  1.00  0.00     0.132 C 
HETATM    5  C7  UNL     1       2.354   0.731  -0.686  1.00  0.00     0.028 C 
HETATM    6  C6  UNL     1       1.271  -0.294  -0.943  1.00  0.00     0.055 C 
HETATM    7  C5  UNL     1       0.507  -0.474   0.325  1.00  0.00     0.153 C 
HETATM    8  O3  UNL     1      -0.217   0.699   0.578  1.00  0.00    -0.216 OA
HETATM    9  C11 UNL     1       1.339  -0.926   1.466  1.00  0.00     0.132 C 
HETATM   10  S2  UNL     1      -0.947  -1.582   0.069  1.00  0.00    -0.084 SA
HETATM   11  O2  UNL     1      -1.118   0.845  -0.324  1.00  0.00    -0.214 OA
HETATM   12  C3  UNL     1      -2.083  -0.153  -0.214  1.00  0.00     0.167 C 
HETATM   13  C10 UNL     1       2.736  -1.105   0.944  1.00  0.00     0.145 C 
HETATM   14  O4  UNL     1       3.327  -2.161   1.059  1.00  0.00    -0.297 OA
BRANCH  12  15
HETATM   15  C2  UNL     1      -2.926   0.101   0.985  1.00  0.00     0.050 C 
HETATM   16  C1  UNL     1      -3.835   1.282   0.854  1.00  0.00     0.009 C 
ENDBRANCH  12  15
BRANCH  12  17
HETATM   17  C4  UNL     1      -2.829  -0.418  -1.472  1.00  0.00     0.216 C 
BRANCH  17  18
HETATM   18  O1  UNL     1      -3.758  -1.416  -1.260  1.00  0.00    -0.397 OA
ATOM     19  H1  UNL     1      -4.235  -1.585  -2.064  1.00  0.00     0.209 HD
ENDBRANCH  17  18
ENDBRANCH  12  17
ENDBRANCH   1   4
TORSDOF 4
