REMARK  4 active torsions:
REMARK  status: ('A' for Active; 'I' for Inactive)
REMARK    1  A    between atoms: C2_2  and  S1_3 
REMARK    2  A    between atoms: S1_3  and  C3_4 
REMARK    3  A    between atoms: C8_16  and  S2_17 
REMARK    4  A    between atoms: S2_17  and  C9_18 
ROOT
HETATM    1  C3  UNL     1      -1.432  -0.867  -0.056  1.00  0.00     0.026 A 
HETATM    2  C4  UNL     1      -2.136  -1.950   0.090  1.00  0.00     0.126 A 
HETATM    3  C5  UNL     1      -3.588  -1.923   0.285  1.00  0.00     0.106 C 
HETATM    4  N1  UNL     1      -4.741  -1.954   0.432  1.00  0.00    -0.191 NA
HETATM    5  C6  UNL     1      -1.595  -3.337   0.052  1.00  0.00     0.268 A 
HETATM    6  O1  UNL     1      -2.320  -4.353   0.203  1.00  0.00    -0.266 OA
HETATM    7  N2  UNL     1      -0.207  -3.476  -0.163  1.00  0.00    -0.311 N 
ATOM      8  H2  UNL     1       0.227  -4.399  -0.196  1.00  0.00     0.170 HD
HETATM    9  C7  UNL     1       0.569  -2.302  -0.332  1.00  0.00     0.097 A 
HETATM   10  N3  UNL     1       1.844  -2.483  -0.598  1.00  0.00    -0.388 N 
ATOM     11  H31 UNL     1       2.402  -1.638  -0.720  1.00  0.00     0.157 HD
ATOM     12  H32 UNL     1       2.184  -3.443  -0.661  1.00  0.00     0.157 HD
HETATM   13  C8  UNL     1       0.084  -0.933  -0.242  1.00  0.00     0.162 A 
ENDROOT
BRANCH   1  14
HETATM   14  S1  UNL     1      -2.109   0.768  -0.043  1.00  0.00    -0.131 SA
BRANCH  14  15
HETATM   15  C2  UNL     1      -3.778   1.075   0.250  1.00  0.00     0.075 C 
HETATM   16  C1  UNL     1      -3.998   2.630   0.236  1.00  0.00     0.016 C 
ENDBRANCH  14  15
ENDBRANCH   1  14
BRANCH  13  17
HETATM   17  S2  UNL     1       0.910  -0.133   1.138  1.00  0.00    -0.099 SA
BRANCH  17  18
HETATM   18  C9  UNL     1       2.332   0.827   0.598  1.00  0.00     0.043 C 
HETATM   19  N4  UNL     1       3.068   1.428   1.454  1.00  0.00    -0.388 N 
HETATM   20  C10 UNL     1       4.140   2.128   0.863  1.00  0.00     0.120 C 
ATOM     21  H4  UNL     1       2.897   1.404   2.459  1.00  0.00     0.159 HD
HETATM   22  C11 UNL     1       4.307   1.501  -0.509  1.00  0.00     0.026 C 
HETATM   23  C12 UNL     1       2.853   1.069  -0.747  1.00  0.00     0.066 C 
ENDBRANCH  17  18
ENDBRANCH  13  17
TORSDOF 4
