REMARK  5 active torsions:
REMARK  status: ('A' for Active; 'I' for Inactive)
REMARK    1  A    between atoms: O1_1  and  C1_3 
REMARK    2  A    between atoms: C3_5  and  C4_6 
REMARK    3  A    between atoms: C4_6  and  O2_7 
REMARK    4  A    between atoms: C4_6  and  N1_9 
REMARK    5  A    between atoms: N2_18  and  C11_19 
ROOT
HETATM    1  C1  UNL     1      -1.636  -0.620  -1.421  1.00  0.00     0.142 A 
HETATM    2  C2  UNL     1      -0.341  -0.339  -1.859  1.00  0.00     0.069 A 
HETATM    3  C3  UNL     1       0.240   0.555  -0.982  1.00  0.00     0.020 A 
HETATM    4  C10 UNL     1      -0.732   0.794  -0.024  1.00  0.00     0.105 A 
HETATM    5  N2  UNL     1      -1.848   0.072  -0.317  1.00  0.00    -0.333 N 
ENDROOT
BRANCH   3   6
HETATM    6  C4  UNL     1       1.593   1.162  -1.002  1.00  0.00     0.396 C 
BRANCH   6   7
HETATM    7  O2  UNL     1       1.541   2.544  -0.737  1.00  0.00    -0.364 OA
ATOM      8  H2  UNL     1       2.408   2.933  -0.750  1.00  0.00     0.212 HD
ENDBRANCH   6   7
BRANCH   6   9
HETATM    9  N1  UNL     1       2.474   0.585  -0.027  1.00  0.00     0.152 N 
HETATM   10  C5  UNL     1       2.694  -0.820  -0.186  1.00  0.00     0.297 C 
HETATM   11  C6  UNL     1       4.147  -1.112  -0.581  1.00  0.00     0.104 C 
HETATM   12  C7  UNL     1       5.001  -0.706   0.586  1.00  0.00     0.023 C 
HETATM   13  S1  UNL     1       4.523   0.061  -1.940  1.00  0.00    -0.003 SA
HETATM   14  C8  UNL     1       4.727   0.728   0.926  1.00  0.00     0.067 C 
HETATM   15  C9  UNL     1       3.690   1.364   0.028  1.00  0.00     0.376 C 
HETATM   16  O3  UNL     1       4.205   1.626  -1.254  1.00  0.00    -0.283 OA
ENDBRANCH   6   9
ENDBRANCH   3   6
BRANCH   1  17
HETATM   17  O1  UNL     1      -2.475  -1.491  -2.099  1.00  0.00    -0.346 OA
ATOM     18  H1  UNL     1      -3.356  -1.682  -1.801  1.00  0.00     0.219 HD
ENDBRANCH   1  17
BRANCH   5  19
HETATM   19  C11 UNL     1      -3.039   0.089   0.471  1.00  0.00     0.091 C 
HETATM   20  C12 UNL     1      -3.430  -1.255   1.013  1.00  0.00     0.026 C 
HETATM   21  C13 UNL     1      -4.850  -0.969   1.519  1.00  0.00     0.002 C 
HETATM   22  C14 UNL     1      -5.439  -0.117   0.409  1.00  0.00     0.002 C 
HETATM   23  C15 UNL     1      -4.262   0.530  -0.290  1.00  0.00     0.026 C 
ENDBRANCH   5  19
TORSDOF 5
