REMARK  2 active torsions:
REMARK  status: ('A' for Active; 'I' for Inactive)
REMARK    1  A    between atoms: N1_1  and  N2_4 
REMARK       I    between atoms: N2_4  and  C1_6 
REMARK       I    between atoms: C1_6  and  N3_8 
REMARK    2  A    between atoms: N3_8  and  C2_9 
ROOT
HETATM    1  C2  UNL     1      -0.493   0.157   0.295  1.00  0.00     0.279 A 
HETATM    2  N4  UNL     1      -1.026   0.046  -0.923  1.00  0.00    -0.320 N 
ATOM      3  H4  UNL     1      -0.362  -0.229  -1.647  1.00  0.00     0.169 HD
HETATM    4  C3  UNL     1      -2.316   0.236  -1.381  1.00  0.00     0.168 A 
HETATM    5  C4  UNL     1      -3.244   0.699  -0.328  1.00  0.00     0.275 A 
HETATM    6  O2  UNL     1      -4.453   0.983  -0.589  1.00  0.00    -0.265 OA
HETATM    7  N5  UNL     1      -2.770   0.827   0.991  1.00  0.00    -0.262 N 
ATOM      8  H5  UNL     1      -3.402   1.112   1.739  1.00  0.00     0.190 HD
HETATM    9  N6  UNL     1      -1.398   0.555   1.273  1.00  0.00    -0.256 N 
ATOM     10  H6  UNL     1      -1.067   0.657   2.232  1.00  0.00     0.191 HD
ENDROOT
BRANCH   1  11
HETATM   11  N3  UNL     1       0.858  -0.115   0.389  1.00  0.00    -0.313 NA
HETATM   12  C1  UNL     1       2.159  -0.377   0.480  1.00  0.00     0.415 C 
HETATM   13  N2  UNL     1       2.885  -0.781  -0.729  1.00  0.00    -0.246 N 
HETATM   14  O1  UNL     1       2.902  -0.328   1.487  1.00  0.00    -0.228 OA
ATOM     15  H2  UNL     1       2.390  -0.858  -1.618  1.00  0.00     0.192 HD
BRANCH  13  16
HETATM   16  N1  UNL     1       4.229  -1.056  -0.667  1.00  0.00    -0.340 N 
ATOM     17  H12 UNL     1       4.709  -0.974   0.229  1.00  0.00     0.177 HD
ATOM     18  H11 UNL     1       4.734  -1.337  -1.508  1.00  0.00     0.177 HD
ENDBRANCH  13  16
ENDBRANCH   1  11
TORSDOF 2
