REMARK  3 active torsions:
REMARK  status: ('A' for Active; 'I' for Inactive)
REMARK    1  A    between atoms: N1_1  and  C1_4 
REMARK    2  A    between atoms: N3_8  and  N4_9 
REMARK       I    between atoms: N4_9  and  C3_11 
REMARK    3  A    between atoms: N6_13  and  N7_15 
ROOT
HETATM    1  C1  UNL     1      -2.900  -0.017  -0.135  1.00  0.00     0.680 A 
HETATM    2  N2  UNL     1      -1.993  -0.669  -0.909  1.00  0.00    -0.186 N 
ATOM      3  H2  UNL     1      -2.280  -1.187  -1.740  1.00  0.00     0.185 HD
HETATM    4  C2  UNL     1      -0.701  -0.604  -0.536  1.00  0.00     0.229 A 
HETATM    5  N3  UNL     1      -0.276   0.064   0.545  1.00  0.00    -0.198 N 
HETATM    6  C4  UNL     1      -1.180   0.702   1.296  1.00  0.00     0.360 A 
HETATM    7  O1  UNL     1      -0.844   1.354   2.335  1.00  0.00    -0.244 OA
HETATM    8  N8  UNL     1      -2.473   0.652   0.947  1.00  0.00    -0.140 N 
ATOM      9  H8  UNL     1      -3.157   1.140   1.525  1.00  0.00     0.189 HD
ENDROOT
BRANCH   5  10
HETATM   10  N4  UNL     1       1.083   0.098   0.885  1.00  0.00    -0.261 N 
HETATM   11  C3  UNL     1       2.084  -0.548   0.141  1.00  0.00     0.222 C 
HETATM   12  N5  UNL     1       2.333  -1.938   0.423  1.00  0.00    -0.061 NA
HETATM   13  N6  UNL     1       2.802  -0.017  -0.771  1.00  0.00    -0.279 N 
ATOM     14  H6  UNL     1       3.494  -0.610  -1.230  1.00  0.00     0.189 HD
ATOM     15  H4  UNL     1       1.360   0.619   1.717  1.00  0.00     0.190 HD
BRANCH  13  16
HETATM   16  N7  UNL     1       2.715   1.303  -1.187  1.00  0.00    -0.343 N 
ATOM     17  H72 UNL     1       2.018   1.881  -0.717  1.00  0.00     0.176 HD
ATOM     18  H71 UNL     1       3.289   1.727  -1.916  1.00  0.00     0.176 HD
ENDBRANCH  13  16
ENDBRANCH   5  10
BRANCH   1  19
HETATM   19  N1  UNL     1      -4.129  -0.089  -0.504  1.00  0.00    -0.234 N 
ATOM     20  H12 UNL     1      -4.454  -0.598  -1.326  1.00  0.00     0.174 HD
ATOM     21  H11 UNL     1      -4.810   0.400   0.077  1.00  0.00     0.174 HD
ENDBRANCH   1  19
TORSDOF 3
