REMARK  4 active torsions:
REMARK  status: ('A' for Active; 'I' for Inactive)
REMARK    1  A    between atoms: N1_1  and  C1_4 
REMARK    2  A    between atoms: N4_11  and  C3_12 
REMARK    3  A    between atoms: C3_12  and  N5_14 
REMARK    4  A    between atoms: N5_14  and  N6_16 
ROOT
HETATM    1  C1  UNL     1      -1.228   0.915   0.002  1.00  0.00     0.703 A 
HETATM    2  N2  UNL     1      -2.468   0.389  -0.107  1.00  0.00    -0.138 N 
ATOM      3  H2  UNL     1      -3.330   0.899  -0.303  1.00  0.00     0.189 HD
HETATM    4  C2  UNL     1      -2.347  -0.941   0.093  1.00  0.00     0.354 A 
HETATM    5  O1  UNL     1      -3.293  -1.799   0.072  1.00  0.00    -0.245 OA
HETATM    6  N3  UNL     1      -1.042  -1.180   0.316  1.00  0.00    -0.227 N 
ATOM      7  H3  UNL     1      -0.645  -2.102   0.500  1.00  0.00     0.193 HD
HETATM    8  N4  UNL     1      -0.343  -0.059   0.265  1.00  0.00    -0.054 N 
ENDROOT
BRANCH   8   9
HETATM    9  C3  UNL     1       1.081   0.098   0.451  1.00  0.00     0.229 C 
HETATM   10  S1  UNL     1       1.669   0.780   1.814  1.00  0.00    -0.037 SA
BRANCH   9  11
HETATM   11  N5  UNL     1       1.993  -0.333  -0.536  1.00  0.00    -0.281 N 
ATOM     12  H5  UNL     1       1.643  -0.762  -1.393  1.00  0.00     0.189 HD
BRANCH  11  13
HETATM   13  N6  UNL     1       3.340  -0.182  -0.357  1.00  0.00    -0.343 N 
ATOM     14  H62 UNL     1       3.673   0.249   0.505  1.00  0.00     0.176 HD
ATOM     15  H61 UNL     1       3.999  -0.494  -1.070  1.00  0.00     0.176 HD
ENDBRANCH  11  13
ENDBRANCH   9  11
ENDBRANCH   8   9
BRANCH   1  16
HETATM   16  N1  UNL     1      -0.934   2.179  -0.128  1.00  0.00    -0.233 N 
ATOM     17  H12 UNL     1      -1.607   2.919  -0.328  1.00  0.00     0.174 HD
ATOM     18  H11 UNL     1       0.002   2.576  -0.046  1.00  0.00     0.174 HD
ENDBRANCH   1  16
TORSDOF 4
