REMARK  12 active torsions:
REMARK  status: ('A' for Active; 'I' for Inactive)
REMARK    1  A    between atoms: N1_3  and  C3_5 
REMARK    2  A    between atoms: C4_8  and  N3_9 
REMARK    3  A    between atoms: C5_14  and  N5_15 
REMARK    4  A    between atoms: N5_15  and  C6_17 
REMARK    5  A    between atoms: C6_17  and  C7_18 
REMARK    6  A    between atoms: C7_18  and  C8_19 
REMARK    7  A    between atoms: C8_19  and  C9_20 
REMARK    8  A    between atoms: C9_20  and  C10_21 
REMARK    9  A    between atoms: C10_21  and  C11_22 
REMARK   10  A    between atoms: C11_22  and  C12_23 
REMARK   11  A    between atoms: C12_23  and  C13_24 
REMARK   12  A    between atoms: C13_24  and  C14_25 
ROOT
HETATM    1  C1  UNL     1      -5.884   2.111  -2.453  1.00  0.00     0.037 C 
HETATM    2  C2  UNL     1      -6.043   1.050  -1.915  1.00  0.00     0.015 C 
HETATM    3  N1  UNL     1      -6.250  -0.181  -1.287  1.00  0.00    -0.148 N 
ATOM      4  H1  UNL     1      -7.097  -0.712  -1.489  1.00  0.00     0.195 HD
ENDROOT
BRANCH   3   5
HETATM    5  C3  UNL     1      -5.380  -0.659  -0.451  1.00  0.00     0.718 A 
HETATM    6  N2  UNL     1      -5.540  -1.829   0.169  1.00  0.00    -0.021 N 
HETATM    7  C4  UNL     1      -4.600  -2.255   1.016  1.00  0.00     0.705 A 
ATOM      8  H2  UNL     1      -6.373  -2.393  -0.002  1.00  0.00     0.203 HD
HETATM    9  N4  UNL     1      -3.489  -1.546   1.272  1.00  0.00    -0.022 N 
HETATM   10  C5  UNL     1      -3.300  -0.345   0.651  1.00  0.00     0.707 A 
ATOM     11  H4  UNL     1      -2.791  -1.902   1.926  1.00  0.00     0.203 HD
HETATM   12  N6  UNL     1      -4.278   0.048  -0.200  1.00  0.00    -0.021 N 
ATOM     13  H6  UNL     1      -4.164   0.941  -0.679  1.00  0.00     0.203 HD
BRANCH   7  14
HETATM   14  N3  UNL     1      -4.751  -3.403   1.628  1.00  0.00    -0.234 N 
ATOM     15  H32 UNL     1      -5.595  -3.942   1.434  1.00  0.00     0.174 HD
ATOM     16  H31 UNL     1      -4.033  -3.728   2.275  1.00  0.00     0.174 HD
ENDBRANCH   7  14
BRANCH  10  17
HETATM   17  N5  UNL     1      -2.264   0.358   0.863  1.00  0.00    -0.225 N 
ATOM     18  H5  UNL     1      -1.592  -0.035   1.522  1.00  0.00     0.177 HD
BRANCH  17  19
HETATM   19  C6  UNL     1      -1.913   1.621   0.306  1.00  0.00     0.138 C 
BRANCH  19  20
HETATM   20  C7  UNL     1      -1.307   1.580  -1.045  1.00  0.00     0.020 C 
BRANCH  20  21
HETATM   21  C8  UNL     1      -0.126   0.773  -1.255  1.00  0.00     0.002 C 
BRANCH  21  22
HETATM   22  C9  UNL     1       1.132   1.050  -0.560  1.00  0.00     0.000 C 
BRANCH  22  23
HETATM   23  C10 UNL     1       1.231   0.887   0.890  1.00  0.00     0.000 C 
BRANCH  23  24
HETATM   24  C11 UNL     1       2.565   1.127   1.532  1.00  0.00     0.000 C 
BRANCH  24  25
HETATM   25  C12 UNL     1       3.668   0.210   1.301  1.00  0.00     0.000 C 
BRANCH  25  26
HETATM   26  C13 UNL     1       4.214  -0.093  -0.035  1.00  0.00    -0.000 C 
BRANCH  26  27
HETATM   27  C14 UNL     1       5.451  -1.007   0.208  1.00  0.00    -0.005 C 
HETATM   28  C15 UNL     1       6.077  -1.368  -1.100  1.00  0.00     0.005 C 
ENDBRANCH  26  27
ENDBRANCH  25  26
ENDBRANCH  24  25
ENDBRANCH  23  24
ENDBRANCH  22  23
ENDBRANCH  21  22
ENDBRANCH  20  21
ENDBRANCH  19  20
ENDBRANCH  17  19
ENDBRANCH  10  17
ENDBRANCH   3   5
TORSDOF 12
