REMARK  10 active torsions:
REMARK  status: ('A' for Active; 'I' for Inactive)
REMARK    1  A    between atoms: C5_7  and  C6_8 
REMARK    2  A    between atoms: C6_8  and  C7_9 
REMARK    3  A    between atoms: C7_9  and  C8_10 
REMARK    4  A    between atoms: C8_10  and  N2_11 
REMARK    5  A    between atoms: N2_11  and  C9_13 
REMARK    6  A    between atoms: C9_13  and  C10_14 
REMARK    7  A    between atoms: C10_14  and  C11_15 
REMARK    8  A    between atoms: C11_15  and  N3_16 
REMARK    9  A    between atoms: N3_16  and  C12_18 
REMARK   10  A    between atoms: C12_18  and  C13_19 
ROOT
HETATM    1  C9  UNL     1      -0.032   0.922  -0.112  1.00  0.00     0.061 C 
ENDROOT
BRANCH   1   2
HETATM    2  N2  UNL     1       0.697   0.118  -1.003  1.00  0.00    -0.382 N 
ATOM      3  H2  UNL     1       0.362   0.001  -1.959  1.00  0.00     0.163 HD
BRANCH   2   4
HETATM    4  C8  UNL     1       1.869  -0.524  -0.607  1.00  0.00     0.060 C 
BRANCH   4   5
HETATM    5  C7  UNL     1       3.073   0.294  -0.296  1.00  0.00     0.049 C 
BRANCH   5   6
HETATM    6  C6  UNL     1       4.171  -0.713   0.078  1.00  0.00     0.045 C 
BRANCH   6   7
HETATM    7  C5  UNL     1       5.442  -0.069   0.417  1.00  0.00    -0.034 A 
HETATM    8  C2  UNL     1       6.613  -0.766   0.591  1.00  0.00     0.011 A 
HETATM    9  C1  UNL     1       6.801  -2.240   0.461  1.00  0.00     0.068 C 
HETATM   10  N1  UNL     1       7.594   0.129   0.903  1.00  0.00    -0.369 N 
HETATM   11  C3  UNL     1       7.039   1.361   0.923  1.00  0.00     0.088 A 
ATOM     12  H1  UNL     1       8.572  -0.092   1.088  1.00  0.00     0.165 HD
HETATM   13  C4  UNL     1       5.711   1.262   0.625  1.00  0.00     0.026 A 
ENDBRANCH   6   7
ENDBRANCH   5   6
ENDBRANCH   4   5
ENDBRANCH   2   4
ENDBRANCH   1   2
BRANCH   1  14
HETATM   14  C10 UNL     1      -0.649   0.088   0.985  1.00  0.00     0.063 C 
BRANCH  14  15
HETATM   15  C11 UNL     1      -1.558  -0.924   0.334  1.00  0.00     0.119 C 
BRANCH  15  16
HETATM   16  N3  UNL     1      -2.597  -0.322  -0.419  1.00  0.00    -0.418 N 
ATOM     17  H3  UNL     1      -2.633  -0.376  -1.437  1.00  0.00     0.153 HD
BRANCH  16  18
HETATM   18  C12 UNL     1      -3.602   0.374   0.353  1.00  0.00     0.147 C 
BRANCH  18  19
HETATM   19  C13 UNL     1      -4.680   0.909  -0.572  1.00  0.00     0.164 C 
HETATM   20  C14 UNL     1      -5.635   1.756   0.227  1.00  0.00     0.265 C 
HETATM   21  N4  UNL     1      -6.542   0.971   1.027  1.00  0.00    -0.071 N 
HETATM   22  C15 UNL     1      -7.233   0.053   0.147  1.00  0.00     0.258 C 
ATOM     23  H42 UNL     1      -6.077   0.500   1.803  1.00  0.00     0.277 HD
ATOM     24  H41 UNL     1      -7.180   1.545   1.579  1.00  0.00     0.277 HD
HETATM   25  C16 UNL     1      -6.177  -0.850  -0.464  1.00  0.00     0.196 C 
HETATM   26  O1  UNL     1      -5.300  -0.125  -1.270  1.00  0.00    -0.381 OA
ENDBRANCH  18  19
ENDBRANCH  16  18
ENDBRANCH  15  16
ENDBRANCH  14  15
ENDBRANCH   1  14
TORSDOF 10
