REMARK  13 active torsions:
REMARK  status: ('A' for Active; 'I' for Inactive)
REMARK    1  A    between atoms: N1_1  and  C1_5 
REMARK    2  A    between atoms: C1_5  and  C2_6 
REMARK    3  A    between atoms: C2_6  and  C3_7 
REMARK    4  A    between atoms: C3_7  and  C4_8 
REMARK    5  A    between atoms: C4_8  and  C5_9 
REMARK    6  A    between atoms: C5_9  and  N2_10 
REMARK    7  A    between atoms: N2_10  and  C6_13 
REMARK    8  A    between atoms: C6_13  and  C7_14 
REMARK    9  A    between atoms: C7_14  and  C8_15 
REMARK   10  A    between atoms: C8_15  and  C9_16 
REMARK   11  A    between atoms: C9_16  and  N3_17 
REMARK   12  A    between atoms: N3_17  and  C10_20 
REMARK   13  A    between atoms: C16_26  and  N4_27 
ROOT
HETATM    1  C8  UNL     1      -1.046  -1.473   0.525  1.00  0.00     0.029 C 
ENDROOT
BRANCH   1   2
HETATM    2  C7  UNL     1       0.347  -0.908   0.630  1.00  0.00     0.029 C 
BRANCH   2   3
HETATM    3  C6  UNL     1       0.851  -0.308  -0.642  1.00  0.00     0.232 C 
BRANCH   3   4
HETATM    4  N2  UNL     1       2.217   0.160  -0.399  1.00  0.00    -0.075 N 
ATOM      5  H22 UNL     1       2.257   0.797   0.396  1.00  0.00     0.277 HD
ATOM      6  H21 UNL     1       2.527   0.800  -1.130  1.00  0.00     0.277 HD
BRANCH   4   7
HETATM    7  C5  UNL     1       3.130  -0.937  -0.239  1.00  0.00     0.232 C 
BRANCH   7   8
HETATM    8  C4  UNL     1       4.540  -0.432   0.091  1.00  0.00     0.027 C 
BRANCH   8   9
HETATM    9  C3  UNL     1       5.097   0.461  -0.971  1.00  0.00     0.003 C 
BRANCH   9  10
HETATM   10  C2  UNL     1       6.459   0.934  -0.593  1.00  0.00     0.027 C 
BRANCH  10  11
HETATM   11  C1  UNL     1       7.394  -0.229  -0.434  1.00  0.00     0.229 C 
BRANCH  11  12
HETATM   12  N1  UNL     1       8.734   0.219  -0.073  1.00  0.00    -0.079 N 
ATOM     13  H13 UNL     1       9.094   0.902  -0.740  1.00  0.00     0.274 HD
ATOM     14  H12 UNL     1       8.721   0.807   0.760  1.00  0.00     0.274 HD
ATOM     15  H11 UNL     1       9.370  -0.571   0.035  1.00  0.00     0.274 HD
ENDBRANCH  11  12
ENDBRANCH  10  11
ENDBRANCH   9  10
ENDBRANCH   8   9
ENDBRANCH   7   8
ENDBRANCH   4   7
ENDBRANCH   3   4
ENDBRANCH   2   3
ENDBRANCH   1   2
BRANCH   1  16
HETATM   16  C9  UNL     1      -2.004  -0.373   0.137  1.00  0.00     0.233 C 
BRANCH  16  17
HETATM   17  N3  UNL     1      -3.359  -0.892   0.015  1.00  0.00    -0.068 N 
ATOM     18  H32 UNL     1      -3.413  -1.680  -0.630  1.00  0.00     0.277 HD
ATOM     19  H31 UNL     1      -3.664  -1.374   0.861  1.00  0.00     0.277 HD
BRANCH  17  20
HETATM   20  C10 UNL     1      -4.234   0.152  -0.347  1.00  0.00     0.224 C 
HETATM   21  C11 UNL     1      -4.411   1.270   0.620  1.00  0.00     0.041 C 
HETATM   22  C12 UNL     1      -4.914   2.429  -0.169  1.00  0.00    -0.023 C 
HETATM   23  C15 UNL     1      -5.731   0.829   1.287  1.00  0.00     0.021 C 
HETATM   24  C13 UNL     1      -6.138   2.094  -0.566  1.00  0.00    -0.023 C 
HETATM   25  C14 UNL     1      -6.472   0.730  -0.060  1.00  0.00     0.041 C 
HETATM   26  C16 UNL     1      -5.643  -0.351  -0.699  1.00  0.00     0.222 C 
BRANCH  26  27
HETATM   27  N4  UNL     1      -5.945  -1.589  -0.008  1.00  0.00    -0.072 N 
ATOM     28  H43 UNL     1      -5.237  -2.301  -0.187  1.00  0.00     0.274 HD
ATOM     29  H42 UNL     1      -5.821  -1.496   1.000  1.00  0.00     0.274 HD
ATOM     30  H41 UNL     1      -6.880  -1.923  -0.242  1.00  0.00     0.274 HD
ENDBRANCH  26  27
ENDBRANCH  17  20
ENDBRANCH  16  17
ENDBRANCH   1  16
TORSDOF 13
