REMARK  7 active torsions:
REMARK  status: ('A' for Active; 'I' for Inactive)
REMARK    1  A    between atoms: C3_3  and  C4_4 
REMARK    2  A    between atoms: C6_6  and  N1_7 
REMARK    3  A    between atoms: C6_6  and  C25_34 
REMARK       I    between atoms: N1_7  and  C7_9 
REMARK    4  A    between atoms: C7_9  and  C8_11 
REMARK    5  A    between atoms: C13_16  and  C14_17 
REMARK       I    between atoms: C14_17  and  N2_19 
REMARK    6  A    between atoms: C19_24  and  C20_25 
REMARK       I    between atoms: C20_25  and  N3_27 
REMARK    7  A    between atoms: C24_31  and  O4_32 
ROOT
HETATM    1  C8  UNL     1       1.248  -0.919   0.381  1.00  0.00     0.091 C 
HETATM    2  C9  UNL     1       1.612  -0.953   1.861  1.00  0.00     0.015 C 
HETATM    3  C10 UNL     1       0.424  -0.611   2.726  1.00  0.00     0.001 C 
HETATM    4  C11 UNL     1      -0.213   0.705   2.431  1.00  0.00     0.001 C 
HETATM    5  C12 UNL     1      -0.003   1.051   0.940  1.00  0.00     0.015 C 
HETATM    6  C13 UNL     1      -0.066  -0.248   0.203  1.00  0.00     0.091 C 
ENDROOT
BRANCH   6   7
HETATM    7  C14 UNL     1      -0.584  -0.228  -1.154  1.00  0.00     0.225 C 
HETATM    8  O2  UNL     1       0.214  -0.564  -2.097  1.00  0.00    -0.273 OA
HETATM    9  N2  UNL     1      -1.891   0.130  -1.532  1.00  0.00    -0.338 N 
HETATM   10  C15 UNL     1      -2.206   0.153  -2.978  1.00  0.00     0.127 C 
HETATM   11  C19 UNL     1      -2.986   0.458  -0.670  1.00  0.00     0.179 C 
HETATM   12  C16 UNL     1      -2.380   1.660  -3.248  1.00  0.00     0.020 C 
HETATM   13  C17 UNL     1      -3.548   2.167  -2.476  1.00  0.00     0.004 C 
HETATM   14  C18 UNL     1      -3.720   1.677  -1.093  1.00  0.00     0.035 C 
BRANCH  11  15
HETATM   15  C20 UNL     1      -3.908  -0.717  -0.476  1.00  0.00     0.244 C 
HETATM   16  O3  UNL     1      -3.689  -1.726  -1.194  1.00  0.00    -0.271 OA
HETATM   17  N3  UNL     1      -4.963  -0.736   0.441  1.00  0.00    -0.324 N 
HETATM   18  C21 UNL     1      -5.440   0.233   1.403  1.00  0.00     0.129 C 
HETATM   19  C24 UNL     1      -5.893  -1.866   0.612  1.00  0.00     0.222 C 
HETATM   20  C22 UNL     1      -6.922   0.281   1.030  1.00  0.00     0.024 C 
HETATM   21  C23 UNL     1      -7.225  -1.125   0.537  1.00  0.00     0.055 C 
BRANCH  19  22
HETATM   22  O4  UNL     1      -5.783  -2.361   1.897  1.00  0.00    -0.377 OA
ATOM     23  H4  UNL     1      -6.383  -3.090   2.007  1.00  0.00     0.212 HD
ENDBRANCH  19  22
ENDBRANCH  11  15
ENDBRANCH   6   7
BRANCH   1  24
HETATM   24  C7  UNL     1       2.351  -0.214  -0.296  1.00  0.00     0.223 C 
HETATM   25  N1  UNL     1       3.677  -0.790  -0.208  1.00  0.00    -0.341 N 
ATOM     26  H1  UNL     1       3.793  -1.663   0.307  1.00  0.00     0.163 HD
HETATM   27  O1  UNL     1       2.284   0.840  -0.949  1.00  0.00    -0.273 OA
BRANCH  25  28
HETATM   28  C6  UNL     1       4.851  -0.186  -0.817  1.00  0.00     0.129 A 
HETATM   29  C4  UNL     1       6.061  -1.104  -0.682  1.00  0.00     0.050 A 
HETATM   30  C5  UNL     1       5.461  -0.771  -1.997  1.00  0.00     0.054 A 
BRANCH  29  31
HETATM   31  C3  UNL     1       7.311  -0.475  -0.227  1.00  0.00    -0.023 C 
HETATM   32  C2  UNL     1       7.930  -0.824   0.884  1.00  0.00    -0.034 C 
HETATM   33  C1  UNL     1       9.179  -0.152   1.279  1.00  0.00     0.036 C 
ENDBRANCH  29  31
BRANCH  28  34
HETATM   34  C25 UNL     1       5.098   1.255  -0.518  1.00  0.00     0.203 C 
HETATM   35  O5  UNL     1       6.016   1.841  -1.129  1.00  0.00    -0.646 OA
HETATM   36  O6  UNL     1       4.384   2.000   0.394  1.00  0.00    -0.646 OA
ENDBRANCH  28  34
ENDBRANCH  25  28
ENDBRANCH   1  24
TORSDOF 7
