REMARK  6 active torsions:
REMARK  status: ('A' for Active; 'I' for Inactive)
REMARK    1  A    between atoms: C5_5  and  C6_6 
REMARK    2  A    between atoms: C6_6  and  C7_7 
REMARK    3  A    between atoms: C7_7  and  C8_9 
REMARK       I    between atoms: C8_9  and  N1_11 
REMARK    4  A    between atoms: N1_11  and  C9_13 
REMARK    5  A    between atoms: C15_19  and  C16_20 
REMARK       I    between atoms: C16_20  and  N2_22 
REMARK    6  A    between atoms: C21_27  and  C22_28 
ROOT
HETATM    1  C9  UNL     1       0.152  -0.602   0.867  1.00  0.00     0.179 C 
HETATM    2  C10 UNL     1      -0.440  -0.614   2.289  1.00  0.00     0.060 C 
HETATM    3  C11 UNL     1      -1.912  -0.900   1.951  1.00  0.00     0.090 C 
HETATM    4  C12 UNL     1      -2.790  -0.724   3.142  1.00  0.00     0.026 C 
HETATM    5  C13 UNL     1      -4.186  -0.388   2.670  1.00  0.00     0.004 C 
HETATM    6  C14 UNL     1      -4.063   0.941   1.915  1.00  0.00     0.035 C 
HETATM    7  C15 UNL     1      -3.401   0.677   0.576  1.00  0.00     0.180 C 
HETATM    8  N3  UNL     1      -2.155  -0.012   0.860  1.00  0.00    -0.332 N 
HETATM    9  C23 UNL     1      -0.924   0.063   0.107  1.00  0.00     0.243 C 
HETATM   10  O6  UNL     1      -0.769   0.608  -1.028  1.00  0.00    -0.271 OA
ENDROOT
BRANCH   1  11
HETATM   11  N1  UNL     1       1.401   0.087   0.836  1.00  0.00    -0.341 N 
HETATM   12  C8  UNL     1       2.596  -0.611   0.578  1.00  0.00     0.288 C 
HETATM   13  O2  UNL     1       2.543  -1.862   0.371  1.00  0.00    -0.264 OA
ATOM     14  H1  UNL     1       1.428   1.093   1.002  1.00  0.00     0.163 HD
BRANCH  12  15
HETATM   15  C7  UNL     1       3.910   0.032   0.535  1.00  0.00     0.216 C 
HETATM   16  O1  UNL     1       3.942   1.266   0.734  1.00  0.00    -0.287 OA
BRANCH  15  17
HETATM   17  C6  UNL     1       5.130  -0.724   0.274  1.00  0.00     0.093 C 
BRANCH  17  18
HETATM   18  C5  UNL     1       5.765  -0.520  -1.060  1.00  0.00    -0.007 C 
HETATM   19  C4  UNL     1       7.016  -1.393  -1.161  1.00  0.00     0.005 C 
HETATM   20  C3  UNL     1       8.222  -0.588  -1.530  1.00  0.00     0.004 C 
HETATM   21  C2  UNL     1       8.433   0.478  -0.478  1.00  0.00    -0.019 C 
HETATM   22  C1  UNL     1       9.712   1.228  -0.741  1.00  0.00     0.010 C 
HETATM   23  C25 UNL     1       7.225   1.372  -0.456  1.00  0.00     0.004 C 
HETATM   24  C24 UNL     1       6.135   0.890  -1.389  1.00  0.00     0.005 C 
ENDBRANCH  17  18
ENDBRANCH  15  17
ENDBRANCH  12  15
ENDBRANCH   1  11
BRANCH   7  25
HETATM   25  C16 UNL     1      -4.287  -0.141  -0.318  1.00  0.00     0.243 C 
HETATM   26  O3  UNL     1      -3.947  -1.344  -0.423  1.00  0.00    -0.271 OA
HETATM   27  N2  UNL     1      -5.391   0.365  -0.981  1.00  0.00    -0.336 N 
HETATM   28  C17 UNL     1      -5.756   1.806  -0.806  1.00  0.00     0.127 C 
HETATM   29  C21 UNL     1      -6.318  -0.320  -1.819  1.00  0.00     0.188 C 
HETATM   30  C18 UNL     1      -7.211   1.826  -0.371  1.00  0.00     0.020 C 
HETATM   31  C19 UNL     1      -7.712   0.478   0.090  1.00  0.00     0.004 C 
HETATM   32  C20 UNL     1      -7.513  -0.633  -0.921  1.00  0.00     0.036 C 
BRANCH  29  33
HETATM   33  C22 UNL     1      -5.908  -1.445  -2.624  1.00  0.00     0.196 C 
HETATM   34  O4  UNL     1      -4.713  -1.657  -2.934  1.00  0.00    -0.646 OA
HETATM   35  O5  UNL     1      -6.903  -2.354  -3.089  1.00  0.00    -0.646 OA
ENDBRANCH  29  33
ENDBRANCH   7  25
TORSDOF 6
