REMARK  11 active torsions:
REMARK  status: ('A' for Active; 'I' for Inactive)
REMARK    1  A    between atoms: O1_2  and  C2_3 
REMARK    2  A    between atoms: C4_5  and  N1_6 
REMARK       I    between atoms: N1_6  and  C5_8 
REMARK    3  A    between atoms: C5_8  and  C6_10 
REMARK    4  A    between atoms: C6_10  and  C7_11 
REMARK    5  A    between atoms: C7_11  and  N2_12 
REMARK    6  A    between atoms: C7_11  and  N3_15 
REMARK    7  A    between atoms: N3_15  and  N4_17 
REMARK    8  A    between atoms: N4_17  and  C8_18 
REMARK    9  A    between atoms: N7_24  and  N8_25 
REMARK   10  A    between atoms: C10_28  and  N9_29 
REMARK   11  A    between atoms: C12_33  and  N10_34 
ROOT
HETATM    1  N1  UNL     1      -0.142  -1.894  -0.249  1.00  0.00    -0.325 N 
ATOM      2  H1  UNL     1      -0.662  -2.617   0.248  1.00  0.00     0.169 HD
HETATM    3  C5  UNL     1      -0.650  -0.587  -0.180  1.00  0.00     0.229 C 
HETATM    4  O2  UNL     1      -0.123   0.376  -0.742  1.00  0.00    -0.273 OA
ENDROOT
BRANCH   3   5
HETATM    5  C6  UNL     1      -1.916  -0.304   0.621  1.00  0.00     0.181 C 
BRANCH   5   6
HETATM    6  C7  UNL     1      -2.254   1.120   0.592  1.00  0.00     0.110 C 
BRANCH   6   7
HETATM    7  N2  UNL     1      -3.266   1.539  -0.046  1.00  0.00    -0.387 N 
ATOM      8  H22 UNL     1      -3.843   0.858  -0.540  1.00  0.00     0.157 HD
ATOM      9  H21 UNL     1      -3.502   2.531  -0.066  1.00  0.00     0.157 HD
ENDBRANCH   6   7
BRANCH   6  10
HETATM   10  N3  UNL     1      -1.440   2.081   1.290  1.00  0.00    -0.220 N 
ATOM     11  H3  UNL     1      -0.454   2.114   1.032  1.00  0.00     0.203 HD
BRANCH  10  12
HETATM   12  N4  UNL     1      -1.821   2.901   2.202  1.00  0.00    -0.283 NA
BRANCH  12  13
HETATM   13  C8  UNL     1      -2.175   3.652   3.032  1.00  0.00     0.318 A 
HETATM   14  N5  UNL     1      -1.505   4.037   4.171  1.00  0.00    -0.307 N 
HETATM   15  C9  UNL     1      -2.246   4.904   4.848  1.00  0.00     0.203 A 
ATOM     16  H5  UNL     1      -0.582   3.707   4.451  1.00  0.00     0.171 HD
HETATM   17  N6  UNL     1      -3.380   5.091   4.176  1.00  0.00    -0.272 N 
HETATM   18  N7  UNL     1      -3.354   4.357   3.098  1.00  0.00    -0.154 N 
ATOM     19  H6  UNL     1      -4.143   5.707   4.458  1.00  0.00     0.190 HD
BRANCH  18  20
HETATM   20  N8  UNL     1      -4.375   4.281   2.118  1.00  0.00    -0.320 N 
ATOM     21  H82 UNL     1      -4.355   3.707   1.275  1.00  0.00     0.179 HD
ATOM     22  H81 UNL     1      -5.249   4.804   2.167  1.00  0.00     0.179 HD
ENDBRANCH  18  20
ENDBRANCH  12  13
ENDBRANCH  10  12
ENDBRANCH   6  10
ENDBRANCH   5   6
ENDBRANCH   3   5
BRANCH   1  23
HETATM   23  C4  UNL     1       1.010  -2.300  -0.934  1.00  0.00     0.070 A 
HETATM   24  C3  UNL     1       1.788  -1.499  -1.739  1.00  0.00     0.071 A 
HETATM   25  C2  UNL     1       2.905  -1.927  -2.431  1.00  0.00     0.103 A 
HETATM   26  C12 UNL     1       3.318  -3.251  -2.344  1.00  0.00     0.138 A 
HETATM   27  C11 UNL     1       2.576  -4.072  -1.558  1.00  0.00     0.077 A 
HETATM   28  C10 UNL     1       1.437  -3.636  -0.852  1.00  0.00     0.132 A 
BRANCH  25  29
HETATM   29  O1  UNL     1       3.654  -1.095  -3.223  1.00  0.00    -0.353 OA
HETATM   30  C1  UNL     1       3.289   0.266  -3.353  1.00  0.00     0.210 C 
ENDBRANCH  25  29
BRANCH  26  31
HETATM   31  N10 UNL     1       4.459  -3.708  -3.031  1.00  0.00    -0.113 N 
HETATM   32  O5  UNL     1       5.404  -2.933  -3.224  1.00  0.00    -0.532 OA
HETATM   33  O6  UNL     1       4.531  -4.990  -3.481  1.00  0.00    -0.532 OA
ENDBRANCH  26  31
BRANCH  28  34
HETATM   34  N9  UNL     1       0.739  -4.571  -0.061  1.00  0.00    -0.113 N 
HETATM   35  O3  UNL     1       0.183  -4.437   1.019  1.00  0.00    -0.532 OA
HETATM   36  O4  UNL     1       0.713  -5.886  -0.558  1.00  0.00    -0.532 OA
ENDBRANCH  28  34
ENDBRANCH   1  23
TORSDOF 11
