REMARK  10 active torsions:
REMARK  status: ('A' for Active; 'I' for Inactive)
REMARK    1  A    between atoms: O1_2  and  C2_3 
REMARK    2  A    between atoms: C4_5  and  C5_6 
REMARK    3  A    between atoms: C5_6  and  N1_7 
REMARK    4  A    between atoms: N1_7  and  C6_9 
REMARK    5  A    between atoms: C7_12  and  N3_13 
REMARK    6  A    between atoms: N6_21  and  N7_22 
REMARK    7  A    between atoms: N7_22  and  N8_24 
REMARK    8  A    between atoms: N8_24  and  N9_25 
REMARK    9  A    between atoms: C12_32  and  O2_33 
REMARK   10  A    between atoms: C14_35  and  O3_36 
ROOT
HETATM    1  C6  UNL     1       1.201  -0.521   1.322  1.00  0.00     0.681 A 
HETATM    2  N2  UNL     1       0.988  -1.823   1.581  1.00  0.00    -0.175 N 
ATOM      3  H2  UNL     1       0.151  -2.101   2.093  1.00  0.00     0.186 HD
HETATM    4  C7  UNL     1       1.858  -2.764   1.178  1.00  0.00     0.147 A 
HETATM    5  C8  UNL     1       2.973  -2.339   0.489  1.00  0.00     0.142 A 
HETATM    6  N4  UNL     1       4.020  -2.992  -0.046  1.00  0.00    -0.278 N 
ATOM      7  H4  UNL     1       4.158  -4.002  -0.019  1.00  0.00     0.189 HD
HETATM    8  N5  UNL     1       4.837  -2.131  -0.608  1.00  0.00    -0.218 N 
ATOM      9  H5  UNL     1       5.704  -2.385  -1.082  1.00  0.00     0.210 HD
HETATM   10  N6  UNL     1       4.381  -0.866  -0.477  1.00  0.00    -0.147 N 
HETATM   11  C10 UNL     1       3.221  -1.003   0.207  1.00  0.00     0.195 A 
HETATM   12  N10 UNL     1       2.320  -0.112   0.633  1.00  0.00    -0.171 N 
ATOM     13  H10 UNL     1       2.463   0.880   0.446  1.00  0.00     0.186 HD
ENDROOT
BRANCH   1  14
HETATM   14  N1  UNL     1       0.420   0.430   1.673  1.00  0.00    -0.222 N 
ATOM     15  H1  UNL     1       0.726   1.364   1.399  1.00  0.00     0.178 HD
BRANCH  14  16
HETATM   16  C5  UNL     1      -0.806   0.384   2.385  1.00  0.00     0.176 C 
BRANCH  16  17
HETATM   17  C4  UNL     1      -1.970   0.433   1.425  1.00  0.00    -0.035 A 
HETATM   18  C3  UNL     1      -2.512  -0.744   0.982  1.00  0.00     0.048 A 
HETATM   19  C2  UNL     1      -3.573  -0.753   0.106  1.00  0.00     0.104 A 
HETATM   20  C14 UNL     1      -4.083   0.447  -0.320  1.00  0.00     0.135 A 
HETATM   21  C12 UNL     1      -3.544   1.636   0.120  1.00  0.00     0.104 A 
HETATM   22  C11 UNL     1      -2.484   1.631   0.996  1.00  0.00     0.048 A 
BRANCH  19  23
HETATM   23  O1  UNL     1      -4.125  -1.973  -0.344  1.00  0.00    -0.353 OA
HETATM   24  C1  UNL     1      -3.615  -3.203   0.082  1.00  0.00     0.210 C 
ENDBRANCH  19  23
BRANCH  20  25
HETATM   25  O3  UNL     1      -5.159   0.447  -1.209  1.00  0.00    -0.351 OA
HETATM   26  C15 UNL     1      -4.879   0.442  -2.593  1.00  0.00     0.210 C 
ENDBRANCH  20  25
BRANCH  21  27
HETATM   27  O2  UNL     1      -4.120   2.797  -0.360  1.00  0.00    -0.353 OA
HETATM   28  C13 UNL     1      -3.681   4.086  -0.003  1.00  0.00     0.210 C 
ENDBRANCH  21  27
ENDBRANCH  16  17
ENDBRANCH  14  16
ENDBRANCH   1  14
BRANCH   4  29
HETATM   29  N3  UNL     1       1.623  -3.997   1.442  1.00  0.00    -0.383 N 
ATOM     30  H32 UNL     1       0.798  -4.312   1.952  1.00  0.00     0.157 HD
ATOM     31  H31 UNL     1       2.284  -4.711   1.136  1.00  0.00     0.157 HD
ENDBRANCH   4  29
BRANCH  10  32
HETATM   32  N7  UNL     1       5.021   0.271  -0.965  1.00  0.00    -0.199 N 
HETATM   33  C9  UNL     1       6.275   0.131  -1.674  1.00  0.00     0.199 C 
BRANCH  32  34
HETATM   34  N8  UNL     1       4.511   1.539  -0.804  1.00  0.00    -0.010 NA
BRANCH  34  35
HETATM   35  N9  UNL     1       4.965   2.453  -1.735  1.00  0.00    -0.327 N 
ATOM     36  H92 UNL     1       5.621   2.195  -2.472  1.00  0.00     0.174 HD
ATOM     37  H91 UNL     1       4.587   3.393  -1.616  1.00  0.00     0.174 HD
ENDBRANCH  34  35
ENDBRANCH  32  34
ENDBRANCH  10  32
TORSDOF 10
