REMARK  13 active torsions:
REMARK  status: ('A' for Active; 'I' for Inactive)
REMARK    1  A    between atoms: O1_2  and  C2_3 
REMARK    2  A    between atoms: C3_4  and  O2_5 
REMARK    3  A    between atoms: C9_14  and  O5_16 
REMARK    4  A    between atoms: O5_16  and  N1_17 
REMARK    5  A    between atoms: N1_17  and  C12_19 
REMARK    6  A    between atoms: C12_19  and  O6_20 
REMARK    7  A    between atoms: C12_19  and  C13_22 
REMARK    8  A    between atoms: C13_22  and  O7_23 
REMARK    9  A    between atoms: C13_22  and  O8_25 
REMARK   10  A    between atoms: O8_25  and  C14_26 
REMARK   11  A    between atoms: C14_26  and  O9_28 
REMARK   12  A    between atoms: C14_26  and  C16_30 
REMARK   13  A    between atoms: C16_30  and  O10_31 
ROOT
HETATM    1  O5  UNL     1       0.448   0.942   0.534  1.00  0.00    -0.263 OA
ENDROOT
BRANCH   1   2
HETATM    2  C9  UNL     1       1.353   1.082  -0.316  1.00  0.00     0.135 C 
HETATM    3  C4  UNL     1       2.663   0.347  -0.044  1.00  0.00     0.103 A 
HETATM    4  O3  UNL     1       3.697   0.630   0.710  1.00  0.00    -0.286 OA
HETATM    5  C5  UNL     1       2.695  -0.826  -0.757  1.00  0.00     0.028 A 
HETATM    6  C3  UNL     1       4.747  -0.150   0.810  1.00  0.00     0.222 A 
HETATM    7  C2  UNL     1       4.832  -1.348   0.112  1.00  0.00     0.178 A 
HETATM    8  C6  UNL     1       3.776  -1.699  -0.697  1.00  0.00     0.218 A 
HETATM    9  O4  UNL     1       3.808  -2.769  -1.345  1.00  0.00    -0.285 OA
HETATM   10  C7  UNL     1       1.445  -0.937  -1.525  1.00  0.00     0.049 C 
HETATM   11  C8  UNL     1       1.082   0.538  -1.735  1.00  0.00     0.052 C 
HETATM   12  C10 UNL     1       1.814   2.540  -0.599  1.00  0.00     0.056 C 
BRANCH   6  13
HETATM   13  O2  UNL     1       5.796   0.211   1.621  1.00  0.00    -0.339 OA
ATOM     14  H2  UNL     1       5.738   1.030   2.098  1.00  0.00     0.220 HD
ENDBRANCH   6  13
BRANCH   7  15
HETATM   15  O1  UNL     1       5.924  -2.181   0.203  1.00  0.00    -0.348 OA
HETATM   16  C1  UNL     1       6.997  -2.026  -0.684  1.00  0.00     0.210 C 
ENDBRANCH   7  15
ENDBRANCH   1   2
BRANCH   1  17
HETATM   17  N1  UNL     1      -0.443   0.840   1.315  1.00  0.00    -0.263 N 
HETATM   18  C11 UNL     1      -0.325  -0.001   2.497  1.00  0.00     0.182 C 
BRANCH  17  19
HETATM   19  C12 UNL     1      -1.828   1.063   0.933  1.00  0.00     0.296 C 
BRANCH  19  20
HETATM   20  O6  UNL     1      -1.867   1.948  -0.114  1.00  0.00    -0.370 OA
ATOM     21  H6  UNL     1      -2.772   2.094  -0.364  1.00  0.00     0.212 HD
ENDBRANCH  19  20
BRANCH  19  22
HETATM   22  C13 UNL     1      -2.531  -0.239   0.524  1.00  0.00     0.311 C 
BRANCH  22  23
HETATM   23  O7  UNL     1      -2.500  -1.117   1.635  1.00  0.00    -0.367 OA
ATOM     24  H7  UNL     1      -2.935  -1.923   1.382  1.00  0.00     0.212 HD
ENDBRANCH  22  23
BRANCH  22  25
HETATM   25  O8  UNL     1      -3.596  -0.068  -0.084  1.00  0.00    -0.319 OA
BRANCH  25  26
HETATM   26  C14 UNL     1      -4.661   0.099  -0.704  1.00  0.00     0.182 C 
HETATM   27  C15 UNL     1      -5.755   0.675   0.227  1.00  0.00     0.081 C 
BRANCH  26  28
HETATM   28  O9  UNL     1      -4.657   0.940  -1.850  1.00  0.00    -0.364 OA
ATOM     29  H9  UNL     1      -5.471   1.068  -2.324  1.00  0.00     0.213 HD
ENDBRANCH  26  28
BRANCH  26  30
HETATM   30  C16 UNL     1      -5.311  -1.203  -1.275  1.00  0.00     0.232 C 
BRANCH  30  31
HETATM   31  O10 UNL     1      -6.489  -0.896  -1.945  1.00  0.00    -0.396 OA
ATOM     32  H10 UNL     1      -6.884  -1.687  -2.292  1.00  0.00     0.209 HD
ENDBRANCH  30  31
ENDBRANCH  26  30
ENDBRANCH  25  26
ENDBRANCH  22  25
ENDBRANCH  19  22
ENDBRANCH  17  19
ENDBRANCH   1  17
TORSDOF 13
