REMARK  8 active torsions:
REMARK  status: ('A' for Active; 'I' for Inactive)
REMARK    1  A    between atoms: O1_2  and  N1_3 
REMARK    2  A    between atoms: N1_3  and  C2_5 
REMARK    3  A    between atoms: C2_5  and  N2_6 
REMARK    4  A    between atoms: C2_5  and  C10_28 
REMARK    5  A    between atoms: N2_6  and  N3_8 
REMARK    6  A    between atoms: N3_8  and  C3_10 
REMARK    7  A    between atoms: N6_17  and  N7_18 
REMARK    8  A    between atoms: C5_20  and  C6_22 
ROOT
HETATM    1  C3  UNL     1      -0.895   1.386   0.647  1.00  0.00     0.728 A 
HETATM    2  N4  UNL     1      -0.336   2.139   1.612  1.00  0.00    -0.017 N 
ATOM      3  H4  UNL     1      -0.789   2.909   2.105  1.00  0.00     0.203 HD
HETATM    4  C4  UNL     1       0.925   1.704   1.818  1.00  0.00     0.727 A 
HETATM    5  N5  UNL     1       1.773   2.181   2.667  1.00  0.00    -0.231 N 
ATOM      6  H51 UNL     1       2.726   1.852   2.823  1.00  0.00     0.174 HD
ATOM      7  H52 UNL     1       1.602   2.959   3.304  1.00  0.00     0.174 HD
HETATM    8  N6  UNL     1       1.150   0.677   0.978  1.00  0.00    -0.004 N 
HETATM    9  N9  UNL     1       0.035   0.495   0.273  1.00  0.00    -0.094 N 
ATOM     10  H9  UNL     1      -0.093  -0.217  -0.446  1.00  0.00     0.208 HD
ENDROOT
BRANCH   1  11
HETATM   11  N3  UNL     1      -2.103   1.565   0.231  1.00  0.00    -0.128 N 
ATOM     12  H3  UNL     1      -2.646   2.314   0.661  1.00  0.00     0.205 HD
BRANCH  11  13
HETATM   13  N2  UNL     1      -2.713   0.816  -0.753  1.00  0.00    -0.266 N 
ATOM     14  H2  UNL     1      -2.287   0.701  -1.673  1.00  0.00     0.189 HD
BRANCH  13  15
HETATM   15  C2  UNL     1      -3.971   0.204  -0.433  1.00  0.00     0.194 C 
BRANCH  15  16
HETATM   16  N1  UNL     1      -4.094  -1.073  -0.294  1.00  0.00    -0.246 N 
ATOM     17  H1  UNL     1      -5.014  -1.448  -0.065  1.00  0.00     0.196 HD
BRANCH  16  18
HETATM   18  O1  UNL     1      -3.056  -1.948  -0.438  1.00  0.00    -0.284 OA
HETATM   19  C1  UNL     1      -3.255  -3.281  -0.015  1.00  0.00     0.237 C 
ENDBRANCH  16  18
ENDBRANCH  15  16
BRANCH  15  20
HETATM   20  C10 UNL     1      -5.182   1.008  -0.246  1.00  0.00     0.215 A 
HETATM   21  N10 UNL     1      -5.237   2.285   0.216  1.00  0.00    -0.272 N 
HETATM   22  N11 UNL     1      -6.510   2.649   0.236  1.00  0.00    -0.243 N 
ATOM     23  H10 UNL     1      -4.442   2.859   0.496  1.00  0.00     0.189 HD
HETATM   24  C11 UNL     1      -7.253   1.615  -0.206  1.00  0.00     0.386 A 
ATOM     25  H11 UNL     1      -6.867   3.557   0.535  1.00  0.00     0.192 HD
HETATM   26  O2  UNL     1      -8.504   1.675  -0.295  1.00  0.00    -0.236 OA
HETATM   27  O3  UNL     1      -6.416   0.660  -0.481  1.00  0.00    -0.237 OA
ENDBRANCH  15  20
ENDBRANCH  13  15
ENDBRANCH  11  13
ENDBRANCH   1  11
BRANCH   8  28
HETATM   28  N7  UNL     1       2.291  -0.101   0.810  1.00  0.00    -0.254 N 
HETATM   29  C5  UNL     1       3.089  -0.038  -0.164  1.00  0.00     0.117 C 
HETATM   30  N8  UNL     1       2.838   0.893  -1.199  1.00  0.00    -0.085 NA
ATOM     31  H7  UNL     1       2.500  -0.783   1.539  1.00  0.00     0.190 HD
BRANCH  29  32
HETATM   32  C6  UNL     1       4.265  -0.934  -0.204  1.00  0.00     0.006 C 
HETATM   33  C7  UNL     1       5.565  -0.160  -0.234  1.00  0.00     0.022 C 
HETATM   34  C8  UNL     1       4.119  -1.785  -1.471  1.00  0.00     0.022 C 
HETATM   35  C9  UNL     1       4.195  -1.874   0.968  1.00  0.00     0.022 C 
ENDBRANCH  29  32
ENDBRANCH   8  28
TORSDOF 8
