REMARK  8 active torsions:
REMARK  status: ('A' for Active; 'I' for Inactive)
REMARK    1  A    between atoms: C3_4  and  N2_5 
REMARK    2  A    between atoms: N3_7  and  N4_9 
REMARK    3  A    between atoms: N4_9  and  C4_11 
REMARK    4  A    between atoms: C5_14  and  N6_15 
REMARK    5  A    between atoms: C6_20  and  N8_21 
REMARK    6  A    between atoms: N8_21  and  N9_23 
REMARK    7  A    between atoms: C7_25  and  C8_27 
REMARK    8  A    between atoms: N13_34  and  O2_35 
ROOT
HETATM    1  N1  UNL     1       7.480  -1.386   1.641  1.00  0.00    -0.190 NA
HETATM    2  C1  UNL     1       6.767  -0.636   1.123  1.00  0.00     0.126 C 
HETATM    3  C2  UNL     1       5.900   0.310   0.480  1.00  0.00     0.216 A 
HETATM    4  C3  UNL     1       4.781  -0.007  -0.268  1.00  0.00     0.186 A 
HETATM    5  N12 UNL     1       4.286   1.185  -0.670  1.00  0.00    -0.219 N 
ATOM      6  H12 UNL     1       3.454   1.318  -1.245  1.00  0.00     0.198 HD
HETATM    7  O1  UNL     1       5.040   2.131  -0.206  1.00  0.00    -0.126 OA
HETATM    8  N13 UNL     1       6.023   1.654   0.492  1.00  0.00    -0.087 N 
ENDROOT
BRANCH   4   9
HETATM    9  N2  UNL     1       4.254  -1.289  -0.559  1.00  0.00    -0.267 N 
HETATM   10  N3  UNL     1       3.007  -1.423  -0.662  1.00  0.00    -0.227 N 
ATOM     11  H3  UNL     1       2.604  -2.337  -0.871  1.00  0.00     0.209 HD
ATOM     12  H2  UNL     1       4.874  -2.089  -0.683  1.00  0.00     0.190 HD
BRANCH  10  13
HETATM   13  N4  UNL     1       2.185  -0.321  -0.490  1.00  0.00    -0.116 N 
ATOM     14  H4  UNL     1       2.585   0.600  -0.311  1.00  0.00     0.207 HD
BRANCH  13  15
HETATM   15  C4  UNL     1       0.906  -0.477  -0.559  1.00  0.00     0.727 A 
HETATM   16  N5  UNL     1       0.432  -1.710  -0.796  1.00  0.00    -0.020 N 
HETATM   17  C5  UNL     1      -0.894  -1.887  -0.871  1.00  0.00     0.705 A 
ATOM     18  H5  UNL     1       1.069  -2.497  -0.917  1.00  0.00     0.203 HD
HETATM   19  N7  UNL     1      -1.740  -0.840  -0.709  1.00  0.00    -0.020 N 
HETATM   20  C6  UNL     1      -1.269   0.396  -0.471  1.00  0.00     0.726 A 
ATOM     21  H7  UNL     1      -2.747  -0.992  -0.769  1.00  0.00     0.203 HD
HETATM   22  N11 UNL     1       0.056   0.556  -0.400  1.00  0.00    -0.018 N 
ATOM     23  H11 UNL     1       0.434   1.486  -0.220  1.00  0.00     0.203 HD
BRANCH  17  24
HETATM   24  N6  UNL     1      -1.357  -3.056  -1.097  1.00  0.00    -0.234 N 
ATOM     25  H62 UNL     1      -0.721  -3.844  -1.219  1.00  0.00     0.174 HD
ATOM     26  H61 UNL     1      -2.366  -3.191  -1.154  1.00  0.00     0.174 HD
ENDBRANCH  17  24
BRANCH  20  27
HETATM   27  N8  UNL     1      -2.021   1.425  -0.310  1.00  0.00    -0.130 N 
ATOM     28  H8  UNL     1      -1.568   2.322  -0.135  1.00  0.00     0.205 HD
BRANCH  27  29
HETATM   29  N9  UNL     1      -3.400   1.401  -0.358  1.00  0.00    -0.276 N 
HETATM   30  C7  UNL     1      -4.109   0.990   0.619  1.00  0.00     0.118 C 
HETATM   31  N10 UNL     1      -3.460   0.542   1.792  1.00  0.00    -0.085 NA
ATOM     32  H9  UNL     1      -3.869   1.723  -1.205  1.00  0.00     0.188 HD
BRANCH  30  33
HETATM   33  C8  UNL     1      -5.592   0.950   0.601  1.00  0.00     0.160 C 
HETATM   34  S1  UNL     1      -6.245   1.562  -0.985  1.00  0.00    -0.090 SA
ENDBRANCH  30  33
ENDBRANCH  27  29
ENDBRANCH  20  27
ENDBRANCH  13  15
ENDBRANCH  10  13
ENDBRANCH   4   9
BRANCH   8  35
HETATM   35  O2  UNL     1       7.004   2.366   1.123  1.00  0.00    -0.260 OA
ATOM     36  H2  UNL     1       7.091   3.312   1.131  1.00  0.00     0.247 HD
ENDBRANCH   8  35
TORSDOF 8
