REMARK  7 active torsions:
REMARK  status: ('A' for Active; 'I' for Inactive)
REMARK    1  A    between atoms: C4_6  and  C5_7 
REMARK       I    between atoms: C5_7  and  N2_9 
REMARK    2  A    between atoms: N2_9  and  N3_11 
REMARK    3  A    between atoms: N4_13  and  C6_15 
REMARK    4  A    between atoms: C7_18  and  C8_19 
REMARK    5  A    between atoms: C8_19  and  N7_21 
REMARK    6  A    between atoms: N7_21  and  N8_23 
REMARK    7  A    between atoms: C9_26  and  O2_27 
ROOT
HETATM    1  C6  UNL     1       1.729  -0.907   0.029  1.00  0.00     0.703 A 
HETATM    2  N5  UNL     1       2.593   0.121  -0.062  1.00  0.00    -0.184 N 
ATOM      3  H5  UNL     1       2.226   1.073  -0.064  1.00  0.00     0.184 HD
HETATM    4  C7  UNL     1       3.922  -0.060  -0.150  1.00  0.00     0.130 A 
HETATM    5  C9  UNL     1       4.369  -1.375  -0.142  1.00  0.00     0.166 A 
HETATM    6  C10 UNL     1       3.502  -2.443  -0.050  1.00  0.00     0.297 A 
HETATM    7  O3  UNL     1       3.875  -3.644  -0.040  1.00  0.00    -0.264 OA
HETATM    8  N9  UNL     1       2.169  -2.181   0.036  1.00  0.00    -0.148 N 
HETATM    9  C11 UNL     1       1.193  -3.237   0.135  1.00  0.00     0.179 C 
ENDROOT
BRANCH   1  10
HETATM   10  N4  UNL     1       0.311  -0.666   0.121  1.00  0.00    -0.117 N 
HETATM   11  N3  UNL     1      -0.118   0.497   0.452  1.00  0.00    -0.226 N 
ATOM     12  H3  UNL     1       0.532   1.258   0.652  1.00  0.00     0.209 HD
ATOM     13  H4  UNL     1      -0.350  -1.418  -0.076  1.00  0.00     0.207 HD
BRANCH  11  14
HETATM   14  N2  UNL     1      -1.497   0.693   0.531  1.00  0.00    -0.249 N 
HETATM   15  C5  UNL     1      -2.354   0.044  -0.378  1.00  0.00     0.297 C 
HETATM   16  O1  UNL     1      -1.870  -0.706  -1.252  1.00  0.00    -0.264 OA
ATOM     17  H2  UNL     1      -1.884   1.307   1.248  1.00  0.00     0.192 HD
BRANCH  15  18
HETATM   18  C4  UNL     1      -3.794   0.241  -0.306  1.00  0.00     0.171 A 
HETATM   19  C3  UNL     1      -4.437   1.058   0.632  1.00  0.00     0.095 A 
HETATM   20  C2  UNL     1      -5.777   0.960   0.349  1.00  0.00     0.124 A 
HETATM   21  N1  UNL     1      -6.733   1.555   0.974  1.00  0.00    -0.379 N 
HETATM   22  N10 UNL     1      -5.921   0.131  -0.697  1.00  0.00    -0.245 N 
HETATM   23  C1  UNL     1      -8.101   1.360   0.568  1.00  0.00     0.147 C 
ATOM     24  H1  UNL     1      -6.520   2.168   1.761  1.00  0.00     0.160 HD
HETATM   25  O4  UNL     1      -4.740  -0.260  -1.042  1.00  0.00    -0.231 OA
ATOM     26  H10 UNL     1      -6.800  -0.140  -1.137  1.00  0.00     0.196 HD
ENDBRANCH  15  18
ENDBRANCH  11  14
ENDBRANCH   1  10
BRANCH   4  27
HETATM   27  C8  UNL     1       4.860   1.049  -0.248  1.00  0.00     0.160 C 
HETATM   28  N6  UNL     1       6.246   0.827  -0.338  1.00  0.00    -0.079 NA
BRANCH  27  29
HETATM   29  N7  UNL     1       4.415   2.255  -0.253  1.00  0.00    -0.292 N 
ATOM     30  H7  UNL     1       3.406   2.388  -0.187  1.00  0.00     0.187 HD
BRANCH  29  31
HETATM   31  N8  UNL     1       5.205   3.380  -0.341  1.00  0.00    -0.344 N 
ATOM     32  H82 UNL     1       6.211   3.228  -0.406  1.00  0.00     0.176 HD
ATOM     33  H81 UNL     1       4.852   4.337  -0.345  1.00  0.00     0.176 HD
ENDBRANCH  29  31
ENDBRANCH  27  29
ENDBRANCH   4  27
BRANCH   5  34
HETATM   34  O2  UNL     1       5.733  -1.615  -0.230  1.00  0.00    -0.354 OA
ATOM     35  H2  UNL     1       6.039  -2.514  -0.225  1.00  0.00     0.218 HD
ENDBRANCH   5  34
TORSDOF 7
