REMARK  7 active torsions:
REMARK  status: ('A' for Active; 'I' for Inactive)
REMARK    1  A    between atoms: C4_6  and  N2_7 
REMARK    2  A    between atoms: C5_12  and  S1_13 
REMARK    3  A    between atoms: S1_13  and  C6_14 
REMARK    4  A    between atoms: C6_14  and  C7_15 
REMARK    5  A    between atoms: C8_18  and  N5_19 
REMARK    6  A    between atoms: C9_24  and  N7_25 
REMARK    7  A    between atoms: N7_25  and  N8_27 
ROOT
HETATM    1  C6  UNL     1       0.353   2.834   0.444  1.00  0.00     0.158 C 
ENDROOT
BRANCH   1   2
HETATM    2  S1  UNL     1      -0.865   2.176   1.561  1.00  0.00    -0.103 SA
BRANCH   2   3
HETATM    3  C5  UNL     1      -2.209   1.379   0.724  1.00  0.00     0.089 A 
HETATM    4  N3  UNL     1      -2.381   1.514  -0.596  1.00  0.00    -0.333 N 
HETATM    5  C4  UNL     1      -3.412   0.850  -1.173  1.00  0.00     0.146 A 
ATOM      6  H3  UNL     1      -1.756   2.098  -1.151  1.00  0.00     0.168 HD
HETATM    7  C3  UNL     1      -4.292   0.049  -0.480  1.00  0.00     0.172 A 
HETATM    8  N1  UNL     1      -5.370  -0.696  -0.815  1.00  0.00    -0.327 N 
HETATM    9  N10 UNL     1      -4.109  -0.077   0.846  1.00  0.00    -0.244 N 
HETATM   10  C2  UNL     1      -5.852  -1.281   0.303  1.00  0.00     0.094 A 
ATOM     11  H1  UNL     1      -5.754  -0.799  -1.754  1.00  0.00     0.169 HD
HETATM   12  C1  UNL     1      -7.011  -2.187   0.468  1.00  0.00     0.090 C 
HETATM   13  N11 UNL     1      -5.064  -0.889   1.313  1.00  0.00    -0.281 N 
ATOM     14  H11 UNL     1      -5.175  -1.167   2.288  1.00  0.00     0.189 HD
HETATM   15  C12 UNL     1      -3.101   0.563   1.446  1.00  0.00     0.155 A 
BRANCH   5  16
HETATM   16  N2  UNL     1      -3.550   0.999  -2.432  1.00  0.00    -0.382 N 
ATOM     17  H22 UNL     1      -4.326   0.499  -2.866  1.00  0.00     0.157 HD
ATOM     18  H21 UNL     1      -2.898   1.592  -2.945  1.00  0.00     0.157 HD
ENDBRANCH   5  16
ENDBRANCH   2   3
ENDBRANCH   1   2
BRANCH   1  19
HETATM   19  C7  UNL     1       1.173   1.764  -0.166  1.00  0.00     0.123 A 
HETATM   20  N4  UNL     1       0.963   1.142  -1.310  1.00  0.00    -0.179 N 
HETATM   21  C8  UNL     1       1.753   0.178  -1.800  1.00  0.00     0.691 A 
ATOM     22  H4  UNL     1       0.146   1.413  -1.857  1.00  0.00     0.185 HD
HETATM   23  N6  UNL     1       2.827  -0.170  -1.071  1.00  0.00    -0.021 N 
HETATM   24  C9  UNL     1       3.097   0.420   0.097  1.00  0.00     0.712 A 
ATOM     25  H6  UNL     1       3.449  -0.900  -1.417  1.00  0.00     0.203 HD
HETATM   26  N9  UNL     1       2.280   1.376   0.544  1.00  0.00    -0.177 N 
ATOM     27  H9  UNL     1       2.484   1.829   1.435  1.00  0.00     0.185 HD
BRANCH  21  28
HETATM   28  N5  UNL     1       1.502  -0.403  -2.932  1.00  0.00    -0.234 N 
ATOM     29  H52 UNL     1       0.687  -0.139  -3.485  1.00  0.00     0.174 HD
ATOM     30  H51 UNL     1       2.104  -1.137  -3.305  1.00  0.00     0.174 HD
ENDBRANCH  21  28
BRANCH  24  31
HETATM   31  N7  UNL     1       4.112   0.128   0.841  1.00  0.00    -0.134 N 
ATOM     32  H7  UNL     1       4.207   0.652   1.711  1.00  0.00     0.205 HD
BRANCH  31  33
HETATM   33  N8  UNL     1       5.075  -0.814   0.583  1.00  0.00    -0.322 N 
HETATM   34  C10 UNL     1       6.481  -0.412   0.415  1.00  0.00     0.171 C 
HETATM   35  C11 UNL     1       4.819  -2.238   0.458  1.00  0.00     0.171 C 
ENDBRANCH  31  33
ENDBRANCH  24  31
ENDBRANCH   1  19
TORSDOF 7
