REMARK  9 active torsions:
REMARK  status: ('A' for Active; 'I' for Inactive)
REMARK    1  A    between atoms: C2_2  and  O1_3 
REMARK    2  A    between atoms: C2_2  and  N1_5 
REMARK    3  A    between atoms: N1_5  and  C3_7 
REMARK    4  A    between atoms: C3_7  and  O2_8 
REMARK    5  A    between atoms: C3_7  and  C4_10 
REMARK    6  A    between atoms: C4_10  and  S1_11 
REMARK    7  A    between atoms: S1_11  and  C5_12 
REMARK    8  A    between atoms: N5_17  and  C6_18 
REMARK    9  A    between atoms: C9_26  and  N8_27 
ROOT
HETATM    1  C5  UNL     1       0.893   0.501  -2.766  1.00  0.00     0.195 A 
HETATM    2  N2  UNL     1       1.654   0.193  -3.837  1.00  0.00    -0.264 N 
ATOM      3  H2  UNL     1       2.504   0.668  -4.140  1.00  0.00     0.186 HD
HETATM    4  N3  UNL     1       1.076  -0.850  -4.417  1.00  0.00    -0.006 NA
HETATM    5  N4  UNL     1      -0.007  -1.171  -3.722  1.00  0.00     0.016 NA
HETATM    6  N5  UNL     1      -0.149  -0.354  -2.692  1.00  0.00    -0.049 N 
ENDROOT
BRANCH   6   7
HETATM    7  C6  UNL     1      -1.166  -0.346  -1.702  1.00  0.00     0.706 A 
HETATM    8  N6  UNL     1      -1.482  -1.366  -0.885  1.00  0.00    -0.181 N 
HETATM    9  C7  UNL     1      -2.496  -1.014  -0.073  1.00  0.00     0.162 A 
ATOM     10  H6  UNL     1      -1.020  -2.275  -0.881  1.00  0.00     0.184 HD
HETATM   11  C8  UNL     1      -3.214  -1.622   0.929  1.00  0.00     0.290 A 
HETATM   12  C10 UNL     1      -2.841   0.286  -0.385  1.00  0.00     0.169 A 
HETATM   13  O3  UNL     1      -2.902  -2.807   1.217  1.00  0.00    -0.265 OA
HETATM   14  N7  UNL     1      -4.207  -0.991   1.582  1.00  0.00    -0.154 N 
HETATM   15  C9  UNL     1      -4.539   0.275   1.273  1.00  0.00     0.680 A 
ATOM     16  H7  UNL     1      -4.714  -1.479   2.320  1.00  0.00     0.187 HD
HETATM   17  N9  UNL     1      -3.846   0.881   0.296  1.00  0.00    -0.174 N 
ATOM     18  H9  UNL     1      -4.091   1.841   0.055  1.00  0.00     0.186 HD
HETATM   19  N10 UNL     1      -2.016   0.655  -1.375  1.00  0.00    -0.172 N 
ATOM     20  H10 UNL     1      -2.027   1.571  -1.823  1.00  0.00     0.186 HD
BRANCH  15  21
HETATM   21  N8  UNL     1      -5.506   0.896   1.906  1.00  0.00    -0.234 N 
ATOM     22  H82 UNL     1      -6.033   0.436   2.648  1.00  0.00     0.174 HD
ATOM     23  H81 UNL     1      -5.758   1.856   1.672  1.00  0.00     0.174 HD
ENDBRANCH  15  21
ENDBRANCH   6   7
BRANCH   1  24
HETATM   24  S1  UNL     1       1.155   1.812  -1.589  1.00  0.00    -0.083 SA
BRANCH  24  25
HETATM   25  C4  UNL     1       2.208   1.098  -0.241  1.00  0.00     0.166 C 
BRANCH  25  26
HETATM   26  C3  UNL     1       3.541   0.806  -0.783  1.00  0.00     0.127 C 
BRANCH  26  27
HETATM   27  N1  UNL     1       4.551   0.166  -0.053  1.00  0.00    -0.325 N 
ATOM     28  H1  UNL     1       5.435   0.056  -0.549  1.00  0.00     0.169 HD
BRANCH  27  29
HETATM   29  C2  UNL     1       4.539  -0.342   1.237  1.00  0.00     0.112 C 
HETATM   30  C1  UNL     1       3.412  -0.326   2.165  1.00  0.00     0.097 C 
BRANCH  29  31
HETATM   31  O1  UNL     1       5.620  -0.903   1.719  1.00  0.00    -0.350 OA
ATOM     32  H1  UNL     1       6.353  -0.913   1.115  1.00  0.00     0.219 HD
ENDBRANCH  29  31
ENDBRANCH  27  29
ENDBRANCH  26  27
BRANCH  26  33
HETATM   33  O2  UNL     1       3.810   1.157  -2.007  1.00  0.00    -0.349 OA
ATOM     34  H2  UNL     1       3.125   1.591  -2.502  1.00  0.00     0.219 HD
ENDBRANCH  26  33
ENDBRANCH  25  26
ENDBRANCH  24  25
ENDBRANCH   1  24
TORSDOF 9
