REMARK  6 active torsions:
REMARK  status: ('A' for Active; 'I' for Inactive)
REMARK    1  A    between atoms: C4_4  and  N1_5 
REMARK    2  A    between atoms: N1_5  and  C5_7 
REMARK    3  A    between atoms: C6_10  and  N3_11 
REMARK    4  A    between atoms: N3_11  and  C7_13 
REMARK    5  A    between atoms: C11_20  and  N5_21 
REMARK    6  A    between atoms: N5_21  and  C12_23 
ROOT
HETATM    1  C5  UNL     1       1.159   0.363  -0.613  1.00  0.00     0.134 A 
HETATM    2  N2  UNL     1       2.030   1.367  -0.691  1.00  0.00    -0.175 N 
ATOM      3  H2  UNL     1       3.009   1.176  -0.477  1.00  0.00     0.186 HD
HETATM    4  C6  UNL     1       1.684   2.624  -1.038  1.00  0.00     0.686 A 
HETATM    5  N4  UNL     1       0.393   2.859  -1.317  1.00  0.00    -0.191 N 
ATOM      6  H4  UNL     1       0.121   3.806  -1.580  1.00  0.00     0.184 HD
HETATM    7  C8  UNL     1      -0.566   1.909  -1.268  1.00  0.00     0.063 A 
HETATM    8  C9  UNL     1      -1.883   2.185  -1.561  1.00  0.00     0.033 A 
HETATM    9  C10 UNL     1      -2.841   1.201  -1.504  1.00  0.00     0.032 A 
HETATM   10  C11 UNL     1      -2.482  -0.060  -1.154  1.00  0.00     0.034 A 
HETATM   11  C17 UNL     1      -1.157  -0.320  -0.862  1.00  0.00     0.047 A 
HETATM   12  C18 UNL     1      -0.163   0.628  -0.905  1.00  0.00     0.038 A 
ENDROOT
BRANCH   1  13
HETATM   13  N1  UNL     1       1.500  -0.852  -0.277  1.00  0.00    -0.341 N 
ATOM     14  H1  UNL     1       0.789  -1.582  -0.235  1.00  0.00     0.167 HD
BRANCH  13  15
HETATM   15  C4  UNL     1       2.849  -1.168   0.031  1.00  0.00     0.036 A 
HETATM   16  C3  UNL     1       3.333  -1.057   1.309  1.00  0.00     0.054 A 
HETATM   17  C2  UNL     1       4.643  -1.368   1.590  1.00  0.00     0.007 A 
HETATM   18  C1  UNL     1       5.187  -1.255   2.963  1.00  0.00     0.068 C 
HETATM   19  N7  UNL     1       5.466  -1.786   0.613  1.00  0.00    -0.369 N 
HETATM   20  C20 UNL     1       5.000  -1.900  -0.653  1.00  0.00     0.090 A 
ATOM     21  H7  UNL     1       6.437  -2.016   0.824  1.00  0.00     0.165 HD
HETATM   22  C19 UNL     1       3.679  -1.594  -0.979  1.00  0.00     0.046 A 
ENDBRANCH  13  15
ENDBRANCH   1  13
BRANCH   4  23
HETATM   23  N3  UNL     1       2.610   3.521  -1.081  1.00  0.00    -0.167 N 
ATOM     24  H3  UNL     1       3.566   3.248  -0.851  1.00  0.00     0.186 HD
BRANCH  23  25
HETATM   25  C7  UNL     1       2.356   4.867  -1.433  1.00  0.00     0.368 C 
HETATM   26  O1  UNL     1       3.197   5.550  -2.055  1.00  0.00    -0.283 OA
ENDBRANCH  23  25
ENDBRANCH   4  23
BRANCH  10  27
HETATM   27  N5  UNL     1      -3.365  -1.156  -1.058  1.00  0.00    -0.342 N 
ATOM     28  H5  UNL     1      -3.329  -1.833  -1.820  1.00  0.00     0.167 HD
BRANCH  27  29
HETATM   29  C12 UNL     1      -4.195  -1.394  -0.136  1.00  0.00     0.105 A 
HETATM   30  C13 UNL     1      -4.968  -2.534  -0.241  1.00  0.00     0.048 A 
HETATM   31  C14 UNL     1      -5.906  -2.898   0.701  1.00  0.00     0.005 A 
HETATM   32  C15 UNL     1      -6.055  -2.063   1.790  1.00  0.00     0.017 A 
HETATM   33  C16 UNL     1      -5.271  -0.932   1.870  1.00  0.00     0.089 A 
HETATM   34  N6  UNL     1      -4.362  -0.599   0.936  1.00  0.00    -0.352 N 
ATOM     35  H6  UNL     1      -3.804   0.249   1.040  1.00  0.00     0.166 HD
ENDBRANCH  27  29
ENDBRANCH  10  27
TORSDOF 6
