REMARK  3 active torsions:
REMARK  status: ('A' for Active; 'I' for Inactive)
REMARK    1  A    between atoms: C4_7  and  N3_8 
REMARK    2  A    between atoms: N3_8  and  C5_10 
REMARK    3  A    between atoms: N5_19  and  C12_21 
ROOT
HETATM    1  N1  UNL     1      -1.887   1.443   2.399  1.00  0.00    -0.191 NA
HETATM    2  C1  UNL     1      -1.047   0.999   1.748  1.00  0.00     0.104 C 
HETATM    3  C2  UNL     1       0.043   0.457   0.953  1.00  0.00     0.105 A 
HETATM    4  C3  UNL     1       1.342   0.763   1.366  1.00  0.00     0.132 A 
HETATM    5  N2  UNL     1       2.345   0.269   0.641  1.00  0.00    -0.200 N 
ATOM      6  H2  UNL     1       3.308   0.469   0.911  1.00  0.00     0.183 HD
HETATM    7  C4  UNL     1       2.099  -0.502  -0.458  1.00  0.00     0.684 A 
HETATM    8  N4  UNL     1       0.868  -0.789  -0.846  1.00  0.00    -0.175 N 
ATOM      9  H4  UNL     1       0.727  -1.369  -1.673  1.00  0.00     0.186 HD
HETATM   10  C11 UNL     1      -0.238  -0.317  -0.150  1.00  0.00     0.143 A 
HETATM   11  N5  UNL     1      -1.362  -0.639  -0.589  1.00  0.00    -0.341 N 
ATOM     12  H5  UNL     1      -1.251  -1.219  -1.420  1.00  0.00     0.167 HD
ENDROOT
BRANCH  11  13
HETATM   13  C12 UNL     1      -2.671  -0.473  -0.327  1.00  0.00     0.034 A 
HETATM   14  C13 UNL     1      -3.352  -1.377   0.487  1.00  0.00     0.030 A 
HETATM   15  C14 UNL     1      -4.690  -1.242   0.746  1.00  0.00     0.020 A 
HETATM   16  C15 UNL     1      -5.428  -0.207   0.215  1.00  0.00     0.048 A 
HETATM   17  C16 UNL     1      -4.761   0.693  -0.593  1.00  0.00     0.050 A 
HETATM   18  C19 UNL     1      -6.821   0.213   0.288  1.00  0.00     0.259 A 
HETATM   19  C17 UNL     1      -3.418   0.569  -0.861  1.00  0.00     0.047 A 
HETATM   20  C18 UNL     1      -5.712   1.699  -1.047  1.00  0.00     0.259 A 
HETATM   21  O1  UNL     1      -5.435   2.670  -1.802  1.00  0.00    -0.267 OA
HETATM   22  N6  UNL     1      -6.988   1.387  -0.492  1.00  0.00    -0.289 N 
ATOM     23  H6  UNL     1      -7.854   1.908  -0.629  1.00  0.00     0.172 HD
HETATM   24  O2  UNL     1      -7.746  -0.342   0.922  1.00  0.00    -0.267 OA
ENDBRANCH  11  13
BRANCH   7  25
HETATM   25  N3  UNL     1       3.069  -0.980  -1.159  1.00  0.00    -0.192 N 
ATOM     26  H3  UNL     1       2.890  -1.557  -1.981  1.00  0.00     0.184 HD
BRANCH  25  27
HETATM   27  C5  UNL     1       4.396  -0.677  -0.751  1.00  0.00     0.049 A 
HETATM   28  C6  UNL     1       5.047   0.484  -1.179  1.00  0.00     0.030 A 
HETATM   29  C7  UNL     1       6.336   0.780  -0.785  1.00  0.00     0.002 A 
HETATM   30  C8  UNL     1       7.010  -0.098   0.062  1.00  0.00     0.000 A 
HETATM   31  C9  UNL     1       6.367  -1.242   0.483  1.00  0.00     0.002 A 
HETATM   32  C10 UNL     1       5.069  -1.546   0.089  1.00  0.00     0.030 A 
ENDBRANCH  25  27
ENDBRANCH   7  25
TORSDOF 3
