REMARK  3 active torsions:
REMARK  status: ('A' for Active; 'I' for Inactive)
REMARK    1  A    between atoms: C2_3  and  C3_4 
REMARK    2  A    between atoms: C4_5  and  N1_6 
REMARK    3  A    between atoms: N1_6  and  C5_7 
ROOT
HETATM    1  C3  UNL     1       1.060   2.018  -0.987  1.00  0.00     0.123 A 
HETATM    2  C4  UNL     1      -0.347   2.060  -0.824  1.00  0.00     0.214 A 
HETATM    3  N4  UNL     1      -0.743   3.114  -1.570  1.00  0.00    -0.270 N 
ATOM      4  H4  UNL     1      -1.709   3.425  -1.672  1.00  0.00     0.189 HD
HETATM    5  N5  UNL     1       0.289   3.680  -2.143  1.00  0.00    -0.263 N 
ATOM      6  H5  UNL     1       0.239   4.494  -2.755  1.00  0.00     0.190 HD
HETATM    7  C13 UNL     1       1.424   3.039  -1.813  1.00  0.00     0.277 A 
HETATM    8  O2  UNL     1       2.553   3.383  -2.232  1.00  0.00    -0.266 OA
ENDROOT
BRANCH   2   9
HETATM    9  N1  UNL     1      -1.124   1.260  -0.119  1.00  0.00    -0.366 NA
BRANCH   9  10
HETATM   10  C5  UNL     1      -1.837   0.529   0.465  1.00  0.00     0.195 A 
HETATM   11  N2  UNL     1      -1.858   0.456   1.832  1.00  0.00    -0.327 N 
HETATM   12  C6  UNL     1      -2.674  -0.383   2.496  1.00  0.00     0.183 A 
ATOM     13  H2  UNL     1      -1.233   1.059   2.366  1.00  0.00     0.169 HD
HETATM   14  N3  UNL     1      -3.509  -1.192   1.863  1.00  0.00    -0.351 N 
HETATM   15  C7  UNL     1      -3.566  -1.199   0.538  1.00  0.00     0.048 A 
ATOM     16  H3  UNL     1      -4.113  -1.815   2.399  1.00  0.00     0.166 HD
HETATM   17  C8  UNL     1      -4.449  -2.053  -0.086  1.00  0.00     0.030 A 
HETATM   18  C12 UNL     1      -2.738  -0.347  -0.160  1.00  0.00     0.049 A 
HETATM   19  C9  UNL     1      -4.499  -2.047  -1.458  1.00  0.00     0.002 A 
HETATM   20  C10 UNL     1      -3.680  -1.202  -2.178  1.00  0.00     0.001 A 
HETATM   21  C11 UNL     1      -2.801  -0.353  -1.543  1.00  0.00     0.018 A 
ENDBRANCH   9  10
ENDBRANCH   2   9
BRANCH   1  22
HETATM   22  C2  UNL     1       1.935   1.038  -0.354  1.00  0.00     0.105 A 
HETATM   23  C1  UNL     1       3.374   0.886  -0.438  1.00  0.00     0.212 A 
HETATM   24  O1  UNL     1       4.209   1.544  -1.065  1.00  0.00    -0.285 OA
HETATM   25  C19 UNL     1       3.747  -0.271   0.406  1.00  0.00     0.043 A 
HETATM   26  C14 UNL     1       2.548  -0.713   0.916  1.00  0.00     0.047 A 
HETATM   27  C18 UNL     1       4.904  -0.921   0.748  1.00  0.00     0.018 A 
HETATM   28  N6  UNL     1       1.498   0.109   0.427  1.00  0.00    -0.351 N 
HETATM   29  C15 UNL     1       2.484  -1.798   1.767  1.00  0.00     0.030 A 
ATOM     30  H6  UNL     1       0.515  -0.020   0.665  1.00  0.00     0.166 HD
HETATM   31  C16 UNL     1       3.669  -2.422   2.086  1.00  0.00     0.002 A 
HETATM   32  C17 UNL     1       4.888  -2.020   1.603  1.00  0.00     0.001 A 
ENDBRANCH   1  22
TORSDOF 3
