REMARK  2 active torsions:
REMARK  status: ('A' for Active; 'I' for Inactive)
REMARK    1  A    between atoms: C4_5  and  N2_6 
REMARK    2  A    between atoms: N2_6  and  C5_8 
ROOT
HETATM    1  C1  UNL     1       4.760   0.289  -1.320  1.00  0.00     0.005 A 
HETATM    2  C2  UNL     1       3.855  -0.606  -1.818  1.00  0.00     0.018 A 
HETATM    3  C3  UNL     1       2.610  -0.734  -1.274  1.00  0.00     0.100 A 
HETATM    4  N1  UNL     1       2.243   0.025  -0.227  1.00  0.00    -0.293 N 
HETATM    5  C4  UNL     1       1.093   0.091   0.480  1.00  0.00     0.125 A 
HETATM    6  C11 UNL     1       1.317   1.056   1.431  1.00  0.00     0.138 A 
HETATM    7  N3  UNL     1       2.564   1.559   1.305  1.00  0.00    -0.348 N 
ATOM      8  H3  UNL     1       2.993   2.285   1.879  1.00  0.00     0.167 HD
HETATM    9  C12 UNL     1       3.135   0.900   0.256  1.00  0.00     0.113 A 
HETATM   10  C13 UNL     1       4.405   1.076  -0.248  1.00  0.00     0.049 A 
ENDROOT
BRANCH   5  11
HETATM   11  N2  UNL     1      -0.075  -0.654   0.299  1.00  0.00    -0.370 N 
ATOM     12  H2  UNL     1      -0.075  -1.343  -0.453  1.00  0.00     0.161 HD
BRANCH  11  13
HETATM   13  C5  UNL     1      -1.288  -0.536   1.085  1.00  0.00     0.083 C 
HETATM   14  C6  UNL     1      -2.310  -1.534   0.607  1.00  0.00     0.025 C 
HETATM   15  C7  UNL     1      -2.950  -1.131  -0.697  1.00  0.00     0.002 C 
HETATM   16  C8  UNL     1      -3.137   0.376  -0.770  1.00  0.00     0.000 C 
HETATM   17  C9  UNL     1      -3.186   0.957   0.640  1.00  0.00     0.002 C 
HETATM   18  C10 UNL     1      -1.781   0.860   1.189  1.00  0.00     0.025 C 
ENDBRANCH  11  13
ENDBRANCH   5  11
TORSDOF 2
