REMARK  2 active torsions:
REMARK  status: ('A' for Active; 'I' for Inactive)
REMARK    1  A    between atoms: C6_6  and  N1_7 
REMARK    2  A    between atoms: N1_7  and  C7_9 
ROOT
HETATM    1  C1  UNL     1       5.556  -0.561  -0.016  1.00  0.00     0.022 A 
HETATM    2  C2  UNL     1       4.987   0.549  -0.606  1.00  0.00     0.033 A 
HETATM    3  C3  UNL     1       3.638   0.453  -0.326  1.00  0.00     0.056 A 
HETATM    4  C4  UNL     1       2.588   1.282  -0.663  1.00  0.00     0.035 A 
HETATM    5  C5  UNL     1       1.288   0.992  -0.270  1.00  0.00     0.052 A 
HETATM    6  C6  UNL     1       1.059  -0.140   0.464  1.00  0.00     0.116 A 
HETATM    7  N2  UNL     1       2.139  -0.900   0.754  1.00  0.00    -0.279 N 
ATOM      8  H2  UNL     1       1.981  -1.746   1.301  1.00  0.00     0.189 HD
HETATM    9  N3  UNL     1       3.363  -0.644   0.395  1.00  0.00    -0.266 N 
HETATM   10  C13 UNL     1       4.557  -1.274   0.586  1.00  0.00     0.117 A 
ENDROOT
BRANCH   6  11
HETATM   11  N1  UNL     1      -0.240  -0.482   0.881  1.00  0.00    -0.371 N 
ATOM     12  H1  UNL     1      -0.350  -1.325   1.445  1.00  0.00     0.161 HD
BRANCH  11  13
HETATM   13  C7  UNL     1      -1.425   0.274   0.568  1.00  0.00     0.083 C 
HETATM   14  C8  UNL     1      -1.651   0.246  -0.907  1.00  0.00     0.025 C 
HETATM   15  C9  UNL     1      -2.821  -0.694  -1.185  1.00  0.00     0.002 C 
HETATM   16  C10 UNL     1      -4.044   0.034  -0.661  1.00  0.00     0.000 C 
HETATM   17  C11 UNL     1      -3.931   0.146   0.835  1.00  0.00     0.002 C 
HETATM   18  C12 UNL     1      -2.590  -0.196   1.380  1.00  0.00     0.025 C 
ENDBRANCH  11  13
ENDBRANCH   6  11
TORSDOF 2
