REMARK  4 active torsions:
REMARK  status: ('A' for Active; 'I' for Inactive)
REMARK    1  A    between atoms: C2_3  and  C3_4 
REMARK    2  A    between atoms: C2_3  and  C10_15 
REMARK    3  A    between atoms: C3_4  and  S1_8 
REMARK    4  A    between atoms: S1_8  and  C4_9 
ROOT
HETATM    1  N1  UNL     1      -2.188   2.923   1.100  1.00  0.00    -0.196 NA
HETATM    2  C1  UNL     1      -2.117   1.784   0.884  1.00  0.00     0.071 C 
HETATM    3  C2  UNL     1      -2.012   0.366   0.633  1.00  0.00     0.153 C 
ENDROOT
BRANCH   3   4
HETATM    4  C3  UNL     1      -0.636   0.061   0.132  1.00  0.00     0.063 C 
HETATM    5  N2  UNL     1      -0.508  -0.495  -0.988  1.00  0.00    -0.396 N 
ATOM      6  H22 UNL     1      -1.298  -0.750  -1.580  1.00  0.00     0.156 HD
ATOM      7  H21 UNL     1       0.430  -0.703  -1.330  1.00  0.00     0.156 HD
BRANCH   4   8
HETATM    8  S1  UNL     1       0.722   0.499   1.150  1.00  0.00    -0.076 SA
BRANCH   8   9
HETATM    9  C4  UNL     1       2.334   0.143   0.556  1.00  0.00     0.006 A 
HETATM   10  C5  UNL     1       3.395   0.499   1.383  1.00  0.00     0.019 A 
HETATM   11  C6  UNL     1       4.697   0.281   1.046  1.00  0.00     0.001 A 
HETATM   12  C7  UNL     1       4.987  -0.312  -0.153  1.00  0.00     0.000 A 
HETATM   13  C8  UNL     1       3.953  -0.675  -0.992  1.00  0.00     0.001 A 
HETATM   14  C9  UNL     1       2.617  -0.446  -0.635  1.00  0.00     0.019 A 
ENDBRANCH   8   9
ENDBRANCH   4   8
ENDBRANCH   3   4
BRANCH   3  15
HETATM   15  C10 UNL     1      -3.070  -0.022  -0.344  1.00  0.00     0.010 A 
HETATM   16  C11 UNL     1      -4.482   0.279   0.190  1.00  0.00     0.007 A 
HETATM   17  C12 UNL     1      -4.028  -1.121  -0.108  1.00  0.00     0.007 A 
ENDBRANCH   3  15
TORSDOF 4
