REMARK  5 active torsions:
REMARK  status: ('A' for Active; 'I' for Inactive)
REMARK    1  A    between atoms: C4_4  and  C5_5 
REMARK    2  A    between atoms: C5_5  and  C6_6 
REMARK    3  A    between atoms: C6_6  and  C7_7 
REMARK    4  A    between atoms: C10_10  and  O1_11 
REMARK    5  A    between atoms: O1_11  and  O2_12 
ROOT
HETATM    1  C7  UNL     1       0.836   0.466   0.377  1.00  0.00     0.007 C 
HETATM    2  C8  UNL     1       0.561   1.849  -0.171  1.00  0.00     0.027 C 
HETATM    3  C9  UNL     1       2.323   0.318   0.535  1.00  0.00     0.056 C 
HETATM    4  C10 UNL     1       2.873  -0.784  -0.240  1.00  0.00     0.171 C 
HETATM    5  C11 UNL     1       2.110  -0.978  -1.520  1.00  0.00     0.109 C 
HETATM    6  S1  UNL     1       0.410  -0.718  -0.932  1.00  0.00    -0.157 SA
ENDROOT
BRANCH   1   7
HETATM    7  C6  UNL     1       0.090   0.180   1.633  1.00  0.00     0.024 C 
BRANCH   7   8
HETATM    8  C5  UNL     1      -1.388   0.240   1.555  1.00  0.00     0.029 C 
BRANCH   8   9
HETATM    9  C4  UNL     1      -2.017  -0.706   0.607  1.00  0.00    -0.025 C 
HETATM   10  C2  UNL     1      -2.836  -0.297  -0.346  1.00  0.00    -0.091 C 
HETATM   11  C1  UNL     1      -3.215   1.123  -0.573  1.00  0.00     0.042 C 
HETATM   12  C3  UNL     1      -3.468  -1.283  -1.303  1.00  0.00     0.042 C 
ENDBRANCH   8   9
ENDBRANCH   7   8
ENDBRANCH   1   7
BRANCH   4  13
HETATM   13  O1  UNL     1       4.196  -0.506  -0.588  1.00  0.00    -0.237 OA
BRANCH  13  14
HETATM   14  O2  UNL     1       5.021  -1.425  -0.137  1.00  0.00    -0.250 OA
ATOM     15  H2  UNL     1       5.921  -1.236  -0.374  1.00  0.00     0.253 HD
ENDBRANCH  13  14
ENDBRANCH   4  13
TORSDOF 5
