REMARK  4 active torsions:
REMARK  status: ('A' for Active; 'I' for Inactive)
REMARK    1  A    between atoms: C4_4  and  N1_5 
REMARK    2  A    between atoms: C5_7  and  C6_8 
REMARK    3  A    between atoms: C6_8  and  C7_9 
REMARK    4  A    between atoms: C12_15  and  O2_16 
ROOT
HETATM    1  N1  UNL     1       1.346   1.769   1.087  1.00  0.00    -0.366 N 
ATOM      2  H1  UNL     1       1.616   2.687   1.440  1.00  0.00     0.165 HD
HETATM    3  C5  UNL     1       0.143   1.390   1.279  1.00  0.00     0.064 C 
ENDROOT
BRANCH   1   4
HETATM    4  C4  UNL     1       2.331   1.008   0.420  1.00  0.00     0.093 A 
HETATM    5  C3  UNL     1       3.081  -0.027   0.959  1.00  0.00     0.067 A 
HETATM    6  C2  UNL     1       3.907  -0.471  -0.048  1.00  0.00     0.054 A 
HETATM    7  C1  UNL     1       4.894  -1.596   0.118  1.00  0.00     0.077 C 
HETATM    8  O3  UNL     1       3.679   0.239  -1.117  1.00  0.00    -0.291 OA
HETATM    9  C12 UNL     1       2.748   1.140  -0.904  1.00  0.00     0.211 A 
BRANCH   9  10
HETATM   10  O2  UNL     1       2.239   2.080  -1.814  1.00  0.00    -0.339 OA
ATOM     11  H2  UNL     1       2.523   2.170  -2.716  1.00  0.00     0.220 HD
ENDBRANCH   9  10
ENDBRANCH   1   4
BRANCH   3  12
HETATM   12  C6  UNL     1      -0.319   0.085   0.802  1.00  0.00     0.076 C 
BRANCH  12  13
HETATM   13  C7  UNL     1      -1.298   0.208  -0.356  1.00  0.00     0.126 C 
HETATM   14  C8  UNL     1      -2.529   0.990   0.033  1.00  0.00     0.032 C 
HETATM   15  C9  UNL     1      -3.679   0.448  -0.813  1.00  0.00     0.004 C 
HETATM   16  C10 UNL     1      -3.979  -0.960  -0.337  1.00  0.00     0.026 C 
HETATM   17  C11 UNL     1      -2.663  -1.626  -0.036  1.00  0.00     0.168 C 
HETATM   18  O1  UNL     1      -1.645  -1.069  -0.786  1.00  0.00    -0.386 OA
ENDBRANCH  12  13
ENDBRANCH   3  12
TORSDOF 4
