REMARK  4 active torsions:
REMARK  status: ('A' for Active; 'I' for Inactive)
REMARK    1  A    between atoms: C2_2  and  C5_5 
REMARK    2  A    between atoms: C6_11  and  O1_12 
REMARK    3  A    between atoms: O1_12  and  C7_13 
REMARK    4  A    between atoms: C7_13  and  C8_14 
ROOT
HETATM    1  C5  UNL     1      -1.587  -1.035  -0.687  1.00  0.00     0.076 A 
HETATM    2  N1  UNL     1      -1.976  -2.265  -0.984  1.00  0.00    -0.311 N 
ATOM      3  H1  UNL     1      -2.895  -2.679  -0.826  1.00  0.00     0.175 HD
HETATM    4  S1  UNL     1      -0.635  -2.997  -1.676  1.00  0.00     0.069 SA
HETATM    5  N2  UNL     1       0.413  -1.700  -1.571  1.00  0.00    -0.291 N 
ATOM      6  H2  UNL     1       1.385  -1.667  -1.878  1.00  0.00     0.177 HD
HETATM    7  C6  UNL     1      -0.286  -0.718  -1.002  1.00  0.00     0.174 A 
ENDROOT
BRANCH   7   8
HETATM    8  O1  UNL     1       0.275   0.526  -0.762  1.00  0.00    -0.334 OA
BRANCH   8   9
HETATM    9  C7  UNL     1       1.490   1.052  -0.962  1.00  0.00     0.182 C 
BRANCH   9  10
HETATM   10  C8  UNL     1       2.720   0.656  -0.319  1.00  0.00     0.010 C 
HETATM   11  C9  UNL     1       3.334  -0.690  -0.366  1.00  0.00     0.007 C 
HETATM   12  C10 UNL     1       4.125  -0.201   0.899  1.00  0.00     0.001 C 
HETATM   13  C11 UNL     1       2.796   0.542   1.198  1.00  0.00     0.007 C 
ENDBRANCH   9  10
ENDBRANCH   8   9
ENDBRANCH   7   8
BRANCH   1  14
HETATM   14  C2  UNL     1      -2.545  -0.062  -0.036  1.00  0.00    -0.004 C 
HETATM   15  C1  UNL     1      -3.897  -0.704   0.183  1.00  0.00     0.021 C 
HETATM   16  C3  UNL     1      -2.037   0.336   1.342  1.00  0.00     0.021 C 
HETATM   17  C4  UNL     1      -2.783   1.138  -0.902  1.00  0.00     0.021 C 
ENDBRANCH   1  14
TORSDOF 4
