REMARK  4 active torsions:
REMARK  status: ('A' for Active; 'I' for Inactive)
REMARK    1  A    between atoms: C2_2  and  C3_3 
REMARK    2  A    between atoms: C2_2  and  C7_14 
REMARK    3  A    between atoms: C3_3  and  N1_4 
REMARK    4  A    between atoms: N3_10  and  O1_12 
ROOT
HETATM    1  N1  UNL     1       2.590  -0.970  -0.207  1.00  0.00    -0.279 N 
HETATM    2  N2  UNL     1       2.944  -2.019  -1.114  1.00  0.00    -0.312 N 
ATOM      3  H2  UNL     1       2.311  -2.774  -1.376  1.00  0.00     0.185 HD
HETATM    4  C4  UNL     1       4.113  -1.913  -1.553  1.00  0.00     0.088 A 
HETATM    5  C5  UNL     1       4.794  -0.726  -1.016  1.00  0.00     0.126 A 
HETATM    6  C6  UNL     1       3.729  -0.155  -0.105  1.00  0.00     0.122 A 
HETATM    7  N3  UNL     1       3.897   0.871   0.669  1.00  0.00    -0.255 N 
ATOM      8  H3  UNL     1       3.151   1.166   1.299  1.00  0.00     0.195 HD
ENDROOT
BRANCH   1   9
HETATM    9  C3  UNL     1       1.284  -0.831   0.365  1.00  0.00     0.155 C 
BRANCH   9  10
HETATM   10  C2  UNL     1       0.314   0.108  -0.261  1.00  0.00     0.010 C 
HETATM   11  C1  UNL     1       0.847   1.491  -0.302  1.00  0.00     0.012 C 
BRANCH  10  12
HETATM   12  C7  UNL     1      -0.946   0.085   0.561  1.00  0.00     0.023 C 
HETATM   13  C8  UNL     1      -1.608  -1.315   0.620  1.00  0.00     0.088 C 
HETATM   14  C9  UNL     1      -2.937  -1.133   0.161  1.00  0.00    -0.182 C 
HETATM   15  C10 UNL     1      -4.222  -0.869  -0.329  1.00  0.00     0.083 C 
HETATM   16  C11 UNL     1      -4.256   0.654  -0.680  1.00  0.00     0.038 C 
HETATM   17  C12 UNL     1      -2.850   1.250  -0.778  1.00  0.00    -0.029 C 
HETATM   18  C13 UNL     1      -1.914   1.189   0.317  1.00  0.00    -0.025 C 
ENDBRANCH  10  12
ENDBRANCH   9  10
ENDBRANCH   1   9
BRANCH   7  19
HETATM   19  O1  UNL     1       5.088   1.559   0.635  1.00  0.00    -0.288 OA
ATOM     20  H1  UNL     1       5.211   2.311   1.202  1.00  0.00     0.244 HD
ENDBRANCH   7  19
TORSDOF 4
