REMARK  4 active torsions:
REMARK  status: ('A' for Active; 'I' for Inactive)
REMARK    1  A    between atoms: O1_2  and  C2_3 
REMARK    2  A    between atoms: C3_6  and  N2_7 
REMARK    3  A    between atoms: N2_7  and  N3_9 
REMARK    4  A    between atoms: C4_14  and  N5_15 
REMARK       I    between atoms: N5_15  and  C5_17 
ROOT
HETATM    1  C2  UNL     1      -1.340  -0.461  -0.164  1.00  0.00     0.254 A 
HETATM    2  N1  UNL     1      -1.498   0.858   0.036  1.00  0.00    -0.152 N 
ATOM      3  H1  UNL     1      -2.429   1.238   0.207  1.00  0.00     0.188 HD
HETATM    4  C3  UNL     1      -0.430   1.681   0.012  1.00  0.00     0.714 A 
HETATM    5  N4  UNL     1       0.804   1.196  -0.210  1.00  0.00    -0.020 N 
ATOM      6  H4  UNL     1       1.601   1.832  -0.224  1.00  0.00     0.203 HD
HETATM    7  C4  UNL     1       0.999  -0.126  -0.415  1.00  0.00     0.704 A 
HETATM    8  N8  UNL     1      -0.092  -0.913  -0.384  1.00  0.00    -0.149 N 
HETATM    9  C6  UNL     1       0.112  -2.331  -0.604  1.00  0.00     0.179 C 
ENDROOT
BRANCH   7  10
HETATM   10  N5  UNL     1       2.153  -0.635  -0.631  1.00  0.00    -0.163 N 
HETATM   11  C5  UNL     1       3.363   0.063  -0.689  1.00  0.00     0.200 C 
HETATM   12  N6  UNL     1       4.171  -0.115  -1.661  1.00  0.00    -0.373 N 
HETATM   13  N7  UNL     1       3.693   0.973   0.336  1.00  0.00    -0.063 NA
ATOM     14  H62 UNL     1       3.932  -0.773  -2.403  1.00  0.00     0.158 HD
ATOM     15  H61 UNL     1       5.054   0.394  -1.703  1.00  0.00     0.158 HD
ATOM     16  H5  UNL     1       2.194  -1.644  -0.774  1.00  0.00     0.187 HD
ENDBRANCH   7  10
BRANCH   4  17
HETATM   17  N2  UNL     1      -0.649   2.937   0.212  1.00  0.00    -0.138 N 
ATOM     18  H2  UNL     1       0.146   3.576   0.199  1.00  0.00     0.205 HD
BRANCH  17  19
HETATM   19  N3  UNL     1      -1.902   3.458   0.442  1.00  0.00    -0.331 N 
ATOM     20  H32 UNL     1      -2.686   2.805   0.452  1.00  0.00     0.177 HD
ATOM     21  H31 UNL     1      -2.075   4.451   0.600  1.00  0.00     0.177 HD
ENDBRANCH  17  19
ENDBRANCH   4  17
BRANCH   1  22
HETATM   22  O1  UNL     1      -2.441  -1.338  -0.145  1.00  0.00    -0.326 OA
HETATM   23  C1  UNL     1      -2.868  -1.823   1.133  1.00  0.00     0.213 C 
ENDBRANCH   1  22
TORSDOF 4
