REMARK  2 active torsions:
REMARK  status: ('A' for Active; 'I' for Inactive)
REMARK    1  A    between atoms: C1_4  and  C2_6 
REMARK    2  A    between atoms: C3_7  and  C4_8 
ROOT
HETATM    1  C2  UNL     1      -0.534  -0.228  -0.067  1.00  0.00     0.104 A 
HETATM    2  C3  UNL     1       0.607   0.411   0.262  1.00  0.00     0.121 A 
HETATM    3  N4  UNL     1       0.922   1.570  -0.433  1.00  0.00    -0.303 N 
ATOM      4  H4  UNL     1       1.783   2.063  -0.196  1.00  0.00     0.171 HD
HETATM    5  C5  UNL     1       0.150   2.066  -1.395  1.00  0.00     0.327 A 
HETATM    6  O2  UNL     1       0.475   3.135  -2.013  1.00  0.00    -0.247 OA
HETATM    7  N5  UNL     1      -0.981   1.419  -1.705  1.00  0.00    -0.275 N 
ATOM      8  H5  UNL     1      -1.572   1.803  -2.442  1.00  0.00     0.173 HD
HETATM    9  C6  UNL     1      -1.370   0.305  -1.102  1.00  0.00     0.265 A 
HETATM   10  O3  UNL     1      -2.435  -0.271  -1.420  1.00  0.00    -0.267 OA
ENDROOT
BRANCH   1  11
HETATM   11  C1  UNL     1      -0.936  -1.496   0.475  1.00  0.00     0.128 C 
HETATM   12  N1  UNL     1      -0.287  -2.185   1.302  1.00  0.00    -0.387 N 
ATOM     13  H12 UNL     1      -0.572  -3.085   1.687  1.00  0.00     0.157 HD
ATOM     14  H11 UNL     1       0.606  -1.793   1.602  1.00  0.00     0.157 HD
HETATM   15  N2  UNL     1      -2.209  -2.055   0.047  1.00  0.00    -0.082 NA
ENDBRANCH   1  11
BRANCH   2  16
HETATM   16  C4  UNL     1       1.474   0.065   1.355  1.00  0.00     0.282 C 
HETATM   17  N3  UNL     1       2.886   0.436   1.187  1.00  0.00    -0.056 NA
HETATM   18  O1  UNL     1       1.194  -0.503   2.413  1.00  0.00    -0.269 OA
ENDBRANCH   2  16
TORSDOF 2
