REMARK  3 active torsions:
REMARK  status: ('A' for Active; 'I' for Inactive)
REMARK    1  A    between atoms: N1_4  and  N2_6 
REMARK    2  A    between atoms: C6_15  and  C7_16 
REMARK    3  A    between atoms: N5_17  and  N6_19 
ROOT
HETATM    1  C1  UNL     1      -1.683   1.269  -0.214  1.00  0.00     0.027 C 
HETATM    2  C2  UNL     1      -0.942   0.180  -0.382  1.00  0.00     0.003 A 
HETATM    3  C3  UNL     1      -1.420  -0.940  -1.184  1.00  0.00     0.126 A 
HETATM    4  N1  UNL     1      -2.510  -1.001  -1.766  1.00  0.00    -0.301 N 
ATOM      5  H1  UNL     1      -2.611  -1.888  -2.259  1.00  0.00     0.186 HD
HETATM    6  C4  UNL     1      -0.478  -2.105  -1.287  1.00  0.00     0.275 A 
HETATM    7  O1  UNL     1      -0.893  -3.072  -1.980  1.00  0.00    -0.266 OA
HETATM    8  N3  UNL     1       0.779  -2.126  -0.660  1.00  0.00    -0.309 N 
ATOM      9  H3  UNL     1       1.395  -2.934  -0.751  1.00  0.00     0.170 HD
HETATM   10  C5  UNL     1       1.169  -1.003   0.098  1.00  0.00     0.131 A 
HETATM   11  N4  UNL     1       2.450  -1.065   0.718  1.00  0.00    -0.082 NA
HETATM   12  C6  UNL     1       0.389   0.077   0.241  1.00  0.00     0.034 A 
ENDROOT
BRANCH  12  13
HETATM   13  C7  UNL     1       0.896   1.168   1.043  1.00  0.00     0.124 C 
HETATM   14  N5  UNL     1       2.083   1.062   1.591  1.00  0.00    -0.297 N 
ATOM     15  H5  UNL     1       2.644   0.221   1.456  1.00  0.00     0.187 HD
BRANCH  14  16
HETATM   16  N6  UNL     1       2.563   2.116   2.359  1.00  0.00    -0.250 N 
HETATM   17  N7  UNL     1       3.746   2.096   2.811  1.00  0.00    -0.331 N 
ATOM     18  H72 UNL     1       4.338   1.293   2.600  1.00  0.00     0.178 HD
ATOM     19  H71 UNL     1       4.098   2.870   3.375  1.00  0.00     0.178 HD
ATOM     20  H6  UNL     1       1.958   2.912   2.560  1.00  0.00     0.207 HD
ENDBRANCH  14  16
ENDBRANCH  12  13
BRANCH   4  21
HETATM   21  N2  UNL     1      -3.590  -0.238  -1.932  1.00  0.00    -0.344 N 
ATOM     22  H22 UNL     1      -3.465   0.641  -1.430  1.00  0.00     0.176 HD
ATOM     23  H21 UNL     1      -4.489  -0.288  -2.412  1.00  0.00     0.176 HD
ENDBRANCH   4  21
TORSDOF 3
