REMARK  2 active torsions:
REMARK  status: ('A' for Active; 'I' for Inactive)
REMARK    1  A    between atoms: C1_4  and  C2_6 
REMARK    2  A    between atoms: C2_6  and  N3_7 
ROOT
HETATM    1  C2  UNL     1      -0.287  -0.069  -0.129  1.00  0.00     0.174 C 
HETATM    2  C4  UNL     1      -0.684   0.447   1.220  1.00  0.00     0.176 C 
HETATM    3  S1  UNL     1      -1.454   1.997   0.712  1.00  0.00     0.059 S 
HETATM    4  O1  UNL     1      -2.971   1.582   0.117  1.00  0.00    -0.252 OA
HETATM    5  C5  UNL     1      -0.358   2.231  -0.666  1.00  0.00     0.165 C 
HETATM    6  N6  UNL     1       0.073   0.943  -0.999  1.00  0.00    -0.359 N 
ATOM      7  H6  UNL     1       0.623   0.760  -1.838  1.00  0.00     0.162 HD
ENDROOT
BRANCH   1   8
HETATM    8  C1  UNL     1      -1.456  -0.878  -0.634  1.00  0.00     0.137 C 
HETATM    9  N1  UNL     1      -1.943  -0.549  -1.790  1.00  0.00    -0.387 N 
ATOM     10  H12 UNL     1      -2.733  -1.096  -2.131  1.00  0.00     0.157 HD
ATOM     11  H11 UNL     1      -1.552   0.222  -2.332  1.00  0.00     0.157 HD
HETATM   12  N2  UNL     1      -2.001  -1.954   0.122  1.00  0.00    -0.083 NA
ENDBRANCH   1   8
BRANCH   1  13
HETATM   13  N3  UNL     1       0.795  -1.019   0.039  1.00  0.00    -0.334 N 
HETATM   14  C3  UNL     1       2.002  -0.680   0.334  1.00  0.00     0.199 C 
HETATM   15  N4  UNL     1       2.438   0.642   0.533  1.00  0.00    -0.067 NA
HETATM   16  N5  UNL     1       2.978  -1.728   0.471  1.00  0.00    -0.067 NA
ATOM     17  H3  UNL     1       0.589  -2.011  -0.083  1.00  0.00     0.164 HD
ENDBRANCH   1  13
TORSDOF 2
