REMARK  5 active torsions:
REMARK  status: ('A' for Active; 'I' for Inactive)
REMARK    1  A    between atoms: C1_4  and  N2_5 
REMARK    2  A    between atoms: C4_14  and  C5_15 
REMARK    3  A    between atoms: C4_14  and  C6_18 
REMARK    4  A    between atoms: C6_18  and  N6_19 
REMARK    5  A    between atoms: C6_18  and  N7_23 
ROOT
HETATM    1  N2  UNL     1       2.046   0.223   0.462  1.00  0.00    -0.340 N 
ATOM      2  H2  UNL     1       1.795   0.546   1.396  1.00  0.00     0.168 HD
HETATM    3  C2  UNL     1       1.094   0.009  -0.357  1.00  0.00     0.128 C 
HETATM    4  N3  UNL     1       1.173  -0.430  -1.696  1.00  0.00    -0.295 N 
ATOM      5  H3  UNL     1       2.028  -0.523  -2.245  1.00  0.00     0.172 HD
HETATM    6  C3  UNL     1      -0.167  -0.725  -2.157  1.00  0.00     0.323 C 
HETATM    7  O1  UNL     1      -0.332  -1.129  -3.324  1.00  0.00    -0.247 OA
HETATM    8  N4  UNL     1      -1.091  -0.476  -1.109  1.00  0.00    -0.315 N 
ATOM      9  H4  UNL     1      -2.086  -0.701  -1.104  1.00  0.00     0.166 HD
HETATM   10  C4  UNL     1      -0.321   0.176  -0.023  1.00  0.00     0.225 C 
ENDROOT
BRANCH  10  11
HETATM   11  C5  UNL     1      -0.750   1.543   0.202  1.00  0.00     0.271 C 
HETATM   12  N5  UNL     1      -0.940   2.478  -0.873  1.00  0.00    -0.059 NA
HETATM   13  O2  UNL     1      -0.998   1.931   1.405  1.00  0.00    -0.273 OA
ENDBRANCH  10  11
BRANCH  10  14
HETATM   14  C6  UNL     1      -0.683  -0.596   1.257  1.00  0.00     0.422 C 
BRANCH  14  15
HETATM   15  N6  UNL     1      -0.515  -2.047   1.088  1.00  0.00    -0.047 N 
ATOM     16  H63 UNL     1      -1.043  -2.391   0.286  1.00  0.00     0.276 HD
ATOM     17  H62 UNL     1       0.427  -2.277   0.770  1.00  0.00     0.276 HD
ATOM     18  H61 UNL     1      -0.755  -2.559   1.937  1.00  0.00     0.276 HD
ENDBRANCH  14  15
BRANCH  14  19
HETATM   19  N7  UNL     1      -1.927  -0.227   1.782  1.00  0.00    -0.047 N 
ATOM     20  H73 UNL     1      -1.973   0.780   1.938  1.00  0.00     0.276 HD
ATOM     21  H72 UNL     1      -2.661  -0.320   1.080  1.00  0.00     0.276 HD
ATOM     22  H71 UNL     1      -2.167  -0.739   2.631  1.00  0.00     0.276 HD
ENDBRANCH  14  19
ENDBRANCH  10  14
BRANCH   1  23
HETATM   23  C1  UNL     1       3.406   0.052   0.188  1.00  0.00     0.174 C 
HETATM   24  N1  UNL     1       4.136   0.828  -0.523  1.00  0.00    -0.395 N 
ATOM     25  H12 UNL     1       3.665   1.642  -0.919  1.00  0.00     0.156 HD
ATOM     26  H11 UNL     1       5.128   0.703  -0.723  1.00  0.00     0.156 HD
ENDBRANCH   1  23
TORSDOF 5
