REMARK  6 active torsions:
REMARK  status: ('A' for Active; 'I' for Inactive)
REMARK    1  A    between atoms: C2_2  and  C3_3 
REMARK    2  A    between atoms: C3_3  and  N1_4 
REMARK    3  A    between atoms: C3_3  and  C17_19 
REMARK    4  A    between atoms: N1_4  and  C4_6 
REMARK    5  A    between atoms: C4_6  and  C5_7 
REMARK    6  A    between atoms: C8_10  and  C9_11 
ROOT
HETATM    1  C5  UNL     1       0.530   0.632  -0.099  1.00  0.00    -0.021 A 
HETATM    2  C6  UNL     1       1.118   0.387  -1.305  1.00  0.00     0.013 A 
HETATM    3  C7  UNL     1       2.462   0.036  -1.404  1.00  0.00     0.013 A 
HETATM    4  C8  UNL     1       3.231  -0.071  -0.269  1.00  0.00    -0.026 A 
HETATM    5  C15 UNL     1       2.641   0.176   0.952  1.00  0.00     0.013 A 
HETATM    6  C16 UNL     1       1.289   0.528   1.042  1.00  0.00     0.013 A 
ENDROOT
BRANCH   1   7
HETATM    7  C4  UNL     1      -0.921   1.006   0.043  1.00  0.00     0.099 C 
BRANCH   7   8
HETATM    8  N1  UNL     1      -1.496   0.115   0.931  1.00  0.00    -0.368 N 
ATOM      9  H1  UNL     1      -0.884  -0.583   1.354  1.00  0.00     0.165 HD
BRANCH   8  10
HETATM   10  C3  UNL     1      -2.839   0.091   1.296  1.00  0.00     0.019 C 
BRANCH  10  11
HETATM   11  C2  UNL     1      -3.336   1.298   1.988  1.00  0.00     0.053 C 
HETATM   12  C1  UNL     1      -3.283   2.602   1.285  1.00  0.00     0.011 C 
ENDBRANCH  10  11
BRANCH  10  13
HETATM   13  C17 UNL     1      -3.758  -0.433   0.256  1.00  0.00    -0.014 A 
HETATM   14  C18 UNL     1      -4.937   0.187  -0.006  1.00  0.00     0.013 A 
HETATM   15  C19 UNL     1      -5.764  -0.341  -0.987  1.00  0.00     0.001 A 
HETATM   16  C20 UNL     1      -5.395  -1.468  -1.679  1.00  0.00     0.000 A 
HETATM   17  C21 UNL     1      -4.198  -2.113  -1.426  1.00  0.00     0.001 A 
HETATM   18  C22 UNL     1      -3.402  -1.552  -0.437  1.00  0.00     0.013 A 
ENDBRANCH  10  13
ENDBRANCH   8  10
ENDBRANCH   7   8
ENDBRANCH   1   7
BRANCH   4  19
HETATM   19  C9  UNL     1       4.637  -0.441  -0.360  1.00  0.00    -0.026 A 
HETATM   20  C10 UNL     1       5.030  -1.283  -1.374  1.00  0.00     0.012 A 
HETATM   21  C11 UNL     1       6.356  -1.654  -1.482  1.00  0.00     0.001 A 
HETATM   22  C12 UNL     1       7.267  -1.171  -0.566  1.00  0.00     0.000 A 
HETATM   23  C13 UNL     1       6.901  -0.324   0.462  1.00  0.00     0.001 A 
HETATM   24  C14 UNL     1       5.559   0.034   0.547  1.00  0.00     0.012 A 
ENDBRANCH   4  19
TORSDOF 6
