REMARK  5 active torsions:
REMARK  status: ('A' for Active; 'I' for Inactive)
REMARK    1  A    between atoms: C1_1  and  C17_21 
REMARK    2  A    between atoms: N1_2  and  C2_4 
REMARK    3  A    between atoms: C2_4  and  C3_5 
REMARK    4  A    between atoms: C3_5  and  C4_6 
REMARK    5  A    between atoms: C4_6  and  C5_7 
ROOT
HETATM    1  C5  UNL     1      -0.598   1.327  -0.246  1.00  0.00    -0.030 A 
HETATM    2  C6  UNL     1      -0.423   2.336   0.677  1.00  0.00     0.009 A 
HETATM    3  C7  UNL     1      -1.440   2.639   1.579  1.00  0.00     0.002 A 
HETATM    4  C8  UNL     1      -2.614   1.906   1.518  1.00  0.00     0.014 A 
HETATM    5  C9  UNL     1      -2.799   0.894   0.599  1.00  0.00     0.004 A 
HETATM    6  C10 UNL     1      -1.783   0.596  -0.297  1.00  0.00     0.050 A 
HETATM    7  N2  UNL     1      -2.177  -0.412  -1.094  1.00  0.00    -0.354 N 
ATOM      8  H2  UNL     1      -1.614  -0.822  -1.839  1.00  0.00     0.166 HD
HETATM    9  C11 UNL     1      -3.439  -0.806  -0.760  1.00  0.00     0.043 A 
HETATM   10  C12 UNL     1      -4.281  -1.779  -1.260  1.00  0.00     0.030 A 
HETATM   11  C13 UNL     1      -5.527  -1.937  -0.696  1.00  0.00     0.002 A 
HETATM   12  C14 UNL     1      -5.909  -1.127   0.352  1.00  0.00     0.001 A 
HETATM   13  C15 UNL     1      -5.073  -0.148   0.862  1.00  0.00     0.014 A 
HETATM   14  C16 UNL     1      -3.811   0.010   0.287  1.00  0.00     0.003 A 
ENDROOT
BRANCH   1  15
HETATM   15  C4  UNL     1       0.490   1.009  -1.200  1.00  0.00     0.042 C 
BRANCH  15  16
HETATM   16  C3  UNL     1       1.205  -0.240  -0.781  1.00  0.00     0.024 C 
BRANCH  16  17
HETATM   17  C2  UNL     1       1.830  -0.099   0.600  1.00  0.00     0.119 C 
BRANCH  17  18
HETATM   18  N1  UNL     1       2.488  -1.327   0.913  1.00  0.00    -0.397 N 
HETATM   19  C1  UNL     1       3.676  -1.675   0.640  1.00  0.00     0.120 C 
ATOM     20  H1  UNL     1       1.930  -2.013   1.422  1.00  0.00     0.158 HD
BRANCH  19  21
HETATM   21  C17 UNL     1       4.663  -0.873  -0.078  1.00  0.00     0.089 A 
HETATM   22  C18 UNL     1       5.952  -1.281  -0.361  1.00  0.00     0.040 A 
HETATM   23  C19 UNL     1       6.568  -0.257  -1.045  1.00  0.00     0.027 A 
HETATM   24  C20 UNL     1       5.635   0.747  -1.159  1.00  0.00     0.142 A 
HETATM   25  O1  UNL     1       4.552   0.322  -0.576  1.00  0.00    -0.321 OA
ENDBRANCH  19  21
ENDBRANCH  17  18
ENDBRANCH  16  17
ENDBRANCH  15  16
ENDBRANCH   1  15
TORSDOF 5
