REMARK  5 active torsions:
REMARK  status: ('A' for Active; 'I' for Inactive)
REMARK    1  A    between atoms: C2_2  and  C3_3 
REMARK    2  A    between atoms: C3_3  and  C4_4 
REMARK    3  A    between atoms: C4_4  and  N1_5 
REMARK    4  A    between atoms: C6_7  and  C7_8 
REMARK    5  A    between atoms: C7_8  and  C8_9 
ROOT
HETATM    1  N1  UNL     1      -1.767  -0.884   1.037  1.00  0.00    -0.356 N 
HETATM    2  C5  UNL     1      -0.562  -0.555   1.535  1.00  0.00     0.099 A 
HETATM    3  C6  UNL     1       0.366  -1.388   0.955  1.00  0.00    -0.026 A 
HETATM    4  C16 UNL     1      -0.280  -2.242   0.088  1.00  0.00    -0.001 A 
HETATM    5  C17 UNL     1       0.098  -3.268  -0.751  1.00  0.00     0.014 A 
HETATM    6  C18 UNL     1      -0.835  -3.924  -1.487  1.00  0.00     0.001 A 
HETATM    7  C19 UNL     1      -2.170  -3.597  -1.425  1.00  0.00     0.002 A 
HETATM    8  C20 UNL     1      -2.574  -2.573  -0.593  1.00  0.00     0.030 A 
HETATM    9  C21 UNL     1      -1.625  -1.905   0.157  1.00  0.00     0.045 A 
ENDROOT
BRANCH   3  10
HETATM   10  C7  UNL     1       1.825  -1.367   1.208  1.00  0.00     0.082 C 
BRANCH  10  11
HETATM   11  C8  UNL     1       2.611  -0.693   0.152  1.00  0.00    -0.026 A 
HETATM   12  C9  UNL     1       3.341  -1.288  -0.851  1.00  0.00     0.096 A 
HETATM   13  N2  UNL     1       3.913  -0.354  -1.633  1.00  0.00    -0.365 N 
HETATM   14  C10 UNL     1       3.552   0.856  -1.135  1.00  0.00     0.042 A 
ATOM     15  H2  UNL     1       4.505  -0.523  -2.446  1.00  0.00     0.165 HD
HETATM   16  C11 UNL     1       3.851   2.149  -1.537  1.00  0.00     0.030 A 
HETATM   17  C15 UNL     1       2.738   0.680  -0.019  1.00  0.00    -0.002 A 
HETATM   18  C12 UNL     1       3.360   3.246  -0.856  1.00  0.00     0.002 A 
HETATM   19  C13 UNL     1       2.555   3.044   0.247  1.00  0.00     0.001 A 
HETATM   20  C14 UNL     1       2.247   1.756   0.663  1.00  0.00     0.014 A 
ENDBRANCH  10  11
ENDBRANCH   3  10
BRANCH   1  21
HETATM   21  C4  UNL     1      -3.032  -0.262   1.373  1.00  0.00     0.128 C 
BRANCH  21  22
HETATM   22  C3  UNL     1      -3.370   0.894   0.462  1.00  0.00     0.020 C 
BRANCH  22  23
HETATM   23  C2  UNL     1      -2.352   2.002   0.495  1.00  0.00    -0.003 C 
HETATM   24  C1  UNL     1      -2.765   3.139  -0.449  1.00  0.00     0.005 C 
ENDBRANCH  22  23
ENDBRANCH  21  22
ENDBRANCH   1  21
TORSDOF 5
