REMARK  5 active torsions:
REMARK  status: ('A' for Active; 'I' for Inactive)
REMARK    1  A    between atoms: C6_6  and  O1_7 
REMARK    2  A    between atoms: O1_7  and  C7_8 
REMARK    3  A    between atoms: C7_8  and  C8_9 
REMARK    4  A    between atoms: C8_9  and  C9_10 
REMARK    5  A    between atoms: C9_10  and  C10_11 
ROOT
HETATM    1  C7  UNL     1       0.163   1.615  -2.016  1.00  0.00     0.176 C 
ENDROOT
BRANCH   1   2
HETATM    2  O1  UNL     1       1.114   0.649  -2.187  1.00  0.00    -0.351 OA
BRANCH   2   3
HETATM    3  C6  UNL     1       2.137   0.188  -1.464  1.00  0.00     0.069 A 
HETATM    4  C5  UNL     1       2.493   0.692  -0.250  1.00  0.00     0.049 A 
HETATM    5  C4  UNL     1       3.562   0.155   0.435  1.00  0.00    -0.023 A 
HETATM    6  C3  UNL     1       3.943   0.649   1.677  1.00  0.00     0.012 A 
HETATM    7  C20 UNL     1       4.309  -0.896  -0.063  1.00  0.00    -0.026 A 
HETATM    8  C2  UNL     1       5.014   0.118   2.380  1.00  0.00     0.001 A 
HETATM    9  C1  UNL     1       5.737  -0.931   1.850  1.00  0.00     0.001 A 
HETATM   10  C21 UNL     1       5.374  -1.429   0.627  1.00  0.00     0.012 A 
HETATM   11  C19 UNL     1       3.929  -1.387  -1.293  1.00  0.00     0.015 A 
HETATM   12  C18 UNL     1       2.882  -0.877  -1.987  1.00  0.00     0.037 A 
ENDBRANCH   2   3
ENDBRANCH   1   2
BRANCH   1  13
HETATM   13  C8  UNL     1      -0.756   1.283  -0.869  1.00  0.00     0.031 C 
BRANCH  13  14
HETATM   14  C9  UNL     1      -1.413  -0.041  -1.214  1.00  0.00     0.043 C 
BRANCH  14  15
HETATM   15  C10 UNL     1      -2.352  -0.482  -0.182  1.00  0.00    -0.030 A 
HETATM   16  C11 UNL     1      -2.101  -1.457   0.754  1.00  0.00     0.096 A 
HETATM   17  N1  UNL     1      -3.189  -1.585   1.534  1.00  0.00    -0.365 N 
HETATM   18  C12 UNL     1      -4.131  -0.692   1.094  1.00  0.00     0.042 A 
ATOM     19  H1  UNL     1      -3.295  -2.232   2.315  1.00  0.00     0.165 HD
HETATM   20  C13 UNL     1      -5.404  -0.445   1.562  1.00  0.00     0.030 A 
HETATM   21  C17 UNL     1      -3.637   0.013   0.021  1.00  0.00    -0.002 A 
HETATM   22  C14 UNL     1      -6.167   0.525   0.927  1.00  0.00     0.002 A 
HETATM   23  C15 UNL     1      -5.661   1.225  -0.146  1.00  0.00     0.001 A 
HETATM   24  C16 UNL     1      -4.403   0.976  -0.603  1.00  0.00     0.014 A 
ENDBRANCH  14  15
ENDBRANCH  13  14
ENDBRANCH   1  13
TORSDOF 5
