REMARK  9 active torsions:
REMARK  status: ('A' for Active; 'I' for Inactive)
REMARK    1  A    between atoms: C2_2  and  N1_3 
REMARK    2  A    between atoms: C2_2  and  C3_7 
REMARK    3  A    between atoms: C4_8  and  C5_9 
REMARK    4  A    between atoms: C6_10  and  C7_11 
REMARK    5  A    between atoms: C7_11  and  C8_12 
REMARK    6  A    between atoms: C17_21  and  C18_22 
REMARK    7  A    between atoms: C18_22  and  O1_23 
REMARK    8  A    between atoms: C21_28  and  O3_29 
REMARK    9  A    between atoms: C22_31  and  C23_32 
ROOT
HETATM    1  C8  UNL     1       0.987   1.101  -0.174  1.00  0.00     0.018 C 
HETATM    2  C9  UNL     1      -0.101   1.831  -0.945  1.00  0.00     0.017 C 
HETATM    3  C10 UNL     1      -1.265   1.862   0.005  1.00  0.00     0.026 C 
HETATM    4  C11 UNL     1      -2.441   2.681  -0.481  1.00  0.00    -0.024 C 
HETATM    5  C12 UNL     1      -3.834   2.416  -0.288  1.00  0.00    -0.025 C 
HETATM    6  C13 UNL     1      -4.475   1.128  -0.303  1.00  0.00     0.012 C 
HETATM    7  C14 UNL     1      -5.912   0.855   0.053  1.00  0.00     0.009 C 
HETATM    8  C15 UNL     1      -5.711  -0.708   0.209  1.00  0.00     0.008 C 
HETATM    9  C16 UNL     1      -4.443  -0.868   1.030  1.00  0.00     0.021 C 
HETATM   10  C17 UNL     1      -3.399  -1.817   0.643  1.00  0.00     0.150 C 
HETATM   11  O2  UNL     1      -2.150  -1.684   0.415  1.00  0.00    -0.377 OA
HETATM   12  C19 UNL     1      -1.166  -0.762   0.568  1.00  0.00     0.140 C 
HETATM   13  C20 UNL     1       0.062  -1.268  -0.086  1.00  0.00     0.065 C 
HETATM   14  C21 UNL     1       1.115  -0.338  -0.475  1.00  0.00     0.125 C 
HETATM   15  C22 UNL     1      -1.774   0.489   0.145  1.00  0.00     0.046 C 
HETATM   16  C24 UNL     1      -2.696   0.747   1.273  1.00  0.00     0.025 C 
HETATM   17  C25 UNL     1      -4.079   0.554   1.025  1.00  0.00     0.001 C 
ENDROOT
BRANCH   1  18
HETATM   18  C7  UNL     1       2.296   1.809  -0.525  1.00  0.00     0.034 C 
BRANCH  18  19
HETATM   19  C6  UNL     1       3.445   1.205   0.154  1.00  0.00    -0.026 C 
HETATM   20  C5  UNL     1       4.436   0.699  -0.541  1.00  0.00    -0.004 C 
BRANCH  20  21
HETATM   21  C4  UNL     1       5.591   0.092   0.116  1.00  0.00    -0.002 C 
HETATM   22  C3  UNL     1       6.567  -0.407  -0.607  1.00  0.00     0.005 C 
BRANCH  22  23
HETATM   23  C2  UNL     1       7.754  -1.030   0.031  1.00  0.00     0.202 C 
HETATM   24  C1  UNL     1       8.912  -0.964  -0.934  1.00  0.00     0.044 C 
BRANCH  23  25
HETATM   25  N1  UNL     1       7.442  -2.387   0.432  1.00  0.00    -0.072 N 
ATOM     26  H13 UNL     1       7.277  -2.981  -0.381  1.00  0.00     0.275 HD
ATOM     27  H12 UNL     1       8.264  -2.855   0.813  1.00  0.00     0.275 HD
ATOM     28  H11 UNL     1       6.659  -2.432   1.084  1.00  0.00     0.275 HD
ENDBRANCH  23  25
ENDBRANCH  22  23
ENDBRANCH  20  21
ENDBRANCH  18  19
ENDBRANCH   1  18
BRANCH  14  29
HETATM   29  O3  UNL     1       1.492  -0.473  -1.837  1.00  0.00    -0.395 OA
ATOM     30  H3  UNL     1       1.574  -1.399  -2.031  1.00  0.00     0.210 HD
ENDBRANCH  14  29
BRANCH  15  31
HETATM   31  C23 UNL     1      -2.061   0.226  -1.242  1.00  0.00     0.244 C 
HETATM   32  O4  UNL     1      -2.038  -0.830  -1.887  1.00  0.00    -0.306 OA
ENDBRANCH  15  31
BRANCH  10  33
HETATM   33  C18 UNL     1      -3.471  -3.008   1.652  1.00  0.00     0.196 C 
BRANCH  33  34
HETATM   34  O1  UNL     1      -2.925  -4.143   1.083  1.00  0.00    -0.398 OA
ATOM     35  H1  UNL     1      -2.969  -4.867   1.696  1.00  0.00     0.209 HD
ENDBRANCH  33  34
ENDBRANCH  10  33
TORSDOF 9
