REMARK  8 active torsions:
REMARK  status: ('A' for Active; 'I' for Inactive)
REMARK    1  A    between atoms: N1_2  and  C3_4 
REMARK    2  A    between atoms: C3_4  and  C4_5 
REMARK    3  A    between atoms: C4_5  and  C5_6 
REMARK    4  A    between atoms: C5_6  and  N2_7 
REMARK    5  A    between atoms: N2_7  and  C6_9 
REMARK    6  A    between atoms: C14_17  and  O1_18 
REMARK    7  A    between atoms: C23_28  and  C25_30 
REMARK    8  A    between atoms: C26_32  and  O3_33 
ROOT
HETATM    1  C6  UNL     1       0.580  -0.329  -0.532  1.00  0.00     0.106 C 
HETATM    2  C7  UNL     1      -0.482  -1.209   0.064  1.00  0.00     0.035 C 
HETATM    3  C8  UNL     1      -1.661  -0.518   0.623  1.00  0.00     0.001 C 
HETATM    4  C9  UNL     1      -1.835   0.919   0.169  1.00  0.00     0.001 C 
HETATM    5  C10 UNL     1      -2.299   1.059  -1.229  1.00  0.00     0.006 C 
HETATM    6  C11 UNL     1      -2.918  -0.197  -1.743  1.00  0.00     0.006 C 
HETATM    7  C12 UNL     1      -3.788  -0.799  -0.655  1.00  0.00    -0.004 C 
HETATM    8  C13 UNL     1      -4.676  -1.806  -1.293  1.00  0.00     0.037 C 
HETATM    9  C14 UNL     1      -5.087  -2.977  -0.496  1.00  0.00     0.118 C 
HETATM   10  C15 UNL     1      -4.054  -3.482   0.477  1.00  0.00     0.032 C 
HETATM   11  C16 UNL     1      -2.728  -2.759   0.288  1.00  0.00     0.012 C 
HETATM   12  C17 UNL     1      -2.971  -1.284   0.492  1.00  0.00    -0.036 C 
HETATM   13  C18 UNL     1      -3.788  -1.035   1.772  1.00  0.00     0.016 C 
HETATM   14  C19 UNL     1      -0.592   1.678   0.521  1.00  0.00     0.051 C 
HETATM   15  C20 UNL     1       0.651   1.025   0.020  1.00  0.00    -0.054 C 
HETATM   16  C21 UNL     1       1.754   1.741   0.103  1.00  0.00    -0.020 C 
HETATM   17  C22 UNL     1       1.793   3.112   0.670  1.00  0.00     0.046 C 
HETATM   18  C23 UNL     1       0.510   3.856   0.618  1.00  0.00     0.039 C 
HETATM   19  C24 UNL     1       0.630   5.154  -0.185  1.00  0.00     0.026 C 
HETATM   20  C26 UNL     1      -0.621   3.085  -0.015  1.00  0.00     0.142 C 
ENDROOT
BRANCH   1  21
HETATM   21  N2  UNL     1       1.869  -0.907  -0.613  1.00  0.00    -0.413 N 
ATOM     22  H2  UNL     1       2.314  -1.052  -1.520  1.00  0.00     0.153 HD
BRANCH  21  23
HETATM   23  C5  UNL     1       2.532  -1.281   0.575  1.00  0.00     0.116 C 
BRANCH  23  24
HETATM   24  C4  UNL     1       3.898  -1.853   0.277  1.00  0.00     0.049 C 
BRANCH  24  25
HETATM   25  C3  UNL     1       4.831  -0.920  -0.416  1.00  0.00     0.273 C 
BRANCH  25  26
HETATM   26  N1  UNL     1       6.127  -1.579  -0.648  1.00  0.00     0.080 N 
HETATM   27  C1  UNL     1       6.794  -1.803   0.601  1.00  0.00     0.309 C 
HETATM   28  C2  UNL     1       6.950  -0.793  -1.520  1.00  0.00     0.309 C 
ENDBRANCH  25  26
ENDBRANCH  24  25
ENDBRANCH  23  24
ENDBRANCH  21  23
ENDBRANCH   1  21
BRANCH  20  29
HETATM   29  O3  UNL     1      -1.833   3.674   0.397  1.00  0.00    -0.394 OA
ATOM     30  H3  UNL     1      -1.851   4.562   0.059  1.00  0.00     0.210 HD
ENDBRANCH  20  29
BRANCH  18  31
HETATM   31  C25 UNL     1       0.030   4.264   1.987  1.00  0.00     0.243 C 
HETATM   32  O2  UNL     1      -0.816   5.142   2.042  1.00  0.00    -0.306 OA
ENDBRANCH  18  31
BRANCH   9  33
HETATM   33  O1  UNL     1      -6.335  -2.824   0.143  1.00  0.00    -0.396 OA
ATOM     34  H1  UNL     1      -6.600  -3.578   0.656  1.00  0.00     0.210 HD
ENDBRANCH   9  33
TORSDOF 8
