REMARK  8 active torsions:
REMARK  status: ('A' for Active; 'I' for Inactive)
REMARK    1  A    between atoms: N2_5  and  C4_6 
REMARK    2  A    between atoms: C5_9  and  N4_10 
REMARK    3  A    between atoms: N4_10  and  N5_12 
REMARK    4  A    between atoms: N5_12  and  C6_14 
REMARK    5  A    between atoms: C7_15  and  C8_16 
REMARK    6  A    between atoms: C8_16  and  O1_17 
REMARK    7  A    between atoms: C8_16  and  O2_19 
REMARK    8  A    between atoms: N7_25  and  N8_26 
ROOT
HETATM    1  N4  UNL     1       1.810  -0.688  -0.403  1.00  0.00    -0.129 N 
ATOM      2  H4  UNL     1       2.077  -0.287  -1.302  1.00  0.00     0.205 HD
ENDROOT
BRANCH   1   3
HETATM    3  C5  UNL     1       0.438  -0.880  -0.092  1.00  0.00     0.726 A 
HETATM    4  N3  UNL     1      -0.631  -0.166  -0.472  1.00  0.00    -0.017 N 
HETATM    5  C4  UNL     1      -1.720  -0.724   0.067  1.00  0.00     0.728 A 
ATOM      6  H3  UNL     1      -0.616   0.661  -1.069  1.00  0.00     0.203 HD
HETATM    7  N10 UNL     1      -1.304  -1.779   0.774  1.00  0.00    -0.116 N 
HETATM    8  N9  UNL     1      -0.009  -1.868   0.676  1.00  0.00    -0.116 N 
ATOM      9  H10 UNL     1      -1.904  -2.411   1.304  1.00  0.00     0.206 HD
ATOM     10  H9  UNL     1       0.570  -2.582   1.118  1.00  0.00     0.206 HD
BRANCH   5  11
HETATM   11  N2  UNL     1      -3.079  -0.297  -0.070  1.00  0.00    -0.116 N 
HETATM   12  C3  UNL     1      -3.383   0.863  -0.867  1.00  0.00     0.188 C 
HETATM   13  C2  UNL     1      -4.355   1.725  -0.090  1.00  0.00     0.149 C 
HETATM   14  N1  UNL     1      -5.555   0.946   0.123  1.00  0.00    -0.336 N 
HETATM   15  C1  UNL     1      -6.830   1.533  -0.222  1.00  0.00     0.154 C 
HETATM   16  C10 UNL     1      -5.396  -0.359   0.665  1.00  0.00     0.337 C 
HETATM   17  N11 UNL     1      -4.106  -0.991   0.558  1.00  0.00    -0.235 N 
HETATM   18  O4  UNL     1      -6.383  -0.895   1.208  1.00  0.00    -0.245 OA
ATOM     19  H11 UNL     1      -3.950  -1.926   0.934  1.00  0.00     0.192 HD
ENDBRANCH   5  11
ENDBRANCH   1   3
BRANCH   1  20
HETATM   20  N5  UNL     1       2.718  -1.020   0.449  1.00  0.00    -0.268 N 
ATOM     21  H5  UNL     1       2.431  -1.420   1.343  1.00  0.00     0.189 HD
BRANCH  20  22
HETATM   22  C6  UNL     1       4.091  -0.851   0.191  1.00  0.00     0.174 A 
HETATM   23  C7  UNL     1       4.798   0.310   0.381  1.00  0.00     0.116 A 
HETATM   24  N6  UNL     1       6.089   0.067   0.018  1.00  0.00    -0.303 N 
HETATM   25  C9  UNL     1       6.192  -1.202  -0.386  1.00  0.00     0.347 A 
ATOM     26  H6  UNL     1       6.852   0.743   0.050  1.00  0.00     0.170 HD
HETATM   27  O3  UNL     1       7.248  -1.785  -0.799  1.00  0.00    -0.245 OA
HETATM   28  N7  UNL     1       4.955  -1.757  -0.275  1.00  0.00    -0.192 N 
BRANCH  23  29
HETATM   29  C8  UNL     1       4.355   1.635   0.878  1.00  0.00     0.309 C 
BRANCH  29  30
HETATM   30  O1  UNL     1       5.280   2.117   1.811  1.00  0.00    -0.366 OA
ATOM     31  H1  UNL     1       4.996   2.966   2.129  1.00  0.00     0.213 HD
ENDBRANCH  29  30
BRANCH  29  32
HETATM   32  O2  UNL     1       3.135   1.528   1.576  1.00  0.00    -0.366 OA
ATOM     33  H2  UNL     1       2.851   2.377   1.894  1.00  0.00     0.213 HD
ENDBRANCH  29  32
ENDBRANCH  23  29
BRANCH  28  34
HETATM   34  N8  UNL     1       4.689  -3.075  -0.611  1.00  0.00    -0.333 N 
ATOM     35  H82 UNL     1       3.761  -3.491  -0.528  1.00  0.00     0.177 HD
ATOM     36  H81 UNL     1       5.349  -3.767  -0.967  1.00  0.00     0.177 HD
ENDBRANCH  28  34
ENDBRANCH  20  22
ENDBRANCH   1  20
TORSDOF 8
