REMARK  9 active torsions:
REMARK  status: ('A' for Active; 'I' for Inactive)
REMARK    1  A    between atoms: O1_2  and  C2_3 
REMARK    2  A    between atoms: C2_3  and  C3_5 
REMARK    3  A    between atoms: C4_6  and  N1_7 
REMARK    4  A    between atoms: N2_9  and  C5_11 
REMARK    5  A    between atoms: C6_14  and  N4_15 
REMARK    6  A    between atoms: N6_22  and  C8_23 
REMARK    7  A    between atoms: C8_23  and  O4_24 
REMARK    8  A    between atoms: N7_26  and  N8_27 
REMARK    9  A    between atoms: C9_30  and  N9_31 
ROOT
HETATM    1  N1  UNL     1      -0.422   0.108  -0.450  1.00  0.00    -0.268 N 
ATOM      2  H1  UNL     1      -0.504  -0.786  -0.934  1.00  0.00     0.189 HD
HETATM    3  N2  UNL     1       0.711   0.622  -0.205  1.00  0.00    -0.129 N 
ATOM      4  H2  UNL     1       0.732   1.518   0.282  1.00  0.00     0.205 HD
ENDROOT
BRANCH   1   5
HETATM    5  C4  UNL     1      -1.592   0.835  -0.019  1.00  0.00     0.181 A 
HETATM    6  C3  UNL     1      -2.768   0.172   0.274  1.00  0.00     0.155 A 
HETATM    7  C10 UNL     1      -3.856   0.907   0.681  1.00  0.00     0.280 A 
HETATM    8  N10 UNL     1      -3.777   2.264   0.794  1.00  0.00    -0.154 N 
HETATM    9  O5  UNL     1      -4.971   0.384   0.969  1.00  0.00    -0.266 OA
HETATM   10  C9  UNL     1      -2.632   2.896   0.508  1.00  0.00     0.701 A 
ATOM     11  H10 UNL     1      -4.592   2.798   1.097  1.00  0.00     0.187 HD
HETATM   12  N7  UNL     1      -1.579   2.165   0.112  1.00  0.00    -0.074 N 
BRANCH   6  13
HETATM   13  C2  UNL     1      -2.854  -1.263   0.155  1.00  0.00     0.302 C 
HETATM   14  O2  UNL     1      -3.941  -1.856   0.428  1.00  0.00    -0.259 OA
BRANCH  13  15
HETATM   15  O1  UNL     1      -1.805  -2.064  -0.247  1.00  0.00    -0.322 OA
HETATM   16  C1  UNL     1      -1.963  -3.474  -0.341  1.00  0.00     0.213 C 
ENDBRANCH  13  15
ENDBRANCH   6  13
BRANCH  10  17
HETATM   17  N9  UNL     1      -2.585   4.181   0.624  1.00  0.00    -0.233 N 
ATOM     18  H92 UNL     1      -1.713   4.663   0.406  1.00  0.00     0.174 HD
ATOM     19  H91 UNL     1      -3.386   4.737   0.925  1.00  0.00     0.174 HD
ENDBRANCH  10  17
BRANCH  12  20
HETATM   20  N8  UNL     1      -0.392   2.849  -0.182  1.00  0.00    -0.322 N 
ATOM     21  H82 UNL     1       0.409   2.293  -0.483  1.00  0.00     0.178 HD
ATOM     22  H81 UNL     1      -0.382   3.864  -0.082  1.00  0.00     0.178 HD
ENDBRANCH  12  20
ENDBRANCH   1   5
BRANCH   3  23
HETATM   23  C5  UNL     1       1.937   0.040  -0.559  1.00  0.00     0.719 A 
HETATM   24  N3  UNL     1       2.558   0.260  -1.738  1.00  0.00    -0.021 N 
HETATM   25  C6  UNL     1       3.734  -0.304  -2.066  1.00  0.00     0.694 A 
ATOM     26  H3  UNL     1       2.114   0.884  -2.412  1.00  0.00     0.203 HD
HETATM   27  N5  UNL     1       4.298  -1.122  -1.159  1.00  0.00    -0.140 N 
HETATM   28  C7  UNL     1       3.689  -1.350   0.020  1.00  0.00     0.356 A 
ATOM     29  H5  UNL     1       5.190  -1.571  -1.365  1.00  0.00     0.189 HD
HETATM   30  O3  UNL     1       4.221  -2.122   0.877  1.00  0.00    -0.245 OA
HETATM   31  N6  UNL     1       2.514  -0.788   0.351  1.00  0.00    -0.108 N 
BRANCH  25  32
HETATM   32  N4  UNL     1       4.328  -0.088  -3.205  1.00  0.00    -0.234 N 
ATOM     33  H42 UNL     1       3.900   0.532  -3.893  1.00  0.00     0.174 HD
ATOM     34  H41 UNL     1       5.220  -0.516  -3.454  1.00  0.00     0.174 HD
ENDBRANCH  25  32
BRANCH  31  35
HETATM   35  C8  UNL     1       1.876  -1.048   1.629  1.00  0.00     0.319 C 
BRANCH  35  36
HETATM   36  O4  UNL     1       2.290  -0.117   2.600  1.00  0.00    -0.381 OA
ATOM     37  H4  UNL     1       1.873  -0.287   3.436  1.00  0.00     0.211 HD
ENDBRANCH  35  36
ENDBRANCH  31  35
ENDBRANCH   3  23
TORSDOF 9
