REMARK  8 active torsions:
REMARK  status: ('A' for Active; 'I' for Inactive)
REMARK    1  A    between atoms: C2_2  and  N1_3 
REMARK    2  A    between atoms: C3_4  and  N2_5 
REMARK    3  A    between atoms: C4_10  and  N4_11 
REMARK    4  A    between atoms: N4_11  and  N5_13 
REMARK       I    between atoms: C5_15  and  N7_17 
REMARK    5  A    between atoms: N7_17  and  N8_19 
REMARK    6  A    between atoms: N8_19  and  O1_23 
REMARK    7  A    between atoms: C6_26  and  O2_27 
REMARK    8  A    between atoms: C7_29  and  C8_30 
ROOT
HETATM    1  N1  UNL     1      -1.585  -1.944  -0.305  1.00  0.00    -0.013 N 
HETATM    2  C3  UNL     1      -0.423  -2.578  -0.541  1.00  0.00     0.707 A 
HETATM    3  N3  UNL     1       0.673  -1.849  -0.818  1.00  0.00    -0.019 N 
ATOM      4  H3  UNL     1       1.567  -2.305  -1.001  1.00  0.00     0.203 HD
HETATM    5  C4  UNL     1       0.569  -0.508  -0.849  1.00  0.00     0.734 A 
HETATM    6  N10 UNL     1      -0.605   0.136  -0.610  1.00  0.00     0.048 N 
HETATM    7  C6  UNL     1      -0.692   1.477  -0.645  1.00  0.00     0.201 A 
HETATM    8  C7  UNL     1      -1.869   2.173  -0.408  1.00  0.00     0.130 A 
HETATM    9  C10 UNL     1      -2.973   1.397  -0.127  1.00  0.00     0.277 A 
HETATM   10  O4  UNL     1      -4.084   1.945   0.101  1.00  0.00    -0.266 OA
HETATM   11  N11 UNL     1      -2.847   0.038  -0.100  1.00  0.00    -0.153 N 
ATOM     12  H11 UNL     1      -3.674  -0.521   0.110  1.00  0.00     0.187 HD
HETATM   13  C11 UNL     1      -1.697  -0.596  -0.334  1.00  0.00     0.725 A 
ENDROOT
BRANCH   5  14
HETATM   14  N4  UNL     1       1.582   0.246  -1.108  1.00  0.00    -0.128 N 
ATOM     15  H4  UNL     1       1.426   1.254  -1.113  1.00  0.00     0.205 HD
BRANCH  14  16
HETATM   16  N5  UNL     1       2.856  -0.198  -1.378  1.00  0.00    -0.258 N 
HETATM   17  C5  UNL     1       3.807  -0.320  -0.531  1.00  0.00     0.225 C 
HETATM   18  N6  UNL     1       5.054  -0.793  -0.987  1.00  0.00    -0.060 NA
HETATM   19  N7  UNL     1       3.678  -0.005   0.848  1.00  0.00    -0.231 N 
ATOM     20  H7  UNL     1       2.757  -0.074   1.280  1.00  0.00     0.194 HD
ATOM     21  H5  UNL     1       3.061  -0.454  -2.344  1.00  0.00     0.190 HD
BRANCH  19  22
HETATM   22  N8  UNL     1       4.756   0.394   1.636  1.00  0.00    -0.099 N 
HETATM   23  N9  UNL     1       4.678   1.494   2.268  1.00  0.00    -0.303 N 
ATOM     24  H92 UNL     1       3.821   2.038   2.167  1.00  0.00     0.181 HD
ATOM     25  H91 UNL     1       5.467   1.786   2.845  1.00  0.00     0.181 HD
BRANCH  22  26
HETATM   26  O1  UNL     1       5.911  -0.339   1.772  1.00  0.00    -0.254 OA
ATOM     27  H1  UNL     1       6.646  -0.067   2.309  1.00  0.00     0.248 HD
ENDBRANCH  22  26
ENDBRANCH  19  22
ENDBRANCH  14  16
ENDBRANCH   5  14
BRANCH   2  28
HETATM   28  N2  UNL     1      -0.406  -3.869  -0.493  1.00  0.00    -0.233 N 
ATOM     29  H22 UNL     1      -1.237  -4.422  -0.283  1.00  0.00     0.174 HD
ATOM     30  H21 UNL     1       0.475  -4.350  -0.672  1.00  0.00     0.174 HD
ENDBRANCH   2  28
BRANCH   7  31
HETATM   31  O2  UNL     1       0.458   2.201  -0.934  1.00  0.00    -0.344 OA
ATOM     32  H2  UNL     1       0.397   3.149  -0.959  1.00  0.00     0.219 HD
ENDBRANCH   7  31
BRANCH   1  33
HETATM   33  C2  UNL     1      -2.787  -2.689  -0.003  1.00  0.00     0.162 C 
HETATM   34  C1  UNL     1      -2.969  -2.935   1.462  1.00  0.00     0.028 C 
ENDBRANCH   1  33
BRANCH   8  35
HETATM   35  C8  UNL     1      -1.903   3.629  -0.459  1.00  0.00     0.165 C 
HETATM   36  C9  UNL     1      -3.121   4.419  -0.216  1.00  0.00     0.097 C 
HETATM   37  O3  UNL     1      -0.804   4.225  -0.731  1.00  0.00    -0.292 OA
ENDBRANCH   8  35
TORSDOF 8
