REMARK  10 active torsions:
REMARK  status: ('A' for Active; 'I' for Inactive)
REMARK    1  A    between atoms: C2_2  and  O1_3 
REMARK    2  A    between atoms: C2_2  and  C3_5 
REMARK    3  A    between atoms: C4_7  and  C5_8 
REMARK    4  A    between atoms: C5_8  and  O3_9 
REMARK    5  A    between atoms: N1_11  and  N2_13 
REMARK    6  A    between atoms: N2_13  and  C6_15 
REMARK    7  A    between atoms: C6_15  and  O4_16 
REMARK    8  A    between atoms: C6_15  and  C7_18 
REMARK    9  A    between atoms: C8_23  and  N5_24 
REMARK   10  A    between atoms: N5_24  and  N6_26 
ROOT
HETATM    1  C3  UNL     1      -4.649  -0.556   0.062  1.00  0.00     0.121 A 
HETATM    2  O2  UNL     1      -3.552   0.170   0.035  1.00  0.00    -0.288 OA
HETATM    3  C4  UNL     1      -2.529  -0.593   0.274  1.00  0.00     0.202 A 
HETATM    4  N8  UNL     1      -2.939  -1.836   0.463  1.00  0.00    -0.322 N 
ATOM      5  H8  UNL     1      -2.349  -2.642   0.668  1.00  0.00     0.169 HD
HETATM    6  C10 UNL     1      -4.291  -1.840   0.333  1.00  0.00     0.148 A 
HETATM    7  C11 UNL     1      -5.200  -2.939   0.449  1.00  0.00     0.120 C 
HETATM    8  N9  UNL     1      -5.934  -3.838   0.537  1.00  0.00    -0.190 NA
ENDROOT
BRANCH   1   9
HETATM    9  C2  UNL     1      -6.006  -0.033  -0.165  1.00  0.00     0.174 C 
HETATM   10  C1  UNL     1      -6.049   1.419  -0.514  1.00  0.00     0.046 C 
BRANCH   9  11
HETATM   11  O1  UNL     1      -6.679  -0.774  -1.139  1.00  0.00    -0.389 OA
ATOM     12  H1  UNL     1      -6.652  -1.697  -0.917  1.00  0.00     0.210 HD
ENDBRANCH   9  11
ENDBRANCH   1   9
BRANCH   3  13
HETATM   13  C5  UNL     1      -1.131  -0.092   0.318  1.00  0.00     0.207 C 
HETATM   14  N1  UNL     1      -0.206  -0.930   0.552  1.00  0.00    -0.278 N 
ATOM     15  H1  UNL     1      -0.498  -1.897   0.693  1.00  0.00     0.189 HD
BRANCH  13  16
HETATM   16  O3  UNL     1      -0.854   1.245   0.111  1.00  0.00    -0.342 OA
ATOM     17  H3  UNL     1       0.040   1.565   0.139  1.00  0.00     0.219 HD
ENDBRANCH  13  16
BRANCH  14  18
HETATM   18  N2  UNL     1       1.137  -0.684   0.636  1.00  0.00    -0.300 N 
ATOM     19  H2  UNL     1       1.703  -1.275   1.244  1.00  0.00     0.183 HD
BRANCH  18  20
HETATM   20  C6  UNL     1       1.779   0.359  -0.087  1.00  0.00     0.290 C 
BRANCH  20  21
HETATM   21  O4  UNL     1       1.479   0.207  -1.451  1.00  0.00    -0.370 OA
ATOM     22  H4  UNL     1       1.908   0.904  -1.934  1.00  0.00     0.212 HD
ENDBRANCH  20  21
BRANCH  20  23
HETATM   23  C7  UNL     1       3.271   0.268   0.000  1.00  0.00     0.144 A 
HETATM   24  N3  UNL     1       4.007   1.358   0.259  1.00  0.00    -0.281 N 
HETATM   25  N4  UNL     1       5.325   1.328   0.351  1.00  0.00    -0.130 N 
ATOM     26  H3  UNL     1       3.529   2.249   0.391  1.00  0.00     0.187 HD
HETATM   27  C8  UNL     1       6.001   0.165   0.184  1.00  0.00     0.713 A 
ATOM     28  H4  UNL     1       5.838   2.187   0.549  1.00  0.00     0.205 HD
HETATM   29  N7  UNL     1       5.319  -0.957  -0.076  1.00  0.00    -0.152 N 
HETATM   30  C9  UNL     1       3.964  -0.911  -0.168  1.00  0.00     0.288 A 
ATOM     31  H7  UNL     1       5.813  -1.840  -0.204  1.00  0.00     0.188 HD
HETATM   32  O5  UNL     1       3.316  -1.955  -0.412  1.00  0.00    -0.265 OA
BRANCH  27  33
HETATM   33  N5  UNL     1       7.299   0.126   0.275  1.00  0.00    -0.137 N 
ATOM     34  H5  UNL     1       7.801  -0.753   0.148  1.00  0.00     0.205 HD
BRANCH  33  35
HETATM   35  N6  UNL     1       7.990   1.298   0.547  1.00  0.00    -0.331 N 
ATOM     36  H62 UNL     1       7.474   2.169   0.671  1.00  0.00     0.177 HD
ATOM     37  H61 UNL     1       9.007   1.267   0.618  1.00  0.00     0.177 HD
ENDBRANCH  33  35
ENDBRANCH  27  33
ENDBRANCH  20  23
ENDBRANCH  18  20
ENDBRANCH  14  18
ENDBRANCH   3  13
TORSDOF 10
