REMARK  6 active torsions:
REMARK  status: ('A' for Active; 'I' for Inactive)
REMARK    1  A    between atoms: N2_4  and  N3_6 
REMARK    2  A    between atoms: N3_6  and  S1_8 
REMARK    3  A    between atoms: S1_8  and  C3_9 
REMARK    4  A    between atoms: N6_15  and  N7_16 
REMARK    5  A    between atoms: C6_24  and  N11_25 
REMARK    6  A    between atoms: C7_30  and  N13_31 
ROOT
HETATM    1  N7  UNL     1       1.168   0.931   0.008  1.00  0.00    -0.117 N 
HETATM    2  N8  UNL     1       1.320   0.871  -1.316  1.00  0.00    -0.215 N 
ATOM      3  H8  UNL     1       0.553   1.171  -1.918  1.00  0.00     0.210 HD
HETATM    4  N9  UNL     1       2.440   0.432  -1.870  1.00  0.00    -0.268 N 
ATOM      5  H9  UNL     1       2.521   0.399  -2.886  1.00  0.00     0.190 HD
HETATM    6  C5  UNL     1       3.475   0.028  -1.103  1.00  0.00     0.156 A 
HETATM    7  N10 UNL     1       4.625  -0.423  -1.593  1.00  0.00    -0.174 N 
ATOM      8  H10 UNL     1       4.725  -0.463  -2.607  1.00  0.00     0.186 HD
HETATM    9  C6  UNL     1       5.665  -0.830  -0.845  1.00  0.00     0.679 A 
HETATM   10  N12 UNL     1       5.530  -0.777   0.492  1.00  0.00    -0.176 N 
ATOM     11  H12 UNL     1       6.297  -1.078   1.093  1.00  0.00     0.186 HD
HETATM   12  C7  UNL     1       4.385  -0.328   1.038  1.00  0.00     0.134 A 
HETATM   13  C8  UNL     1       3.315   0.090   0.270  1.00  0.00     0.125 A 
HETATM   14  C9  UNL     1       2.135   0.552   0.846  1.00  0.00     0.302 A 
HETATM   15  O1  UNL     1       2.046   0.588   2.092  1.00  0.00    -0.263 OA
ENDROOT
BRANCH   1  16
HETATM   16  N6  UNL     1      -0.043   1.405   0.552  1.00  0.00    -0.147 N 
HETATM   17  C3  UNL     1      -1.268   0.943   0.221  1.00  0.00     0.153 A 
HETATM   18  C4  UNL     1      -2.210   1.642   0.953  1.00  0.00     0.151 A 
HETATM   19  N4  UNL     1      -1.507   2.508   1.706  1.00  0.00    -0.293 N 
HETATM   20  N5  UNL     1      -0.223   2.346   1.448  1.00  0.00    -0.219 N 
ATOM     21  H4  UNL     1      -1.901   3.178   2.366  1.00  0.00     0.187 HD
ATOM     22  H5  UNL     1       0.528   2.880   1.886  1.00  0.00     0.210 HD
BRANCH  17  23
HETATM   23  S1  UNL     1      -1.632  -0.341  -0.952  1.00  0.00     0.025 SA
BRANCH  23  24
HETATM   24  N3  UNL     1      -3.350  -0.610  -1.062  1.00  0.00    -0.267 N 
ATOM     25  H3  UNL     1      -3.837  -0.509  -1.953  1.00  0.00     0.195 HD
BRANCH  24  26
HETATM   26  N2  UNL     1      -4.046  -0.966   0.094  1.00  0.00    -0.285 N 
HETATM   27  C2  UNL     1      -5.308  -0.738   0.168  1.00  0.00     0.103 C 
HETATM   28  C1  UNL     1      -6.045  -0.098  -0.967  1.00  0.00     0.086 C 
HETATM   29  N1  UNL     1      -6.061  -1.080   1.319  1.00  0.00    -0.087 NA
ATOM     30  H2  UNL     1      -3.556  -1.404   0.874  1.00  0.00     0.188 HD
ENDBRANCH  24  26
ENDBRANCH  23  24
ENDBRANCH  17  23
ENDBRANCH   1  16
BRANCH  12  31
HETATM   31  N13 UNL     1       4.235  -0.270   2.337  1.00  0.00    -0.384 N 
ATOM     32 2H13 UNL     1       5.025  -0.579   2.904  1.00  0.00     0.157 HD
ATOM     33 1H13 UNL     1       3.367   0.070   2.751  1.00  0.00     0.157 HD
ENDBRANCH  12  31
BRANCH   9  34
HETATM   34  N11 UNL     1       6.779  -1.267  -1.365  1.00  0.00    -0.234 N 
ATOM     35 2H11 UNL     1       6.881  -1.307  -2.379  1.00  0.00     0.174 HD
ATOM     36 1H11 UNL     1       7.568  -1.576  -0.797  1.00  0.00     0.174 HD
ENDBRANCH   9  34
TORSDOF 6
