REMARK  11 active torsions:
REMARK  status: ('A' for Active; 'I' for Inactive)
REMARK    1  A    between atoms: C2_2  and  O1_3 
REMARK    2  A    between atoms: O1_3  and  C3_4 
REMARK    3  A    between atoms: C3_4  and  C4_6 
REMARK    4  A    between atoms: C8_15  and  C9_16 
REMARK    5  A    between atoms: C9_16  and  N3_17 
REMARK       I    between atoms: N3_17  and  C10_19 
REMARK    6  A    between atoms: C10_19  and  C11_21 
REMARK    7  A    between atoms: C18_28  and  C19_29 
REMARK    8  A    between atoms: C20_31  and  C21_32 
REMARK    9  A    between atoms: C21_32  and  O5_33 
REMARK   10  A    between atoms: O5_33  and  C22_34 
REMARK   11  A    between atoms: C22_34  and  C23_36 
ROOT
HETATM    1  N3  UNL     1       0.815  -0.640  -0.112  1.00  0.00    -0.359 N 
ATOM      2  H3  UNL     1       0.611  -0.068   0.708  1.00  0.00     0.162 HD
HETATM    3  C10 UNL     1       0.184  -0.292  -1.326  1.00  0.00     0.222 C 
HETATM    4  O4  UNL     1       0.418  -0.981  -2.343  1.00  0.00    -0.273 OA
ENDROOT
BRANCH   3   5
HETATM    5  C11 UNL     1      -0.754   0.858  -1.473  1.00  0.00     0.083 C 
HETATM    6  C12 UNL     1      -1.209   1.023  -2.863  1.00  0.00     0.015 C 
HETATM    7  C13 UNL     1      -2.626   0.795  -3.207  1.00  0.00     0.006 C 
HETATM    8  C14 UNL     1      -3.643   1.433  -2.354  1.00  0.00    -0.009 C 
HETATM    9  C15 UNL     1      -3.019   2.600  -1.621  1.00  0.00     0.010 C 
HETATM   10  C17 UNL     1      -3.956   0.820  -1.050  1.00  0.00    -0.000 C 
HETATM   11  C16 UNL     1      -2.906   1.697  -0.433  1.00  0.00    -0.004 C 
HETATM   12  C24 UNL     1      -1.721   0.830  -0.374  1.00  0.00     0.010 C 
HETATM   13  C20 UNL     1      -2.338  -0.526  -0.043  1.00  0.00     0.021 C 
HETATM   14  C18 UNL     1      -3.605  -0.611  -0.817  1.00  0.00     0.011 C 
BRANCH  13  15
HETATM   15  C21 UNL     1      -2.494  -0.685   1.452  1.00  0.00     0.184 C 
BRANCH  15  16
HETATM   16  O5  UNL     1      -3.343   0.307   1.990  1.00  0.00    -0.320 OA
BRANCH  16  17
HETATM   17  C22 UNL     1      -3.652   0.389   3.328  1.00  0.00     0.272 C 
HETATM   18  O6  UNL     1      -3.124  -0.491   4.078  1.00  0.00    -0.264 OA
BRANCH  17  19
HETATM   19  C23 UNL     1      -4.517   1.372   3.980  1.00  0.00     0.225 C 
HETATM   20 CL2  UNL     1      -5.225   2.559   2.881  1.00  0.00    -0.120 Cl
ENDBRANCH  17  19
ENDBRANCH  16  17
ENDBRANCH  15  16
ENDBRANCH  13  15
BRANCH  14  21
HETATM   21  C19 UNL     1      -4.731  -1.351  -0.146  1.00  0.00     0.120 C 
HETATM   22 CL1  UNL     1      -4.368  -3.059   0.139  1.00  0.00    -0.130 Cl
ENDBRANCH  14  21
ENDBRANCH   3   5
BRANCH   1  23
HETATM   23  C9  UNL     1       1.711  -1.726   0.051  1.00  0.00     0.149 C 
BRANCH  23  24
HETATM   24  C8  UNL     1       2.952  -1.682  -0.778  1.00  0.00     0.123 C 
HETATM   25  C4  UNL     1       3.834  -0.489  -0.555  1.00  0.00     0.155 C 
HETATM   26  C5  UNL     1       5.074  -0.628  -1.370  1.00  0.00     0.003 C 
HETATM   27  C6  UNL     1       5.767   0.630  -1.836  1.00  0.00     0.064 C 
HETATM   28  N1  UNL     1       5.543  -1.774  -1.671  1.00  0.00    -0.316 N 
HETATM   29  C7  UNL     1       4.957  -2.994  -1.282  1.00  0.00     0.320 C 
ATOM     30  H1  UNL     1       6.396  -1.810  -2.229  1.00  0.00     0.170 HD
HETATM   31  O3  UNL     1       5.409  -4.111  -1.566  1.00  0.00    -0.247 OA
HETATM   32  N2  UNL     1       3.757  -2.893  -0.505  1.00  0.00    -0.335 N 
ATOM     33  H2  UNL     1       3.481  -3.597   0.179  1.00  0.00     0.164 HD
BRANCH  25  34
HETATM   34  C3  UNL     1       4.186  -0.257   0.871  1.00  0.00     0.270 C 
HETATM   35  O2  UNL     1       5.392  -0.317   1.212  1.00  0.00    -0.264 OA
BRANCH  34  36
HETATM   36  O1  UNL     1       3.242   0.022   1.831  1.00  0.00    -0.321 OA
BRANCH  36  37
HETATM   37  C2  UNL     1       3.584   0.241   3.184  1.00  0.00     0.174 C 
HETATM   38  C1  UNL     1       4.525   1.424   3.334  1.00  0.00     0.034 C 
ENDBRANCH  36  37
ENDBRANCH  34  36
ENDBRANCH  25  34
ENDBRANCH  23  24
ENDBRANCH   1  23
TORSDOF 11
