REMARK  8 active torsions:
REMARK  status: ('A' for Active; 'I' for Inactive)
REMARK    1  A    between atoms: O1_2  and  C2_3 
REMARK    2  A    between atoms: C8_10  and  O2_11 
REMARK    3  A    between atoms: C10_15  and  C11_16 
REMARK    4  A    between atoms: C15_22  and  C16_23 
REMARK    5  A    between atoms: C16_23  and  N1_24 
REMARK    6  A    between atoms: N1_24  and  S1_26 
REMARK    7  A    between atoms: S1_26  and  C17_29 
REMARK    8  A    between atoms: C17_29  and  C18_30 
ROOT
HETATM    1  C2  UNL     1      -4.582  -1.158   0.923  1.00  0.00     0.167 C 
HETATM    2  C3  UNL     1      -3.248  -1.885   0.753  1.00  0.00     0.080 C 
HETATM    3  C4  UNL     1      -2.544  -1.205  -0.414  1.00  0.00     0.122 C 
HETATM    4  F1  UNL     1      -1.983  -2.106  -1.282  1.00  0.00    -0.242 F 
HETATM    5  C5  UNL     1      -1.515  -0.279   0.079  1.00  0.00     0.062 C 
HETATM    6  C6  UNL     1      -1.852   0.521   1.305  1.00  0.00     0.132 C 
HETATM    7  C7  UNL     1      -2.755   1.617   0.907  1.00  0.00     0.067 C 
HETATM    8  C8  UNL     1      -4.151   1.293   0.588  1.00  0.00     0.163 C 
HETATM    9  C9  UNL     1      -4.518   0.031  -0.018  1.00  0.00     0.165 C 
HETATM   10  F2  UNL     1      -5.832   0.151  -0.481  1.00  0.00    -0.237 F 
HETATM   11  C10 UNL     1      -3.723  -0.575  -1.089  1.00  0.00     0.110 C 
HETATM   12  O3  UNL     1      -0.592   1.078   1.585  1.00  0.00    -0.379 OA
HETATM   13  C14 UNL     1       0.353   0.102   1.369  1.00  0.00     0.132 C 
HETATM   14  C15 UNL     1       1.350   0.539   0.363  1.00  0.00     0.033 C 
HETATM   15  C22 UNL     1       1.912  -0.779  -0.118  1.00  0.00     0.009 C 
HETATM   16  C23 UNL     1       0.615  -1.526  -0.420  1.00  0.00     0.008 C 
HETATM   17  C24 UNL     1      -0.332  -1.050   0.636  1.00  0.00     0.025 C 
ENDROOT
BRANCH  14  18
HETATM   18  C16 UNL     1       2.365   1.529   0.740  1.00  0.00     0.139 C 
BRANCH  18  19
HETATM   19  N1  UNL     1       3.716   1.086   0.580  1.00  0.00    -0.319 N 
ATOM     20  H1  UNL     1       4.218   0.475   1.225  1.00  0.00     0.172 HD
BRANCH  19  21
HETATM   21  S1  UNL     1       4.363   1.751  -0.881  1.00  0.00     0.227 S 
HETATM   22  O4  UNL     1       3.117   1.984  -1.776  1.00  0.00    -0.206 OA
HETATM   23  O5  UNL     1       4.986   3.078  -0.757  1.00  0.00    -0.206 OA
BRANCH  21  24
HETATM   24  C17 UNL     1       5.323   0.582  -1.789  1.00  0.00     0.176 C 
BRANCH  24  25
HETATM   25  C18 UNL     1       6.570   0.142  -1.097  1.00  0.00     0.013 C 
HETATM   26  C19 UNL     1       7.364  -0.788  -2.001  1.00  0.00     0.020 C 
HETATM   27  C20 UNL     1       6.499  -0.404   0.281  1.00  0.00     0.179 C 
HETATM   28  O6  UNL     1       7.006   0.790   0.764  1.00  0.00    -0.389 OA
HETATM   29  C21 UNL     1       7.448   1.183  -0.485  1.00  0.00     0.179 C 
ENDBRANCH  24  25
ENDBRANCH  21  24
ENDBRANCH  19  21
ENDBRANCH  18  19
ENDBRANCH  14  18
BRANCH   8  30
HETATM   30  O2  UNL     1      -4.897   1.455   1.775  1.00  0.00    -0.392 OA
ATOM     31  H2  UNL     1      -5.800   1.245   1.569  1.00  0.00     0.210 HD
ENDBRANCH   8  30
BRANCH  11  32
HETATM   32  C11 UNL     1      -3.532   0.069  -2.379  1.00  0.00     0.106 C 
HETATM   33  C12 UNL     1      -4.187  -0.693  -3.537  1.00  0.00     0.052 C 
HETATM   34  C13 UNL     1      -4.001   1.477  -2.549  1.00  0.00     0.052 C 
HETATM   35  F3  UNL     1      -2.188   0.084  -2.804  1.00  0.00    -0.243 F 
ENDBRANCH  11  32
BRANCH   1  36
HETATM   36  O1  UNL     1      -4.856  -0.859   2.224  1.00  0.00    -0.387 OA
HETATM   37  C1  UNL     1      -5.118  -2.024   2.907  1.00  0.00     0.202 C 
ENDBRANCH   1  36
TORSDOF 8
