REMARK  8 active torsions:
REMARK  status: ('A' for Active; 'I' for Inactive)
REMARK    1  A    between atoms: C2_2  and  C3_3 
REMARK    2  A    between atoms: N2_8  and  C6_9 
REMARK    3  A    between atoms: C6_9  and  C7_10 
REMARK    4  A    between atoms: C7_10  and  O2_11 
REMARK    5  A    between atoms: O2_11  and  C8_12 
REMARK    6  A    between atoms: C11_16  and  N3_17 
REMARK    7  A    between atoms: N3_17  and  C12_19 
REMARK    8  A    between atoms: C13_22  and  N5_23 
ROOT
HETATM    1  C8  UNL     1      -0.845   0.918  -1.445  1.00  0.00     0.097 A 
HETATM    2  C9  UNL     1      -0.320  -0.285  -1.837  1.00  0.00     0.070 A 
HETATM    3 CL1  UNL     1      -1.052  -1.319  -3.035  1.00  0.00    -0.081 Cl
HETATM    4  C10 UNL     1       0.879  -0.750  -1.281  1.00  0.00     0.057 A 
HETATM    5  C11 UNL     1       1.557  -0.013  -0.332  1.00  0.00     0.057 A 
HETATM    6  C21 UNL     1       1.026   1.186   0.053  1.00  0.00    -0.022 A 
HETATM    7  C22 UNL     1      -0.154   1.638  -0.497  1.00  0.00    -0.015 A 
HETATM    8  C23 UNL     1      -0.660   2.941  -0.033  1.00  0.00     0.042 C 
HETATM    9  C24 UNL     1       0.418   3.989   0.046  1.00  0.00     0.005 C 
HETATM   10  C25 UNL     1       1.698   3.498   0.641  1.00  0.00     0.005 C 
HETATM   11  C26 UNL     1       1.659   2.055   1.059  1.00  0.00     0.041 C 
ENDROOT
BRANCH   5  12
HETATM   12  N3  UNL     1       2.778  -0.462   0.241  1.00  0.00    -0.191 N 
ATOM     13  H3  UNL     1       2.762  -1.077   1.055  1.00  0.00     0.184 HD
BRANCH  12  14
HETATM   14  C12 UNL     1       3.925  -0.089  -0.273  1.00  0.00     0.684 A 
HETATM   15  N4  UNL     1       5.082  -0.508   0.263  1.00  0.00    -0.175 N 
HETATM   16  C13 UNL     1       6.296  -0.137  -0.242  1.00  0.00     0.142 A 
ATOM     17  H4  UNL     1       5.054  -1.124   1.075  1.00  0.00     0.186 HD
HETATM   18  C19 UNL     1       6.335   0.692  -1.335  1.00  0.00     0.094 A 
HETATM   19 CL2  UNL     1       7.866   1.179  -2.011  1.00  0.00    -0.079 Cl
HETATM   20  C20 UNL     1       5.131   1.132  -1.898  1.00  0.00     0.133 A 
HETATM   21  N6  UNL     1       3.983   0.720  -1.340  1.00  0.00    -0.200 N 
ATOM     22  H6  UNL     1       3.106   1.040  -1.750  1.00  0.00     0.183 HD
BRANCH  16  23
HETATM   23  N5  UNL     1       7.504  -0.589   0.349  1.00  0.00    -0.360 N 
HETATM   24  C14 UNL     1       8.559   0.189   1.015  1.00  0.00     0.129 C 
HETATM   25  C15 UNL     1       9.476  -0.932   1.395  1.00  0.00     0.007 C 
HETATM   26  C16 UNL     1       9.480  -1.745   0.096  1.00  0.00     0.031 C 
HETATM   27  C18 UNL     1       8.494  -1.983   1.895  1.00  0.00     0.031 C 
HETATM   28  C17 UNL     1       8.005  -1.937   0.444  1.00  0.00     0.086 C 
ENDBRANCH  16  23
ENDBRANCH  12  14
ENDBRANCH   5  12
BRANCH   1  29
HETATM   29  O2  UNL     1      -2.001   1.417  -1.946  1.00  0.00    -0.347 OA
BRANCH  29  30
HETATM   30  C7  UNL     1      -3.305   1.293  -1.501  1.00  0.00     0.206 C 
BRANCH  30  31
HETATM   31  C6  UNL     1      -3.885  -0.074  -1.437  1.00  0.00     0.299 C 
BRANCH  31  32
HETATM   32  N2  UNL     1      -5.247   0.027  -0.930  1.00  0.00     0.090 N 
HETATM   33  C5  UNL     1      -5.346   0.411   0.438  1.00  0.00     0.273 C 
HETATM   34  C4  UNL     1      -6.819   0.275   0.845  1.00  0.00     0.048 C 
HETATM   35  C2  UNL     1      -7.250  -1.152   0.874  1.00  0.00     0.038 C 
HETATM   36  C1  UNL     1      -6.934  -1.741   2.245  1.00  0.00     0.025 C 
HETATM   37  C28 UNL     1      -6.468  -1.938  -0.135  1.00  0.00     0.048 C 
HETATM   38  C27 UNL     1      -5.981  -1.137  -1.301  1.00  0.00     0.273 C 
BRANCH  35  39
HETATM   39  C3  UNL     1      -8.709  -1.182   0.607  1.00  0.00     0.239 C 
HETATM   40  N1  UNL     1      -9.366  -2.439   0.608  1.00  0.00    -0.061 NA
HETATM   41  O1  UNL     1      -9.400  -0.156   0.379  1.00  0.00    -0.276 OA
ENDBRANCH  35  39
ENDBRANCH  31  32
ENDBRANCH  30  31
ENDBRANCH  29  30
ENDBRANCH   1  29
TORSDOF 8
