REMARK  8 active torsions:
REMARK  status: ('A' for Active; 'I' for Inactive)
REMARK    1  A    between atoms: N2_5  and  C4_6 
REMARK    2  A    between atoms: C4_6  and  C5_7 
REMARK    3  A    between atoms: C5_7  and  C6_8 
REMARK    4  A    between atoms: C9_12  and  N3_13 
REMARK       I    between atoms: N3_13  and  C10_15 
REMARK    5  A    between atoms: C10_15  and  C11_17 
REMARK    6  A    between atoms: N6_23  and  C13_24 
REMARK    7  A    between atoms: C13_24  and  C14_25 
REMARK    8  A    between atoms: C14_25  and  C15_26 
ROOT
HETATM    1  C6  UNL     1       2.225  -0.497   0.038  1.00  0.00    -0.054 A 
HETATM    2  C7  UNL     1       1.365  -0.044   1.017  1.00  0.00     0.028 A 
HETATM    3  C8  UNL     1       0.070  -0.495   1.137  1.00  0.00     0.039 A 
HETATM    4 BR1  UNL     1      -1.075   0.166   2.510  1.00  0.00    -0.049 Br
HETATM    5  C9  UNL     1      -0.422  -1.437   0.262  1.00  0.00     0.070 A 
HETATM    6  C19 UNL     1       0.417  -1.909  -0.729  1.00  0.00     0.039 A 
HETATM    7 BR2  UNL     1      -0.276  -3.208  -1.927  1.00  0.00    -0.049 Br
HETATM    8  C20 UNL     1       1.731  -1.441  -0.838  1.00  0.00     0.028 A 
ENDROOT
BRANCH   5   9
HETATM    9  N3  UNL     1      -1.752  -1.877   0.407  1.00  0.00    -0.318 N 
HETATM   10  C10 UNL     1      -2.857  -1.258  -0.243  1.00  0.00     0.291 C 
HETATM   11  O1  UNL     1      -2.632  -0.279  -0.976  1.00  0.00    -0.264 OA
ATOM     12  H3  UNL     1      -1.933  -2.681   1.009  1.00  0.00     0.169 HD
BRANCH  10  13
HETATM   13  C11 UNL     1      -4.199  -1.777  -0.038  1.00  0.00     0.192 A 
HETATM   14  N4  UNL     1      -4.532  -2.860   0.726  1.00  0.00    -0.332 N 
HETATM   15  C12 UNL     1      -5.855  -3.063   0.689  1.00  0.00     0.199 A 
ATOM     16  H4  UNL     1      -3.868  -3.431   1.249  1.00  0.00     0.168 HD
HETATM   17  N5  UNL     1      -6.359  -2.109  -0.096  1.00  0.00    -0.292 N 
HETATM   18  N6  UNL     1      -5.351  -1.325  -0.539  1.00  0.00    -0.271 N 
ATOM     19  H5  UNL     1      -7.346  -1.990  -0.325  1.00  0.00     0.188 HD
BRANCH  18  20
HETATM   20  C13 UNL     1      -5.519  -0.205  -1.428  1.00  0.00     0.152 C 
BRANCH  20  21
HETATM   21  C14 UNL     1      -5.719   1.129  -0.829  1.00  0.00     0.030 C 
BRANCH  21  22
HETATM   22  C15 UNL     1      -6.921   1.314   0.042  1.00  0.00    -0.050 C 
HETATM   23  C16 UNL     1      -8.216   1.014  -0.692  1.00  0.00     0.014 C 
HETATM   24  C17 UNL     1      -6.871   0.710   1.394  1.00  0.00     0.014 C 
HETATM   25  C18 UNL     1      -6.995   2.860   0.288  1.00  0.00     0.014 C 
ENDBRANCH  21  22
ENDBRANCH  20  21
ENDBRANCH  18  20
ENDBRANCH  10  13
ENDBRANCH   5   9
BRANCH   1  26
HETATM   26  C5  UNL     1       3.616  -0.018  -0.097  1.00  0.00     0.069 C 
BRANCH  26  27
HETATM   27  C4  UNL     1       4.589  -0.862   0.697  1.00  0.00     0.277 C 
BRANCH  27  28
HETATM   28  N2  UNL     1       5.937  -0.420   0.588  1.00  0.00     0.092 N 
HETATM   29  C3  UNL     1       6.517  -0.593  -0.705  1.00  0.00     0.302 C 
HETATM   30  C2  UNL     1       7.880   0.053  -0.771  1.00  0.00     0.302 C 
HETATM   31  N1  UNL     1       8.492   0.245   0.510  1.00  0.00     0.087 N 
HETATM   32  C1  UNL     1       9.683   1.064   0.291  1.00  0.00     0.310 C 
HETATM   33  C22 UNL     1       7.663   0.967   1.450  1.00  0.00     0.302 C 
HETATM   34  C21 UNL     1       6.199   0.902   1.069  1.00  0.00     0.302 C 
ENDBRANCH  27  28
ENDBRANCH  26  27
ENDBRANCH   1  26
TORSDOF 8
