REMARK  7 active torsions:
REMARK  status: ('A' for Active; 'I' for Inactive)
REMARK    1  A    between atoms: N1_1  and  N2_4 
REMARK       I    between atoms: N2_4  and  C1_6 
REMARK    2  A    between atoms: C1_6  and  C2_8 
REMARK    3  A    between atoms: N5_13  and  C3_14 
REMARK    4  A    between atoms: C3_14  and  C4_15 
REMARK    5  A    between atoms: C4_15  and  N6_16 
REMARK    6  A    between atoms: N6_16  and  C5_17 
REMARK    7  A    between atoms: N6_16  and  C9_32 
ROOT
HETATM    1  N6  UNL     1      -1.347  -0.724   0.104  1.00  0.00    -0.164 N 
ENDROOT
BRANCH   1   2
HETATM    2  C4  UNL     1       0.022  -0.373   0.347  1.00  0.00     0.171 C 
BRANCH   2   3
HETATM    3  C3  UNL     1       0.431   0.979  -0.163  1.00  0.00     0.173 C 
BRANCH   3   4
HETATM    4  N5  UNL     1       1.849   1.124   0.199  1.00  0.00    -0.261 N 
HETATM    5  N4  UNL     1       2.339   1.670   1.273  1.00  0.00    -0.238 N 
HETATM    6  N3  UNL     1       3.668   1.630   1.263  1.00  0.00    -0.278 N 
ATOM      7  H4  UNL     1       1.779   2.075   2.023  1.00  0.00     0.208 HD
HETATM    8  C2  UNL     1       4.079   1.031   0.137  1.00  0.00     0.161 A 
ATOM      9  H3  UNL     1       4.277   1.996   1.995  1.00  0.00     0.189 HD
HETATM   10  C13 UNL     1       2.920   0.707  -0.545  1.00  0.00     0.168 A 
HETATM   11  N16 UNL     1       2.846   0.071  -1.787  1.00  0.00    -0.078 NA
BRANCH   8  12
HETATM   12  C1  UNL     1       5.461   0.736  -0.295  1.00  0.00     0.291 C 
HETATM   13  N2  UNL     1       6.561   1.146   0.518  1.00  0.00    -0.271 N 
ATOM     14  H2  UNL     1       6.409   1.649   1.392  1.00  0.00     0.189 HD
HETATM   15  O1  UNL     1       5.654   0.131  -1.362  1.00  0.00    -0.264 OA
BRANCH  13  16
HETATM   16  N1  UNL     1       7.857   0.837   0.079  1.00  0.00    -0.342 N 
ATOM     17  H12 UNL     1       7.993   0.334  -0.798  1.00  0.00     0.176 HD
ATOM     18  H11 UNL     1       8.643   1.130   0.660  1.00  0.00     0.176 HD
ENDBRANCH  13  16
ENDBRANCH   8  12
ENDBRANCH   3   4
ENDBRANCH   2   3
ENDBRANCH   1   2
BRANCH   1  19
HETATM   19  C5  UNL     1      -2.381   0.076   0.685  1.00  0.00     0.688 A 
HETATM   20  N7  UNL     1      -3.217  -0.226   1.699  1.00  0.00    -0.172 N 
HETATM   21  C6  UNL     1      -4.025   0.812   1.948  1.00  0.00     0.167 A 
ATOM     22  H7  UNL     1      -3.232  -1.113   2.202  1.00  0.00     0.186 HD
HETATM   23  N8  UNL     1      -5.012   1.068   2.809  1.00  0.00    -0.269 N 
HETATM   24  C8  UNL     1      -3.676   1.807   1.048  1.00  0.00     0.137 A 
HETATM   25  N9  UNL     1      -5.683   2.221   2.858  1.00  0.00    -0.240 N 
ATOM     26  H8  UNL     1      -5.270   0.337   3.471  1.00  0.00     0.190 HD
HETATM   27  N10 UNL     1      -5.376   3.193   2.019  1.00  0.00    -0.271 N 
ATOM     28  H9  UNL     1      -6.430   2.350   3.541  1.00  0.00     0.208 HD
HETATM   29  C7  UNL     1      -4.385   2.988   1.126  1.00  0.00     0.163 A 
ATOM     30  H10 UNL     1      -5.878   4.081   2.045  1.00  0.00     0.190 HD
HETATM   31  N11 UNL     1      -3.994   4.011   0.192  1.00  0.00    -0.079 NA
HETATM   32  N12 UNL     1      -2.671   1.322   0.294  1.00  0.00    -0.184 N 
ATOM     33  H12 UNL     1      -2.203   1.827  -0.459  1.00  0.00     0.184 HD
ENDBRANCH   1  19
BRANCH   1  34
HETATM   34  C9  UNL     1      -1.790  -1.825  -0.660  1.00  0.00     0.154 A 
HETATM   35  N13 UNL     1      -2.633  -1.760  -1.713  1.00  0.00    -0.336 N 
HETATM   36  C10 UNL     1      -3.023  -2.856  -2.380  1.00  0.00     0.185 A 
ATOM     37  H13 UNL     1      -2.984  -0.849  -2.010  1.00  0.00     0.168 HD
HETATM   38  N14 UNL     1      -2.605  -4.089  -2.050  1.00  0.00    -0.318 N 
HETATM   39  C11 UNL     1      -1.763  -4.227  -1.012  1.00  0.00     0.274 A 
ATOM     40  H14 UNL     1      -2.920  -4.904  -2.576  1.00  0.00     0.169 HD
HETATM   41  O2  UNL     1      -1.367  -5.380  -0.699  1.00  0.00    -0.266 OA
HETATM   42  C12 UNL     1      -1.353  -3.083  -0.313  1.00  0.00     0.158 A 
HETATM   43  N15 UNL     1      -0.456  -3.237   0.773  1.00  0.00    -0.092 NA
ENDBRANCH   1  34
TORSDOF 7
