REMARK  11 active torsions:
REMARK  status: ('A' for Active; 'I' for Inactive)
REMARK    1  A    between atoms: C2_2  and  N1_3 
REMARK    2  A    between atoms: C2_2  and  C4_10 
REMARK    3  A    between atoms: N1_3  and  N2_5 
REMARK       I    between atoms: N2_5  and  C3_7 
REMARK    4  A    between atoms: C5_13  and  N6_14 
REMARK    5  A    between atoms: C6_19  and  C7_20 
REMARK    6  A    between atoms: C7_20  and  N9_21 
REMARK    7  A    between atoms: C9_25  and  O1_26 
REMARK    8  A    between atoms: C10_30  and  N12_31 
REMARK    9  A    between atoms: C12_40  and  O3_41 
REMARK   10  A    between atoms: O3_41  and  N15_42 
REMARK   11  A    between atoms: N15_42  and  N16_43 
ROOT
HETATM    1  N6  UNL     1       0.502   1.703   0.762  1.00  0.00    -0.139 N 
HETATM    2  N7  UNL     1       0.848   2.228   1.919  1.00  0.00    -0.216 N 
ATOM      3  H7  UNL     1       0.239   2.284   2.736  1.00  0.00     0.210 HD
HETATM    4  N8  UNL     1       2.091   2.672   1.877  1.00  0.00    -0.270 N 
ATOM      5  H8  UNL     1       2.600   3.121   2.639  1.00  0.00     0.190 HD
HETATM    6  C6  UNL     1       2.555   2.425   0.658  1.00  0.00     0.133 A 
HETATM    7  N14 UNL     1       1.547   1.816  -0.032  1.00  0.00    -0.260 N 
ATOM      8  H14 UNL     1       1.595   1.501  -1.001  1.00  0.00     0.190 HD
ENDROOT
BRANCH   1   9
HETATM    9  C5  UNL     1      -0.752   1.111   0.388  1.00  0.00     0.270 A 
HETATM   10  N5  UNL     1      -1.929   1.380   0.963  1.00  0.00    -0.313 N 
HETATM   11  C4  UNL     1      -2.925   0.636   0.359  1.00  0.00     0.120 A 
ATOM     12  H5  UNL     1      -2.070   2.036   1.732  1.00  0.00     0.170 HD
HETATM   13  C12 UNL     1      -2.291  -0.081  -0.597  1.00  0.00     0.240 A 
HETATM   14  O2  UNL     1      -0.997   0.241  -0.533  1.00  0.00    -0.249 OA
BRANCH  11  15
HETATM   15  C2  UNL     1      -4.299   0.653   0.787  1.00  0.00     0.053 C 
HETATM   16  C1  UNL     1      -4.699   1.685   1.866  1.00  0.00     0.072 C 
BRANCH  15  17
HETATM   17  N1  UNL     1      -5.239  -0.037   0.402  1.00  0.00    -0.301 N 
ATOM     18  H1  UNL     1      -6.076   0.254   0.907  1.00  0.00     0.186 HD
BRANCH  17  19
HETATM   19  N2  UNL     1      -5.569  -1.006  -0.414  1.00  0.00    -0.276 N 
HETATM   20  C3  UNL     1      -5.971  -2.208  -0.165  1.00  0.00     0.215 C 
HETATM   21  N3  UNL     1      -6.255  -3.035  -1.301  1.00  0.00    -0.065 NA
HETATM   22  N4  UNL     1      -6.126  -2.695   1.167  1.00  0.00    -0.065 NA
ATOM     23  H2  UNL     1      -5.497  -0.775  -1.405  1.00  0.00     0.189 HD
ENDBRANCH  17  19
ENDBRANCH  15  17
ENDBRANCH  11  15
BRANCH  13  24
HETATM   24  O3  UNL     1      -2.806  -1.007  -1.532  1.00  0.00    -0.196 OA
BRANCH  24  25
HETATM   25  N15 UNL     1      -3.065  -0.572  -2.833  1.00  0.00     0.021 NA
BRANCH  25  26
HETATM   26  N16 UNL     1      -3.298   0.823  -2.831  1.00  0.00    -0.322 N 
ATOM     27 2H16 UNL     1      -3.277   1.409  -1.996  1.00  0.00     0.174 HD
ATOM     28 1H16 UNL     1      -3.487   1.141  -3.782  1.00  0.00     0.174 HD
ENDBRANCH  25  26
ENDBRANCH  24  25
ENDBRANCH  13  24
ENDBRANCH   1   9
BRANCH   6  29
HETATM   29  C7  UNL     1       3.909   2.746   0.134  1.00  0.00     0.230 C 
BRANCH  29  30
HETATM   30  N9  UNL     1       4.778   1.601   0.400  1.00  0.00    -0.266 N 
HETATM   31  N10 UNL     1       5.557   1.251   1.392  1.00  0.00    -0.289 N 
HETATM   32  C8  UNL     1       5.923   0.125   0.784  1.00  0.00     0.146 A 
ATOM     33  H10 UNL     1       5.793   1.678   2.288  1.00  0.00     0.187 HD
HETATM   34  C9  UNL     1       6.650  -1.053   0.761  1.00  0.00     0.187 A 
HETATM   35  C11 UNL     1       5.103   0.498  -0.256  1.00  0.00     0.171 A 
HETATM   36  N11 UNL     1       6.537  -1.838  -0.318  1.00  0.00    -0.168 N 
HETATM   37  C10 UNL     1       5.733  -1.472  -1.338  1.00  0.00     0.679 A 
ATOM     38  H11 UNL     1       7.059  -2.713  -0.369  1.00  0.00     0.186 HD
HETATM   39  N13 UNL     1       5.019  -0.325  -1.324  1.00  0.00    -0.173 N 
ATOM     40  H13 UNL     1       4.421  -0.082  -2.114  1.00  0.00     0.186 HD
BRANCH  34  41
HETATM   41  O1  UNL     1       7.453  -1.367   1.838  1.00  0.00    -0.344 OA
ATOM     42  H1  UNL     1       7.952  -2.175   1.822  1.00  0.00     0.219 HD
ENDBRANCH  34  41
BRANCH  37  43
HETATM   43  N12 UNL     1       5.623  -2.237  -2.389  1.00  0.00    -0.234 N 
ATOM     44 2H12 UNL     1       6.162  -3.103  -2.400  1.00  0.00     0.174 HD
ATOM     45 1H12 UNL     1       5.015  -1.960  -3.160  1.00  0.00     0.174 HD
ENDBRANCH  37  43
ENDBRANCH  29  30
ENDBRANCH   6  29
TORSDOF 11
