REMARK  13 active torsions:
REMARK  status: ('A' for Active; 'I' for Inactive)
REMARK    1  A    between atoms: C2_2  and  C12_26 
REMARK    2  A    between atoms: N1_3  and  O1_5 
REMARK    3  A    between atoms: O1_5  and  C3_6 
REMARK    4  A    between atoms: C3_6  and  C4_8 
REMARK    5  A    between atoms: C4_8  and  O3_9 
REMARK    6  A    between atoms: C4_8  and  C5_11 
REMARK    7  A    between atoms: C6_13  and  C7_14 
REMARK    8  A    between atoms: C7_14  and  O5_16 
REMARK    9  A    between atoms: C9_18  and  O6_19 
REMARK   10  A    between atoms: C11_23  and  O8_24 
REMARK   11  A    between atoms: C13_27  and  O9_28 
REMARK   12  A    between atoms: N3_34  and  N4_35 
REMARK   13  A    between atoms: C15_38  and  N5_39 
ROOT
HETATM    1  O1  UNL     1       0.538  -0.788   1.146  1.00  0.00    -0.193 OA
ENDROOT
BRANCH   1   2
HETATM    2  N1  UNL     1       1.857  -1.101   0.878  1.00  0.00    -0.261 N 
HETATM    3  C2  UNL     1       2.767  -0.208   0.725  1.00  0.00     0.047 C 
HETATM    4  C1  UNL     1       2.367   1.197   0.843  1.00  0.00     0.071 C 
ATOM      5  H1  UNL     1       2.119  -2.084   0.798  1.00  0.00     0.194 HD
BRANCH   3   6
HETATM    6  C12 UNL     1       4.125  -0.616   0.446  1.00  0.00     0.084 A 
HETATM    7  C13 UNL     1       4.440  -1.986   0.347  1.00  0.00     0.160 A 
HETATM    8  N2  UNL     1       5.670  -2.443   0.093  1.00  0.00    -0.287 N 
HETATM    9  C14 UNL     1       6.674  -1.548  -0.079  1.00  0.00     0.348 A 
ATOM     10  H2  UNL     1       5.850  -3.445   0.030  1.00  0.00     0.172 HD
HETATM   11  O10 UNL     1       7.828  -2.029  -0.318  1.00  0.00    -0.245 OA
HETATM   12  N3  UNL     1       6.437  -0.237   0.004  1.00  0.00    -0.195 N 
HETATM   13  C15 UNL     1       5.198   0.230   0.260  1.00  0.00     0.141 A 
BRANCH   7  14
HETATM   14  O9  UNL     1       3.359  -2.873   0.533  1.00  0.00    -0.345 OA
ATOM     15  H9  UNL     1       3.571  -3.797   0.466  1.00  0.00     0.219 HD
ENDBRANCH   7  14
BRANCH  12  16
HETATM   16  N4  UNL     1       7.471   0.669  -0.173  1.00  0.00    -0.333 N 
ATOM     17  H42 UNL     1       8.408   0.316  -0.367  1.00  0.00     0.177 HD
ATOM     18  H41 UNL     1       7.290   1.671  -0.110  1.00  0.00     0.177 HD
ENDBRANCH  12  16
BRANCH  13  19
HETATM   19  N5  UNL     1       4.981   1.516   0.339  1.00  0.00    -0.383 N 
ATOM     20  H52 UNL     1       4.044   1.869   0.533  1.00  0.00     0.157 HD
ATOM     21  H51 UNL     1       5.775   2.142   0.201  1.00  0.00     0.157 HD
ENDBRANCH  13  19
ENDBRANCH   3   6
ENDBRANCH   1   2
BRANCH   1  22
HETATM   22  C3  UNL     1      -0.398  -0.618   0.081  1.00  0.00     0.341 C 
HETATM   23  O2  UNL     1       0.103  -0.780  -1.030  1.00  0.00    -0.255 OA
BRANCH  22  24
HETATM   24  C4  UNL     1      -1.739  -0.296   0.427  1.00  0.00     0.180 C 
BRANCH  24  25
HETATM   25  O3  UNL     1      -1.968  -0.191   1.726  1.00  0.00    -0.353 OA
ATOM     26  H3  UNL     1      -2.864   0.024   1.957  1.00  0.00     0.218 HD
ENDBRANCH  24  25
BRANCH  24  27
HETATM   27  C5  UNL     1      -2.920  -0.058  -0.365  1.00  0.00     0.152 A 
HETATM   28  O4  UNL     1      -4.076   0.234   0.270  1.00  0.00    -0.303 OA
HETATM   29  C6  UNL     1      -5.188   0.464  -0.348  1.00  0.00     0.119 A 
HETATM   30  C9  UNL     1      -5.311   0.436  -1.714  1.00  0.00     0.151 A 
HETATM   31  C10 UNL     1      -4.186   0.149  -2.436  1.00  0.00     0.243 A 
HETATM   32  O7  UNL     1      -4.211   0.104  -3.687  1.00  0.00    -0.282 OA
HETATM   33  C11 UNL     1      -2.999  -0.095  -1.724  1.00  0.00     0.156 A 
BRANCH  29  34
HETATM   34  C7  UNL     1      -6.391   0.774   0.485  1.00  0.00     0.174 C 
HETATM   35  C8  UNL     1      -6.066   0.678   1.961  1.00  0.00     0.046 C 
BRANCH  34  36
HETATM   36  O5  UNL     1      -6.785   2.102   0.246  1.00  0.00    -0.389 OA
ATOM     37  H5  UNL     1      -7.549   2.299   0.775  1.00  0.00     0.210 HD
ENDBRANCH  34  36
ENDBRANCH  29  34
BRANCH  30  38
HETATM   38  O6  UNL     1      -6.543   0.693  -2.344  1.00  0.00    -0.355 OA
ATOM     39  H6  UNL     1      -6.628   0.674  -3.290  1.00  0.00     0.218 HD
ENDBRANCH  30  38
BRANCH  33  40
HETATM   40  O8  UNL     1      -1.904  -0.377  -2.489  1.00  0.00    -0.355 OA
ATOM     41  H8  UNL     1      -1.959  -0.403  -3.437  1.00  0.00     0.218 HD
ENDBRANCH  33  40
ENDBRANCH  24  27
ENDBRANCH  22  24
ENDBRANCH   1  22
TORSDOF 13
