REMARK  7 active torsions:
REMARK  status: ('A' for Active; 'I' for Inactive)
REMARK    1  A    between atoms: C3_5  and  N2_6 
REMARK    2  A    between atoms: N2_6  and  C4_8 
REMARK    3  A    between atoms: C4_8  and  C5_9 
REMARK    4  A    between atoms: C4_8  and  C6_12 
REMARK    5  A    between atoms: C5_9  and  O2_10 
REMARK    6  A    between atoms: C7_13  and  O3_14 
REMARK       I    between atoms: N5_22  and  C9_23 
REMARK    7  A    between atoms: N6_27  and  C11_28 
ROOT
HETATM    1  C1  UNL     1       2.929  -2.768   0.952  1.00  0.00     0.182 C 
HETATM    2  N1  UNL     1       1.966  -1.694   0.774  1.00  0.00    -0.252 N 
HETATM    3  C2  UNL     1       0.658  -1.930   0.651  1.00  0.00     0.290 A 
HETATM    4  O1  UNL     1       0.048  -3.016   0.697  1.00  0.00    -0.264 OA
HETATM    5  C3  UNL     1       0.036  -0.674   0.443  1.00  0.00     0.117 A 
HETATM    6  C10 UNL     1       1.077   0.201   0.470  1.00  0.00     0.153 A 
HETATM    7  N6  UNL     1       2.248  -0.401   0.668  1.00  0.00    -0.240 N 
ENDROOT
BRANCH   5   8
HETATM    8  N2  UNL     1      -1.335  -0.538   0.287  1.00  0.00    -0.372 N 
ATOM      9  H2  UNL     1      -1.901  -1.336   0.575  1.00  0.00     0.160 HD
BRANCH   8  10
HETATM   10  C4  UNL     1      -2.051   0.586  -0.229  1.00  0.00     0.161 C 
BRANCH  10  11
HETATM   11  C5  UNL     1      -1.834   0.642  -1.687  1.00  0.00     0.195 C 
BRANCH  11  12
HETATM   12  O2  UNL     1      -0.475   0.856  -2.018  1.00  0.00    -0.398 OA
ATOM     13  H2  UNL     1      -0.335   0.892  -2.957  1.00  0.00     0.209 HD
ENDBRANCH  11  12
ENDBRANCH  10  11
BRANCH  10  14
HETATM   14  C6  UNL     1      -3.463   0.581   0.277  1.00  0.00     0.116 A 
HETATM   15  C7  UNL     1      -3.836   1.307   1.436  1.00  0.00     0.181 A 
HETATM   16  N3  UNL     1      -5.119   1.068   1.652  1.00  0.00    -0.168 N 
HETATM   17  C8  UNL     1      -5.624   0.251   0.743  1.00  0.00     0.690 A 
ATOM     18  H3  UNL     1      -5.653   1.465   2.425  1.00  0.00     0.186 HD
HETATM   19  N4  UNL     1      -6.830  -0.222   0.626  1.00  0.00    -0.234 N 
HETATM   20  N5  UNL     1      -4.563  -0.054  -0.117  1.00  0.00    -0.086 N 
ATOM     21  H42 UNL     1      -7.603   0.000   1.253  1.00  0.00     0.174 HD
ATOM     22  H41 UNL     1      -7.220  -0.852  -0.075  1.00  0.00     0.174 HD
HETATM   23  C9  UNL     1      -4.717  -1.047  -1.101  1.00  0.00     0.309 C 
HETATM   24  O4  UNL     1      -3.846  -1.636  -1.725  1.00  0.00    -0.629 OA
HETATM   25  O5  UNL     1      -6.029  -1.450  -1.447  1.00  0.00    -0.629 OA
BRANCH  15  26
HETATM   26  O3  UNL     1      -2.979   2.107   2.168  1.00  0.00    -0.344 OA
ATOM     27  H3  UNL     1      -3.229   2.594   2.945  1.00  0.00     0.219 HD
ENDBRANCH  15  26
ENDBRANCH  10  14
ENDBRANCH   8  10
ENDBRANCH   5   8
BRANCH   7  28
HETATM   28  C11 UNL     1       3.551   0.162   0.747  1.00  0.00     0.189 A 
HETATM   29  N7  UNL     1       4.186   0.410   1.900  1.00  0.00    -0.266 N 
HETATM   30  N8  UNL     1       5.436   0.900   1.926  1.00  0.00    -0.127 N 
ATOM     31  H7  UNL     1       3.708   0.222   2.781  1.00  0.00     0.189 HD
HETATM   32  C12 UNL     1       6.110   1.166   0.794  1.00  0.00     0.737 A 
ATOM     33  H8  UNL     1       5.884   1.074   2.825  1.00  0.00     0.206 HD
HETATM   34  N9  UNL     1       7.332   1.645   0.463  1.00  0.00    -0.113 N 
HETATM   35  N12 UNL     1       5.493   0.924  -0.387  1.00  0.00    -0.048 N 
HETATM   36  N10 UNL     1       7.456   1.697  -0.848  1.00  0.00    -0.213 N 
ATOM     37  H9  UNL     1       8.051   1.925   1.130  1.00  0.00     0.207 HD
HETATM   38  N11 UNL     1       6.329   1.251  -1.341  1.00  0.00    -0.205 N 
ATOM     39  H10 UNL     1       8.268   2.020  -1.373  1.00  0.00     0.210 HD
ATOM     40  H11 UNL     1       6.128   1.169  -2.338  1.00  0.00     0.211 HD
HETATM   41  C13 UNL     1       4.215   0.422  -0.415  1.00  0.00     0.188 A 
HETATM   42  N13 UNL     1       3.647   0.205  -1.522  1.00  0.00    -0.380 N 
ATOM     43 2H13 UNL     1       2.698  -0.168  -1.543  1.00  0.00     0.157 HD
ATOM     44 1H13 UNL     1       4.144   0.400  -2.391  1.00  0.00     0.157 HD
ENDBRANCH   7  28
TORSDOF 7
