REMARK  10 active torsions:
REMARK  status: ('A' for Active; 'I' for Inactive)
REMARK    1  A    between atoms: C1_4  and  C2_5 
REMARK    2  A    between atoms: C2_5  and  S1_6 
REMARK    3  A    between atoms: S1_6  and  C3_7 
REMARK    4  A    between atoms: C4_8  and  N2_9 
REMARK    5  A    between atoms: N5_14  and  N6_15 
REMARK    6  A    between atoms: N6_15  and  N7_16 
REMARK    7  A    between atoms: N7_16  and  N8_17 
REMARK    8  A    between atoms: N7_16  and  N9_20 
REMARK    9  A    between atoms: N10_25  and  O2_26 
REMARK   10  A    between atoms: C6_29  and  S3_30 
ROOT
HETATM    1  N2  UNL     1       0.508  -0.641   0.318  1.00  0.00    -0.142 N 
HETATM    2  N3  UNL     1       0.815  -0.177   1.513  1.00  0.00    -0.202 N 
ATOM      3  H3  UNL     1       0.196  -0.361   2.302  1.00  0.00     0.212 HD
HETATM    4  N4  UNL     1       1.943   0.540   1.700  1.00  0.00    -0.202 N 
ATOM      5  H4  UNL     1       2.164   0.890   2.632  1.00  0.00     0.212 HD
HETATM    6  N5  UNL     1       2.766   0.797   0.699  1.00  0.00    -0.108 N 
HETATM    7  C5  UNL     1       2.440   0.318  -0.515  1.00  0.00     0.403 A 
HETATM    8  O1  UNL     1       3.219   0.557  -1.474  1.00  0.00    -0.239 OA
HETATM    9  N10 UNL     1       1.300  -0.408  -0.705  1.00  0.00    -0.080 N 
ENDROOT
BRANCH   1  10
HETATM   10  C4  UNL     1      -0.712  -1.398   0.193  1.00  0.00     0.140 A 
HETATM   11  C3  UNL     1      -1.809  -1.080  -0.577  1.00  0.00     0.065 A 
HETATM   12  C7  UNL     1      -2.848  -1.945  -0.539  1.00  0.00     0.097 A 
HETATM   13  C6  UNL     1      -2.710  -3.044   0.254  1.00  0.00     0.149 A 
HETATM   14  N11 UNL     1      -4.077  -1.735  -1.306  1.00  0.00    -0.099 NA
HETATM   15  S2  UNL     1      -1.163  -2.867   0.929  1.00  0.00    -0.051 SA
BRANCH  11  16
HETATM   16  S1  UNL     1      -1.838   0.446  -1.595  1.00  0.00    -0.120 SA
BRANCH  16  17
HETATM   17  C2  UNL     1      -2.513   1.807  -0.596  1.00  0.00     0.123 C 
BRANCH  17  18
HETATM   18  C1  UNL     1      -2.525   3.014  -1.430  1.00  0.00     0.063 C 
HETATM   19  N1  UNL     1      -2.977   4.158  -1.013  1.00  0.00    -0.410 N 
ATOM     20  H12 UNL     1      -3.337   4.202  -0.059  1.00  0.00     0.155 HD
ATOM     21  H11 UNL     1      -2.985   4.997  -1.593  1.00  0.00     0.155 HD
ENDBRANCH  17  18
ENDBRANCH  16  17
ENDBRANCH  11  16
BRANCH  13  22
HETATM   22  S3  UNL     1      -3.856  -4.361   0.534  1.00  0.00     0.146 S 
HETATM   23  O3  UNL     1      -4.614  -4.700  -0.692  1.00  0.00    -0.591 OA
HETATM   24  O4  UNL     1      -3.037  -5.562   0.922  1.00  0.00    -0.591 OA
HETATM   25  O5  UNL     1      -4.828  -3.968   1.832  1.00  0.00    -0.591 OA
ENDBRANCH  13  22
ENDBRANCH   1  10
BRANCH   9  26
HETATM   26  O2  UNL     1       1.004  -0.878  -1.958  1.00  0.00    -0.262 OA
ATOM     27  H2  UNL     1       1.576  -0.710  -2.697  1.00  0.00     0.247 HD
ENDBRANCH   9  26
BRANCH   6  28
HETATM   28  N6  UNL     1       3.935   1.538   0.882  1.00  0.00     0.021 NA
BRANCH  28  29
HETATM   29  N7  UNL     1       4.665   1.703  -0.271  1.00  0.00    -0.036 NA
BRANCH  29  30
HETATM   30  N8  UNL     1       5.897   1.043  -0.124  1.00  0.00    -0.329 NA
ATOM     31  H82 UNL     1       5.782   0.061   0.125  1.00  0.00     0.174 HD
ATOM     32  H81 UNL     1       6.439   1.165  -0.980  1.00  0.00     0.174 HD
ENDBRANCH  29  30
BRANCH  29  33
HETATM   33  N9  UNL     1       4.821   3.039  -0.610  1.00  0.00    -0.329 NA
ATOM     34  H92 UNL     1       3.927   3.518  -0.717  1.00  0.00     0.174 HD
ATOM     35  H91 UNL     1       5.363   3.161  -1.466  1.00  0.00     0.174 HD
ENDBRANCH  29  33
ENDBRANCH  28  29
ENDBRANCH   6  28
TORSDOF 10
