REMARK  14 active torsions:
REMARK  status: ('A' for Active; 'I' for Inactive)
REMARK    1  A    between atoms: O1_2  and  C2_3 
REMARK    2  A    between atoms: C2_3  and  C3_5 
REMARK    3  A    between atoms: C4_7  and  C5_8 
REMARK    4  A    between atoms: C5_8  and  N2_12 
REMARK    5  A    between atoms: N2_12  and  C6_14 
REMARK    6  A    between atoms: N5_18  and  C7_19 
REMARK    7  A    between atoms: C7_19  and  O3_21 
REMARK    8  A    between atoms: C9_23  and  C10_24 
REMARK    9  A    between atoms: C10_24  and  O4_25 
REMARK   10  A    between atoms: C10_24  and  N6_27 
REMARK   11  A    between atoms: N6_27  and  O5_29 
REMARK   12  A    between atoms: O5_29  and  N7_30 
REMARK   13  A    between atoms: C11_35  and  C12_36 
REMARK       I    between atoms: C12_36  and  N9_38 
REMARK   14  A    between atoms: N9_38  and  N10_40 
ROOT
HETATM    1  C5  UNL     1       0.207  -0.710  -0.219  1.00  0.00     0.134 C 
HETATM    2  N1  UNL     1      -0.176  -1.785   0.351  1.00  0.00    -0.383 N 
ATOM      3  H11 UNL     1      -1.180  -1.959   0.393  1.00  0.00     0.157 HD
ATOM      4  H12 UNL     1       0.467  -2.463   0.759  1.00  0.00     0.157 HD
ENDROOT
BRANCH   1   5
HETATM    5  C4  UNL     1       1.658  -0.458  -0.279  1.00  0.00     0.119 A 
HETATM    6  S1  UNL     1       2.481   0.858  -0.948  1.00  0.00    -0.060 SA
HETATM    7  C3  UNL     1       4.122   0.356  -0.584  1.00  0.00     0.114 A 
HETATM    8  C11 UNL     1       3.889  -0.824   0.044  1.00  0.00     0.126 A 
HETATM    9  N8  UNL     1       2.636  -1.196   0.177  1.00  0.00    -0.342 N 
ATOM     10  H8  UNL     1       2.422  -2.077   0.645  1.00  0.00     0.167 HD
BRANCH   7  11
HETATM   11  C2  UNL     1       5.314   1.119  -0.933  1.00  0.00     0.302 C 
HETATM   12  O2  UNL     1       6.446   0.776  -0.694  1.00  0.00    -0.259 OA
BRANCH  11  13
HETATM   13  O1  UNL     1       5.167   2.355  -1.602  1.00  0.00    -0.322 OA
HETATM   14  C1  UNL     1       6.326   3.114  -1.948  1.00  0.00     0.213 C 
ENDBRANCH  11  13
ENDBRANCH   7  11
BRANCH   8  15
HETATM   15  C12 UNL     1       4.950  -1.720   0.597  1.00  0.00     0.287 C 
HETATM   16  O6  UNL     1       6.119  -1.404   0.550  1.00  0.00    -0.264 OA
HETATM   17  N9  UNL     1       4.594  -2.970   1.194  1.00  0.00    -0.271 N 
ATOM     18  H9  UNL     1       3.617  -3.260   1.246  1.00  0.00     0.189 HD
BRANCH  17  19
HETATM   19  N10 UNL     1       5.594  -3.778   1.699  1.00  0.00    -0.342 N 
ATOM     20 2H10 UNL     1       6.566  -3.473   1.639  1.00  0.00     0.176 HD
ATOM     21 1H10 UNL     1       5.340  -4.669   2.125  1.00  0.00     0.176 HD
ENDBRANCH  17  19
ENDBRANCH   8  15
ENDBRANCH   1   5
BRANCH   1  22
HETATM   22  N2  UNL     1      -0.681   0.227  -0.783  1.00  0.00    -0.327 N 
ATOM     23  H2  UNL     1      -0.682   0.371  -1.793  1.00  0.00     0.169 HD
BRANCH  22  24
HETATM   24  C6  UNL     1      -1.578   0.978   0.031  1.00  0.00     0.128 A 
HETATM   25  N3  UNL     1      -1.629   2.245   0.268  1.00  0.00    -0.271 N 
HETATM   26  N4  UNL     1      -2.679   2.537   1.130  1.00  0.00    -0.020 NA
ATOM     27  H3  UNL     1      -0.988   2.936  -0.123  1.00  0.00     0.185 HD
HETATM   28  N5  UNL     1      -3.345   1.336   1.403  1.00  0.00    -0.264 N 
HETATM   29  C9  UNL     1      -2.684   0.280   0.788  1.00  0.00     0.247 A 
BRANCH  28  30
HETATM   30  C7  UNL     1      -4.731   1.446   1.480  1.00  0.00     0.231 C 
HETATM   31  C8  UNL     1      -5.429   1.609   0.153  1.00  0.00     0.064 C 
BRANCH  30  32
HETATM   32  O3  UNL     1      -5.374   0.443   2.200  1.00  0.00    -0.376 OA
ATOM     33  H3  UNL     1      -6.320   0.518   2.253  1.00  0.00     0.212 HD
ENDBRANCH  30  32
ENDBRANCH  28  30
BRANCH  29  34
HETATM   34  C10 UNL     1      -3.382  -0.576  -0.160  1.00  0.00     0.170 C 
BRANCH  34  35
HETATM   35  O4  UNL     1      -4.340  -1.465   0.307  1.00  0.00    -0.346 OA
ATOM     36  H4  UNL     1      -4.796  -2.024  -0.312  1.00  0.00     0.219 HD
ENDBRANCH  34  35
BRANCH  34  37
HETATM   37  N6  UNL     1      -3.154  -0.548  -1.416  1.00  0.00    -0.222 N 
ATOM     38  H6  UNL     1      -2.451   0.103  -1.766  1.00  0.00     0.198 HD
BRANCH  37  39
HETATM   39  O5  UNL     1      -3.803  -1.346  -2.316  1.00  0.00    -0.162 OA
BRANCH  39  40
HETATM   40  N7  UNL     1      -4.989  -1.929  -2.040  1.00  0.00    -0.286 N 
ATOM     41  H72 UNL     1      -5.402  -1.758  -1.123  1.00  0.00     0.186 HD
ATOM     42  H71 UNL     1      -5.473  -2.525  -2.712  1.00  0.00     0.186 HD
ENDBRANCH  39  40
ENDBRANCH  37  39
ENDBRANCH  34  37
ENDBRANCH  29  34
ENDBRANCH  22  24
ENDBRANCH   1  22
TORSDOF 14
