REMARK  18 active torsions:
REMARK  status: ('A' for Active; 'I' for Inactive)
REMARK    1  A    between atoms: N1_1  and  C1_4 
REMARK    2  A    between atoms: C4_12  and  N4_13 
REMARK    3  A    between atoms: C7_16  and  N5_17 
REMARK    4  A    between atoms: C9_22  and  C10_23 
REMARK    5  A    between atoms: C10_23  and  N6_24 
REMARK    6  A    between atoms: N7_28  and  C11_29 
REMARK    7  A    between atoms: C11_29  and  C12_30 
REMARK    8  A    between atoms: C12_30  and  C13_31 
REMARK    9  A    between atoms: C13_31  and  N8_32 
REMARK   10  A    between atoms: C14_35  and  C15_36 
REMARK   11  A    between atoms: C16_37  and  O2_38 
REMARK   12  A    between atoms: C16_37  and  C17_40 
REMARK   13  A    between atoms: C17_40  and  O4_42 
REMARK   14  A    between atoms: O4_42  and  C18_43 
REMARK   15  A    between atoms: C20_48  and  C21_49 
REMARK   16  A    between atoms: C21_49  and  S1_50 
REMARK   17  A    between atoms: S1_50  and  C22_51 
REMARK   18  A    between atoms: C25_60  and  O5_61 
ROOT
HETATM    1  C12 UNL     1      -2.300   2.248   0.774  1.00  0.00     0.043 C 
ENDROOT
BRANCH   1   2
HETATM    2  C11 UNL     1      -3.751   2.152   1.195  1.00  0.00     0.151 C 
BRANCH   2   3
HETATM    3  N7  UNL     1      -4.559   1.492   0.199  1.00  0.00    -0.165 N 
HETATM    4  C4  UNL     1      -4.876   0.200   0.043  1.00  0.00     0.685 A 
HETATM    5  N3  UNL     1      -5.693   0.149  -1.077  1.00  0.00    -0.182 N 
HETATM    6  C3  UNL     1      -5.871   1.349  -1.589  1.00  0.00     0.162 A 
ATOM      7  H3  UNL     1      -6.102  -0.706  -1.454  1.00  0.00     0.184 HD
HETATM    8  C2  UNL     1      -6.591   1.795  -2.689  1.00  0.00     0.290 A 
HETATM    9  C26 UNL     1      -5.164   2.207  -0.800  1.00  0.00     0.172 A 
HETATM   10  N2  UNL     1      -6.560   3.115  -2.940  1.00  0.00    -0.154 N 
HETATM   11  O1  UNL     1      -7.243   0.990  -3.415  1.00  0.00    -0.265 OA
HETATM   12  C1  UNL     1      -5.877   3.988  -2.186  1.00  0.00     0.680 A 
ATOM     13  H2  UNL     1      -7.081   3.469  -3.742  1.00  0.00     0.187 HD
HETATM   14  N15 UNL     1      -5.193   3.520  -1.132  1.00  0.00    -0.174 N 
ATOM     15  H15 UNL     1      -4.672   4.181  -0.555  1.00  0.00     0.186 HD
BRANCH   4  16
HETATM   16  N4  UNL     1      -4.533  -0.928   0.804  1.00  0.00    -0.211 N 
HETATM   17  C5  UNL     1      -3.575  -1.067   1.815  1.00  0.00     0.144 C 
HETATM   18  C6  UNL     1      -2.391  -1.837   1.225  1.00  0.00     0.053 C 
HETATM   19  C7  UNL     1      -2.927  -2.964   0.419  1.00  0.00     0.187 C 
HETATM   20  C8  UNL     1      -4.361  -3.310   0.701  1.00  0.00     0.060 C 
HETATM   21  C9  UNL     1      -5.301  -2.161   0.533  1.00  0.00     0.129 C 
BRANCH  19  22
HETATM   22  N5  UNL     1      -2.135  -4.150   0.712  1.00  0.00    -0.075 N 
ATOM     23  H53 UNL     1      -1.136  -4.002   0.566  1.00  0.00     0.274 HD
ATOM     24  H52 UNL     1      -2.098  -4.362   1.709  1.00  0.00     0.274 HD
ATOM     25  H51 UNL     1      -2.503  -4.924   0.159  1.00  0.00     0.274 HD
ENDBRANCH  19  22
BRANCH  21  26
HETATM   26  C10 UNL     1      -6.381  -2.320   1.614  1.00  0.00     0.255 C 
BRANCH  26  27
HETATM   27  N6  UNL     1      -7.107  -3.538   1.311  1.00  0.00    -0.077 N 
ATOM     28  H63 UNL     1      -7.483  -3.555   0.363  1.00  0.00     0.274 HD
ATOM     29  H62 UNL     1      -6.502  -4.355   1.226  1.00  0.00     0.274 HD
ATOM     30  H61 UNL     1      -7.824  -3.644   2.029  1.00  0.00     0.274 HD
ENDBRANCH  26  27
ENDBRANCH  21  26
ENDBRANCH   4  16
BRANCH  12  31
HETATM   31  N1  UNL     1      -5.863   5.264  -2.450  1.00  0.00    -0.234 N 
ATOM     32  H12 UNL     1      -6.383   5.620  -3.252  1.00  0.00     0.174 HD
ATOM     33  H11 UNL     1      -5.343   5.928  -1.876  1.00  0.00     0.174 HD
ENDBRANCH  12  31
ENDBRANCH   2   3
ENDBRANCH   1   2
BRANCH   1  34
HETATM   34  C13 UNL     1      -1.462   2.930   1.829  1.00  0.00     0.153 C 
BRANCH  34  35
HETATM   35  N8  UNL     1      -0.076   2.987   1.340  1.00  0.00    -0.271 N 
HETATM   36  N9  UNL     1       0.840   2.069   1.531  1.00  0.00    -0.296 N 
HETATM   37  C14 UNL     1       1.996   2.426   0.956  1.00  0.00     0.055 A 
ATOM     38  H9  UNL     1       0.693   1.201   2.047  1.00  0.00     0.187 HD
HETATM   39  C24 UNL     1       1.781   3.649   0.369  1.00  0.00     0.088 A 
HETATM   40  C25 UNL     1       0.474   3.977   0.625  1.00  0.00     0.159 A 
BRANCH  37  41
HETATM   41  C15 UNL     1       3.254   1.661   0.948  1.00  0.00     0.074 C 
HETATM   42  C16 UNL     1       4.412   2.251   1.055  1.00  0.00     0.143 C 
BRANCH  42  43
HETATM   43  O2  UNL     1       4.461   3.637   1.181  1.00  0.00    -0.355 OA
ATOM     44  H2  UNL     1       5.305   4.067   1.259  1.00  0.00     0.218 HD
ENDBRANCH  42  43
BRANCH  42  45
HETATM   45  C17 UNL     1       5.625   1.457   1.040  1.00  0.00     0.317 C 
HETATM   46  O3  UNL     1       6.743   2.047   1.149  1.00  0.00    -0.257 OA
BRANCH  45  47
HETATM   47  O4  UNL     1       5.640   0.086   0.912  1.00  0.00    -0.303 OA
BRANCH  47  48
HETATM   48  C18 UNL     1       6.859  -0.665   0.901  1.00  0.00     0.196 C 
HETATM   49  C19 UNL     1       6.770  -1.807   1.854  1.00  0.00     0.173 C 
HETATM   50  N10 UNL     1       7.316  -2.914   1.087  1.00  0.00    -0.139 NA
HETATM   51  N11 UNL     1       7.252  -2.590  -0.286  1.00  0.00    -0.309 N 
HETATM   52  C20 UNL     1       7.000  -1.349  -0.424  1.00  0.00     0.040 C 
ATOM     53  H11 UNL     1       7.387  -3.250  -1.052  1.00  0.00     0.182 HD
BRANCH  52  54
HETATM   54  C21 UNL     1       6.861  -0.647  -1.718  1.00  0.00     0.138 C 
BRANCH  54  55
HETATM   55  S1  UNL     1       7.063  -1.731  -3.135  1.00  0.00    -0.087 SA
BRANCH  55  56
HETATM   56  C22 UNL     1       8.711  -2.373  -3.279  1.00  0.00     0.160 A 
HETATM   57  N12 UNL     1       9.743  -1.791  -3.959  1.00  0.00    -0.331 N 
HETATM   58  C23 UNL     1      10.782  -2.619  -3.803  1.00  0.00     0.199 A 
ATOM     59  H12 UNL     1       9.725  -0.912  -4.476  1.00  0.00     0.168 HD
HETATM   60  N13 UNL     1      10.429  -3.681  -3.057  1.00  0.00    -0.294 N 
HETATM   61  N14 UNL     1       9.161  -3.510  -2.749  1.00  0.00    -0.279 N 
ATOM     62  H13 UNL     1      11.025  -4.463  -2.784  1.00  0.00     0.187 HD
ATOM     63  H14 UNL     1       8.604  -4.154  -2.187  1.00  0.00     0.189 HD
ENDBRANCH  55  56
ENDBRANCH  54  55
ENDBRANCH  52  54
ENDBRANCH  47  48
ENDBRANCH  45  47
ENDBRANCH  42  45
ENDBRANCH  37  41
BRANCH  40  64
HETATM   64  O5  UNL     1      -0.195   5.120   0.231  1.00  0.00    -0.345 OA
ATOM     65  H5  UNL     1       0.195   5.822  -0.276  1.00  0.00     0.219 HD
ENDBRANCH  40  64
ENDBRANCH  34  35
ENDBRANCH   1  34
TORSDOF 18
