REMARK  18 active torsions:
REMARK  status: ('A' for Active; 'I' for Inactive)
REMARK    1  A    between atoms: C2_2  and  O2_4 
REMARK    2  A    between atoms: O2_4  and  C3_5 
REMARK    3  A    between atoms: C3_5  and  C4_6 
REMARK    4  A    between atoms: C3_5  and  C19_52 
REMARK    5  A    between atoms: C4_6  and  O3_7 
REMARK    6  A    between atoms: C4_6  and  N1_9 
REMARK    7  A    between atoms: N1_9  and  S1_11 
REMARK    8  A    between atoms: S1_11  and  N2_14 
REMARK       I    between atoms: N2_14  and  C5_16 
REMARK    9  A    between atoms: C5_16  and  C6_18 
REMARK   10  A    between atoms: C7_21  and  C8_22 
REMARK   11  A    between atoms: C8_22  and  O8_24 
REMARK   12  A    between atoms: O8_24  and  C9_25 
REMARK   13  A    between atoms: C9_25  and  C10_26 
REMARK   14  A    between atoms: C12_28  and  N4_29 
REMARK   15  A    between atoms: C14_31  and  N5_32 
REMARK   16  A    between atoms: C17_41  and  N8_42 
REMARK   17  A    between atoms: C18_47  and  N10_48 
REMARK   18  A    between atoms: C19_52  and  O11_55 
ROOT
HETATM    1  C6  UNL     1      -1.833  -2.590   0.433  1.00  0.00     0.146 A 
HETATM    2  N3  UNL     1      -0.540  -2.570   0.625  1.00  0.00    -0.339 N 
ATOM      3  H3  UNL     1       0.005  -1.782   0.275  1.00  0.00     0.167 HD
HETATM    4  C7  UNL     1       0.067  -3.539   1.256  1.00  0.00     0.150 A 
HETATM    5  C18 UNL     1      -0.694  -4.574   1.708  1.00  0.00     0.178 A 
HETATM    6  S2  UNL     1      -2.282  -4.047   1.168  1.00  0.00    -0.040 SA
ENDROOT
BRANCH   4   7
HETATM    7  C8  UNL     1       1.543  -3.476   1.441  1.00  0.00     0.313 C 
HETATM    8  O7  UNL     1       2.238  -4.308   2.011  1.00  0.00    -0.257 OA
BRANCH   7   9
HETATM    9  O8  UNL     1       2.256  -2.371   0.928  1.00  0.00    -0.310 OA
BRANCH   9  10
HETATM   10  C9  UNL     1       3.676  -2.289   1.091  1.00  0.00     0.236 C 
BRANCH  10  11
HETATM   11  C10 UNL     1       4.086  -1.024   0.440  1.00  0.00     0.054 A 
HETATM   12  C11 UNL     1       5.432  -0.744   0.347  1.00  0.00     0.078 A 
HETATM   13  C12 UNL     1       5.831   0.438  -0.260  1.00  0.00     0.136 A 
HETATM   14  N7  UNL     1       4.919   1.309  -0.755  1.00  0.00    -0.176 N 
HETATM   15  C17 UNL     1       3.622   1.011  -0.650  1.00  0.00     0.677 A 
ATOM     16  H7  UNL     1       5.218   2.177  -1.200  1.00  0.00     0.186 HD
HETATM   17  N9  UNL     1       3.212  -0.135  -0.064  1.00  0.00    -0.194 N 
ATOM     18  H9  UNL     1       2.213  -0.331  -0.002  1.00  0.00     0.184 HD
BRANCH  13  19
HETATM   19  N4  UNL     1       7.216   0.700  -0.343  1.00  0.00    -0.278 N 
HETATM   20  C13 UNL     1       7.674   1.921  -0.952  1.00  0.00     0.179 C 
HETATM   21  C14 UNL     1       8.824   2.563  -0.249  1.00  0.00     0.204 C 
HETATM   22  C15 UNL     1       9.759   1.522   0.273  1.00  0.00     0.052 C 
HETATM   23  C16 UNL     1       9.488   0.149  -0.250  1.00  0.00     0.137 C 
HETATM   24  N6  UNL     1       8.136  -0.205   0.153  1.00  0.00    -0.137 NA
BRANCH  21  25
HETATM   25  N5  UNL     1       8.280   3.361   0.837  1.00  0.00    -0.073 N 
ATOM     26  H53 UNL     1       7.579   4.033   0.525  1.00  0.00     0.274 HD
ATOM     27  H52 UNL     1       7.680   2.824   1.463  1.00  0.00     0.274 HD
ATOM     28  H51 UNL     1       9.066   3.800   1.317  1.00  0.00     0.274 HD
ENDBRANCH  21  25
ENDBRANCH  13  19
BRANCH  15  29
HETATM   29  N8  UNL     1       2.756   1.851  -1.128  1.00  0.00    -0.234 N 
ATOM     30  H82 UNL     1       3.066   2.716  -1.570  1.00  0.00     0.174 HD
ATOM     31  H81 UNL     1       1.765   1.623  -1.048  1.00  0.00     0.174 HD
ENDBRANCH  15  29
ENDBRANCH  10  11
ENDBRANCH   9  10
ENDBRANCH   7   9
ENDBRANCH   4   7
BRANCH   5  32
HETATM   32  N10 UNL     1      -0.435  -5.773   2.412  1.00  0.00    -0.106 N 
HETATM   33  O9  UNL     1       0.652  -6.150   2.789  1.00  0.00    -0.531 OA
HETATM   34  O10 UNL     1      -1.526  -6.588   2.693  1.00  0.00    -0.531 OA
ENDBRANCH   5  32
BRANCH   1  35
HETATM   35  C5  UNL     1      -2.674  -1.579  -0.272  1.00  0.00     0.290 C 
HETATM   36  N2  UNL     1      -2.103  -0.423  -0.803  1.00  0.00    -0.231 N 
ATOM     37  H2  UNL     1      -1.096  -0.319  -0.675  1.00  0.00     0.183 HD
HETATM   38  O6  UNL     1      -3.873  -1.861  -0.334  1.00  0.00    -0.264 OA
BRANCH  36  39
HETATM   39  S1  UNL     1      -2.881   0.828  -1.635  1.00  0.00     0.323 S 
HETATM   40  O4  UNL     1      -2.317   1.038  -3.025  1.00  0.00    -0.182 OA
HETATM   41  O5  UNL     1      -2.663   2.173  -0.941  1.00  0.00    -0.182 OA
BRANCH  39  42
HETATM   42  N1  UNL     1      -4.580   0.661  -1.799  1.00  0.00    -0.273 N 
ATOM     43  H1  UNL     1      -5.003   0.066  -2.511  1.00  0.00     0.176 HD
BRANCH  42  44
HETATM   44  C4  UNL     1      -5.355   1.406  -0.878  1.00  0.00     0.262 C 
BRANCH  44  45
HETATM   45  C3  UNL     1      -6.374   0.719  -0.059  1.00  0.00     0.214 C 
BRANCH  45  46
HETATM   46  O2  UNL     1      -6.944   1.762   0.777  1.00  0.00    -0.309 OA
BRANCH  46  47
HETATM   47  C2  UNL     1      -6.906   1.665   2.150  1.00  0.00     0.255 C 
HETATM   48  C1  UNL     1      -7.472   2.695   3.053  1.00  0.00     0.126 C 
HETATM   49  O1  UNL     1      -6.364   0.653   2.656  1.00  0.00    -0.266 OA
ENDBRANCH  46  47
ENDBRANCH  45  46
BRANCH  45  50
HETATM   50  C19 UNL     1      -7.564   0.153  -0.775  1.00  0.00     0.081 C 
HETATM   51  C20 UNL     1      -7.322  -1.036  -1.630  1.00  0.00     0.048 C 
HETATM   52  C21 UNL     1      -8.346   1.176  -1.535  1.00  0.00     0.048 C 
BRANCH  50  53
HETATM   53  O11 UNL     1      -8.412  -0.302   0.275  1.00  0.00    -0.388 OA
ATOM     54  H11 UNL     1      -9.166  -0.661  -0.179  1.00  0.00     0.210 HD
ENDBRANCH  50  53
ENDBRANCH  45  50
ENDBRANCH  44  45
BRANCH  44  55
HETATM   55  O3  UNL     1      -5.941   2.540  -1.541  1.00  0.00    -0.373 OA
ATOM     56  H3  UNL     1      -5.286   2.982  -2.068  1.00  0.00     0.212 HD
ENDBRANCH  44  55
ENDBRANCH  42  44
ENDBRANCH  39  42
ENDBRANCH  36  39
ENDBRANCH   1  35
TORSDOF 18
