REMARK  12 active torsions:
REMARK  status: ('A' for Active; 'I' for Inactive)
REMARK       I    between atoms: N1_2  and  C2_4 
REMARK    1  A    between atoms: C2_4  and  C3_6 
REMARK    2  A    between atoms: C3_6  and  C4_7 
REMARK    3  A    between atoms: C3_6  and  N2_14 
REMARK    4  A    between atoms: C4_7  and  C5_8 
REMARK    5  A    between atoms: C5_8  and  C6_10 
REMARK    6  A    between atoms: N2_14  and  C10_16 
REMARK    7  A    between atoms: C10_16  and  C11_17 
REMARK    8  A    between atoms: C10_16  and  C14_20 
REMARK    9  A    between atoms: C14_20  and  C15_21 
REMARK   10  A    between atoms: C14_20  and  N3_25 
REMARK   11  A    between atoms: C15_21  and  C16_22 
REMARK       I    between atoms: N3_25  and  C19_27 
REMARK   12  A    between atoms: C19_27  and  C20_29 
ROOT
HETATM    1  C10 UNL     1       0.084  -1.303  -0.721  1.00  0.00     0.126 C 
ENDROOT
BRANCH   1   2
HETATM    2  N2  UNL     1      -0.537  -0.110  -0.183  1.00  0.00    -0.399 N 
ATOM      3  H2  UNL     1       0.032   0.578   0.310  1.00  0.00     0.154 HD
BRANCH   2   4
HETATM    4  C3  UNL     1      -1.917   0.108  -0.334  1.00  0.00     0.177 C 
BRANCH   4   5
HETATM    5  C2  UNL     1      -2.533   0.389  -1.621  1.00  0.00     0.240 C 
HETATM    6  N1  UNL     1      -3.646  -0.300  -2.192  1.00  0.00    -0.364 N 
HETATM    7  C1  UNL     1      -4.192   0.048  -3.476  1.00  0.00     0.149 C 
ATOM      8  H1  UNL     1      -4.069  -1.067  -1.670  1.00  0.00     0.161 HD
HETATM    9  O1  UNL     1      -2.070   1.321  -2.350  1.00  0.00    -0.271 OA
ENDBRANCH   4   5
BRANCH   4  10
HETATM   10  C4  UNL     1      -2.262   1.333   0.592  1.00  0.00     0.113 C 
BRANCH  10  11
HETATM   11  C5  UNL     1      -3.691   1.502   0.816  1.00  0.00     0.133 C 
HETATM   12  O2  UNL     1      -4.528   0.759   0.324  1.00  0.00    -0.297 OA
BRANCH  11  13
HETATM   13  C6  UNL     1      -4.263   2.589   1.662  1.00  0.00     0.059 A 
HETATM   14  C7  UNL     1      -3.614   2.563   3.067  1.00  0.00     0.017 A 
HETATM   15  C8  UNL     1      -3.559   3.750   2.165  1.00  0.00    -0.007 A 
HETATM   16  C9  UNL     1      -2.265   4.288   1.671  1.00  0.00     0.011 C 
ENDBRANCH  11  13
ENDBRANCH  10  11
ENDBRANCH   4  10
ENDBRANCH   2   4
ENDBRANCH   1   2
BRANCH   1  17
HETATM   17  C11 UNL     1       0.174  -1.279  -2.164  1.00  0.00     0.005 C 
HETATM   18  C12 UNL     1       0.761  -2.567  -2.784  1.00  0.00     0.012 C 
HETATM   19  C13 UNL     1       0.984  -0.118  -2.746  1.00  0.00     0.012 C 
ENDBRANCH   1  17
BRANCH   1  20
HETATM   20  C14 UNL     1       1.248  -1.526   0.172  1.00  0.00     0.012 C 
BRANCH  20  21
HETATM   21  C15 UNL     1       2.165  -2.641   0.092  1.00  0.00     0.058 C 
BRANCH  21  22
HETATM   22  C16 UNL     1       1.676  -4.031   0.296  1.00  0.00    -0.017 C 
HETATM   23  C17 UNL     1       2.821  -5.046   0.154  1.00  0.00     0.010 C 
HETATM   24  C18 UNL     1       1.145  -4.271   1.704  1.00  0.00     0.010 C 
ENDBRANCH  21  22
ENDBRANCH  20  21
BRANCH  20  25
HETATM   25  N3  UNL     1       1.924  -0.232   0.310  1.00  0.00    -0.332 N 
HETATM   26  C19 UNL     1       1.942   0.551   1.481  1.00  0.00     0.226 C 
HETATM   27  O3  UNL     1       1.339   0.114   2.490  1.00  0.00    -0.273 OA
ATOM     28  H3  UNL     1       2.420   0.129  -0.505  1.00  0.00     0.168 HD
BRANCH  26  29
HETATM   29  C20 UNL     1       2.629   1.855   1.582  1.00  0.00     0.082 A 
HETATM   30  C21 UNL     1       2.620   2.796   0.431  1.00  0.00     0.019 A 
HETATM   31  C22 UNL     1       3.843   1.998   0.696  1.00  0.00    -0.005 A 
HETATM   32  C23 UNL     1       5.032   2.644   1.378  1.00  0.00     0.011 C 
ENDBRANCH  26  29
ENDBRANCH  20  25
ENDBRANCH   1  20
TORSDOF 12
