REMARK  12 active torsions:
REMARK  status: ('A' for Active; 'I' for Inactive)
REMARK    1  A    between atoms: C2_2  and  N1_3 
REMARK    2  A    between atoms: N1_3  and  S1_5 
REMARK    3  A    between atoms: S1_5  and  C3_8 
REMARK    4  A    between atoms: C3_8  and  C4_9 
REMARK    5  A    between atoms: C8_13  and  C9_14 
REMARK    6  A    between atoms: C9_14  and  N2_15 
REMARK       I    between atoms: N2_15  and  C10_17 
REMARK       I    between atoms: C10_17  and  N3_19 
REMARK    7  A    between atoms: N3_19  and  C11_21 
REMARK    8  A    between atoms: C11_21  and  C12_22 
REMARK    9  A    between atoms: C11_21  and  C14_24 
REMARK   10  A    between atoms: C14_24  and  O4_25 
REMARK   11  A    between atoms: O4_25  and  C15_26 
REMARK   12  A    between atoms: C15_26  and  C16_27 
ROOT
HETATM    1  C9  UNL     1      -1.300  -0.198  -1.384  1.00  0.00     0.129 C 
ENDROOT
BRANCH   1   2
HETATM    2  C8  UNL     1      -2.560   0.108  -0.561  1.00  0.00     0.004 C 
HETATM    3  C7  UNL     1      -2.762  -1.041   0.402  1.00  0.00     0.006 C 
HETATM    4  C6  UNL     1      -2.475  -0.783   1.824  1.00  0.00     0.001 C 
HETATM    5  C5  UNL     1      -2.877   0.521   2.365  1.00  0.00     0.005 C 
HETATM    6  C4  UNL     1      -3.333   1.565   1.376  1.00  0.00     0.001 C 
HETATM    7  C19 UNL     1      -2.496   1.441   0.120  1.00  0.00     0.012 C 
BRANCH   6   8
HETATM    8  C3  UNL     1      -4.794   1.417   1.121  1.00  0.00     0.167 C 
BRANCH   8   9
HETATM    9  S1  UNL     1      -5.508   2.616   0.057  1.00  0.00     0.226 S 
HETATM   10  O1  UNL     1      -5.514   3.997   0.709  1.00  0.00    -0.206 OA
HETATM   11  O2  UNL     1      -4.931   2.649  -1.308  1.00  0.00    -0.206 OA
BRANCH   9  12
HETATM   12  N1  UNL     1      -7.206   2.210  -0.115  1.00  0.00    -0.320 N 
ATOM     13  H1  UNL     1      -7.989   2.794   0.179  1.00  0.00     0.172 HD
BRANCH  12  14
HETATM   14  C2  UNL     1      -7.313   0.900  -0.748  1.00  0.00     0.127 C 
HETATM   15  C1  UNL     1      -8.783   0.565  -0.876  1.00  0.00     0.027 C 
ENDBRANCH  12  14
ENDBRANCH   9  12
ENDBRANCH   8   9
ENDBRANCH   6   8
ENDBRANCH   1   2
BRANCH   1  16
HETATM   16  N2  UNL     1      -0.121  -0.269  -0.614  1.00  0.00    -0.343 N 
HETATM   17  C10 UNL     1       1.110  -0.671  -1.173  1.00  0.00     0.320 C 
HETATM   18  O3  UNL     1       1.111  -1.011  -2.396  1.00  0.00    -0.247 OA
HETATM   19  N3  UNL     1       2.318  -0.711  -0.454  1.00  0.00    -0.314 N 
ATOM     20  H3  UNL     1       2.262  -0.406   0.518  1.00  0.00     0.170 HD
ATOM     21  H2  UNL     1      -0.159  -0.023   0.375  1.00  0.00     0.164 HD
BRANCH  19  22
HETATM   22  C11 UNL     1       3.611  -1.120  -0.898  1.00  0.00     0.014 C 
BRANCH  22  23
HETATM   23  C12 UNL     1       4.503  -0.021  -1.398  1.00  0.00     0.050 C 
HETATM   24  C13 UNL     1       3.835   0.662  -2.606  1.00  0.00     0.011 C 
ENDBRANCH  22  23
BRANCH  22  25
HETATM   25  C14 UNL     1       4.269  -2.139  -0.038  1.00  0.00     0.220 C 
BRANCH  25  26
HETATM   26  O4  UNL     1       4.476  -1.867   1.270  1.00  0.00    -0.385 OA
BRANCH  26  27
HETATM   27  C15 UNL     1       5.281  -0.865   1.671  1.00  0.00     0.172 C 
BRANCH  27  28
HETATM   28  C16 UNL     1       6.731  -0.980   1.310  1.00  0.00     0.001 C 
HETATM   29  C17 UNL     1       7.359  -2.229   1.928  1.00  0.00     0.011 C 
HETATM   30  C18 UNL     1       7.472   0.219   1.779  1.00  0.00     0.011 C 
ENDBRANCH  27  28
ENDBRANCH  26  27
ENDBRANCH  25  26
ENDBRANCH  22  25
ENDBRANCH  19  22
ENDBRANCH   1  16
TORSDOF 12
