REMARK  12 active torsions:
REMARK  status: ('A' for Active; 'I' for Inactive)
REMARK    1  A    between atoms: C2_2  and  C3_3 
REMARK    2  A    between atoms: C3_3  and  C5_5 
REMARK    3  A    between atoms: C5_5  and  C6_6 
REMARK    4  A    between atoms: C11_11  and  C12_12 
REMARK    5  A    between atoms: C12_12  and  C13_13 
REMARK    6  A    between atoms: C13_13  and  N1_14 
REMARK    7  A    between atoms: C13_13  and  C16_20 
REMARK       I    between atoms: N1_14  and  C14_16 
REMARK    8  A    between atoms: C14_16  and  C15_18 
REMARK       I    between atoms: C16_20  and  N2_22 
REMARK    9  A    between atoms: N2_22  and  C17_24 
REMARK   10  A    between atoms: C17_24  and  C18_25 
REMARK   11  A    between atoms: C17_24  and  C19_28 
REMARK   12  A    between atoms: C19_28  and  C21_30 
ROOT
HETATM    1  C13 UNL     1      -0.540   1.208   0.965  1.00  0.00     0.177 C 
ENDROOT
BRANCH   1   2
HETATM    2  C12 UNL     1      -0.026   1.127  -0.406  1.00  0.00     0.040 C 
BRANCH   2   3
HETATM    3  C11 UNL     1       1.363   1.522  -0.709  1.00  0.00    -0.008 C 
HETATM    4  C6  UNL     1       2.443   0.741   0.033  1.00  0.00    -0.010 C 
HETATM    5  C7  UNL     1       3.527   1.650   0.416  1.00  0.00     0.005 C 
HETATM    6  C8  UNL     1       4.038   2.527  -0.719  1.00  0.00     0.000 C 
HETATM    7  C9  UNL     1       2.946   3.195  -1.476  1.00  0.00     0.000 C 
HETATM    8  C10 UNL     1       1.640   2.981  -0.712  1.00  0.00     0.005 C 
BRANCH   4   9
HETATM    9  C5  UNL     1       2.677  -0.519  -0.659  1.00  0.00     0.009 C 
BRANCH   9  10
HETATM   10  C3  UNL     1       3.430  -1.652  -0.137  1.00  0.00    -0.019 C 
HETATM   11  C4  UNL     1       3.523  -2.677  -1.328  1.00  0.00     0.010 C 
BRANCH  10  12
HETATM   12  C2  UNL     1       4.851  -1.379   0.193  1.00  0.00    -0.000 C 
HETATM   13  C1  UNL     1       5.590  -2.681   0.561  1.00  0.00     0.005 C 
ENDBRANCH  10  12
ENDBRANCH   9  10
ENDBRANCH   4   9
ENDBRANCH   2   3
ENDBRANCH   1   2
BRANCH   1  14
HETATM   14  N1  UNL     1      -0.523   2.500   1.599  1.00  0.00    -0.342 N 
HETATM   15  C14 UNL     1       0.118   2.797   2.837  1.00  0.00     0.279 C 
HETATM   16  O1  UNL     1       0.738   1.900   3.475  1.00  0.00    -0.265 OA
ATOM     17  H1  UNL     1      -1.007   3.263   1.125  1.00  0.00     0.163 HD
BRANCH  15  18
HETATM   18  C15 UNL     1       0.090   4.131   3.414  1.00  0.00     0.332 C 
HETATM   19  O2  UNL     1      -0.501   5.100   2.865  1.00  0.00    -0.297 OA
ENDBRANCH  15  18
ENDBRANCH   1  14
BRANCH   1  20
HETATM   20  C16 UNL     1      -1.949   0.751   1.008  1.00  0.00     0.241 C 
HETATM   21  O3  UNL     1      -2.621   1.082   2.041  1.00  0.00    -0.271 OA
HETATM   22  N2  UNL     1      -2.627  -0.005   0.038  1.00  0.00    -0.346 N 
ATOM     23  H2  UNL     1      -2.125  -0.283  -0.805  1.00  0.00     0.163 HD
BRANCH  22  24
HETATM   24  C17 UNL     1      -4.032  -0.412   0.190  1.00  0.00     0.177 C 
BRANCH  24  25
HETATM   25  C18 UNL     1      -4.890   0.408  -0.696  1.00  0.00     0.254 C 
HETATM   26  N3  UNL     1      -6.281   0.393  -0.788  1.00  0.00    -0.060 NA
HETATM   27  O4  UNL     1      -4.297   1.239  -1.477  1.00  0.00    -0.275 OA
ENDBRANCH  24  25
BRANCH  24  28
HETATM   28  C19 UNL     1      -4.171  -1.885   0.047  1.00  0.00     0.013 C 
HETATM   29  C20 UNL     1      -3.741  -2.416  -1.292  1.00  0.00     0.012 C 
BRANCH  28  30
HETATM   30  C21 UNL     1      -5.523  -2.384   0.392  1.00  0.00     0.002 C 
HETATM   31  C22 UNL     1      -5.576  -3.916   0.234  1.00  0.00     0.005 C 
ENDBRANCH  28  30
ENDBRANCH  24  28
ENDBRANCH  22  24
ENDBRANCH   1  20
TORSDOF 12
