REMARK  12 active torsions:
REMARK  status: ('A' for Active; 'I' for Inactive)
REMARK    1  A    between atoms: C2_2  and  N1_3 
REMARK    2  A    between atoms: C3_6  and  C4_7 
REMARK    3  A    between atoms: C4_7  and  C5_8 
REMARK    4  A    between atoms: C4_7  and  N2_12 
REMARK    5  A    between atoms: C5_8  and  C6_9 
REMARK       I    between atoms: N2_12  and  C9_14 
REMARK    6  A    between atoms: C9_14  and  C10_16 
REMARK    7  A    between atoms: C10_16  and  N3_17 
REMARK    8  A    between atoms: C14_21  and  C15_22 
REMARK    9  A    between atoms: C15_22  and  C16_23 
REMARK   10  A    between atoms: C17_24  and  C18_25 
REMARK   11  A    between atoms: C18_25  and  C19_26 
REMARK   12  A    between atoms: C18_25  and  N4_28 
REMARK       I    between atoms: N4_28  and  C20_30 
ROOT
HETATM    1  N3  UNL     1       0.233  -0.315   0.257  1.00  0.00    -0.384 N 
HETATM    2  C11 UNL     1       0.484  -0.240   1.619  1.00  0.00     0.058 C 
HETATM    3  C12 UNL     1       1.809   0.317   2.043  1.00  0.00     0.044 C 
HETATM    4  C13 UNL     1       2.941  -0.090   1.120  1.00  0.00     0.011 C 
HETATM    5  C14 UNL     1       2.536   0.406  -0.252  1.00  0.00     0.007 C 
HETATM    6  C22 UNL     1       1.306  -0.303  -0.662  1.00  0.00     0.127 C 
ENDROOT
BRANCH   1   7
HETATM    7  C10 UNL     1      -0.872  -1.063  -0.215  1.00  0.00     0.224 C 
BRANCH   7   8
HETATM    8  C9  UNL     1      -2.165  -0.429   0.131  1.00  0.00     0.235 C 
HETATM    9  N2  UNL     1      -3.362  -1.057  -0.259  1.00  0.00    -0.352 N 
ATOM     10  H2  UNL     1      -3.343  -1.939  -0.772  1.00  0.00     0.163 HD
HETATM   11  O1  UNL     1      -2.244   0.659   0.766  1.00  0.00    -0.272 OA
BRANCH   9  12
HETATM   12  C4  UNL     1      -4.651  -0.414   0.089  1.00  0.00     0.109 C 
BRANCH  12  13
HETATM   13  C3  UNL     1      -5.313  -1.315   1.048  1.00  0.00     0.022 C 
HETATM   14  C2  UNL     1      -6.510  -1.013   1.778  1.00  0.00    -0.004 C 
HETATM   15  C1  UNL     1      -7.429  -2.162   2.242  1.00  0.00     0.067 C 
BRANCH  14  16
HETATM   16  N1  UNL     1      -6.934   0.102   2.201  1.00  0.00    -0.403 N 
ATOM     17  H12 UNL     1      -7.785   0.317   2.720  1.00  0.00     0.156 HD
ATOM     18  H11 UNL     1      -6.326   0.862   1.894  1.00  0.00     0.156 HD
ENDBRANCH  14  16
ENDBRANCH  12  13
BRANCH  12  19
HETATM   19  C5  UNL     1      -5.328  -0.016  -1.151  1.00  0.00     0.033 C 
BRANCH  19  20
HETATM   20  C6  UNL     1      -6.549   0.768  -1.242  1.00  0.00    -0.021 C 
HETATM   21  C7  UNL     1      -6.510   2.181  -0.733  1.00  0.00     0.009 C 
HETATM   22  C8  UNL     1      -6.927   0.902  -2.737  1.00  0.00     0.009 C 
ENDBRANCH  19  20
ENDBRANCH  12  19
ENDBRANCH   9  12
ENDBRANCH   7   8
ENDBRANCH   1   7
BRANCH   5  23
HETATM   23  C15 UNL     1       3.626   0.163  -1.273  1.00  0.00     0.033 C 
BRANCH  23  24
HETATM   24  C16 UNL     1       4.838   0.892  -0.826  1.00  0.00    -0.028 C 
HETATM   25  C17 UNL     1       5.965   0.240  -0.578  1.00  0.00     0.001 C 
BRANCH  25  26
HETATM   26  C18 UNL     1       7.198   0.972  -0.125  1.00  0.00     0.168 C 
BRANCH  26  27
HETATM   27  C19 UNL     1       6.884   1.674   1.167  1.00  0.00     0.260 C 
HETATM   28  O2  UNL     1       7.547   1.418   2.176  1.00  0.00    -0.304 OA
ENDBRANCH  26  27
BRANCH  26  29
HETATM   29  N4  UNL     1       8.295   0.057   0.042  1.00  0.00    -0.347 N 
HETATM   30  C20 UNL     1       9.486   0.236  -0.693  1.00  0.00     0.214 C 
HETATM   31  C21 UNL     1      10.610  -0.726  -0.502  1.00  0.00     0.117 C 
HETATM   32  O3  UNL     1       9.586   1.206  -1.502  1.00  0.00    -0.274 OA
ATOM     33  H4  UNL     1       8.212  -0.723   0.694  1.00  0.00     0.163 HD
ENDBRANCH  26  29
ENDBRANCH  25  26
ENDBRANCH  23  24
ENDBRANCH   5  23
TORSDOF 12
