REMARK  4 active torsions:
REMARK  status: ('A' for Active; 'I' for Inactive)
REMARK    1  A    between atoms: C2_3  and  N3_7 
REMARK       I    between atoms: C3_9  and  N5_11 
REMARK    2  A    between atoms: N5_11  and  N6_13 
REMARK    3  A    between atoms: N6_13  and  N7_14 
REMARK    4  A    between atoms: N6_13  and  O1_17 
ROOT
HETATM    1  N1  UNL     1      -4.485   0.919   0.527  1.00  0.00    -0.188 NA
HETATM    2  C1  UNL     1      -3.455   0.402   0.412  1.00  0.00     0.136 C 
HETATM    3  C2  UNL     1      -2.170  -0.247   0.281  1.00  0.00     0.184 C 
HETATM    4  N2  UNL     1      -2.148  -1.446  -0.177  1.00  0.00    -0.377 N 
ATOM      5  H21 UNL     1      -1.241  -1.904  -0.269  1.00  0.00     0.158 HD
ATOM      6  H22 UNL     1      -3.017  -1.913  -0.435  1.00  0.00     0.158 HD
ENDROOT
BRANCH   3   7
HETATM    7  N3  UNL     1      -0.959   0.403   0.641  1.00  0.00    -0.307 N 
HETATM    8  C3  UNL     1       0.174   0.143   0.108  1.00  0.00     0.212 C 
HETATM    9  N4  UNL     1       0.326  -0.828  -0.902  1.00  0.00    -0.062 NA
HETATM   10  N5  UNL     1       1.307   0.873   0.568  1.00  0.00    -0.232 N 
ATOM     11  H5  UNL     1       1.200   1.880   0.690  1.00  0.00     0.194 HD
ATOM     12  H3  UNL     1      -0.995   1.119   1.367  1.00  0.00     0.170 HD
BRANCH  10  13
HETATM   13  N6  UNL     1       2.537   0.324   0.861  1.00  0.00    -0.099 N 
BRANCH  13  14
HETATM   14  N7  UNL     1       3.644   0.904   0.542  1.00  0.00    -0.303 N 
ATOM     15  H72 UNL     1       3.557   1.798   0.058  1.00  0.00     0.181 HD
ATOM     16  H71 UNL     1       4.554   0.498   0.759  1.00  0.00     0.181 HD
ENDBRANCH  13  14
BRANCH  13  17
HETATM   17  O1  UNL     1       2.653  -0.873   1.509  1.00  0.00    -0.254 OA
ATOM     18  H1  UNL     1       3.501  -1.251   1.711  1.00  0.00     0.248 HD
ENDBRANCH  13  17
ENDBRANCH  10  13
ENDBRANCH   3   7
TORSDOF 4
