REMARK  4 active torsions:
REMARK  status: ('A' for Active; 'I' for Inactive)
REMARK    1  A    between atoms: N3_4  and  C2_6 
REMARK    2  A    between atoms: C2_6  and  N4_8 
REMARK    3  A    between atoms: N4_8  and  C3_10 
REMARK    4  A    between atoms: N5_11  and  O1_13 
ROOT
HETATM    1  C2  UNL     1       0.116  -0.256   0.520  1.00  0.00     0.178 C 
HETATM    2  S1  UNL     1       0.149   1.098   1.425  1.00  0.00    -0.040 SA
ENDROOT
BRANCH   1   3
HETATM    3  N3  UNL     1      -1.129  -0.902   0.339  1.00  0.00    -0.310 N 
HETATM    4  C1  UNL     1      -2.126  -0.408  -0.277  1.00  0.00     0.203 C 
HETATM    5  N1  UNL     1      -2.151   0.863  -0.879  1.00  0.00    -0.066 NA
HETATM    6  N2  UNL     1      -3.309  -1.219  -0.358  1.00  0.00    -0.066 NA
ATOM      7  H3  UNL     1      -1.236  -1.837   0.733  1.00  0.00     0.170 HD
ENDBRANCH   1   3
BRANCH   1   8
HETATM    8  N4  UNL     1       1.341  -0.706  -0.034  1.00  0.00    -0.328 N 
ATOM      9  H4  UNL     1       1.336  -1.552  -0.604  1.00  0.00     0.169 HD
BRANCH   8  10
HETATM   10  C3  UNL     1       2.570  -0.034   0.168  1.00  0.00     0.206 C 
HETATM   11  N5  UNL     1       2.972   0.943  -0.570  1.00  0.00    -0.265 N 
ATOM     12  H5  UNL     1       2.376   1.249  -1.339  1.00  0.00     0.194 HD
BRANCH  11  13
HETATM   13  O1  UNL     1       4.157   1.586  -0.371  1.00  0.00    -0.289 OA
ATOM     14  H1  UNL     1       4.453   2.306  -0.915  1.00  0.00     0.244 HD
ENDBRANCH  11  13
ENDBRANCH   8  10
ENDBRANCH   1   8
TORSDOF 4
