REMARK  3 active torsions:
REMARK  status: ('A' for Active; 'I' for Inactive)
REMARK    1  A    between atoms: C1_2  and  C2_4 
REMARK       I    between atoms: C2_4  and  N2_6 
REMARK    2  A    between atoms: N2_6  and  N3_8 
REMARK    3  A    between atoms: N3_8  and  C3_10 
ROOT
HETATM    1  C2  UNL     1       1.065  -0.036  -0.093  1.00  0.00     0.325 C 
HETATM    2  O2  UNL     1       0.791  -0.657  -1.143  1.00  0.00    -0.261 OA
HETATM    3  N2  UNL     1       0.094   0.769   0.557  1.00  0.00    -0.260 N 
ATOM      4  H2  UNL     1       0.338   1.268   1.412  1.00  0.00     0.190 HD
ENDROOT
BRANCH   3   5
HETATM    5  N3  UNL     1      -1.203   0.881   0.026  1.00  0.00    -0.276 N 
ATOM      6  H3  UNL     1      -1.411   1.629  -0.635  1.00  0.00     0.189 HD
BRANCH   5   7
HETATM    7  C3  UNL     1      -2.222  -0.025   0.393  1.00  0.00     0.199 C 
HETATM    8  N4  UNL     1      -3.525   0.124  -0.168  1.00  0.00    -0.068 NA
HETATM    9  S1  UNL     1      -1.865  -1.213   1.453  1.00  0.00    -0.043 SA
ENDBRANCH   5   7
ENDBRANCH   3   5
BRANCH   1  10
HETATM   10  C1  UNL     1       2.387  -0.137   0.466  1.00  0.00     0.324 C 
HETATM   11  N1  UNL     1       3.379  -0.933  -0.160  1.00  0.00    -0.053 NA
HETATM   12  O1  UNL     1       2.670   0.480   1.515  1.00  0.00    -0.266 OA
ENDBRANCH   1  10
TORSDOF 3
