REMARK  1 active torsions:
REMARK  status: ('A' for Active; 'I' for Inactive)
REMARK    1  A    between atoms: C4_5  and  N2_6 
ROOT
HETATM    1  N1  UNL     1       2.416   2.934   0.408  1.00  0.00    -0.191 NA
HETATM    2  C1  UNL     1       1.709   2.007   0.285  1.00  0.00     0.103 C 
HETATM    3  C2  UNL     1       0.838   0.874   0.155  1.00  0.00     0.088 A 
HETATM    4  C3  UNL     1      -0.546   0.985   0.324  1.00  0.00     0.061 A 
HETATM    5  C4  UNL     1      -1.373  -0.108   0.197  1.00  0.00     0.092 A 
HETATM    6  C5  UNL     1      -0.823  -1.338  -0.104  1.00  0.00     0.128 A 
HETATM    7  N4  UNL     1      -1.573  -2.405  -0.234  1.00  0.00    -0.384 N 
ATOM      8  H41 UNL     1      -1.167  -3.314  -0.456  1.00  0.00     0.157 HD
ATOM      9  H42 UNL     1      -2.584  -2.342  -0.114  1.00  0.00     0.157 HD
HETATM   10  N5  UNL     1       0.509  -1.421  -0.262  1.00  0.00    -0.328 N 
ATOM     11  H5  UNL     1       0.910  -2.332  -0.484  1.00  0.00     0.168 HD
HETATM   12  C6  UNL     1       1.344  -0.374  -0.145  1.00  0.00     0.138 A 
HETATM   13  N6  UNL     1       2.750  -0.486  -0.317  1.00  0.00    -0.081 NA
ENDROOT
BRANCH   5  14
HETATM   14  N2  UNL     1      -2.768   0.031   0.373  1.00  0.00    -0.304 N 
HETATM   15  N3  UNL     1      -3.424   1.076   0.172  1.00  0.00    -0.345 N 
ATOM     16  H32 UNL     1      -2.892   1.887  -0.145  1.00  0.00     0.176 HD
ATOM     17  H31 UNL     1      -4.431   1.176   0.299  1.00  0.00     0.176 HD
ATOM     18  H2  UNL     1      -3.283  -0.790   0.691  1.00  0.00     0.186 HD
ENDBRANCH   5  14
TORSDOF 1
