REMARK  1 active torsions:
REMARK  status: ('A' for Active; 'I' for Inactive)
REMARK    1  A    between atoms: N2_3  and  C2_5 
ROOT
HETATM    1  N1  UNL     1      -5.159  -0.275  -0.165  1.00  0.00    -0.172 NA
HETATM    2  C1  UNL     1      -3.998  -0.458  -0.132  1.00  0.00     0.183 C 
HETATM    3  N2  UNL     1      -2.619  -0.682  -0.077  1.00  0.00    -0.277 N 
ATOM      4  H2  UNL     1      -2.281  -1.644  -0.039  1.00  0.00     0.179 HD
ENDROOT
BRANCH   3   5
HETATM    5  C2  UNL     1      -1.668   0.376  -0.072  1.00  0.00     0.145 A 
HETATM    6  N3  UNL     1      -1.884   1.702  -0.116  1.00  0.00    -0.282 N 
HETATM    7  N4  UNL     1      -0.726   2.355  -0.093  1.00  0.00    -0.283 N 
ATOM      8  H3  UNL     1      -2.803   2.143  -0.161  1.00  0.00     0.188 HD
HETATM    9  C3  UNL     1       0.305   1.487  -0.033  1.00  0.00     0.137 A 
ATOM     10  H4  UNL     1      -0.631   3.370  -0.117  1.00  0.00     0.188 HD
HETATM   11  N5  UNL     1       1.645   1.367   0.018  1.00  0.00    -0.327 N 
HETATM   12  C6  UNL     1      -0.298   0.235  -0.020  1.00  0.00     0.083 A 
HETATM   13  C4  UNL     1       1.927   0.052   0.064  1.00  0.00     0.143 A 
ATOM     14  H5  UNL     1       2.321   2.131   0.021  1.00  0.00     0.168 HD
HETATM   15  N6  UNL     1       3.224  -0.536   0.127  1.00  0.00    -0.081 NA
HETATM   16  C5  UNL     1       0.739  -0.663   0.042  1.00  0.00     0.105 A 
HETATM   17  N7  UNL     1       0.557  -2.069   0.074  1.00  0.00    -0.098 NA
ENDBRANCH   3   5
TORSDOF 1
