REMARK  2 active torsions:
REMARK  status: ('A' for Active; 'I' for Inactive)
REMARK    1  A    between atoms: N1_1  and  N2_4 
REMARK    2  A    between atoms: N2_4  and  C1_6 
ROOT
HETATM    1  C1  UNL     1       1.146   0.025  -0.420  1.00  0.00     0.121 A 
HETATM    2  C2  UNL     1      -0.017  -0.691  -0.210  1.00  0.00     0.067 A 
HETATM    3  C3  UNL     1      -1.072   0.188  -0.025  1.00  0.00     0.045 A 
HETATM    4  C4  UNL     1      -2.419   0.096   0.215  1.00  0.00     0.117 A 
HETATM    5  N3  UNL     1      -3.236  -1.086   0.365  1.00  0.00    -0.092 NA
HETATM    6  S1  UNL     1      -2.896   1.738   0.293  1.00  0.00     0.003 SA
HETATM    7  N4  UNL     1      -1.400   2.452   0.025  1.00  0.00    -0.310 N 
ATOM      8  H4  UNL     1      -1.181   3.447  -0.017  1.00  0.00     0.176 HD
HETATM    9  C5  UNL     1      -0.559   1.420  -0.121  1.00  0.00     0.126 A 
HETATM   10  N5  UNL     1       0.781   1.316  -0.360  1.00  0.00    -0.326 N 
ATOM     11  H5  UNL     1       1.415   2.107  -0.476  1.00  0.00     0.169 HD
ENDROOT
BRANCH   1  12
HETATM   12  N2  UNL     1       2.467  -0.498  -0.654  1.00  0.00    -0.292 N 
ATOM     13  H2  UNL     1       2.785  -0.681  -1.606  1.00  0.00     0.188 HD
BRANCH  12  14
HETATM   14  N1  UNL     1       3.315  -0.755   0.434  1.00  0.00    -0.344 N 
ATOM     15  H12 UNL     1       2.982  -0.567   1.380  1.00  0.00     0.176 HD
ATOM     16  H11 UNL     1       4.251  -1.125   0.268  1.00  0.00     0.176 HD
ENDBRANCH  12  14
ENDBRANCH   1  12
TORSDOF 2
