REMARK  2 active torsions:
REMARK  status: ('A' for Active; 'I' for Inactive)
REMARK    1  A    between atoms: N2_4  and  C1_6 
REMARK    2  A    between atoms: C5_16  and  N6_17 
ROOT
HETATM    1  C1  UNL     1      -1.437  -0.653  -0.355  1.00  0.00     0.698 A 
HETATM    2  N3  UNL     1      -0.260  -1.283  -0.341  1.00  0.00    -0.186 N 
ATOM      3  H3  UNL     1      -0.251  -2.297  -0.450  1.00  0.00     0.184 HD
HETATM    4  C2  UNL     1       0.920  -0.642  -0.190  1.00  0.00     0.098 A 
HETATM    5  C3  UNL     1       2.226  -1.087  -0.147  1.00  0.00     0.139 A 
HETATM    6  N4  UNL     1       3.000   0.009   0.025  1.00  0.00    -0.309 N 
ATOM      7  H4  UNL     1       4.018   0.008   0.096  1.00  0.00     0.186 HD
HETATM    8  N5  UNL     1       2.218   1.099   0.088  1.00  0.00    -0.295 N 
ATOM      9  H5  UNL     1       2.547   2.056   0.214  1.00  0.00     0.187 HD
HETATM   10  C4  UNL     1       0.933   0.728  -0.042  1.00  0.00     0.121 A 
HETATM   11  C5  UNL     1      -0.291   1.371  -0.058  1.00  0.00     0.145 A 
HETATM   12  N7  UNL     1      -1.441   0.685  -0.212  1.00  0.00    -0.173 N 
ATOM     13  H7  UNL     1      -2.328   1.188  -0.220  1.00  0.00     0.186 HD
ENDROOT
BRANCH   1  14
HETATM   14  N2  UNL     1      -2.672  -1.375  -0.519  1.00  0.00    -0.138 N 
HETATM   15  N1  UNL     1      -3.234  -1.915   0.490  1.00  0.00    -0.331 N 
ATOM     16  H12 UNL     1      -2.796  -1.826   1.407  1.00  0.00     0.177 HD
ATOM     17  H11 UNL     1      -4.109  -2.426   0.374  1.00  0.00     0.177 HD
ATOM     18  H2  UNL     1      -3.097  -1.454  -1.443  1.00  0.00     0.205 HD
ENDBRANCH   1  14
BRANCH  11  19
HETATM   19  N6  UNL     1      -0.260   2.655   0.082  1.00  0.00    -0.383 N 
ATOM     20  H62 UNL     1       0.610   3.174   0.199  1.00  0.00     0.157 HD
ATOM     21  H61 UNL     1      -1.163   3.129   0.070  1.00  0.00     0.157 HD
ENDBRANCH  11  19
TORSDOF 2
