REMARK  6 active torsions:
REMARK  status: ('A' for Active; 'I' for Inactive)
REMARK    1  A    between atoms: N3_4  and  N4_6 
REMARK    2  A    between atoms: C2_8  and  C3_9 
REMARK    3  A    between atoms: C4_10  and  C5_11 
REMARK    4  A    between atoms: C5_11  and  N5_12 
REMARK    5  A    between atoms: N6_14  and  N7_16 
REMARK       I    between atoms: N8_18  and  C6_20 
REMARK    6  A    between atoms: N10_22  and  O1_24 
ROOT
HETATM    1  C3  UNL     1      -0.830  -0.767  -0.225  1.00  0.00     0.076 A 
HETATM    2  C4  UNL     1       0.256  -1.358  -0.896  1.00  0.00     0.062 A 
HETATM    3  N11 UNL     1       0.714  -2.327  -0.099  1.00  0.00    -0.299 N 
ATOM      4  H11 UNL     1       1.504  -2.930  -0.329  1.00  0.00     0.186 HD
HETATM    5  N12 UNL     1       0.032  -2.411   1.007  1.00  0.00    -0.266 N 
ATOM      6  H12 UNL     1       0.195  -3.072   1.767  1.00  0.00     0.190 HD
HETATM    7  C7  UNL     1      -0.946  -1.448   0.964  1.00  0.00     0.273 A 
HETATM    8  O2  UNL     1      -1.774  -1.282   1.904  1.00  0.00    -0.266 OA
ENDROOT
BRANCH   2   9
HETATM    9  C5  UNL     1       0.802  -0.982  -2.246  1.00  0.00     0.200 C 
BRANCH   9  10
HETATM   10  N5  UNL     1       1.917  -1.811  -2.601  1.00  0.00    -0.315 N 
HETATM   11  N6  UNL     1       3.117  -1.568  -2.220  1.00  0.00    -0.232 N 
ATOM     12  H6  UNL     1       3.888  -2.179  -2.490  1.00  0.00     0.209 HD
ATOM     13  H5  UNL     1       1.748  -2.631  -3.183  1.00  0.00     0.182 HD
BRANCH  11  14
HETATM   14  N7  UNL     1       3.339  -0.434  -1.418  1.00  0.00    -0.226 N 
HETATM   15  N8  UNL     1       4.323  -0.392  -0.601  1.00  0.00    -0.256 N 
HETATM   16  C6  UNL     1       4.523   0.747   0.187  1.00  0.00     0.228 C 
ATOM     17  H8  UNL     1       4.959  -1.186  -0.524  1.00  0.00     0.191 HD
HETATM   18  N9  UNL     1       5.089   0.641   1.478  1.00  0.00    -0.060 NA
HETATM   19  N10 UNL     1       4.192   1.907  -0.258  1.00  0.00    -0.240 N 
ATOM     20  H10 UNL     1       4.340   2.734   0.321  1.00  0.00     0.197 HD
ATOM     21  H7  UNL     1       2.708   0.364  -1.488  1.00  0.00     0.210 HD
BRANCH  19  22
HETATM   22  O1  UNL     1       3.650   2.037  -1.487  1.00  0.00    -0.287 OA
ATOM     23  H1  UNL     1       3.405   2.894  -1.816  1.00  0.00     0.244 HD
ENDBRANCH  19  22
ENDBRANCH  11  14
ENDBRANCH   9  10
ENDBRANCH   2   9
BRANCH   1  24
HETATM   24  C2  UNL     1      -1.614   0.328  -0.743  1.00  0.00     0.126 C 
HETATM   25  N4  UNL     1      -2.582   0.933  -0.262  1.00  0.00    -0.309 N 
ATOM     26  H4  UNL     1      -2.923   1.670  -0.879  1.00  0.00     0.186 HD
BRANCH  25  27
HETATM   27  N3  UNL     1      -3.291   0.852   0.877  1.00  0.00    -0.276 N 
HETATM   28  C1  UNL     1      -4.532   1.180   0.988  1.00  0.00     0.215 C 
HETATM   29  N1  UNL     1      -5.137   1.036   2.262  1.00  0.00    -0.065 NA
HETATM   30  N2  UNL     1      -5.276   1.667  -0.116  1.00  0.00    -0.065 NA
ATOM     31  H3  UNL     1      -2.814   0.507   1.710  1.00  0.00     0.189 HD
ENDBRANCH  25  27
ENDBRANCH   1  24
TORSDOF 6
