REMARK  8 active torsions:
REMARK  status: ('A' for Active; 'I' for Inactive)
REMARK    1  A    between atoms: C2_2  and  N1_3 
REMARK    2  A    between atoms: N1_3  and  C3_5 
REMARK    3  A    between atoms: C4_6  and  N2_7 
REMARK    4  A    between atoms: N2_7  and  C5_9 
REMARK    5  A    between atoms: C5_9  and  C6_10 
REMARK    6  A    between atoms: C6_10  and  C7_11 
REMARK    7  A    between atoms: C7_11  and  N3_12 
REMARK    8  A    between atoms: C10_23  and  N7_24 
ROOT
HETATM    1  C3  UNL     1      -1.188  -0.503  -0.066  1.00  0.00     0.158 A 
HETATM    2  C4  UNL     1       0.092  -0.314   0.448  1.00  0.00     0.148 A 
HETATM    3  N4  UNL     1       0.489   0.853   1.009  1.00  0.00    -0.325 N 
ATOM      4  H4  UNL     1       1.435   0.957   1.376  1.00  0.00     0.169 HD
HETATM    5  C8  UNL     1      -0.383   1.869   1.073  1.00  0.00     0.163 A 
HETATM    6  N5  UNL     1       0.029   3.104   1.664  1.00  0.00    -0.079 NA
HETATM    7  C9  UNL     1      -1.656   1.699   0.569  1.00  0.00     0.174 A 
HETATM    8  N6  UNL     1      -2.516   2.737   0.646  1.00  0.00    -0.173 N 
ATOM      9  H6  UNL     1      -2.231   3.622   1.066  1.00  0.00     0.186 HD
HETATM   10  C10 UNL     1      -3.744   2.577   0.161  1.00  0.00     0.681 A 
HETATM   11  N8  UNL     1      -4.144   1.415  -0.399  1.00  0.00    -0.141 N 
ATOM     12  H8  UNL     1      -5.094   1.328  -0.761  1.00  0.00     0.189 HD
HETATM   13  C11 UNL     1      -3.305   0.380  -0.482  1.00  0.00     0.348 A 
HETATM   14  O1  UNL     1      -3.648  -0.727  -1.002  1.00  0.00    -0.245 OA
HETATM   15  N9  UNL     1      -2.050   0.539   0.012  1.00  0.00    -0.227 N 
ENDROOT
BRANCH   2  16
HETATM   16  N2  UNL     1       0.911  -1.288   0.380  1.00  0.00    -0.373 N 
ATOM     17  H2  UNL     1       0.595  -2.160  -0.045  1.00  0.00     0.161 HD
BRANCH  16  18
HETATM   18  C5  UNL     1       2.238  -1.217   0.867  1.00  0.00     0.123 C 
BRANCH  18  19
HETATM   19  C6  UNL     1       3.215  -0.513  -0.045  1.00  0.00     0.047 C 
BRANCH  19  20
HETATM   20  C7  UNL     1       4.560  -0.522   0.620  1.00  0.00     0.231 C 
BRANCH  20  21
HETATM   21  N3  UNL     1       5.575   0.136  -0.184  1.00  0.00    -0.079 N 
ATOM     22  H33 UNL     1       5.623  -0.268  -1.119  1.00  0.00     0.274 HD
ATOM     23  H32 UNL     1       5.292   1.084  -0.431  1.00  0.00     0.274 HD
ATOM     24  H31 UNL     1       6.489   0.130   0.268  1.00  0.00     0.274 HD
ENDBRANCH  20  21
ENDBRANCH  19  20
ENDBRANCH  18  19
ENDBRANCH  16  18
ENDBRANCH   2  16
BRANCH   1  25
HETATM   25  N1  UNL     1      -1.561  -1.583  -0.586  1.00  0.00    -0.373 N 
ATOM     26  H1  UNL     1      -2.526  -1.571  -0.917  1.00  0.00     0.161 HD
BRANCH  25  27
HETATM   27  C2  UNL     1      -0.897  -2.813  -0.800  1.00  0.00     0.117 C 
HETATM   28  C1  UNL     1      -1.838  -3.816  -1.489  1.00  0.00     0.026 C 
ENDBRANCH  25  27
ENDBRANCH   1  25
BRANCH  10  29
HETATM   29  N7  UNL     1      -4.559   3.579   0.240  1.00  0.00    -0.234 N 
ATOM     30  H72 UNL     1      -4.257   4.457   0.663  1.00  0.00     0.174 HD
ATOM     31  H71 UNL     1      -5.501   3.456  -0.132  1.00  0.00     0.174 HD
ENDBRANCH  10  29
TORSDOF 8
