REMARK  19 active torsions:
REMARK  status: ('A' for Active; 'I' for Inactive)
REMARK    1  A    between atoms: C2_2  and  C3_3 
REMARK    2  A    between atoms: C3_3  and  C4_4 
REMARK    3  A    between atoms: C4_4  and  C5_5 
REMARK    4  A    between atoms: C5_5  and  C6_6 
REMARK    5  A    between atoms: C6_6  and  C7_7 
REMARK    6  A    between atoms: C7_7  and  C8_8 
REMARK    7  A    between atoms: C8_8  and  C9_9 
REMARK    8  A    between atoms: C9_9  and  N1_10 
REMARK    9  A    between atoms: N2_14  and  C13_15 
REMARK   10  A    between atoms: C13_15  and  O1_16 
REMARK   11  A    between atoms: C13_15  and  C14_18 
REMARK   12  A    between atoms: C14_18  and  C15_19 
REMARK   13  A    between atoms: C14_18  and  N7_36 
REMARK   14  A    between atoms: C15_19  and  C16_20 
REMARK   15  A    between atoms: C16_20  and  C17_21 
REMARK   16  A    between atoms: C17_21  and  N3_22 
REMARK       I    between atoms: C18_24  and  N5_26 
REMARK   17  A    between atoms: N7_36  and  C27_37 
REMARK   18  A    between atoms: C27_37  and  O2_38 
REMARK   19  A    between atoms: C27_37  and  C28_40 
REMARK       I    between atoms: N8_45  and  C33_46 
ROOT
HETATM    1  C14 UNL     1      -1.391   1.547  -0.154  1.00  0.00     0.156 C 
ENDROOT
BRANCH   1   2
HETATM    2  C13 UNL     1      -0.352   1.381  -1.110  1.00  0.00     0.179 C 
BRANCH   2   3
HETATM    3  N2  UNL     1       1.038   1.175  -0.929  1.00  0.00    -0.358 N 
HETATM    4  C12 UNL     1       1.600   1.054   0.361  1.00  0.00     0.127 C 
HETATM    5  C11 UNL     1       2.729   0.099   0.500  1.00  0.00     0.040 C 
HETATM    6  C10 UNL     1       4.069   0.597  -0.054  1.00  0.00     0.123 C 
HETATM    7  N1  UNL     1       4.031   0.723  -1.456  1.00  0.00    -0.388 N 
HETATM    8  C35 UNL     1       3.170   1.735  -1.977  1.00  0.00     0.142 C 
HETATM    9  C34 UNL     1       1.762   1.285  -2.208  1.00  0.00     0.145 C 
BRANCH   7  10
HETATM   10  C9  UNL     1       4.338  -0.297  -2.336  1.00  0.00     0.085 C 
BRANCH  10  11
HETATM   11  C8  UNL     1       5.636  -0.794  -2.684  1.00  0.00     0.013 C 
BRANCH  11  12
HETATM   12  C7  UNL     1       6.664  -1.431  -1.949  1.00  0.00    -0.025 C 
BRANCH  12  13
HETATM   13  C6  UNL     1       6.362  -2.690  -1.165  1.00  0.00     0.027 C 
BRANCH  13  14
HETATM   14  C5  UNL     1       7.672  -3.308  -0.792  1.00  0.00     0.004 C 
BRANCH  14  15
HETATM   15  C4  UNL     1       8.591  -2.520   0.079  1.00  0.00     0.000 C 
BRANCH  15  16
HETATM   16  C3  UNL     1       9.886  -3.344   0.091  1.00  0.00    -0.000 C 
BRANCH  16  17
HETATM   17  C2  UNL     1      10.960  -2.816   0.945  1.00  0.00    -0.005 C 
HETATM   18  C1  UNL     1      10.683  -2.816   2.425  1.00  0.00     0.005 C 
ENDBRANCH  16  17
ENDBRANCH  15  16
ENDBRANCH  14  15
ENDBRANCH  13  14
ENDBRANCH  12  13
ENDBRANCH  11  12
ENDBRANCH  10  11
ENDBRANCH   7  10
ENDBRANCH   2   3
BRANCH   2  19
HETATM   19  O1  UNL     1      -0.696   1.437  -2.368  1.00  0.00    -0.344 OA
ATOM     20  H1  UNL     1      -1.628   1.575  -2.489  1.00  0.00     0.219 HD
ENDBRANCH   2  19
ENDBRANCH   1   2
BRANCH   1  21
HETATM   21  C15 UNL     1      -2.168   0.525   0.500  1.00  0.00     0.024 C 
BRANCH  21  22
HETATM   22  C16 UNL     1      -1.700  -0.566   1.302  1.00  0.00     0.050 C 
BRANCH  22  23
HETATM   23  C17 UNL     1      -2.920  -1.354   1.897  1.00  0.00     0.126 C 
BRANCH  23  24
HETATM   24  N3  UNL     1      -3.692  -1.798   0.742  1.00  0.00    -0.364 N 
HETATM   25  C18 UNL     1      -4.915  -1.434   0.617  1.00  0.00     0.186 C 
HETATM   26  N4  UNL     1      -5.480  -0.607   1.634  1.00  0.00    -0.064 NA
HETATM   27  N5  UNL     1      -5.645  -1.912  -0.475  1.00  0.00    -0.352 N 
HETATM   28  C19 UNL     1      -6.799  -1.298  -1.042  1.00  0.00     0.145 C 
HETATM   29  C26 UNL     1      -5.313  -3.202  -1.074  1.00  0.00     0.150 C 
HETATM   30  C20 UNL     1      -7.918  -2.388  -0.794  1.00  0.00     0.137 C 
HETATM   31  N6  UNL     1      -7.413  -3.403   0.046  1.00  0.00    -0.405 N 
HETATM   32  C21 UNL     1      -8.383  -4.191   0.699  1.00  0.00     0.117 C 
HETATM   33  C25 UNL     1      -6.301  -4.163  -0.437  1.00  0.00     0.097 C 
HETATM   34  C22 UNL     1      -8.071  -5.669   0.757  1.00  0.00     0.019 C 
HETATM   35  C23 UNL     1      -7.557  -6.218  -0.562  1.00  0.00     0.004 C 
HETATM   36  C24 UNL     1      -6.698  -5.236  -1.355  1.00  0.00     0.026 C 
ATOM     37  H3  UNL     1      -3.261  -2.396   0.037  1.00  0.00     0.162 HD
ENDBRANCH  23  24
ENDBRANCH  22  23
ENDBRANCH  21  22
ENDBRANCH   1  21
BRANCH   1  38
HETATM   38  N7  UNL     1      -1.409   2.863   0.407  1.00  0.00    -0.379 NA
BRANCH  38  39
HETATM   39  C27 UNL     1      -1.428   4.069   0.929  1.00  0.00     0.214 C 
BRANCH  39  40
HETATM   40  O2  UNL     1      -1.743   4.452   2.141  1.00  0.00    -0.337 OA
ATOM     41  H2  UNL     1      -1.757   5.324   2.518  1.00  0.00     0.220 HD
ENDBRANCH  39  40
BRANCH  39  42
HETATM   42  C28 UNL     1      -1.056   5.342   0.115  1.00  0.00     0.180 C 
HETATM   43  C29 UNL     1      -2.305   5.692  -0.682  1.00  0.00     0.035 C 
HETATM   44  C30 UNL     1      -3.528   5.853   0.187  1.00  0.00     0.008 C 
HETATM   45  C31 UNL     1      -3.260   7.021   1.097  1.00  0.00     0.045 C 
HETATM   46  C32 UNL     1      -1.869   7.422   1.168  1.00  0.00     0.067 C 
HETATM   47  N8  UNL     1      -0.859   6.424   1.007  1.00  0.00    -0.322 N 
HETATM   48  C33 UNL     1       0.373   6.596   1.738  1.00  0.00     0.188 C 
HETATM   49  N9  UNL     1       1.422   6.889   1.098  1.00  0.00    -0.373 N 
HETATM   50  N10 UNL     1       0.372   6.455   3.134  1.00  0.00    -0.064 NA
ATOM     51  H92 UNL     1       1.423   6.992   0.083  1.00  0.00     0.158 HD
ATOM     52  H91 UNL     1       2.293   7.011   1.615  1.00  0.00     0.158 HD
ENDBRANCH  39  42
ENDBRANCH  38  39
ENDBRANCH   1  38
TORSDOF 19
