REMARK  17 active torsions:
REMARK  status: ('A' for Active; 'I' for Inactive)
REMARK    1  A    between atoms: C2_2  and  C3_3 
REMARK    2  A    between atoms: C6_6  and  C7_7 
REMARK    3  A    between atoms: C7_7  and  N1_8 
REMARK    4  A    between atoms: C8_10  and  O1_11 
REMARK    5  A    between atoms: C8_10  and  C9_13 
REMARK    6  A    between atoms: C9_13  and  C10_14 
REMARK    7  A    between atoms: C9_13  and  N6_46 
REMARK    8  A    between atoms: C10_14  and  C11_15 
REMARK       I    between atoms: C11_15  and  N2_17 
REMARK    9  A    between atoms: C18_24  and  C19_25 
REMARK       I    between atoms: C19_25  and  N3_27 
REMARK   10  A    between atoms: N3_27  and  C20_28 
REMARK   11  A    between atoms: C20_28  and  C21_29 
REMARK   12  A    between atoms: C20_28  and  C28_36 
REMARK   13  A    between atoms: C21_29  and  C22_30 
REMARK   14  A    between atoms: C28_36  and  N4_37 
REMARK   15  A    between atoms: C31_40  and  C32_41 
REMARK   16  A    between atoms: C32_41  and  N5_42 
REMARK       I    between atoms: N6_46  and  C33_48 
REMARK   17  A    between atoms: C33_48  and  C34_50 
ROOT
HETATM    1  C11 UNL     1       0.854  -0.113  -0.424  1.00  0.00     0.223 C 
HETATM    2  O2  UNL     1       0.343   0.348  -1.502  1.00  0.00    -0.273 OA
HETATM    3  N2  UNL     1      -0.000  -0.777   0.452  1.00  0.00    -0.337 N 
HETATM    4  C12 UNL     1       0.372  -1.292   1.794  1.00  0.00     0.132 C 
HETATM    5  C13 UNL     1      -0.108  -2.735   1.672  1.00  0.00     0.010 C 
HETATM    6  C14 UNL     1      -1.012  -3.060   2.830  1.00  0.00     0.007 C 
HETATM    7  C15 UNL     1      -2.007  -4.034   2.305  1.00  0.00     0.001 C 
HETATM    8  C16 UNL     1      -2.276  -3.529   0.937  1.00  0.00     0.007 C 
HETATM    9  C17 UNL     1      -1.058  -2.763   0.502  1.00  0.00     0.025 C 
HETATM   10  C18 UNL     1      -1.345  -1.254   0.401  1.00  0.00     0.198 C 
ENDROOT
BRANCH   1  11
HETATM   11  C10 UNL     1       2.279   0.144  -0.290  1.00  0.00     0.136 C 
BRANCH  11  12
HETATM   12  C9  UNL     1       3.129  -1.053  -0.374  1.00  0.00     0.167 C 
BRANCH  12  13
HETATM   13  C8  UNL     1       4.566  -0.753  -0.368  1.00  0.00     0.135 C 
HETATM   14  N1  UNL     1       5.398   0.252  -0.004  1.00  0.00    -0.372 N 
ATOM     15  H1  UNL     1       5.024   1.095   0.433  1.00  0.00     0.161 HD
BRANCH  14  16
HETATM   16  C7  UNL     1       6.864   0.119  -0.246  1.00  0.00     0.126 C 
BRANCH  16  17
HETATM   17  C6  UNL     1       7.647   1.282   0.208  1.00  0.00     0.004 C 
HETATM   18  C5  UNL     1       7.280   2.615  -0.405  1.00  0.00     0.006 C 
HETATM   19  C4  UNL     1       8.534   3.227  -0.970  1.00  0.00     0.005 C 
HETATM   20  C3  UNL     1       9.664   2.463  -0.294  1.00  0.00    -0.014 C 
HETATM   21  C37 UNL     1       9.086   1.060  -0.320  1.00  0.00     0.011 C 
BRANCH  20  22
HETATM   22  C2  UNL     1       9.790   2.962   1.149  1.00  0.00     0.000 C 
HETATM   23  C1  UNL     1      10.137   4.429   1.166  1.00  0.00     0.005 C 
ENDBRANCH  20  22
ENDBRANCH  16  17
ENDBRANCH  14  16
BRANCH  13  24
HETATM   24  O1  UNL     1       5.285  -1.776  -0.911  1.00  0.00    -0.348 OA
ATOM     25  H1  UNL     1       4.701  -2.481  -1.166  1.00  0.00     0.219 HD
ENDBRANCH  13  24
ENDBRANCH  12  13
BRANCH  12  26
HETATM   26  N6  UNL     1       2.909  -1.939  -1.530  1.00  0.00    -0.348 N 
HETATM   27  C33 UNL     1       2.846  -3.324  -1.393  1.00  0.00     0.222 C 
HETATM   28  O4  UNL     1       2.923  -3.797  -0.194  1.00  0.00    -0.273 OA
ATOM     29  H6  UNL     1       2.800  -1.527  -2.457  1.00  0.00     0.163 HD
BRANCH  27  30
HETATM   30  C34 UNL     1       2.730  -4.327  -2.494  1.00  0.00     0.078 A 
HETATM   31  C35 UNL     1       2.763  -5.804  -2.126  1.00  0.00     0.015 A 
HETATM   32  C36 UNL     1       4.003  -5.183  -2.606  1.00  0.00     0.015 A 
ENDBRANCH  27  30
ENDBRANCH  12  26
ENDBRANCH  11  12
ENDBRANCH   1  11
BRANCH  10  33
HETATM   33  C19 UNL     1      -2.149  -0.932  -0.826  1.00  0.00     0.310 C 
HETATM   34  O3  UNL     1      -1.724  -1.259  -1.931  1.00  0.00    -0.255 OA
HETATM   35  N3  UNL     1      -3.313  -0.267  -0.535  1.00  0.00    -0.406 NA
BRANCH  35  36
HETATM   36  C20 UNL     1      -4.482   0.402  -0.251  1.00  0.00     0.195 C 
BRANCH  36  37
HETATM   37  C21 UNL     1      -4.717   1.794  -0.727  1.00  0.00     0.046 C 
BRANCH  37  38
HETATM   38  C22 UNL     1      -4.840   1.957  -2.215  1.00  0.00    -0.012 C 
HETATM   39  C23 UNL     1      -5.111   3.425  -2.471  1.00  0.00     0.005 C 
HETATM   40  C24 UNL     1      -6.559   3.768  -2.241  1.00  0.00     0.000 C 
HETATM   41  C25 UNL     1      -7.508   3.088  -3.241  1.00  0.00     0.000 C 
HETATM   42  C26 UNL     1      -6.730   1.955  -3.857  1.00  0.00     0.000 C 
HETATM   43  C27 UNL     1      -6.010   1.160  -2.754  1.00  0.00     0.005 C 
ENDBRANCH  37  38
ENDBRANCH  36  37
BRANCH  36  44
HETATM   44  C28 UNL     1      -4.816   0.166   1.218  1.00  0.00     0.312 C 
BRANCH  44  45
HETATM   45  N4  UNL     1      -5.993   0.722   1.739  1.00  0.00     0.098 N 
HETATM   46  C29 UNL     1      -7.247   0.180   1.233  1.00  0.00     0.275 C 
HETATM   47  C30 UNL     1      -7.705   0.098   2.671  1.00  0.00     0.068 C 
HETATM   48  C31 UNL     1      -6.289  -0.017   3.003  1.00  0.00     0.250 C 
BRANCH  48  49
HETATM   49  C32 UNL     1      -5.765   0.665   4.217  1.00  0.00     0.265 C 
BRANCH  49  50
HETATM   50  N5  UNL     1      -6.070  -0.217   5.354  1.00  0.00    -0.077 N 
ATOM     51  H53 UNL     1      -7.058  -0.461   5.422  1.00  0.00     0.274 HD
ATOM     52  H52 UNL     1      -5.713  -1.165   5.237  1.00  0.00     0.274 HD
ATOM     53  H51 UNL     1      -5.711   0.251   6.186  1.00  0.00     0.274 HD
ENDBRANCH  49  50
ENDBRANCH  48  49
ENDBRANCH  44  45
ENDBRANCH  36  44
ENDBRANCH  35  36
ENDBRANCH  10  33
TORSDOF 17
