REMARK  16 active torsions:
REMARK  status: ('A' for Active; 'I' for Inactive)
REMARK    1  A    between atoms: C2_2  and  C3_3 
REMARK    2  A    between atoms: C3_3  and  C4_4 
REMARK    3  A    between atoms: C3_3  and  C11_11 
REMARK    4  A    between atoms: C4_4  and  C5_5 
REMARK       I    between atoms: C11_11  and  N1_13 
REMARK    5  A    between atoms: N1_13  and  C12_15 
REMARK    6  A    between atoms: C12_15  and  C14_17 
REMARK       I    between atoms: C14_17  and  N2_19 
REMARK    7  A    between atoms: N2_19  and  C15_21 
REMARK    8  A    between atoms: C15_21  and  C16_22 
REMARK    9  A    between atoms: C15_21  and  C35_51 
REMARK       I    between atoms: C16_22  and  N3_24 
REMARK   10  A    between atoms: C17_25  and  C18_26 
REMARK       I    between atoms: C18_26  and  N4_28 
REMARK   11  A    between atoms: N4_28  and  C19_30 
REMARK   12  A    between atoms: C19_30  and  C20_31 
REMARK   13  A    between atoms: C19_30  and  C24_40 
REMARK   14  A    between atoms: C20_31  and  O5_32 
REMARK   15  A    between atoms: C20_31  and  C21_34 
REMARK       I    between atoms: C21_34  and  N5_36 
REMARK   16  A    between atoms: N5_36  and  C22_38 
ROOT
HETATM    1  C16 UNL     1       0.385  -1.389  -0.684  1.00  0.00     0.244 C 
HETATM    2  O3  UNL     1      -0.826  -1.845  -0.762  1.00  0.00    -0.271 OA
HETATM    3  N3  UNL     1       1.415  -2.323  -0.634  1.00  0.00    -0.327 N 
HETATM    4  C17 UNL     1       2.833  -2.332  -0.401  1.00  0.00     0.185 C 
HETATM    5  C27 UNL     1       3.314  -2.690  -1.785  1.00  0.00     0.033 A 
HETATM    6  C28 UNL     1       2.270  -3.814  -2.143  1.00  0.00     0.029 A 
HETATM    7  C29 UNL     1       3.676  -4.079  -2.152  1.00  0.00    -0.035 A 
HETATM    8  C30 UNL     1       4.306  -4.137  -3.572  1.00  0.00     0.016 C 
HETATM    9  C31 UNL     1       4.469  -4.951  -1.240  1.00  0.00     0.016 C 
HETATM   10  C32 UNL     1       1.270  -3.762  -1.029  1.00  0.00     0.034 C 
HETATM   11  C33 UNL     1       1.433  -4.687   0.110  1.00  0.00     0.039 C 
HETATM   12  C34 UNL     1      -0.089  -4.068  -1.621  1.00  0.00     0.039 C 
ENDROOT
BRANCH   1  13
HETATM   13  C15 UNL     1       0.457   0.100  -0.675  1.00  0.00     0.180 C 
BRANCH  13  14
HETATM   14  N2  UNL     1      -0.885   0.666  -0.782  1.00  0.00    -0.346 N 
HETATM   15  C14 UNL     1      -1.710   1.071   0.251  1.00  0.00     0.240 C 
HETATM   16  O2  UNL     1      -1.349   0.971   1.447  1.00  0.00    -0.271 OA
ATOM     17  H2  UNL     1      -1.256   0.775  -1.726  1.00  0.00     0.163 HD
BRANCH  15  18
HETATM   18  C12 UNL     1      -3.076   1.643   0.004  1.00  0.00     0.172 C 
HETATM   19  C13 UNL     1      -3.564   1.401  -1.401  1.00  0.00     0.042 C 
BRANCH  18  20
HETATM   20  N1  UNL     1      -4.050   1.165   0.924  1.00  0.00    -0.348 N 
HETATM   21  C11 UNL     1      -4.680   1.991   1.873  1.00  0.00     0.226 C 
HETATM   22  O1  UNL     1      -4.367   3.203   1.919  1.00  0.00    -0.273 OA
ATOM     23  H1  UNL     1      -4.304   0.177   0.894  1.00  0.00     0.163 HD
BRANCH  21  24
HETATM   24  C3  UNL     1      -5.719   1.392   2.805  1.00  0.00     0.100 C 
BRANCH  24  25
HETATM   25  C2  UNL     1      -6.111   2.355   3.819  1.00  0.00    -0.023 C 
HETATM   26  C1  UNL     1      -5.961   2.089   5.117  1.00  0.00     0.008 C 
ENDBRANCH  24  25
BRANCH  24  27
HETATM   27  C4  UNL     1      -6.734   0.630   2.069  1.00  0.00     0.022 C 
BRANCH  27  28
HETATM   28  C5  UNL     1      -7.748   1.352   1.233  1.00  0.00    -0.013 C 
HETATM   29  C6  UNL     1      -8.602   2.240   2.032  1.00  0.00     0.005 C 
HETATM   30  C7  UNL     1     -10.048   2.359   1.601  1.00  0.00     0.000 C 
HETATM   31  C8  UNL     1     -10.636   1.109   1.032  1.00  0.00     0.000 C 
HETATM   32  C9  UNL     1      -9.742   0.754  -0.164  1.00  0.00     0.000 C 
HETATM   33  C10 UNL     1      -8.458   0.270   0.440  1.00  0.00     0.005 C 
ENDBRANCH  27  28
ENDBRANCH  24  27
ENDBRANCH  21  24
ENDBRANCH  18  20
ENDBRANCH  15  18
ENDBRANCH  13  14
BRANCH  13  34
HETATM   34  C35 UNL     1       1.214   0.627  -1.854  1.00  0.00     0.009 C 
HETATM   35  C36 UNL     1       1.194   2.140  -1.801  1.00  0.00     0.012 C 
HETATM   36  C37 UNL     1       0.574   0.215  -3.171  1.00  0.00     0.012 C 
ENDBRANCH  13  34
ENDBRANCH   1  13
BRANCH   4  37
HETATM   37  C18 UNL     1       3.529  -1.365   0.361  1.00  0.00     0.241 C 
HETATM   38  O4  UNL     1       3.049  -0.775   1.348  1.00  0.00    -0.271 OA
HETATM   39  N4  UNL     1       4.858  -1.034  -0.000  1.00  0.00    -0.348 N 
ATOM     40  H4  UNL     1       5.252  -1.498  -0.819  1.00  0.00     0.163 HD
BRANCH  39  41
HETATM   41  C19 UNL     1       5.708  -0.083   0.706  1.00  0.00     0.150 C 
BRANCH  41  42
HETATM   42  C20 UNL     1       5.666   1.242   0.079  1.00  0.00     0.134 C 
BRANCH  42  43
HETATM   43  O5  UNL     1       4.570   1.541  -0.568  1.00  0.00    -0.358 OA
ATOM     44  H5  UNL     1       4.543   2.399  -0.974  1.00  0.00     0.217 HD
ENDBRANCH  42  43
BRANCH  42  45
HETATM   45  C21 UNL     1       6.653   2.271   0.068  1.00  0.00     0.272 C 
HETATM   46  O6  UNL     1       7.782   2.133   0.548  1.00  0.00    -0.266 OA
HETATM   47  N5  UNL     1       6.386   3.567  -0.518  1.00  0.00    -0.356 N 
ATOM     48  H5  UNL     1       5.465   3.743  -0.920  1.00  0.00     0.162 HD
BRANCH  47  49
HETATM   49  C22 UNL     1       7.366   4.614  -0.555  1.00  0.00     0.118 C 
HETATM   50  C23 UNL     1       6.798   5.850  -1.257  1.00  0.00     0.026 C 
ENDBRANCH  47  49
ENDBRANCH  42  45
ENDBRANCH  41  42
BRANCH  41  51
HETATM   51  C24 UNL     1       7.080  -0.602   0.910  1.00  0.00     0.007 C 
HETATM   52  C25 UNL     1       7.016  -1.926   1.720  1.00  0.00     0.012 C 
HETATM   53  C26 UNL     1       7.845  -0.834  -0.358  1.00  0.00     0.012 C 
ENDBRANCH  41  51
ENDBRANCH  39  41
ENDBRANCH   4  37
TORSDOF 16
