REMARK  16 active torsions:
REMARK  status: ('A' for Active; 'I' for Inactive)
REMARK    1  A    between atoms: C2_2  and  C3_3 
REMARK    2  A    between atoms: C3_3  and  C4_4 
REMARK    3  A    between atoms: C4_4  and  N1_5 
REMARK    4  A    between atoms: C4_4  and  C24_32 
REMARK       I    between atoms: N1_5  and  C5_7 
REMARK    5  A    between atoms: C5_7  and  C6_9 
REMARK       I    between atoms: N2_13  and  C10_14 
REMARK    6  A    between atoms: C10_14  and  C11_16 
REMARK    7  A    between atoms: C11_16  and  C12_17 
REMARK    8  A    between atoms: C11_16  and  N3_20 
REMARK    9  A    between atoms: C12_17  and  C13_18 
REMARK       I    between atoms: N3_20  and  C15_22 
REMARK   10  A    between atoms: C15_22  and  C16_24 
REMARK   11  A    between atoms: C24_32  and  C25_34 
REMARK       I    between atoms: C25_34  and  N4_36 
REMARK   12  A    between atoms: N4_36  and  C26_38 
REMARK   13  A    between atoms: C26_38  and  C27_39 
REMARK       I    between atoms: N5_42  and  C30_43 
REMARK   14  A    between atoms: C30_43  and  O7_45 
REMARK   15  A    between atoms: O7_45  and  C31_46 
REMARK   16  A    between atoms: C31_46  and  C32_47 
ROOT
HETATM    1  N1  UNL     1      -1.273  -0.882  -0.774  1.00  0.00    -0.347 N 
ATOM      2  H1  UNL     1      -2.043  -0.302  -1.107  1.00  0.00     0.163 HD
HETATM    3  C5  UNL     1      -1.571  -2.089  -0.144  1.00  0.00     0.241 C 
HETATM    4  O1  UNL     1      -0.545  -2.771   0.259  1.00  0.00    -0.271 OA
ENDROOT
BRANCH   1   5
HETATM    5  C4  UNL     1       0.086  -0.414  -0.977  1.00  0.00     0.164 C 
BRANCH   5   6
HETATM    6  C3  UNL     1       0.316   0.191  -2.325  1.00  0.00     0.033 C 
BRANCH   6   7
HETATM    7  C2  UNL     1       0.056  -0.805  -3.446  1.00  0.00    -0.002 C 
HETATM    8  C1  UNL     1       0.311  -0.065  -4.753  1.00  0.00     0.005 C 
ENDBRANCH   6   7
ENDBRANCH   5   6
BRANCH   5   9
HETATM    9  C24 UNL     1       0.578   0.453   0.125  1.00  0.00     0.239 C 
HETATM   10  O4  UNL     1      -0.162   1.198   0.773  1.00  0.00    -0.285 OA
BRANCH   9  11
HETATM   11  C25 UNL     1       2.016   0.424   0.470  1.00  0.00     0.293 C 
HETATM   12  O5  UNL     1       2.709  -0.328  -0.245  1.00  0.00    -0.264 OA
HETATM   13  N4  UNL     1       2.583   1.162   1.510  1.00  0.00    -0.334 N 
ATOM     14  H4  UNL     1       1.935   1.746   2.038  1.00  0.00     0.168 HD
BRANCH  13  15
HETATM   15  C26 UNL     1       3.929   1.213   1.933  1.00  0.00     0.070 C 
BRANCH  15  16
HETATM   16  C27 UNL     1       4.998   1.767   1.091  1.00  0.00     0.044 C 
HETATM   17  C28 UNL     1       5.292   1.181  -0.233  1.00  0.00     0.031 C 
HETATM   18  C29 UNL     1       6.719   1.718  -0.508  1.00  0.00     0.129 C 
HETATM   19  N5  UNL     1       7.312   1.307   0.763  1.00  0.00    -0.327 N 
HETATM   20  C30 UNL     1       8.574   0.722   0.898  1.00  0.00     0.362 C 
HETATM   21  C35 UNL     1       6.355   1.590   1.812  1.00  0.00     0.138 C 
HETATM   22  O6  UNL     1       9.069   0.376   2.000  1.00  0.00    -0.238 OA
BRANCH  20  23
HETATM   23  O7  UNL     1       9.380   0.479  -0.230  1.00  0.00    -0.304 OA
BRANCH  23  24
HETATM   24  C31 UNL     1      10.645  -0.112  -0.144  1.00  0.00     0.185 C 
BRANCH  24  25
HETATM   25  C32 UNL     1      11.609   0.672   0.697  1.00  0.00     0.010 A 
HETATM   26  C33 UNL     1      11.939   2.067   0.300  1.00  0.00     0.007 A 
HETATM   27  C34 UNL     1      12.918   1.022  -0.008  1.00  0.00     0.007 A 
ENDBRANCH  24  25
ENDBRANCH  23  24
ENDBRANCH  20  23
ENDBRANCH  15  16
ENDBRANCH  13  15
ENDBRANCH   9  11
ENDBRANCH   5   9
ENDBRANCH   1   5
BRANCH   3  28
HETATM   28  C6  UNL     1      -2.840  -2.740   0.154  1.00  0.00     0.184 C 
HETATM   29  C7  UNL     1      -2.849  -4.051  -0.532  1.00  0.00     0.032 A 
HETATM   30  C8  UNL     1      -4.391  -4.272  -0.440  1.00  0.00     0.019 A 
HETATM   31  C21 UNL     1      -3.449  -5.297  -0.336  1.00  0.00    -0.036 A 
HETATM   32  C9  UNL     1      -4.634  -3.083  -1.324  1.00  0.00     0.132 C 
HETATM   33  N2  UNL     1      -4.034  -2.100  -0.349  1.00  0.00    -0.336 N 
HETATM   34  C10 UNL     1      -4.689  -0.896  -0.078  1.00  0.00     0.243 C 
HETATM   35  O2  UNL     1      -5.753  -0.663  -0.779  1.00  0.00    -0.271 OA
HETATM   36  C22 UNL     1      -3.183  -5.968   1.026  1.00  0.00     0.016 C 
HETATM   37  C23 UNL     1      -3.412  -6.360  -1.429  1.00  0.00     0.016 C 
BRANCH  34  38
HETATM   38  C11 UNL     1      -4.370   0.151   0.884  1.00  0.00     0.176 C 
BRANCH  38  39
HETATM   39  C12 UNL     1      -4.240  -0.310   2.309  1.00  0.00     0.034 C 
BRANCH  39  40
HETATM   40  C13 UNL     1      -5.505  -0.942   2.838  1.00  0.00    -0.002 C 
HETATM   41  C14 UNL     1      -5.339  -1.394   4.274  1.00  0.00     0.005 C 
ENDBRANCH  39  40
ENDBRANCH  38  39
BRANCH  38  42
HETATM   42  N3  UNL     1      -5.414   1.169   0.849  1.00  0.00    -0.347 N 
HETATM   43  C15 UNL     1      -5.086   2.503   0.568  1.00  0.00     0.222 C 
HETATM   44  O3  UNL     1      -3.882   2.804   0.353  1.00  0.00    -0.273 OA
ATOM     45  H3  UNL     1      -6.384   0.910   1.029  1.00  0.00     0.163 HD
BRANCH  43  46
HETATM   46  C16 UNL     1      -6.125   3.583   0.515  1.00  0.00     0.078 C 
HETATM   47  C17 UNL     1      -5.510   4.921   0.234  1.00  0.00     0.014 C 
HETATM   48  C18 UNL     1      -6.396   5.571  -0.816  1.00  0.00     0.001 C 
HETATM   49  C19 UNL     1      -7.062   4.433  -1.565  1.00  0.00     0.001 C 
HETATM   50  C20 UNL     1      -7.126   3.307  -0.588  1.00  0.00     0.014 C 
ENDBRANCH  43  46
ENDBRANCH  38  42
ENDBRANCH  34  38
ENDBRANCH   3  28
TORSDOF 16
