REMARK  3 active torsions:
REMARK  status: ('A' for Active; 'I' for Inactive)
REMARK    1  A    between atoms: N1_1  and  N2_4 
REMARK       I    between atoms: C1_6  and  N4_8 
REMARK    2  A    between atoms: N4_8  and  S1_10 
REMARK    3  A    between atoms: S1_10  and  N5_11 
ROOT
HETATM    1  N2  UNL     1       1.045   1.088  -0.092  1.00  0.00    -0.280 N 
ATOM      2  H2  UNL     1       0.341   1.820  -0.000  1.00  0.00     0.189 HD
HETATM    3  C1  UNL     1       0.699  -0.099  -0.364  1.00  0.00     0.217 C 
HETATM    4  N3  UNL     1       1.657  -1.113  -0.493  1.00  0.00    -0.061 NA
HETATM    5  N4  UNL     1      -0.660  -0.405  -0.538  1.00  0.00    -0.240 N 
ATOM      6  H4  UNL     1      -1.015  -0.479  -1.491  1.00  0.00     0.183 HD
ENDROOT
BRANCH   5   7
HETATM    7  S1  UNL     1      -1.764  -0.663   0.756  1.00  0.00     0.319 S 
HETATM    8  O1  UNL     1      -1.066  -1.224   1.940  1.00  0.00    -0.183 OA
HETATM    9  O2  UNL     1      -2.840  -1.589   0.247  1.00  0.00    -0.183 OA
BRANCH   7  10
HETATM   10  N5  UNL     1      -2.488   0.843   1.194  1.00  0.00    -0.311 N 
ATOM     11  H52 UNL     1      -2.283   1.736   0.746  1.00  0.00     0.170 HD
ATOM     12  H51 UNL     1      -3.143   0.690   1.961  1.00  0.00     0.170 HD
ENDBRANCH   7  10
ENDBRANCH   5   7
BRANCH   1  13
HETATM   13  N1  UNL     1       2.396   1.386   0.081  1.00  0.00    -0.343 N 
ATOM     14  H12 UNL     1       3.087   0.642  -0.014  1.00  0.00     0.176 HD
ATOM     15  H11 UNL     1       2.675   2.342   0.300  1.00  0.00     0.176 HD
ENDBRANCH   1  13
TORSDOF 3
