REMARK  2 active torsions:
REMARK  status: ('A' for Active; 'I' for Inactive)
REMARK    1  A    between atoms: N1_1  and  N2_4 
REMARK    2  A    between atoms: N2_4  and  C1_6 
ROOT
HETATM    1  C1  UNL     1       1.362   0.147  -0.888  1.00  0.00     0.156 C 
HETATM    2  C2  UNL     1       0.124   0.215  -0.459  1.00  0.00     0.140 A 
HETATM    3  N3  UNL     1      -0.416  -0.776   0.415  1.00  0.00    -0.281 N 
ATOM      4  H3  UNL     1       0.184  -1.548   0.704  1.00  0.00     0.188 HD
HETATM    5  N4  UNL     1      -1.729  -0.737   0.893  1.00  0.00    -0.260 N 
ATOM      6  H4  UNL     1      -2.066  -1.470   1.517  1.00  0.00     0.190 HD
HETATM    7  C3  UNL     1      -2.580   0.303   0.518  1.00  0.00     0.328 A 
HETATM    8  O1  UNL     1      -3.784   0.395   0.917  1.00  0.00    -0.261 OA
HETATM    9  C4  UNL     1      -2.107   1.348  -0.368  1.00  0.00     0.316 A 
HETATM   10  O2  UNL     1      -2.854   2.317  -0.735  1.00  0.00    -0.262 OA
HETATM   11  N5  UNL     1      -0.767   1.273  -0.831  1.00  0.00    -0.303 N 
ATOM     12  H5  UNL     1      -0.424   2.003  -1.455  1.00  0.00     0.171 HD
ENDROOT
BRANCH   1  13
HETATM   13  N2  UNL     1       2.176  -0.928  -0.475  1.00  0.00    -0.315 N 
ATOM     14  H2  UNL     1       2.266  -1.743  -1.082  1.00  0.00     0.185 HD
BRANCH  13  15
HETATM   15  N1  UNL     1       2.870  -0.909   0.756  1.00  0.00    -0.345 N 
ATOM     16  H12 UNL     1       2.768  -0.087   1.351  1.00  0.00     0.176 HD
ATOM     17  H11 UNL     1       3.459  -1.687   1.055  1.00  0.00     0.176 HD
ENDBRANCH  13  15
ENDBRANCH   1  13
TORSDOF 2
