REMARK  2 active torsions:
REMARK  status: ('A' for Active; 'I' for Inactive)
REMARK       I    between atoms: C2_4  and  N3_6 
REMARK    1  A    between atoms: N3_6  and  N4_8 
REMARK       I    between atoms: N4_8  and  C3_10 
REMARK    2  A    between atoms: C3_10  and  C4_12 
ROOT
HETATM    1  C1  UNL     1      -2.579   1.502  -0.558  1.00  0.00     0.148 C 
HETATM    2  N1  UNL     1      -2.560   0.089  -0.416  1.00  0.00    -0.368 N 
ATOM      3  H1  UNL     1      -3.274  -0.419  -0.938  1.00  0.00     0.161 HD
HETATM    4  C2  UNL     1      -1.772  -0.621   0.274  1.00  0.00     0.202 C 
HETATM    5  N2  UNL     1      -1.967  -2.050   0.247  1.00  0.00    -0.062 NA
HETATM    6  N3  UNL     1      -0.710  -0.162   1.079  1.00  0.00    -0.271 N 
ATOM      7  H3  UNL     1      -0.926   0.495   1.829  1.00  0.00     0.189 HD
ENDROOT
BRANCH   6   8
HETATM    8  N4  UNL     1       0.616  -0.552   0.911  1.00  0.00    -0.260 N 
HETATM    9  C3  UNL     1       1.543   0.172   0.108  1.00  0.00     0.325 C 
HETATM   10  O1  UNL     1       1.120   1.208  -0.465  1.00  0.00    -0.261 OA
ATOM     11  H4  UNL     1       0.939  -1.396   1.385  1.00  0.00     0.190 HD
BRANCH   9  12
HETATM   12  C4  UNL     1       2.912  -0.214  -0.078  1.00  0.00     0.324 C 
HETATM   13  N5  UNL     1       3.770   0.552  -0.893  1.00  0.00    -0.053 NA
HETATM   14  O2  UNL     1       3.346  -1.239   0.491  1.00  0.00    -0.266 OA
ENDBRANCH   9  12
ENDBRANCH   6   8
TORSDOF 2
