REMARK  2 active torsions:
REMARK  status: ('A' for Active; 'I' for Inactive)
REMARK    1  A    between atoms: C2_6  and  C3_7 
REMARK    2  A    between atoms: N3_8  and  C4_10 
ROOT
HETATM    1  C3  UNL     1      -0.727   0.161  -0.083  1.00  0.00     0.106 C 
HETATM    2  N3  UNL     1       0.293   0.047   0.664  1.00  0.00    -0.352 N 
ATOM      3  H3  UNL     1       0.123  -0.011   1.668  1.00  0.00     0.166 HD
ENDROOT
BRANCH   2   4
HETATM    4  C4  UNL     1       1.630  -0.007   0.246  1.00  0.00     0.114 A 
HETATM    5  C5  UNL     1       2.504  -0.866   0.878  1.00  0.00     0.123 A 
HETATM    6  C6  UNL     1       3.814  -0.901   0.448  1.00  0.00     0.252 A 
HETATM    7  O2  UNL     1       4.650  -1.668   0.992  1.00  0.00    -0.268 OA
HETATM    8  N4  UNL     1       4.255  -0.126  -0.560  1.00  0.00    -0.275 N 
HETATM    9  C7  UNL     1       3.371   0.699  -1.151  1.00  0.00     0.328 A 
ATOM     10  H4  UNL     1       5.227  -0.163  -0.866  1.00  0.00     0.173 HD
HETATM   11  O3  UNL     1       3.774   1.425  -2.091  1.00  0.00    -0.247 OA
HETATM   12  N5  UNL     1       2.083   0.747  -0.743  1.00  0.00    -0.294 N 
ATOM     13  H5  UNL     1       1.440   1.385  -1.212  1.00  0.00     0.172 HD
ENDBRANCH   2   4
BRANCH   1  14
HETATM   14  C2  UNL     1      -2.068   0.200   0.552  1.00  0.00     0.239 C 
HETATM   15  N2  UNL     1      -2.730  -1.089   0.500  1.00  0.00    -0.106 NA
HETATM   16  N1  UNL     1      -4.066  -0.755   0.773  1.00  0.00    -0.253 N 
HETATM   17  C1  UNL     1      -4.280   0.463   0.034  1.00  0.00     0.333 C 
ATOM     18  H1  UNL     1      -4.732  -1.259   1.359  1.00  0.00     0.187 HD
HETATM   19  O1  UNL     1      -5.399   0.909  -0.330  1.00  0.00    -0.246 OA
HETATM   20  N6  UNL     1      -2.995   1.034  -0.188  1.00  0.00    -0.318 N 
ATOM     21  H6  UNL     1      -2.773   1.856  -0.749  1.00  0.00     0.166 HD
ENDBRANCH   1  14
TORSDOF 2
