REMARK  5 active torsions:
REMARK  status: ('A' for Active; 'I' for Inactive)
REMARK    1  A    between atoms: C1_4  and  C2_5 
REMARK    2  A    between atoms: C1_4  and  N3_10 
REMARK    3  A    between atoms: C2_5  and  N2_6 
REMARK    4  A    between atoms: N3_10  and  C3_12 
REMARK    5  A    between atoms: N6_19  and  C5_20 
ROOT
HETATM    1  C3  UNL     1      -0.107   0.701  -0.137  1.00  0.00     0.711 A 
HETATM    2  N4  UNL     1       0.396   1.795  -0.732  1.00  0.00    -0.138 N 
ATOM      3  H4  UNL     1       1.381   2.041  -0.827  1.00  0.00     0.189 HD
HETATM    4  C4  UNL     1      -0.675   2.513  -1.184  1.00  0.00     0.354 A 
HETATM    5  O1  UNL     1      -0.643   3.600  -1.796  1.00  0.00    -0.245 OA
HETATM    6  N5  UNL     1      -1.774   1.815  -0.837  1.00  0.00    -0.228 N 
ATOM      7  H5  UNL     1      -2.730   2.105  -1.041  1.00  0.00     0.193 HD
HETATM    8  N6  UNL     1      -1.450   0.707  -0.198  1.00  0.00    -0.063 N 
ENDROOT
BRANCH   1   9
HETATM    9  N3  UNL     1       0.570  -0.238   0.423  1.00  0.00    -0.177 N 
ATOM     10  H3  UNL     1       0.057  -1.015   0.840  1.00  0.00     0.185 HD
BRANCH   9  11
HETATM   11  C1  UNL     1       1.980  -0.260   0.496  1.00  0.00     0.116 C 
HETATM   12  N1  UNL     1       2.587   0.463   1.356  1.00  0.00    -0.387 N 
ATOM     13  H12 UNL     1       3.606   0.447   1.409  1.00  0.00     0.157 HD
ATOM     14  H11 UNL     1       2.062   1.060   1.995  1.00  0.00     0.157 HD
BRANCH  11  15
HETATM   15  C2  UNL     1       2.740  -1.123  -0.428  1.00  0.00     0.305 C 
BRANCH  15  16
HETATM   16  N2  UNL     1       4.162  -0.988  -0.177  1.00  0.00    -0.073 N 
ATOM     17  H23 UNL     1       4.468  -0.016  -0.223  1.00  0.00     0.274 HD
ATOM     18  H22 UNL     1       4.397  -1.172   0.798  1.00  0.00     0.274 HD
ATOM     19  H21 UNL     1       4.687  -1.585  -0.816  1.00  0.00     0.274 HD
ENDBRANCH  15  16
ENDBRANCH  11  15
ENDBRANCH   9  11
ENDBRANCH   1   9
BRANCH   8  20
HETATM   20  C5  UNL     1      -2.354  -0.270   0.314  1.00  0.00     0.175 A 
HETATM   21  C6  UNL     1      -2.924  -1.307  -0.411  1.00  0.00     0.157 A 
HETATM   22  N7  UNL     1      -3.699  -1.981   0.433  1.00  0.00    -0.292 N 
HETATM   23  N8  UNL     1      -3.653  -1.438   1.638  1.00  0.00    -0.021 NA
ATOM     24  H7  UNL     1      -4.252  -2.802   0.186  1.00  0.00     0.183 HD
HETATM   25  N9  UNL     1      -2.836  -0.401   1.560  1.00  0.00    -0.266 N 
ATOM     26  H9  UNL     1      -2.604   0.215   2.339  1.00  0.00     0.186 HD
ENDBRANCH   8  20
TORSDOF 5
