REMARK  3 active torsions:
REMARK  status: ('A' for Active; 'I' for Inactive)
REMARK    1  A    between atoms: N1_1  and  C1_4 
REMARK    2  A    between atoms: N3_7  and  C2_8 
REMARK    3  A    between atoms: C5_18  and  C6_19 
ROOT
HETATM    1  C1  UNL     1      -1.866  -1.279  -0.409  1.00  0.00     0.149 A 
HETATM    2  N2  UNL     1      -0.538  -1.318  -0.592  1.00  0.00    -0.261 N 
ATOM      3  H2  UNL     1      -0.030  -2.111  -0.982  1.00  0.00     0.191 HD
HETATM    4  N3  UNL     1       0.028  -0.175  -0.193  1.00  0.00    -0.180 N 
HETATM    5  N6  UNL     1      -0.954   0.583   0.242  1.00  0.00    -0.270 N 
ATOM      6  H6  UNL     1      -0.833   1.525   0.614  1.00  0.00     0.189 HD
HETATM    7  C5  UNL     1      -2.127  -0.037   0.135  1.00  0.00     0.160 A 
ENDROOT
BRANCH   4   8
HETATM    8  C2  UNL     1       1.415   0.140  -0.239  1.00  0.00     0.145 C 
HETATM    9  N4  UNL     1       1.921   1.284  -0.515  1.00  0.00    -0.353 N 
HETATM   10  C3  UNL     1       3.342   1.274  -0.478  1.00  0.00     0.356 C 
ATOM     11  H4  UNL     1       1.366   2.110  -0.737  1.00  0.00     0.162 HD
HETATM   12  N5  UNL     1       3.681   0.075   0.233  1.00  0.00    -0.053 N 
HETATM   13  C4  UNL     1       2.512  -0.795   0.029  1.00  0.00     0.313 C 
ATOM     14  H52 UNL     1       4.570  -0.342  -0.044  1.00  0.00     0.279 HD
ATOM     15  H51 UNL     1       3.931   0.222   1.211  1.00  0.00     0.279 HD
ENDBRANCH   4   8
BRANCH   1  16
HETATM   16  N1  UNL     1      -2.751  -2.164  -0.661  1.00  0.00    -0.382 N 
ATOM     17  H12 UNL     1      -2.558  -3.081  -1.063  1.00  0.00     0.157 HD
ATOM     18  H11 UNL     1      -3.761  -2.134  -0.522  1.00  0.00     0.157 HD
ENDBRANCH   1  16
BRANCH   7  19
HETATM   19  C6  UNL     1      -3.422   0.514   0.525  1.00  0.00     0.286 C 
HETATM   20  N7  UNL     1      -3.545   1.803   1.071  1.00  0.00    -0.056 NA
HETATM   21  O1  UNL     1      -4.456  -0.175   0.372  1.00  0.00    -0.269 OA
ENDBRANCH   7  19
TORSDOF 3
