REMARK  1 active torsions:
REMARK  status: ('A' for Active; 'I' for Inactive)
REMARK    1  A    between atoms: C1_4  and  C2_6 
ROOT
HETATM    1  C2  UNL     1      -1.404   0.201   0.071  1.00  0.00     0.149 A 
HETATM    2  N3  UNL     1      -0.753   1.104   0.806  1.00  0.00    -0.326 N 
ATOM      3  H3  UNL     1      -1.290   1.805   1.316  1.00  0.00     0.168 HD
HETATM    4  C3  UNL     1       0.601   1.120   0.898  1.00  0.00     0.148 A 
HETATM    5  N4  UNL     1       1.297   2.083   1.682  1.00  0.00    -0.080 NA
HETATM    6  C4  UNL     1       1.336   0.184   0.220  1.00  0.00     0.123 A 
HETATM    7  N5  UNL     1       2.677   0.126   0.254  1.00  0.00    -0.301 N 
ATOM      8  H5  UNL     1       3.207   0.801   0.805  1.00  0.00     0.171 HD
HETATM    9  C5  UNL     1       3.325  -0.842  -0.454  1.00  0.00     0.339 A 
HETATM   10  O1  UNL     1       4.572  -0.846  -0.383  1.00  0.00    -0.245 OA
HETATM   11  N6  UNL     1       2.666  -1.752  -1.195  1.00  0.00    -0.250 N 
ATOM     12  H6  UNL     1       3.169  -2.469  -1.718  1.00  0.00     0.192 HD
HETATM   13  N7  UNL     1       1.350  -1.687  -1.223  1.00  0.00    -0.280 N 
ATOM     14  H7  UNL     1       0.830  -2.366  -1.779  1.00  0.00     0.189 HD
HETATM   15  C6  UNL     1       0.675  -0.747  -0.537  1.00  0.00     0.152 A 
HETATM   16  N8  UNL     1      -0.655  -0.715  -0.591  1.00  0.00    -0.323 N 
ATOM     17  H8  UNL     1      -1.134  -1.414  -1.158  1.00  0.00     0.169 HD
ENDROOT
BRANCH   1  18
HETATM   18  C1  UNL     1      -2.862   0.193  -0.021  1.00  0.00     0.154 C 
HETATM   19  N1  UNL     1      -3.533   1.070   0.615  1.00  0.00    -0.385 N 
ATOM     20  H12 UNL     1      -4.551   1.064   0.551  1.00  0.00     0.157 HD
ATOM     21  H11 UNL     1      -3.052   1.768   1.182  1.00  0.00     0.157 HD
HETATM   22  N2  UNL     1      -3.526  -0.770  -0.803  1.00  0.00    -0.079 NA
ENDBRANCH   1  18
TORSDOF 1
