REMARK  2 active torsions:
REMARK  status: ('A' for Active; 'I' for Inactive)
REMARK       I    between atoms: C1_4  and  N3_6 
REMARK    1  A    between atoms: N3_6  and  S1_8 
REMARK    2  A    between atoms: S1_8  and  C2_11 
ROOT
HETATM    1  S1  UNL     1       0.552  -0.450   1.395  1.00  0.00     0.299 S 
HETATM    2  O1  UNL     1      -0.084   0.558   2.324  1.00  0.00    -0.197 OA
HETATM    3  O2  UNL     1       1.590  -1.252   2.126  1.00  0.00    -0.197 OA
ENDROOT
BRANCH   1   4
HETATM    4  N3  UNL     1      -0.611  -1.529   0.746  1.00  0.00    -0.252 N 
HETATM    5  C1  UNL     1      -1.711  -0.964   0.018  1.00  0.00     0.195 C 
HETATM    6  N1  UNL     1      -2.911  -1.056   0.428  1.00  0.00    -0.373 N 
HETATM    7  N2  UNL     1      -1.373  -0.293  -1.193  1.00  0.00    -0.063 NA
ATOM      8  H12 UNL     1      -3.693  -0.654  -0.089  1.00  0.00     0.158 HD
ATOM      9  H11 UNL     1      -3.153  -1.536   1.295  1.00  0.00     0.158 HD
ATOM     10  H3  UNL     1      -0.524  -2.537   0.873  1.00  0.00     0.181 HD
ENDBRANCH   1   4
BRANCH   1  11
HETATM   11  C2  UNL     1       1.352   0.472   0.123  1.00  0.00     0.256 A 
HETATM   12  N4  UNL     1       2.467   0.107  -0.519  1.00  0.00    -0.258 N 
HETATM   13  N5  UNL     1       2.743   1.056  -1.389  1.00  0.00    -0.226 N 
ATOM     14  H4  UNL     1       3.003  -0.747  -0.364  1.00  0.00     0.191 HD
HETATM   15  N6  UNL     1       1.845   2.020  -1.330  1.00  0.00    -0.226 N 
ATOM     16  H5  UNL     1       3.542   1.047  -2.022  1.00  0.00     0.210 HD
HETATM   17  N7  UNL     1       0.988   1.654  -0.393  1.00  0.00    -0.258 N 
ATOM     18  H6  UNL     1       1.818   2.871  -1.891  1.00  0.00     0.210 HD
ATOM     19  H7  UNL     1       0.170   2.192  -0.105  1.00  0.00     0.191 HD
ENDBRANCH   1  11
TORSDOF 2
