REMARK  4 active torsions:
REMARK  status: ('A' for Active; 'I' for Inactive)
REMARK    1  A    between atoms: N1_1  and  C1_4 
REMARK    2  A    between atoms: C4_10  and  O1_11 
REMARK    3  A    between atoms: C4_10  and  N4_13 
REMARK    4  A    between atoms: N4_13  and  N5_15 
ROOT
HETATM    1  C1  UNL     1      -2.191  -1.509  -1.469  1.00  0.00     0.691 A 
HETATM    2  N2  UNL     1      -0.885  -1.822  -1.426  1.00  0.00    -0.186 N 
ATOM      3  H2  UNL     1      -0.532  -2.641  -1.922  1.00  0.00     0.185 HD
HETATM    4  C2  UNL     1      -0.041  -1.032  -0.712  1.00  0.00     0.224 A 
HETATM    5  N3  UNL     1      -0.466   0.056  -0.046  1.00  0.00    -0.137 N 
HETATM    6  C3  UNL     1       0.147   0.970   0.723  1.00  0.00     0.125 A 
HETATM    7  C4  UNL     1       1.537   1.148   1.048  1.00  0.00     0.184 C 
HETATM    8  C5  UNL     1      -0.841   1.881   1.172  1.00  0.00     0.141 A 
HETATM    9  N6  UNL     1      -1.989   1.465   0.645  1.00  0.00    -0.198 N 
ATOM     10  H6  UNL     1      -2.891   1.920   0.785  1.00  0.00     0.183 HD
HETATM   11  C6  UNL     1      -1.795   0.362  -0.097  1.00  0.00     0.704 A 
HETATM   12  N7  UNL     1      -2.624  -0.426  -0.807  1.00  0.00    -0.022 N 
ATOM     13  H7  UNL     1      -3.616  -0.191  -0.843  1.00  0.00     0.203 HD
ENDROOT
BRANCH   7  14
HETATM   14  O1  UNL     1       1.821   1.810   2.135  1.00  0.00    -0.343 OA
ATOM     15  H1  UNL     1       2.739   1.928   2.350  1.00  0.00     0.219 HD
ENDBRANCH   7  14
BRANCH   7  16
HETATM   16  N4  UNL     1       2.635   0.684   0.307  1.00  0.00    -0.285 N 
ATOM     17  H4  UNL     1       2.486   0.169  -0.561  1.00  0.00     0.188 HD
BRANCH  16  18
HETATM   18  N5  UNL     1       3.965   0.937   0.774  1.00  0.00    -0.343 N 
ATOM     19  H52 UNL     1       4.096   1.454   1.644  1.00  0.00     0.176 HD
ATOM     20  H51 UNL     1       4.763   0.600   0.235  1.00  0.00     0.176 HD
ENDBRANCH  16  18
ENDBRANCH   7  16
BRANCH   1  21
HETATM   21  N1  UNL     1      -2.956  -2.278  -2.154  1.00  0.00    -0.234 N 
ATOM     22  H12 UNL     1      -2.627  -3.102  -2.657  1.00  0.00     0.174 HD
ATOM     23  H11 UNL     1      -3.947  -2.040  -2.187  1.00  0.00     0.174 HD
ENDBRANCH   1  21
TORSDOF 4
