REMARK  4 active torsions:
REMARK  status: ('A' for Active; 'I' for Inactive)
REMARK    1  A    between atoms: N1_1  and  N2_4 
REMARK    2  A    between atoms: C1_6  and  C2_7 
REMARK    3  A    between atoms: C5_15  and  C6_16 
REMARK       I    between atoms: C6_16  and  N5_18 
REMARK    4  A    between atoms: N5_18  and  N6_20 
ROOT
HETATM    1  C2  UNL     1       0.411  -1.010  -0.056  1.00  0.00     0.084 A 
HETATM    2  N3  UNL     1       1.513  -1.831   0.104  1.00  0.00    -0.319 N 
ATOM      3  H3  UNL     1       1.369  -2.841   0.106  1.00  0.00     0.169 HD
HETATM    4  C3  UNL     1       2.753  -1.368   0.255  1.00  0.00     0.261 A 
HETATM    5  O1  UNL     1       3.725  -2.153   0.397  1.00  0.00    -0.267 OA
HETATM    6  C4  UNL     1       2.976  -0.018   0.255  1.00  0.00     0.163 A 
HETATM    7  N4  UNL     1       1.946   0.784   0.104  1.00  0.00    -0.355 N 
ATOM      8  H4  UNL     1       2.110   1.791   0.105  1.00  0.00     0.165 HD
HETATM    9  C5  UNL     1       0.637   0.323  -0.058  1.00  0.00     0.131 A 
ENDROOT
BRANCH   9  10
HETATM   10  C6  UNL     1      -0.365   1.333  -0.301  1.00  0.00     0.288 C 
HETATM   11  O2  UNL     1      -1.462   1.230  -0.834  1.00  0.00    -0.264 OA
HETATM   12  N5  UNL     1      -0.071   2.683   0.137  1.00  0.00    -0.271 N 
ATOM     13  H5  UNL     1       0.827   2.847   0.592  1.00  0.00     0.189 HD
BRANCH  12  14
HETATM   14  N6  UNL     1      -0.912   3.756  -0.015  1.00  0.00    -0.342 N 
ATOM     15  H62 UNL     1      -1.806   3.573  -0.472  1.00  0.00     0.176 HD
ATOM     16  H61 UNL     1      -0.705   4.706   0.293  1.00  0.00     0.176 HD
ENDBRANCH  12  14
ENDBRANCH   9  10
BRANCH   1  17
HETATM   17  C1  UNL     1      -0.893  -1.614  -0.125  1.00  0.00     0.138 C 
HETATM   18  N2  UNL     1      -2.052  -1.142  -0.162  1.00  0.00    -0.316 N 
ATOM     19  H2  UNL     1      -2.160  -0.128  -0.142  1.00  0.00     0.185 HD
BRANCH  18  20
HETATM   20  N1  UNL     1      -3.185  -1.912  -0.228  1.00  0.00    -0.345 N 
ATOM     21  H12 UNL     1      -3.059  -2.924  -0.247  1.00  0.00     0.176 HD
ATOM     22  H11 UNL     1      -4.129  -1.527  -0.258  1.00  0.00     0.176 HD
ENDBRANCH  18  20
ENDBRANCH   1  17
TORSDOF 4
