REMARK  10 active torsions:
REMARK  status: ('A' for Active; 'I' for Inactive)
REMARK    1  A    between atoms: C2_2  and  N1_3 
REMARK    2  A    between atoms: C3_4  and  C4_5 
REMARK    3  A    between atoms: C4_5  and  N2_6 
REMARK    4  A    between atoms: N2_6  and  N3_8 
REMARK       I    between atoms: N3_8  and  C5_10 
REMARK    5  A    between atoms: C5_10  and  C6_12 
REMARK    6  A    between atoms: C6_12  and  S1_13 
REMARK    7  A    between atoms: S1_13  and  C7_14 
REMARK    8  A    between atoms: C8_19  and  N6_20 
REMARK    9  A    between atoms: C11_31  and  N9_32 
REMARK   10  A    between atoms: C13_38  and  N11_39 
ROOT
HETATM    1  N1  UNL     1      -1.984   1.532   0.116  1.00  0.00    -0.317 N 
HETATM    2  C3  UNL     1      -0.930   0.814  -0.277  1.00  0.00     0.127 A 
HETATM    3  N7  UNL     1      -1.039  -0.554  -0.373  1.00  0.00    -0.335 N 
ATOM      4  H7  UNL     1      -0.223  -1.087  -0.675  1.00  0.00     0.168 HD
HETATM    5  C9  UNL     1      -2.150  -1.210  -0.093  1.00  0.00     0.134 A 
HETATM    6  C10 UNL     1      -2.209  -2.598  -0.206  1.00  0.00     0.288 A 
HETATM    7  O2  UNL     1      -1.155  -3.165  -0.584  1.00  0.00    -0.265 OA
HETATM    8  N8  UNL     1      -3.347  -3.196   0.088  1.00  0.00    -0.154 N 
ATOM      9  H8  UNL     1      -3.394  -4.212   0.006  1.00  0.00     0.187 HD
HETATM   10  C11 UNL     1      -4.446  -2.541   0.489  1.00  0.00     0.679 A 
HETATM   11  N10 UNL     1      -4.363  -1.192   0.590  1.00  0.00    -0.186 N 
ATOM     12  H10 UNL     1      -5.190  -0.677   0.892  1.00  0.00     0.184 HD
HETATM   13  C12 UNL     1      -3.252  -0.504   0.313  1.00  0.00     0.125 A 
HETATM   14  C13 UNL     1      -3.159   0.882   0.416  1.00  0.00     0.138 A 
ENDROOT
BRANCH   2  15
HETATM   15  C4  UNL     1       0.323   1.453  -0.635  1.00  0.00     0.155 C 
BRANCH  15  16
HETATM   16  N2  UNL     1       1.378   0.924  -0.980  1.00  0.00    -0.306 N 
ATOM     17  H2  UNL     1       2.105   1.613  -1.176  1.00  0.00     0.186 HD
BRANCH  16  18
HETATM   18  N3  UNL     1       1.812  -0.328  -1.163  1.00  0.00    -0.270 N 
HETATM   19  C5  UNL     1       3.122  -0.547  -1.753  1.00  0.00     0.245 C 
HETATM   20  O1  UNL     1       3.816   0.437  -2.075  1.00  0.00    -0.271 OA
ATOM     21  H3  UNL     1       1.230  -1.120  -0.891  1.00  0.00     0.190 HD
BRANCH  19  22
HETATM   22  C6  UNL     1       3.583  -1.928  -1.949  1.00  0.00     0.186 C 
BRANCH  22  23
HETATM   23  S1  UNL     1       5.243  -1.953  -2.674  1.00  0.00    -0.094 SA
BRANCH  23  24
HETATM   24  C7  UNL     1       6.386  -1.280  -1.443  1.00  0.00     0.130 A 
HETATM   25  N4  UNL     1       6.758  -0.025  -1.248  1.00  0.00    -0.286 N 
HETATM   26  N5  UNL     1       7.579   0.266  -0.328  1.00  0.00    -0.279 N 
ATOM     27  H4  UNL     1       6.381   0.713  -1.843  1.00  0.00     0.188 HD
HETATM   28  C8  UNL     1       8.060  -0.719   0.439  1.00  0.00     0.159 A 
ATOM     29  H5  UNL     1       7.868   1.232  -0.175  1.00  0.00     0.189 HD
HETATM   30  S2  UNL     1       7.277  -2.087  -0.222  1.00  0.00    -0.027 SA
BRANCH  28  31
HETATM   31  N6  UNL     1       8.913  -0.611   1.434  1.00  0.00    -0.379 N 
ATOM     32  H62 UNL     1       9.380   0.205   1.828  1.00  0.00     0.158 HD
ATOM     33  H61 UNL     1       9.280  -1.362   2.019  1.00  0.00     0.158 HD
ENDBRANCH  28  31
ENDBRANCH  23  24
ENDBRANCH  22  23
ENDBRANCH  19  22
ENDBRANCH  16  18
ENDBRANCH  15  16
ENDBRANCH   2  15
BRANCH   1  34
HETATM   34  C2  UNL     1      -1.949   2.935   0.263  1.00  0.00     0.128 C 
HETATM   35  C1  UNL     1      -2.271   3.753  -0.945  1.00  0.00     0.027 C 
ENDBRANCH   1  34
BRANCH  14  36
HETATM   36  N11 UNL     1      -4.081   1.576   0.765  1.00  0.00    -0.360 N 
HETATM   37  C14 UNL     1      -5.365   1.787   1.179  1.00  0.00     0.120 C 
ATOM     38  H11 UNL     1      -3.689   2.517   0.734  1.00  0.00     0.165 HD
ENDBRANCH  14  36
BRANCH  10  39
HETATM   39  N9  UNL     1      -5.560  -3.162   0.773  1.00  0.00    -0.234 N 
ATOM     40  H92 UNL     1      -5.622  -4.177   0.697  1.00  0.00     0.174 HD
ATOM     41  H91 UNL     1      -6.396  -2.664   1.078  1.00  0.00     0.174 HD
ENDBRANCH  10  39
TORSDOF 10
