REMARK  10 active torsions:
REMARK  status: ('A' for Active; 'I' for Inactive)
REMARK    1  A    between atoms: O1_2  and  C2_3 
REMARK    2  A    between atoms: C2_3  and  C3_5 
REMARK    3  A    between atoms: C3_5  and  N1_6 
REMARK    4  A    between atoms: C4_7  and  O3_8 
REMARK    5  A    between atoms: C5_10  and  C6_11 
REMARK    6  A    between atoms: N2_12  and  C7_14 
REMARK    7  A    between atoms: C10_18  and  N3_19 
REMARK       I    between atoms: N3_19  and  C11_21 
REMARK    8  A    between atoms: C11_21  and  C12_23 
REMARK    9  A    between atoms: C12_23  and  O5_24 
REMARK   10  A    between atoms: C14_31  and  N6_32 
ROOT
HETATM    1  N1  UNL     1      -2.660  -0.002  -0.128  1.00  0.00    -0.309 N 
HETATM    2  C4  UNL     1      -1.337   0.173   0.032  1.00  0.00     0.172 A 
HETATM    3  C5  UNL     1      -0.349  -0.806   0.049  1.00  0.00     0.101 A 
HETATM    4  N4  UNL     1      -0.765  -2.052  -0.122  1.00  0.00    -0.335 N 
ATOM      5  H4  UNL     1      -0.085  -2.812  -0.119  1.00  0.00     0.168 HD
HETATM    6  C13 UNL     1      -2.089  -2.338  -0.302  1.00  0.00     0.154 A 
HETATM    7  N5  UNL     1      -2.522  -3.608  -0.545  1.00  0.00    -0.174 N 
ATOM      8  H5  UNL     1      -1.846  -4.372  -0.546  1.00  0.00     0.186 HD
HETATM    9  C14 UNL     1      -3.796  -3.873  -0.779  1.00  0.00     0.680 A 
HETATM   10  N7  UNL     1      -4.709  -2.857  -0.778  1.00  0.00    -0.154 N 
ATOM     11  H7  UNL     1      -5.690  -3.076  -0.952  1.00  0.00     0.187 HD
HETATM   12  C15 UNL     1      -4.361  -1.590  -0.558  1.00  0.00     0.290 A 
HETATM   13  O6  UNL     1      -5.174  -0.614  -0.563  1.00  0.00    -0.265 OA
HETATM   14  C16 UNL     1      -3.030  -1.292  -0.306  1.00  0.00     0.151 A 
ENDROOT
BRANCH   3  15
HETATM   15  C6  UNL     1       0.992  -0.249  -0.051  1.00  0.00     0.122 C 
HETATM   16  N2  UNL     1       2.029  -0.168   0.813  1.00  0.00    -0.361 N 
ATOM     17  H2  UNL     1       2.336   0.803   0.757  1.00  0.00     0.165 HD
BRANCH  16  18
HETATM   18  C7  UNL     1       2.885  -0.754   1.741  1.00  0.00     0.066 A 
HETATM   19  C8  UNL     1       2.524  -1.560   2.765  1.00  0.00     0.081 A 
HETATM   20  S1  UNL     1       3.973  -1.850   3.602  1.00  0.00    -0.109 SA
HETATM   21  C9  UNL     1       5.029  -0.951   2.668  1.00  0.00     0.081 A 
HETATM   22  C10 UNL     1       4.276  -0.427   1.690  1.00  0.00     0.068 A 
BRANCH  22  23
HETATM   23  N3  UNL     1       4.766   0.454   0.641  1.00  0.00    -0.323 N 
HETATM   24  C11 UNL     1       6.082   0.459   0.159  1.00  0.00     0.245 C 
HETATM   25  O4  UNL     1       7.045  -0.231   0.488  1.00  0.00    -0.271 OA
ATOM     26  H3  UNL     1       4.106   1.113   0.228  1.00  0.00     0.169 HD
BRANCH  24  27
HETATM   27  C12 UNL     1       6.329   1.488  -0.966  1.00  0.00     0.267 C 
BRANCH  27  28
HETATM   28  O5  UNL     1       6.138   2.745  -0.360  1.00  0.00    -0.392 OA
ATOM     29  H5  UNL     1       6.290   3.378  -1.052  1.00  0.00     0.210 HD
ENDBRANCH  27  28
ENDBRANCH  24  27
ENDBRANCH  22  23
ENDBRANCH  16  18
ENDBRANCH   3  15
BRANCH   2  30
HETATM   30  O3  UNL     1      -0.973   1.418   0.185  1.00  0.00    -0.344 OA
ATOM     31  H3  UNL     1      -0.038   1.542   0.298  1.00  0.00     0.219 HD
ENDBRANCH   2  30
BRANCH   1  32
HETATM   32  C3  UNL     1      -3.514   1.105   0.108  1.00  0.00     0.242 C 
BRANCH  32  33
HETATM   33  C2  UNL     1      -3.599   2.151  -0.922  1.00  0.00     0.276 C 
HETATM   34  O2  UNL     1      -3.312   2.056  -2.121  1.00  0.00    -0.263 OA
BRANCH  33  35
HETATM   35  O1  UNL     1      -4.053   3.421  -0.475  1.00  0.00    -0.325 OA
HETATM   36  C1  UNL     1      -4.202   4.588  -1.151  1.00  0.00     0.213 C 
ENDBRANCH  33  35
ENDBRANCH  32  33
ENDBRANCH   1  32
BRANCH   9  37
HETATM   37  N6  UNL     1      -4.235  -5.041  -1.028  1.00  0.00    -0.234 N 
ATOM     38  H62 UNL     1      -3.553  -5.800  -1.029  1.00  0.00     0.174 HD
ATOM     39  H61 UNL     1      -5.218  -5.245  -1.209  1.00  0.00     0.174 HD
ENDBRANCH   9  37
TORSDOF 10
