REMARK  8 active torsions:
REMARK  status: ('A' for Active; 'I' for Inactive)
REMARK    1  A    between atoms: C2_2  and  N1_3 
REMARK    2  A    between atoms: C2_2  and  N2_7 
REMARK    3  A    between atoms: C3_8  and  N3_9 
REMARK    4  A    between atoms: C6_17  and  N6_18 
REMARK    5  A    between atoms: N6_18  and  N7_20 
REMARK    6  A    between atoms: N7_20  and  S1_22 
REMARK    7  A    between atoms: S1_22  and  C7_25 
REMARK    8  A    between atoms: C10_28  and  N8_29 
ROOT
HETATM    1  N2  UNL     1      -4.204  -0.076   0.395  1.00  0.00    -0.144 N 
HETATM    2  C3  UNL     1      -4.246   1.248   0.160  1.00  0.00     0.684 A 
HETATM    3  N4  UNL     1      -3.019   1.744   0.004  1.00  0.00    -0.170 N 
HETATM    4  C4  UNL     1      -2.680   3.130  -0.262  1.00  0.00     0.177 C 
HETATM    5  C5  UNL     1      -2.150   0.750   0.135  1.00  0.00     0.171 A 
HETATM    6  N5  UNL     1      -0.798   0.736   0.064  1.00  0.00    -0.172 N 
ATOM      7  H5  UNL     1      -0.270   1.589  -0.118  1.00  0.00     0.186 HD
HETATM    8  C6  UNL     1      -0.179  -0.438   0.241  1.00  0.00     0.702 A 
HETATM    9  N9  UNL     1      -0.846  -1.580   0.481  1.00  0.00    -0.153 N 
ATOM     10  H9  UNL     1      -0.336  -2.454   0.609  1.00  0.00     0.187 HD
HETATM   11  C13 UNL     1      -2.189  -1.564   0.551  1.00  0.00     0.291 A 
HETATM   12  O5  UNL     1      -2.815  -2.650   0.780  1.00  0.00    -0.265 OA
HETATM   13  C14 UNL     1      -2.889  -0.388   0.379  1.00  0.00     0.167 A 
ENDROOT
BRANCH   8  14
HETATM   14  N6  UNL     1       1.120  -0.515   0.184  1.00  0.00    -0.122 N 
ATOM     15  H6  UNL     1       1.567  -1.422   0.322  1.00  0.00     0.206 HD
BRANCH  14  16
HETATM   16  N7  UNL     1       1.922   0.602  -0.060  1.00  0.00    -0.208 N 
ATOM     17  H7  UNL     1       1.783   1.441   0.504  1.00  0.00     0.201 HD
BRANCH  16  18
HETATM   18  S1  UNL     1       3.140   0.613  -1.282  1.00  0.00     0.276 S 
HETATM   19  O1  UNL     1       3.250   1.994  -1.822  1.00  0.00    -0.199 OA
HETATM   20  O2  UNL     1       2.776  -0.294  -2.422  1.00  0.00    -0.199 OA
BRANCH  18  21
HETATM   21  C7  UNL     1       4.661   0.066  -0.605  1.00  0.00     0.081 A 
HETATM   22  C8  UNL     1       4.981  -1.285  -0.627  1.00  0.00     0.028 A 
HETATM   23  C9  UNL     1       6.178  -1.692  -0.091  1.00  0.00     0.037 A 
HETATM   24  C10 UNL     1       7.066  -0.767   0.470  1.00  0.00     0.102 A 
HETATM   25  C11 UNL     1       6.741   0.566   0.487  1.00  0.00     0.037 A 
HETATM   26  C12 UNL     1       5.537   0.977  -0.052  1.00  0.00     0.028 A 
BRANCH  24  27
HETATM   27  N8  UNL     1       8.285  -1.214   1.011  1.00  0.00    -0.116 N 
HETATM   28  O3  UNL     1       9.075  -0.387   1.511  1.00  0.00    -0.532 OA
HETATM   29  O4  UNL     1       8.598  -2.573   0.985  1.00  0.00    -0.532 OA
ENDBRANCH  24  27
ENDBRANCH  18  21
ENDBRANCH  16  18
ENDBRANCH  14  16
ENDBRANCH   8  14
BRANCH   2  30
HETATM   30  N3  UNL     1      -5.346   1.921   0.099  1.00  0.00    -0.234 N 
ATOM     31  H32 UNL     1      -6.285   1.541   0.218  1.00  0.00     0.174 HD
ATOM     32  H31 UNL     1      -5.378   2.925  -0.079  1.00  0.00     0.174 HD
ENDBRANCH   2  30
BRANCH   1  33
HETATM   33  C2  UNL     1      -5.311  -0.987   0.618  1.00  0.00     0.301 C 
HETATM   34  C1  UNL     1      -5.579  -1.837  -0.621  1.00  0.00     0.064 C 
BRANCH  33  35
HETATM   35  N1  UNL     1      -6.475  -0.245   1.010  1.00  0.00    -0.058 N 
ATOM     36  H13 UNL     1      -6.833   0.320   0.240  1.00  0.00     0.276 HD
ATOM     37  H12 UNL     1      -7.280  -0.857   1.145  1.00  0.00     0.276 HD
ATOM     38  H11 UNL     1      -6.296   0.323   1.838  1.00  0.00     0.276 HD
ENDBRANCH  33  35
ENDBRANCH   1  33
TORSDOF 8
