REMARK  12 active torsions:
REMARK  status: ('A' for Active; 'I' for Inactive)
REMARK    1  A    between atoms: O1_2  and  C2_3 
REMARK    2  A    between atoms: C2_3  and  C3_5 
REMARK    3  A    between atoms: C3_5  and  C4_6 
REMARK    4  A    between atoms: C3_5  and  C13_28 
REMARK       I    between atoms: C4_6  and  N1_8 
REMARK    5  A    between atoms: N1_8  and  N2_10 
REMARK    6  A    between atoms: C5_11  and  O4_12 
REMARK    7  A    between atoms: C6_18  and  C7_19 
REMARK    8  A    between atoms: C7_19  and  O5_20 
REMARK    9  A    between atoms: C7_19  and  C8_22 
REMARK   10  A    between atoms: C8_22  and  C9_23 
REMARK   11  A    between atoms: C14_31  and  N6_32 
REMARK   12  A    between atoms: C15_37  and  N8_38 
ROOT
HETATM    1  C4  UNL     1      -1.218   0.011  -1.282  1.00  0.00     0.256 C 
HETATM    2  O3  UNL     1      -0.772  -0.763  -2.164  1.00  0.00    -0.270 OA
HETATM    3  N1  UNL     1      -0.416   0.515  -0.264  1.00  0.00    -0.256 N 
ATOM      4  H1  UNL     1      -0.934   1.130   0.364  1.00  0.00     0.191 HD
ENDROOT
BRANCH   1   5
HETATM    5  C3  UNL     1      -2.702   0.386  -1.373  1.00  0.00     0.230 C 
BRANCH   5   6
HETATM    6  C2  UNL     1      -2.851   1.827  -1.689  1.00  0.00     0.277 C 
HETATM    7  O2  UNL     1      -3.334   2.250  -2.800  1.00  0.00    -0.264 OA
BRANCH   6   8
HETATM    8  O1  UNL     1      -2.488   2.860  -0.831  1.00  0.00    -0.326 OA
HETATM    9  C1  UNL     1      -2.636   4.208  -1.149  1.00  0.00     0.213 C 
ENDBRANCH   6   8
ENDBRANCH   5   6
BRANCH   5  10
HETATM   10  C13 UNL     1      -3.481  -0.054  -0.234  1.00  0.00     0.059 A 
HETATM   11  N5  UNL     1      -3.616   0.617   0.912  1.00  0.00    -0.194 N 
HETATM   12  C14 UNL     1      -4.369   0.182   1.965  1.00  0.00     0.677 A 
ATOM     13  H5  UNL     1      -3.128   1.508   1.007  1.00  0.00     0.184 HD
HETATM   14  N7  UNL     1      -5.007  -0.981   1.843  1.00  0.00    -0.177 N 
HETATM   15  C15 UNL     1      -4.924  -1.715   0.723  1.00  0.00     0.122 A 
ATOM     16  H7  UNL     1      -5.573  -1.322   2.620  1.00  0.00     0.185 HD
HETATM   17  C16 UNL     1      -4.159  -1.269  -0.340  1.00  0.00     0.007 A 
HETATM   18  C17 UNL     1      -4.064  -2.048  -1.553  1.00  0.00     0.054 C 
BRANCH  12  19
HETATM   19  N6  UNL     1      -4.448   0.888   3.039  1.00  0.00    -0.234 N 
ATOM     20  H62 UNL     1      -3.959   1.779   3.132  1.00  0.00     0.174 HD
ATOM     21  H61 UNL     1      -5.010   0.563   3.825  1.00  0.00     0.174 HD
ENDBRANCH  12  19
BRANCH  15  22
HETATM   22  N8  UNL     1      -5.555  -2.840   0.634  1.00  0.00    -0.385 N 
ATOM     23  H82 UNL     1      -6.119  -3.169   1.418  1.00  0.00     0.157 HD
ATOM     24  H81 UNL     1      -5.492  -3.398  -0.217  1.00  0.00     0.157 HD
ENDBRANCH  15  22
ENDBRANCH   5  10
ENDBRANCH   1   5
BRANCH   3  25
HETATM   25  N2  UNL     1       0.888   0.392   0.103  1.00  0.00    -0.176 N 
HETATM   26  C5  UNL     1       1.305   1.081   1.220  1.00  0.00     0.261 A 
HETATM   27  N3  UNL     1       2.574   1.021   1.659  1.00  0.00    -0.263 N 
HETATM   28  N4  UNL     1       3.465   0.305   1.042  1.00  0.00    -0.290 N 
ATOM     29  H3  UNL     1       2.842   1.547   2.491  1.00  0.00     0.190 HD
HETATM   30  C6  UNL     1       3.190  -0.404  -0.044  1.00  0.00     0.151 A 
ATOM     31  H4  UNL     1       4.417   0.287   1.409  1.00  0.00     0.187 HD
HETATM   32  C12 UNL     1       1.842  -0.329  -0.494  1.00  0.00     0.300 A 
HETATM   33  O6  UNL     1       1.593  -1.004  -1.521  1.00  0.00    -0.263 OA
BRANCH  26  34
HETATM   34  O4  UNL     1       0.438   1.857   1.928  1.00  0.00    -0.330 OA
ATOM     35  H4  UNL     1       0.726   2.332   2.699  1.00  0.00     0.221 HD
ENDBRANCH  26  34
BRANCH  30  36
HETATM   36  C7  UNL     1       4.104  -1.213  -0.777  1.00  0.00     0.099 C 
BRANCH  36  37
HETATM   37  O5  UNL     1       3.548  -1.814  -1.829  1.00  0.00    -0.358 OA
ATOM     38  H5  UNL     1       4.158  -2.354  -2.318  1.00  0.00     0.217 HD
ENDBRANCH  36  37
BRANCH  36  39
HETATM   39  C8  UNL     1       5.481  -1.503  -0.609  1.00  0.00     0.041 C 
BRANCH  39  40
HETATM   40  C9  UNL     1       6.416  -1.198   0.192  1.00  0.00    -0.085 C 
HETATM   41  C10 UNL     1       7.787  -1.870  -0.165  1.00  0.00     0.043 C 
HETATM   42  C11 UNL     1       6.482  -0.348   1.395  1.00  0.00     0.043 C 
ENDBRANCH  39  40
ENDBRANCH  36  39
ENDBRANCH  30  36
ENDBRANCH   3  25
TORSDOF 12
