REMARK  10 active torsions:
REMARK  status: ('A' for Active; 'I' for Inactive)
REMARK    1  A    between atoms: C2_2  and  N1_3 
REMARK    2  A    between atoms: C3_4  and  N2_5 
REMARK    3  A    between atoms: N2_5  and  C4_7 
REMARK    4  A    between atoms: C4_7  and  O1_9 
REMARK    5  A    between atoms: C6_13  and  C7_14 
REMARK    6  A    between atoms: C7_14  and  N4_15 
REMARK    7  A    between atoms: C7_14  and  N8_28 
REMARK    8  A    between atoms: N4_15  and  N5_17 
REMARK    9  A    between atoms: C8_19  and  C9_20 
REMARK   10  A    between atoms: C13_35  and  O4_36 
ROOT
HETATM    1  C7  UNL     1       0.663  -0.715  -0.551  1.00  0.00     0.276 C 
ENDROOT
BRANCH   1   2
HETATM    2  C6  UNL     1      -0.435   0.097  -0.057  1.00  0.00     0.083 A 
HETATM    3  N3  UNL     1      -1.678   0.038  -0.626  1.00  0.00    -0.191 N 
HETATM    4  C3  UNL     1      -2.711   0.763  -0.191  1.00  0.00     0.685 A 
ATOM      5  H3  UNL     1      -1.822  -0.588  -1.418  1.00  0.00     0.184 HD
HETATM    6  N1  UNL     1      -2.586   1.597   0.837  1.00  0.00    -0.147 N 
HETATM    7  C16 UNL     1      -1.412   1.719   1.451  1.00  0.00     0.269 A 
HETATM    8  C14 UNL     1      -0.322   0.960   0.999  1.00  0.00     0.034 A 
HETATM    9  O5  UNL     1      -1.240   2.497   2.432  1.00  0.00    -0.267 OA
HETATM   10  C15 UNL     1       0.987   1.113   1.687  1.00  0.00     0.056 C 
BRANCH   4  11
HETATM   11  N2  UNL     1      -3.841   0.646  -0.784  1.00  0.00    -0.200 N 
ATOM     12  H2  UNL     1      -4.606   1.217  -0.425  1.00  0.00     0.180 HD
BRANCH  11  13
HETATM   13  C4  UNL     1      -4.142  -0.200  -1.896  1.00  0.00     0.230 C 
HETATM   14  C5  UNL     1      -4.581  -1.587  -1.478  1.00  0.00     0.063 C 
BRANCH  13  15
HETATM   15  O1  UNL     1      -5.261   0.372  -2.546  1.00  0.00    -0.377 OA
ATOM     16  H1  UNL     1      -5.461  -0.190  -3.285  1.00  0.00     0.212 HD
ENDBRANCH  13  15
ENDBRANCH  11  13
ENDBRANCH   4  11
BRANCH   6  17
HETATM   17  C2  UNL     1      -3.730   2.367   1.282  1.00  0.00     0.146 C 
HETATM   18  C1  UNL     1      -3.840   3.690   0.594  1.00  0.00     0.027 C 
ENDBRANCH   6  17
ENDBRANCH   1   2
BRANCH   1  19
HETATM   19  N4  UNL     1       1.841   0.059  -0.962  1.00  0.00    -0.306 N 
ATOM     20  H4  UNL     1       1.807   1.075  -0.880  1.00  0.00     0.183 HD
BRANCH  19  21
HETATM   21  N5  UNL     1       2.979  -0.516  -1.449  1.00  0.00    -0.312 N 
HETATM   22  C8  UNL     1       4.176  -0.114  -1.452  1.00  0.00     0.144 C 
ATOM     23  H5  UNL     1       2.838  -1.427  -1.886  1.00  0.00     0.185 HD
BRANCH  22  24
HETATM   24  C9  UNL     1       4.711   1.120  -0.921  1.00  0.00     0.143 A 
HETATM   25  N6  UNL     1       4.046   2.108  -0.307  1.00  0.00    -0.235 N 
HETATM   26  O2  UNL     1       4.878   3.069   0.036  1.00  0.00    -0.153 OA
ATOM     27  H6  UNL     1       3.041   2.115  -0.131  1.00  0.00     0.197 HD
HETATM   28  N7  UNL     1       6.088   2.754  -0.332  1.00  0.00    -0.204 N 
HETATM   29  C10 UNL     1       6.020   1.544  -0.932  1.00  0.00     0.296 A 
ATOM     30  H7  UNL     1       6.929   3.315  -0.193  1.00  0.00     0.200 HD
HETATM   31  O3  UNL     1       6.968   0.886  -1.428  1.00  0.00    -0.264 OA
ENDBRANCH  22  24
ENDBRANCH  19  21
ENDBRANCH   1  19
BRANCH   1  32
HETATM   32  N8  UNL     1       1.027  -1.843   0.267  1.00  0.00    -0.224 N 
HETATM   33  N9  UNL     1       2.229  -2.395   0.247  1.00  0.00    -0.282 N 
HETATM   34  C11 UNL     1       2.249  -3.431   1.124  1.00  0.00     0.095 A 
ATOM     35  H9  UNL     1       3.012  -2.092  -0.332  1.00  0.00     0.188 HD
HETATM   36  C12 UNL     1       3.448  -4.278   1.356  1.00  0.00     0.091 C 
HETATM   37  N10 UNL     1       1.046  -3.508   1.681  1.00  0.00    -0.310 N 
HETATM   38  C13 UNL     1       0.302  -2.541   1.159  1.00  0.00     0.242 A 
ATOM     39  H10 UNL     1       0.748  -4.186   2.382  1.00  0.00     0.170 HD
BRANCH  38  40
HETATM   40  O4  UNL     1      -1.020  -2.279   1.476  1.00  0.00    -0.331 OA
ATOM     41  H4  UNL     1      -1.532  -2.772   2.106  1.00  0.00     0.221 HD
ENDBRANCH  38  40
ENDBRANCH   1  32
TORSDOF 10
