REMARK  8 active torsions:
REMARK  status: ('A' for Active; 'I' for Inactive)
REMARK    1  A    between atoms: C2_2  and  N1_3 
REMARK    2  A    between atoms: C3_4  and  C4_5 
REMARK    3  A    between atoms: C4_5  and  C5_6 
REMARK    4  A    between atoms: C5_6  and  N2_7 
REMARK    5  A    between atoms: N2_7  and  C6_9 
REMARK    6  A    between atoms: C7_12  and  N4_13 
REMARK    7  A    between atoms: C11_26  and  C12_27 
REMARK    8  A    between atoms: C12_27  and  C13_28 
ROOT
HETATM    1  C6  UNL     1      -4.858  -0.198   1.439  1.00  0.00     0.139 A 
HETATM    2  N3  UNL     1      -4.804  -0.106   0.110  1.00  0.00    -0.176 N 
ATOM      3  H3  UNL     1      -4.010   0.349  -0.339  1.00  0.00     0.186 HD
HETATM    4  C7  UNL     1      -5.801  -0.616  -0.637  1.00  0.00     0.677 A 
HETATM    5  N5  UNL     1      -6.862  -1.222  -0.096  1.00  0.00    -0.201 N 
ATOM      6  H5  UNL     1      -7.593  -1.594  -0.702  1.00  0.00     0.183 HD
HETATM    7  C8  UNL     1      -6.976  -1.346   1.223  1.00  0.00     0.132 A 
HETATM    8  C9  UNL     1      -5.951  -0.823   2.009  1.00  0.00     0.104 A 
HETATM    9  C10 UNL     1      -6.042  -0.939   3.431  1.00  0.00     0.104 C 
HETATM   10  N6  UNL     1      -6.108  -1.051   4.581  1.00  0.00    -0.191 NA
ENDROOT
BRANCH   1  11
HETATM   11  N2  UNL     1      -3.963   0.255   2.217  1.00  0.00    -0.374 N 
ATOM     12  H2  UNL     1      -4.094   0.136   3.222  1.00  0.00     0.161 HD
BRANCH  11  13
HETATM   13  C5  UNL     1      -2.756   0.937   1.755  1.00  0.00     0.129 C 
BRANCH  13  14
HETATM   14  C4  UNL     1      -1.698  -0.123   1.612  1.00  0.00     0.098 C 
BRANCH  14  15
HETATM   15  C3  UNL     1      -0.397   0.369   1.155  1.00  0.00     0.101 A 
HETATM   16  N1  UNL     1       0.048   0.472  -0.121  1.00  0.00    -0.324 N 
HETATM   17  C11 UNL     1       1.291   0.968  -0.085  1.00  0.00     0.106 A 
HETATM   18  N8  UNL     1       1.614   1.174   1.233  1.00  0.00    -0.287 N 
HETATM   19  N7  UNL     1       0.593   0.809   1.942  1.00  0.00    -0.287 N 
ATOM     20  H8  UNL     1       2.495   1.546   1.588  1.00  0.00     0.188 HD
ATOM     21  H7  UNL     1       0.549   0.851   2.960  1.00  0.00     0.188 HD
BRANCH  16  22
HETATM   22  C2  UNL     1      -0.666   0.144  -1.335  1.00  0.00     0.127 C 
HETATM   23  C1  UNL     1      -1.435   1.359  -1.862  1.00  0.00     0.027 C 
ENDBRANCH  16  22
BRANCH  17  24
HETATM   24  C12 UNL     1       2.294   1.268  -1.126  1.00  0.00     0.155 C 
BRANCH  24  25
HETATM   25  C13 UNL     1       3.473   0.387  -0.879  1.00  0.00     0.094 A 
HETATM   26  N9  UNL     1       4.332   0.772   0.121  1.00  0.00    -0.329 N 
HETATM   27  C14 UNL     1       5.423   0.087   0.438  1.00  0.00     0.155 A 
ATOM     28  H9  UNL     1       4.122   1.623   0.643  1.00  0.00     0.168 HD
HETATM   29  N10 UNL     1       6.395   0.258   1.355  1.00  0.00    -0.174 N 
HETATM   30  C16 UNL     1       5.691  -1.058  -0.277  1.00  0.00     0.161 A 
HETATM   31  C15 UNL     1       7.272  -0.753   1.237  1.00  0.00     0.678 A 
ATOM     32  H10 UNL     1       6.455   1.025   2.025  1.00  0.00     0.186 HD
HETATM   33  N11 UNL     1       8.333  -0.918   1.952  1.00  0.00    -0.234 N 
HETATM   34  N12 UNL     1       6.844  -1.551   0.246  1.00  0.00    -0.183 N 
ATOM     35 2H11 UNL     1       8.658  -0.312   2.705  1.00  0.00     0.174 HD
ATOM     36 1H11 UNL     1       8.999  -1.686   1.862  1.00  0.00     0.174 HD
ATOM     37  H12 UNL     1       7.314  -2.400  -0.067  1.00  0.00     0.184 HD
HETATM   38  C17 UNL     1       4.855  -1.470  -1.281  1.00  0.00     0.279 A 
HETATM   39  O1  UNL     1       5.087  -2.515  -1.944  1.00  0.00    -0.265 OA
HETATM   40  N13 UNL     1       3.747  -0.720  -1.559  1.00  0.00    -0.306 N 
HETATM   41  C18 UNL     1       2.862  -1.139  -2.628  1.00  0.00     0.161 C 
ENDBRANCH  24  25
ENDBRANCH  17  24
ENDBRANCH  14  15
ENDBRANCH  13  14
ENDBRANCH  11  13
ENDBRANCH   1  11
BRANCH   4  42
HETATM   42  N4  UNL     1      -5.715  -0.508  -1.927  1.00  0.00    -0.234 N 
ATOM     43  H42 UNL     1      -4.905  -0.045  -2.340  1.00  0.00     0.174 HD
ATOM     44  H41 UNL     1      -6.470  -0.894  -2.493  1.00  0.00     0.174 HD
ENDBRANCH   4  42
TORSDOF 8
