REMARK  10 active torsions:
REMARK  status: ('A' for Active; 'I' for Inactive)
REMARK    1  A    between atoms: O1_2  and  C2_3 
REMARK    2  A    between atoms: C2_3  and  O2_4 
REMARK    3  A    between atoms: C2_3  and  C3_6 
REMARK    4  A    between atoms: C4_7  and  C5_8 
REMARK    5  A    between atoms: C7_14  and  C8_15 
REMARK       I    between atoms: C8_15  and  N2_17 
REMARK    6  A    between atoms: N2_17  and  C9_18 
REMARK    7  A    between atoms: C9_18  and  C10_19 
REMARK    8  A    between atoms: C9_18  and  C11_22 
REMARK    9  A    between atoms: C13_28  and  N4_29 
REMARK   10  A    between atoms: N4_29  and  C14_31 
ROOT
HETATM    1  C3  UNL     1      -2.649  -0.385   0.106  1.00  0.00     0.100 A 
HETATM    2  C4  UNL     1      -2.004  -1.307   0.811  1.00  0.00     0.133 A 
HETATM    3  N1  UNL     1      -0.555  -1.224   1.094  1.00  0.00    -0.316 N 
HETATM    4  C6  UNL     1       0.207  -2.140   1.870  1.00  0.00     0.210 C 
HETATM    5  S1  UNL     1       1.913  -1.787   1.225  1.00  0.00    -0.099 SA
HETATM    6  C7  UNL     1       1.457  -0.193   0.588  1.00  0.00     0.128 C 
HETATM    7  C12 UNL     1       0.153  -0.152   0.611  1.00  0.00     0.134 A 
HETATM    8  N3  UNL     1      -0.585   0.859  -0.147  1.00  0.00    -0.326 N 
ATOM      9  H3  UNL     1      -0.084   1.674  -0.502  1.00  0.00     0.169 HD
HETATM   10  C13 UNL     1      -1.830   0.753  -0.376  1.00  0.00     0.125 A 
ENDROOT
BRANCH   6  11
HETATM   11  C8  UNL     1       2.437   0.872   0.325  1.00  0.00     0.333 C 
HETATM   12  O5  UNL     1       1.930   2.061   0.251  1.00  0.00    -0.251 OA
HETATM   13  N2  UNL     1       3.761   0.608   0.155  1.00  0.00    -0.383 NA
BRANCH  13  14
HETATM   14  C9  UNL     1       5.103   0.340  -0.018  1.00  0.00     0.367 C 
BRANCH  14  15
HETATM   15  C10 UNL     1       5.411  -0.701  -0.989  1.00  0.00     0.221 C 
HETATM   16  O6  UNL     1       4.511  -1.374  -1.639  1.00  0.00    -0.645 OA
HETATM   17  O7  UNL     1       6.736  -1.051  -1.288  1.00  0.00    -0.645 OA
ENDBRANCH  14  15
BRANCH  14  18
HETATM   18  C11 UNL     1       5.920   1.591  -0.241  1.00  0.00     0.221 C 
HETATM   19  O8  UNL     1       5.519   2.566   0.593  1.00  0.00    -0.645 OA
HETATM   20  O9  UNL     1       6.893   1.902  -1.064  1.00  0.00    -0.645 OA
ENDBRANCH  14  18
ENDBRANCH  13  14
ENDBRANCH   6  11
BRANCH   2  21
HETATM   21  C5  UNL     1      -2.704  -2.461   1.296  1.00  0.00     0.228 C 
HETATM   22  O3  UNL     1      -3.905  -2.715   1.102  1.00  0.00    -0.643 OA
HETATM   23  O4  UNL     1      -2.092  -3.459   2.068  1.00  0.00    -0.643 OA
ENDBRANCH   2  21
BRANCH  10  24
HETATM   24  N4  UNL     1      -2.410   1.846  -1.095  1.00  0.00    -0.338 N 
ATOM     25  H4  UNL     1      -2.648   1.762  -2.083  1.00  0.00     0.168 HD
BRANCH  24  26
HETATM   26  C14 UNL     1      -2.641   3.050  -0.382  1.00  0.00     0.174 C 
HETATM   27  N5  UNL     1      -3.365   3.998  -0.862  1.00  0.00    -0.395 N 
ATOM     28  H52 UNL     1      -3.778   3.864  -1.785  1.00  0.00     0.156 HD
ATOM     29  H51 UNL     1      -3.531   4.864  -0.349  1.00  0.00     0.156 HD
ENDBRANCH  24  26
ENDBRANCH  10  24
BRANCH   1  30
HETATM   30  C2  UNL     1      -4.012  -0.345  -0.301  1.00  0.00     0.194 C 
BRANCH  30  31
HETATM   31  O1  UNL     1      -5.065  -1.183  -0.112  1.00  0.00    -0.335 OA
HETATM   32  C1  UNL     1      -6.372  -0.964  -0.631  1.00  0.00     0.212 C 
ENDBRANCH  30  31
BRANCH  30  33
HETATM   33  O2  UNL     1      -4.409   0.676  -1.003  1.00  0.00    -0.340 OA
ATOM     34  H2  UNL     1      -3.673   1.262  -1.135  1.00  0.00     0.220 HD
ENDBRANCH  30  33
ENDBRANCH   1  30
TORSDOF 10
