REMARK  9 active torsions:
REMARK  status: ('A' for Active; 'I' for Inactive)
REMARK    1  A    between atoms: N1_1  and  C1_5 
REMARK    2  A    between atoms: C1_5  and  C2_6 
REMARK    3  A    between atoms: C2_6  and  N2_7 
REMARK    4  A    between atoms: C2_6  and  C3_12 
REMARK    5  A    between atoms: N2_7  and  N3_9 
REMARK    6  A    between atoms: C5_14  and  C6_15 
REMARK    7  A    between atoms: C7_20  and  N6_21 
REMARK    8  A    between atoms: N6_21  and  N7_23 
REMARK    9  A    between atoms: N7_23  and  C8_25 
ROOT
HETATM    1  C3  UNL     1      -0.194   0.193   0.113  1.00  0.00     0.054 A 
HETATM    2  C4  UNL     1       0.209   1.512   0.098  1.00  0.00     0.063 A 
HETATM    3  C5  UNL     1       1.561   1.775   0.023  1.00  0.00     0.116 A 
HETATM    4  N5  UNL     1       2.465   0.789  -0.034  1.00  0.00    -0.185 N 
ATOM      5  H5  UNL     1       3.463   0.994  -0.089  1.00  0.00     0.184 HD
HETATM    6  C7  UNL     1       2.018  -0.486  -0.016  1.00  0.00     0.697 A 
HETATM    7  N8  UNL     1       0.721  -0.765   0.055  1.00  0.00    -0.192 N 
ATOM      8  H8  UNL     1       0.422  -1.740   0.065  1.00  0.00     0.184 HD
ENDROOT
BRANCH   1   9
HETATM    9  C2  UNL     1      -1.652  -0.088   0.193  1.00  0.00     0.174 C 
BRANCH   9  10
HETATM   10  C1  UNL     1      -1.861  -1.555  -0.135  1.00  0.00     0.262 C 
BRANCH  10  11
HETATM   11  N1  UNL     1      -3.266  -1.829  -0.088  1.00  0.00    -0.077 N 
ATOM     12  H13 UNL     1      -3.689  -1.561   0.800  1.00  0.00     0.274 HD
ATOM     13  H12 UNL     1      -3.808  -1.210  -0.691  1.00  0.00     0.274 HD
ATOM     14  H11 UNL     1      -3.406  -2.815  -0.308  1.00  0.00     0.274 HD
ENDBRANCH  10  11
ENDBRANCH   9  10
BRANCH   9  15
HETATM   15  N2  UNL     1      -2.317   0.781  -0.728  1.00  0.00    -0.331 N 
ATOM     16  H2  UNL     1      -1.815   1.465  -1.294  1.00  0.00     0.180 HD
BRANCH  15  17
HETATM   17  N3  UNL     1      -3.683   0.627  -0.795  1.00  0.00    -0.349 N 
ATOM     18  H32 UNL     1      -4.171  -0.062  -0.222  1.00  0.00     0.176 HD
ATOM     19  H31 UNL     1      -4.157   1.247  -1.452  1.00  0.00     0.176 HD
ENDBRANCH  15  17
ENDBRANCH   9  15
ENDBRANCH   1   9
BRANCH   3  20
HETATM   20  C6  UNL     1       2.002   3.159   0.007  1.00  0.00     0.282 C 
HETATM   21  N4  UNL     1       1.107   4.256   0.064  1.00  0.00    -0.056 NA
HETATM   22  O1  UNL     1       3.232   3.437  -0.061  1.00  0.00    -0.269 OA
ENDBRANCH   3  20
BRANCH   6  23
HETATM   23  N6  UNL     1       2.896  -1.411  -0.072  1.00  0.00    -0.130 N 
ATOM     24  H6  UNL     1       3.888  -1.180  -0.128  1.00  0.00     0.205 HD
BRANCH  23  25
HETATM   25  N7  UNL     1       2.478  -2.749  -0.056  1.00  0.00    -0.263 N 
ATOM     26  H7  UNL     1       1.724  -3.049  -0.674  1.00  0.00     0.190 HD
BRANCH  25  27
HETATM   27  C8  UNL     1       3.092  -3.689   0.809  1.00  0.00     0.369 C 
HETATM   28  O2  UNL     1       4.022  -3.292   1.564  1.00  0.00    -0.282 OA
ENDBRANCH  25  27
ENDBRANCH  23  25
ENDBRANCH   6  23
TORSDOF 9
