REMARK  7 active torsions:
REMARK  status: ('A' for Active; 'I' for Inactive)
REMARK    1  A    between atoms: N1_1  and  C1_4 
REMARK    2  A    between atoms: C4_11  and  C5_12 
REMARK    3  A    between atoms: C5_12  and  C6_13 
REMARK       I    between atoms: C6_13  and  N4_15 
REMARK    4  A    between atoms: N4_15  and  C7_17 
REMARK    5  A    between atoms: C7_17  and  C8_18 
REMARK    6  A    between atoms: C8_18  and  N5_19 
REMARK    7  A    between atoms: N5_19  and  N6_20 
ROOT
HETATM    1  C1  UNL     1      -4.330   1.107  -0.244  1.00  0.00     0.129 A 
HETATM    2  N2  UNL     1      -4.078   2.164  -1.006  1.00  0.00    -0.337 N 
ATOM      3  H2  UNL     1      -4.738   2.942  -1.001  1.00  0.00     0.168 HD
HETATM    4  C2  UNL     1      -2.969   2.249  -1.796  1.00  0.00     0.182 A 
HETATM    5  N3  UNL     1      -2.124   1.210  -1.778  1.00  0.00    -0.349 N 
ATOM      6  H3  UNL     1      -1.289   1.255  -2.362  1.00  0.00     0.167 HD
HETATM    7  C3  UNL     1      -2.322   0.105  -1.025  1.00  0.00     0.087 A 
HETATM    8  C4  UNL     1      -1.461  -0.955  -1.010  1.00  0.00     0.048 A 
HETATM    9  N7  UNL     1      -1.787  -2.019  -0.202  1.00  0.00    -0.353 N 
ATOM     10  H7  UNL     1      -1.153  -2.818  -0.181  1.00  0.00     0.166 HD
HETATM   11  C9  UNL     1      -2.874  -2.067   0.549  1.00  0.00     0.181 A 
HETATM   12  N8  UNL     1      -3.742  -1.028   0.553  1.00  0.00    -0.347 N 
ATOM     13  H8  UNL     1      -4.586  -1.044   1.126  1.00  0.00     0.167 HD
HETATM   14  C10 UNL     1      -3.445   0.030  -0.232  1.00  0.00     0.106 A 
ENDROOT
BRANCH   8  15
HETATM   15  C5  UNL     1      -0.210  -0.961  -1.775  1.00  0.00     0.162 C 
BRANCH  15  16
HETATM   16  C6  UNL     1       0.779  -0.144  -1.034  1.00  0.00     0.223 C 
HETATM   17  O1  UNL     1       0.704   1.099  -1.098  1.00  0.00    -0.273 OA
HETATM   18  N4  UNL     1       1.817  -0.720  -0.232  1.00  0.00    -0.360 N 
ATOM     19  H4  UNL     1       1.914  -1.732  -0.154  1.00  0.00     0.162 HD
BRANCH  18  20
HETATM   20  C7  UNL     1       2.721   0.163   0.462  1.00  0.00     0.140 C 
BRANCH  20  21
HETATM   21  C8  UNL     1       3.749  -0.518   1.297  1.00  0.00     0.154 C 
BRANCH  21  22
HETATM   22  N5  UNL     1       4.606   0.438   1.962  1.00  0.00    -0.147 NA
BRANCH  22  23
HETATM   23  N6  UNL     1       5.554  -0.150   2.769  1.00  0.00    -0.348 N 
ATOM     24  H62 UNL     1       5.631  -1.161   2.876  1.00  0.00     0.172 HD
ATOM     25  H61 UNL     1       6.159   0.524   3.238  1.00  0.00     0.172 HD
ENDBRANCH  22  23
ENDBRANCH  21  22
ENDBRANCH  20  21
ENDBRANCH  18  20
ENDBRANCH  15  16
ENDBRANCH   8  15
BRANCH   1  26
HETATM   26  N1  UNL     1      -5.381   1.028   0.518  1.00  0.00    -0.384 N 
ATOM     27  H12 UNL     1      -6.029   1.816   0.509  1.00  0.00     0.157 HD
ATOM     28  H11 UNL     1      -5.575   0.216   1.104  1.00  0.00     0.157 HD
ENDBRANCH   1  26
TORSDOF 7
