REMARK  8 active torsions:
REMARK  status: ('A' for Active; 'I' for Inactive)
REMARK    1  A    between atoms: C1_2  and  C2_4 
REMARK    2  A    between atoms: C2_4  and  N2_5 
REMARK    3  A    between atoms: C2_4  and  C3_9 
REMARK    4  A    between atoms: C3_9  and  C4_10 
REMARK    5  A    between atoms: C3_9  and  N3_15 
REMARK    6  A    between atoms: C5_11  and  C6_12 
REMARK    7  A    between atoms: C6_12  and  O2_13 
REMARK       I    between atoms: N3_15  and  C7_17 
REMARK    8  A    between atoms: C7_17  and  C8_19 
ROOT
HETATM    1  C3  UNL     1      -0.474  -0.207   0.467  1.00  0.00     0.147 C 
ENDROOT
BRANCH   1   2
HETATM    2  C2  UNL     1      -1.324  -0.991  -0.525  1.00  0.00     0.297 C 
BRANCH   2   3
HETATM    3  C1  UNL     1      -2.725  -1.071  -0.133  1.00  0.00     0.264 C 
HETATM    4  N1  UNL     1      -3.395  -2.298   0.092  1.00  0.00    -0.060 NA
HETATM    5  O1  UNL     1      -3.387  -0.015   0.019  1.00  0.00    -0.274 OA
ENDBRANCH   2   3
BRANCH   2   6
HETATM    6  N2  UNL     1      -0.748  -2.327  -0.644  1.00  0.00    -0.065 N 
ATOM      7  H23 UNL     1      -0.872  -2.871   0.210  1.00  0.00     0.275 HD
ATOM      8  H22 UNL     1      -1.286  -2.916  -1.279  1.00  0.00     0.275 HD
ATOM      9  H21 UNL     1       0.233  -2.271  -0.918  1.00  0.00     0.275 HD
ENDBRANCH   2   6
ENDBRANCH   1   2
BRANCH   1  10
HETATM   10  C4  UNL     1      -1.004   1.175   0.564  1.00  0.00    -0.001 C 
HETATM   11  C5  UNL     1      -0.774   2.080  -0.371  1.00  0.00    -0.003 C 
BRANCH  11  12
HETATM   12  C6  UNL     1      -1.306   3.452  -0.263  1.00  0.00     0.191 C 
BRANCH  12  13
HETATM   13  O2  UNL     1      -2.040   3.663   0.882  1.00  0.00    -0.397 OA
ATOM     14  H2  UNL     1      -2.383   4.546   0.952  1.00  0.00     0.209 HD
ENDBRANCH  12  13
ENDBRANCH  11  12
ENDBRANCH   1  10
BRANCH   1  15
HETATM   15  N3  UNL     1       0.891  -0.190   0.005  1.00  0.00    -0.344 N 
HETATM   16  C7  UNL     1       1.955  -0.783   0.733  1.00  0.00     0.289 C 
HETATM   17  O3  UNL     1       1.728  -1.354   1.831  1.00  0.00    -0.264 OA
ATOM     18  H3  UNL     1       1.101   0.267  -0.882  1.00  0.00     0.163 HD
BRANCH  16  19
HETATM   19  C8  UNL     1       3.312  -0.729   0.207  1.00  0.00     0.206 A 
HETATM   20  N4  UNL     1       3.692  -0.150  -0.953  1.00  0.00    -0.264 N 
HETATM   21  N5  UNL     1       5.003  -0.286  -1.124  1.00  0.00    -0.226 N 
ATOM     22  H4  UNL     1       3.064   0.323  -1.603  1.00  0.00     0.190 HD
HETATM   23  N6  UNL     1       5.466  -0.946  -0.085  1.00  0.00    -0.226 N 
ATOM     24  H5  UNL     1       5.549   0.058  -1.914  1.00  0.00     0.210 HD
HETATM   25  N7  UNL     1       4.446  -1.221   0.731  1.00  0.00    -0.264 N 
ATOM     26  H6  UNL     1       6.440  -1.204   0.071  1.00  0.00     0.210 HD
ATOM     27  H7  UNL     1       4.517  -1.726   1.614  1.00  0.00     0.190 HD
ENDBRANCH  16  19
ENDBRANCH   1  15
TORSDOF 8
