REMARK  5 active torsions:
REMARK  status: ('A' for Active; 'I' for Inactive)
REMARK    1  A    between atoms: N3_8  and  C4_10 
REMARK    2  A    between atoms: C8_15  and  N5_16 
REMARK    3  A    between atoms: N5_16  and  C9_18 
REMARK    4  A    between atoms: C9_18  and  C10_19 
REMARK    5  A    between atoms: C12_26  and  C13_27 
ROOT
HETATM    1  C1  UNL     1      -3.209  -0.126   4.140  1.00  0.00     0.149 C 
HETATM    2  N1  UNL     1      -1.798  -0.122   4.053  1.00  0.00    -0.366 N 
ATOM      3  H1  UNL     1      -1.282   0.214   4.866  1.00  0.00     0.162 HD
HETATM    4  C2  UNL     1      -1.084  -0.520   2.998  1.00  0.00     0.183 C 
HETATM    5  N2  UNL     1      -1.659  -1.009   1.808  1.00  0.00    -0.317 N 
ATOM      6  H2  UNL     1      -2.096  -1.928   1.875  1.00  0.00     0.170 HD
HETATM    7  C3  UNL     1      -1.717  -0.354   0.438  1.00  0.00     0.098 C 
HETATM    8  N3  UNL     1      -2.648  -0.618  -0.378  1.00  0.00    -0.374 N 
ATOM      9  H3  UNL     1      -3.338  -1.293  -0.049  1.00  0.00     0.161 HD
HETATM   10  C7  UNL     1      -0.684   0.657   0.228  1.00  0.00     0.219 C 
HETATM   11  N4  UNL     1       0.668   0.273  -0.057  1.00  0.00    -0.189 N 
HETATM   12  C8  UNL     1       1.544   1.271  -0.126  1.00  0.00     0.680 C 
HETATM   13  N6  UNL     1       1.768   0.958   1.610  1.00  0.00    -0.161 N 
ATOM     14  H6  UNL     1       2.293   1.580   2.225  1.00  0.00     0.187 HD
HETATM   15  C11 UNL     1       1.185  -0.167   2.033  1.00  0.00     0.198 C 
HETATM   16  N7  UNL     1       0.597  -1.252   1.421  1.00  0.00    -0.339 N 
ATOM     17  H7  UNL     1       0.147  -2.030   1.903  1.00  0.00     0.164 HD
HETATM   18  C12 UNL     1       0.723  -1.108  -0.064  1.00  0.00     0.208 C 
HETATM   19  N8  UNL     1       0.374  -0.355   3.333  1.00  0.00    -0.299 N 
ATOM     20  H8  UNL     1       0.766  -0.366   4.275  1.00  0.00     0.172 HD
ENDROOT
BRANCH   8  21
HETATM   21  C4  UNL     1      -2.868  -0.116  -1.671  1.00  0.00     0.074 C 
HETATM   22  C5  UNL     1      -3.771  -1.116  -2.413  1.00  0.00     0.031 C 
HETATM   23  C6  UNL     1      -3.605   1.205  -1.735  1.00  0.00     0.031 C 
ENDBRANCH   8  21
BRANCH  12  24
HETATM   24  N5  UNL     1       2.372   2.222  -0.211  1.00  0.00    -0.225 N 
ATOM     25  H5  UNL     1       2.835   2.468   0.664  1.00  0.00     0.177 HD
BRANCH  24  26
HETATM   26  C9  UNL     1       2.758   3.000  -1.331  1.00  0.00     0.149 C 
BRANCH  26  27
HETATM   27  C10 UNL     1       4.253   3.324  -1.205  1.00  0.00     0.105 C 
HETATM   28 BR1  UNL     1       5.313   1.704  -1.149  1.00  0.00    -0.095 Br
ENDBRANCH  26  27
ENDBRANCH  24  26
ENDBRANCH  12  24
BRANCH  18  29
HETATM   29  C13 UNL     1       2.060  -1.623  -0.498  1.00  0.00     0.021 C 
HETATM   30  C14 UNL     1       2.474  -1.215  -1.867  1.00  0.00     0.013 C 
HETATM   31  C15 UNL     1       2.143  -3.136  -0.414  1.00  0.00     0.013 C 
ENDBRANCH  18  29
TORSDOF 5
