REMARK  6 active torsions:
REMARK  status: ('A' for Active; 'I' for Inactive)
REMARK    1  A    between atoms: C2_2  and  C3_3 
REMARK    2  A    between atoms: C4_6  and  N2_7 
REMARK       I    between atoms: N2_7  and  C5_9 
REMARK    3  A    between atoms: C5_9  and  C6_11 
REMARK       I    between atoms: C6_11  and  N3_13 
REMARK    4  A    between atoms: N3_13  and  C7_15 
REMARK    5  A    between atoms: C7_15  and  C8_16 
REMARK       I    between atoms: C8_16  and  N4_18 
REMARK    6  A    between atoms: N4_18  and  C9_20 
ROOT
HETATM    1  N2  UNL     1       2.224  -2.574   0.761  1.00  0.00    -0.151 N 
ATOM      2  H2  UNL     1       2.089  -3.271   1.494  1.00  0.00     0.188 HD
HETATM    3  C5  UNL     1       1.324  -2.559  -0.335  1.00  0.00     0.327 C 
HETATM    4  O1  UNL     1       1.724  -2.778  -1.522  1.00  0.00    -0.261 OA
ENDROOT
BRANCH   3   5
HETATM    5  C6  UNL     1      -0.098  -2.292  -0.134  1.00  0.00     0.310 C 
HETATM    6  O2  UNL     1      -0.487  -2.073   1.064  1.00  0.00    -0.262 OA
HETATM    7  N3  UNL     1      -1.003  -2.278  -1.223  1.00  0.00    -0.344 N 
ATOM      8  H3  UNL     1      -0.637  -2.464  -2.157  1.00  0.00     0.163 HD
BRANCH   7   9
HETATM    9  C7  UNL     1      -2.395  -2.019  -1.084  1.00  0.00     0.225 C 
BRANCH   9  10
HETATM   10  C8  UNL     1      -2.672  -0.675  -0.539  1.00  0.00     0.235 C 
HETATM   11  O3  UNL     1      -1.732   0.104  -0.263  1.00  0.00    -0.272 OA
HETATM   12  N4  UNL     1      -4.011  -0.247  -0.320  1.00  0.00    -0.352 N 
ATOM     13  H4  UNL     1      -4.774  -0.885  -0.546  1.00  0.00     0.163 HD
BRANCH  12  14
HETATM   14  C9  UNL     1      -4.330   1.061   0.212  1.00  0.00     0.022 C 
HETATM   15  C10 UNL     1      -3.704   1.203   1.565  1.00  0.00     0.037 C 
HETATM   16  C11 UNL     1      -3.799   2.098  -0.767  1.00  0.00     0.037 C 
HETATM   17  C12 UNL     1      -5.831   1.245   0.253  1.00  0.00     0.037 C 
ENDBRANCH  12  14
ENDBRANCH   9  10
ENDBRANCH   7   9
ENDBRANCH   3   5
BRANCH   1  18
HETATM   18  C4  UNL     1       3.207  -1.744   0.872  1.00  0.00     0.688 A 
HETATM   19  N1  UNL     1       3.489  -0.787  -0.019  1.00  0.00    -0.194 N 
HETATM   20  C3  UNL     1       4.511   0.074   0.097  1.00  0.00     0.049 A 
ATOM     21  H1  UNL     1       2.888  -0.707  -0.839  1.00  0.00     0.184 HD
HETATM   22  C14 UNL     1       5.323  -0.036   1.207  1.00  0.00     0.102 A 
HETATM   23  C13 UNL     1       5.020  -1.029   2.120  1.00  0.00     0.279 A 
HETATM   24 BR1  UNL     1       6.808   1.159   1.446  1.00  0.00    -0.043 Br
HETATM   25  N5  UNL     1       3.991  -1.878   1.980  1.00  0.00    -0.155 N 
HETATM   26  O4  UNL     1       5.788  -1.100   3.127  1.00  0.00    -0.266 OA
ATOM     27  H5  UNL     1       3.802  -2.598   2.677  1.00  0.00     0.187 HD
BRANCH  20  28
HETATM   28  C2  UNL     1       4.737   1.100  -0.950  1.00  0.00     0.055 C 
HETATM   29  C1  UNL     1       4.287   2.475  -0.508  1.00  0.00     0.011 C 
ENDBRANCH  20  28
ENDBRANCH   1  18
TORSDOF 6
