REMARK  5 active torsions:
REMARK  status: ('A' for Active; 'I' for Inactive)
REMARK    1  A    between atoms: C2_2  and  C3_3 
REMARK    2  A    between atoms: C6_9  and  O2_10 
REMARK    3  A    between atoms: C8_16  and  C9_17 
REMARK    4  A    between atoms: C9_17  and  N3_18 
REMARK       I    between atoms: N3_18  and  C10_20 
REMARK    5  A    between atoms: C10_20  and  C11_22 
ROOT
HETATM    1  C3  UNL     1      -3.304   0.516  -0.714  1.00  0.00     0.151 C 
HETATM    2  C4  UNL     1      -3.132  -0.930  -0.423  1.00  0.00     0.229 C 
HETATM    3  O1  UNL     1      -4.106  -1.721  -0.404  1.00  0.00    -0.273 OA
HETATM    4  N1  UNL     1      -1.803  -1.365  -0.168  1.00  0.00    -0.351 N 
ATOM      5  H1  UNL     1      -1.659  -2.298   0.217  1.00  0.00     0.163 HD
HETATM    6  C5  UNL     1      -0.644  -0.536  -0.433  1.00  0.00     0.146 C 
HETATM    7  C6  UNL     1      -0.868   0.913  -0.177  1.00  0.00     0.221 C 
HETATM    8  C7  UNL     1       0.013   1.492   0.870  1.00  0.00     0.262 C 
HETATM    9  O3  UNL     1      -0.376   2.312   1.747  1.00  0.00    -0.270 OA
HETATM   10  N2  UNL     1       1.366   1.094   0.875  1.00  0.00    -0.351 N 
ATOM     11  H2  UNL     1       2.089   1.727   1.217  1.00  0.00     0.163 HD
HETATM   12  C8  UNL     1       1.716  -0.222   0.390  1.00  0.00     0.112 C 
HETATM   13  C12 UNL     1       0.524  -1.134   0.289  1.00  0.00    -0.001 C 
HETATM   14  C13 UNL     1       0.100  -1.608   1.671  1.00  0.00     0.019 C 
HETATM   15  C14 UNL     1       0.960  -2.365  -0.480  1.00  0.00     0.019 C 
HETATM   16  C15 UNL     1      -2.315   1.234   0.121  1.00  0.00     0.185 C 
HETATM   17  O5  UNL     1      -2.610   2.028   0.989  1.00  0.00    -0.293 OA
ENDROOT
BRANCH  12  18
HETATM   18  C9  UNL     1       2.486  -0.151  -0.911  1.00  0.00     0.148 C 
BRANCH  18  19
HETATM   19  N3  UNL     1       3.716   0.593  -0.757  1.00  0.00    -0.358 N 
HETATM   20  C10 UNL     1       4.765   0.252   0.107  1.00  0.00     0.227 C 
HETATM   21  O4  UNL     1       4.801  -0.728   0.861  1.00  0.00    -0.273 OA
ATOM     22  H3  UNL     1       3.829   1.434  -1.323  1.00  0.00     0.162 HD
BRANCH  20  23
HETATM   23  C11 UNL     1       5.972   1.156   0.130  1.00  0.00     0.187 C 
HETATM   24 BR1  UNL     1       7.302   0.541   1.362  1.00  0.00    -0.087 Br
ENDBRANCH  20  23
ENDBRANCH  18  19
ENDBRANCH  12  18
BRANCH   7  25
HETATM   25  O2  UNL     1      -0.593   1.671  -1.343  1.00  0.00    -0.371 OA
ATOM     26  H2  UNL     1      -0.736   2.596  -1.180  1.00  0.00     0.211 HD
ENDBRANCH   7  25
BRANCH   1  27
HETATM   27  C2  UNL     1      -4.712   0.981  -0.495  1.00  0.00     0.017 C 
HETATM   28  C1  UNL     1      -5.206   0.798   0.902  1.00  0.00     0.006 C 
ENDBRANCH   1  27
TORSDOF 5
