REMARK  7 active torsions:
REMARK  status: ('A' for Active; 'I' for Inactive)
REMARK    1  A    between atoms: C4_7  and  O1_8 
REMARK    2  A    between atoms: O1_8  and  C5_9 
REMARK    3  A    between atoms: C5_9  and  N2_10 
REMARK    4  A    between atoms: C8_14  and  O2_15 
REMARK    5  A    between atoms: N3_17  and  C9_18 
REMARK    6  A    between atoms: C15_24  and  O3_25 
REMARK    7  A    between atoms: C16_27  and  O4_28 
ROOT
HETATM    1  C5  UNL     1       0.550   0.346   1.893  1.00  0.00     0.299 C 
ENDROOT
BRANCH   1   2
HETATM    2  O1  UNL     1       1.590   0.297   1.098  1.00  0.00    -0.362 OA
BRANCH   2   3
HETATM    3  C4  UNL     1       2.244  -0.732   0.610  1.00  0.00     0.180 C 
HETATM    4  C3  UNL     1       2.072  -0.767  -0.912  1.00  0.00     0.267 C 
HETATM    5  N1  UNL     1       2.955   0.155  -1.571  1.00  0.00    -0.066 N 
HETATM    6  C2  UNL     1       4.343  -0.148  -1.327  1.00  0.00     0.213 C 
ATOM      7  H12 UNL     1       2.738   1.119  -1.317  1.00  0.00     0.277 HD
ATOM      8  H11 UNL     1       2.759   0.203  -2.571  1.00  0.00     0.277 HD
HETATM    9  C1  UNL     1       5.228   0.745  -2.167  1.00  0.00     0.043 C 
HETATM   10  C16 UNL     1       4.598   0.030   0.142  1.00  0.00     0.179 C 
HETATM   11  C15 UNL     1       3.705  -0.882   0.932  1.00  0.00     0.179 C 
BRANCH  10  12
HETATM   12  O4  UNL     1       4.520   1.355   0.543  1.00  0.00    -0.391 OA
ATOM     13  H4  UNL     1       4.681   1.468   1.472  1.00  0.00     0.210 HD
ENDBRANCH  10  12
BRANCH  11  14
HETATM   14  O3  UNL     1       4.076  -2.184   0.572  1.00  0.00    -0.390 OA
ATOM     15  H3  UNL     1       4.999  -2.279   0.775  1.00  0.00     0.210 HD
ENDBRANCH  11  14
ENDBRANCH   2   3
ENDBRANCH   1   2
BRANCH   1  16
HETATM   16  N2  UNL     1      -0.597  -0.305   1.280  1.00  0.00    -0.330 N 
HETATM   17  C6  UNL     1      -0.830  -1.632   1.492  1.00  0.00     0.117 A 
HETATM   18  C7  UNL     1      -1.927  -2.196   0.886  1.00  0.00     0.077 A 
HETATM   19 BR1  UNL     1      -2.372  -4.046   1.099  1.00  0.00    -0.045 Br
HETATM   20  C8  UNL     1      -2.747  -1.398   0.088  1.00  0.00     0.162 A 
HETATM   21  N3  UNL     1      -2.518  -0.112  -0.116  1.00  0.00    -0.318 N 
HETATM   22  C14 UNL     1      -1.422   0.419   0.499  1.00  0.00     0.189 A 
BRANCH  20  23
HETATM   23  O2  UNL     1      -3.846  -1.952  -0.523  1.00  0.00    -0.345 OA
ATOM     24  H2  UNL     1      -4.404  -1.409  -1.066  1.00  0.00     0.219 HD
ENDBRANCH  20  23
BRANCH  21  25
HETATM   25  C9  UNL     1      -3.273   0.745  -0.885  1.00  0.00     0.092 C 
HETATM   26  C10 UNL     1      -3.752   1.893   0.034  1.00  0.00     0.026 C 
HETATM   27  C11 UNL     1      -5.081   1.312   0.531  1.00  0.00     0.002 C 
HETATM   28  C12 UNL     1      -5.660   0.594  -0.677  1.00  0.00     0.002 C 
HETATM   29  C13 UNL     1      -4.476   0.435  -1.606  1.00  0.00     0.026 C 
ENDBRANCH  21  25
ENDBRANCH   1  16
TORSDOF 7
