REMARK  2 active torsions:
REMARK  status: ('A' for Active; 'I' for Inactive)
REMARK    1  A    between atoms: C2_2  and  C3_3 
REMARK    2  A    between atoms: C8_8  and  O1_9 
ROOT
HETATM    1  C3  UNL     1      -1.280  -0.105   0.453  1.00  0.00     0.098 C 
HETATM    2  C4  UNL     1      -1.636  -0.799  -0.825  1.00  0.00     0.026 C 
HETATM    3  C5  UNL     1      -0.463  -0.727  -1.779  1.00  0.00     0.002 C 
HETATM    4  C6  UNL     1       0.784  -1.329  -1.186  1.00  0.00     0.004 C 
HETATM    5  C7  UNL     1       1.910  -0.320  -1.165  1.00  0.00     0.055 C 
HETATM    6  C8  UNL     1       1.889   0.439   0.164  1.00  0.00     0.234 C 
HETATM    7  N1  UNL     1       0.747   1.311   0.098  1.00  0.00    -0.312 N 
ATOM      8  H1  UNL     1       0.964   2.293  -0.072  1.00  0.00     0.182 HD
HETATM    9  N2  UNL     1      -0.465   1.054   0.216  1.00  0.00    -0.334 N 
ATOM     10  H2  UNL     1      -1.034   1.895   0.118  1.00  0.00     0.180 HD
ENDROOT
BRANCH   1  11
HETATM   11  C2  UNL     1      -2.487   0.244   1.290  1.00  0.00     0.022 C 
HETATM   12  C1  UNL     1      -3.442   1.154   0.585  1.00  0.00     0.007 C 
ENDBRANCH   1  11
BRANCH   6  13
HETATM   13  O1  UNL     1       3.067   1.135   0.362  1.00  0.00    -0.370 OA
HETATM   14  C9  UNL     1       3.765   0.691   1.492  1.00  0.00     0.204 C 
ENDBRANCH   6  13
TORSDOF 2
