REMARK  2 active torsions:
REMARK  status: ('A' for Active; 'I' for Inactive)
REMARK    1  A    between atoms: N2_5  and  O1_7 
REMARK    2  A    between atoms: O1_7  and  N3_8 
ROOT
HETATM    1  C1  UNL     1       3.659  -0.442   0.638  1.00  0.00     0.083 C 
HETATM    2  C2  UNL     1       2.953   0.690   0.000  1.00  0.00     0.110 C 
HETATM    3  C3  UNL     1       3.732   1.785  -0.496  1.00  0.00     0.114 C 
HETATM    4  N1  UNL     1       4.364   2.689  -0.886  1.00  0.00    -0.190 NA
HETATM    5  N2  UNL     1       1.679   0.659  -0.090  1.00  0.00    -0.235 N 
ATOM      6  H2  UNL     1       1.172   1.429  -0.527  1.00  0.00     0.197 HD
ENDROOT
BRANCH   5   7
HETATM    7  O1  UNL     1       1.004  -0.422   0.408  1.00  0.00    -0.151 OA
BRANCH   7   8
HETATM    8  N3  UNL     1      -0.358  -0.508   0.499  1.00  0.00    -0.227 N 
HETATM    9  C4  UNL     1      -0.960   0.726   0.737  1.00  0.00     0.097 C 
HETATM   10  C5  UNL     1      -2.406   0.852   0.422  1.00  0.00     0.047 C 
HETATM   11  C6  UNL     1      -2.596   0.334  -1.008  1.00  0.00     0.010 C 
HETATM   12  C7  UNL     1      -2.293  -1.161  -0.897  1.00  0.00     0.047 C 
HETATM   13  C8  UNL     1      -0.968  -1.454  -0.325  1.00  0.00     0.097 C 
ENDBRANCH   7   8
ENDBRANCH   5   7
TORSDOF 2
