REMARK  3 active torsions:
REMARK  status: ('A' for Active; 'I' for Inactive)
REMARK    1  A    between atoms: C2_2  and  N1_4 
REMARK    2  A    between atoms: C2_2  and  S1_8 
REMARK    3  A    between atoms: S1_8  and  C4_9 
ROOT
HETATM    1  C1  UNL     1      -3.665   0.413   0.756  1.00  0.00     0.058 C 
HETATM    2  C2  UNL     1      -2.378   0.056   0.061  1.00  0.00     0.164 C 
HETATM    3  C3  UNL     1      -2.420  -1.327  -0.533  1.00  0.00     0.058 C 
ENDROOT
BRANCH   2   4
HETATM    4  N1  UNL     1      -2.100   0.979  -1.011  1.00  0.00    -0.062 N 
ATOM      5  H13 UNL     1      -2.878   1.040  -1.667  1.00  0.00     0.276 HD
ATOM      6  H12 UNL     1      -2.097   1.945  -0.685  1.00  0.00     0.276 HD
ATOM      7  H11 UNL     1      -1.228   0.737  -1.482  1.00  0.00     0.276 HD
ENDBRANCH   2   4
BRANCH   2   8
HETATM    8  S1  UNL     1      -0.966   0.080   1.218  1.00  0.00    -0.127 SA
BRANCH   8   9
HETATM    9  C4  UNL     1       0.511   0.222   0.176  1.00  0.00     0.050 C 
HETATM   10  C5  UNL     1       1.489   1.125   0.918  1.00  0.00     0.015 C 
HETATM   11  C6  UNL     1       2.647   1.260  -0.065  1.00  0.00     0.001 C 
HETATM   12  C7  UNL     1       3.398  -0.041   0.046  1.00  0.00     0.000 C 
HETATM   13  C8  UNL     1       2.555  -1.258  -0.009  1.00  0.00     0.001 C 
HETATM   14  C9  UNL     1       1.099  -1.092  -0.201  1.00  0.00     0.015 C 
ENDBRANCH   8   9
ENDBRANCH   2   8
TORSDOF 3
