REMARK  3 active torsions:
REMARK  status: ('A' for Active; 'I' for Inactive)
REMARK    1  A    between atoms: C2_2  and  C4_4 
REMARK    2  A    between atoms: C4_4  and  C5_5 
REMARK    3  A    between atoms: C8_8  and  O1_10 
ROOT
HETATM    1  C5  UNL     1      -0.114   0.458  -0.277  1.00  0.00     0.161 C 
HETATM    2  C6  UNL     1       0.963  -0.102  -1.209  1.00  0.00     0.040 C 
HETATM    3  C7  UNL     1       2.238   0.659  -0.841  1.00  0.00     0.073 C 
HETATM    4  C8  UNL     1       2.556   0.226   0.592  1.00  0.00     0.191 C 
HETATM    5  C9  UNL     1       3.465  -1.000   0.497  1.00  0.00     0.082 C 
HETATM    6  O2  UNL     1       1.413  -0.124   1.275  1.00  0.00    -0.201 OA
HETATM    7  O3  UNL     1       0.375   0.606   1.015  1.00  0.00    -0.233 OA
ENDROOT
BRANCH   1   8
HETATM    8  C4  UNL     1      -1.272  -0.507  -0.337  1.00  0.00     0.039 C 
BRANCH   8   9
HETATM    9  C2  UNL     1      -2.421  -0.079   0.542  1.00  0.00    -0.020 C 
HETATM   10  C1  UNL     1      -2.981   1.258   0.174  1.00  0.00     0.009 C 
HETATM   11  C3  UNL     1      -3.533  -1.101   0.441  1.00  0.00     0.009 C 
ENDBRANCH   8   9
ENDBRANCH   1   8
BRANCH   4  12
HETATM   12  O1  UNL     1       3.255   1.277   1.180  1.00  0.00    -0.363 OA
ATOM     13  H1  UNL     1       3.452   1.008   2.070  1.00  0.00     0.213 HD
ENDBRANCH   4  12
TORSDOF 3
