REMARK  10 active torsions:
REMARK  status: ('A' for Active; 'I' for Inactive)
REMARK    1  A    between atoms: N1_1  and  N2_4 
REMARK    2  A    between atoms: N2_4  and  N3_5 
REMARK       I    between atoms: N3_5  and  C1_7 
REMARK    3  A    between atoms: C1_7  and  C2_9 
REMARK    4  A    between atoms: C2_9  and  N4_10 
REMARK    5  A    between atoms: N4_10  and  C3_12 
REMARK    6  A    between atoms: N5_13  and  N6_15 
REMARK    7  A    between atoms: N6_15  and  C4_17 
REMARK    8  A    between atoms: C4_17  and  N7_19 
REMARK    9  A    between atoms: N7_19  and  N8_21 
REMARK   10  A    between atoms: N8_21  and  C5_23 
ROOT
HETATM    1  C3  UNL     1       1.157  -1.448  -1.154  1.00  0.00     0.193 C 
HETATM    2  N5  UNL     1       0.185  -2.179  -0.773  1.00  0.00    -0.294 N 
ATOM      3  H5  UNL     1      -0.191  -2.909  -1.377  1.00  0.00     0.187 HD
ENDROOT
BRANCH   2   4
HETATM    4  N6  UNL     1      -0.349  -1.950   0.496  1.00  0.00    -0.274 N 
ATOM      5  H6  UNL     1       0.151  -2.228   1.341  1.00  0.00     0.189 HD
BRANCH   4   6
HETATM    6  C4  UNL     1      -1.614  -1.316   0.562  1.00  0.00     0.205 C 
HETATM    7  S1  UNL     1      -2.251  -1.042   2.037  1.00  0.00    -0.038 SA
BRANCH   6   8
HETATM    8  N7  UNL     1      -2.310  -0.929  -0.612  1.00  0.00    -0.273 N 
ATOM      9  H7  UNL     1      -1.911  -1.100  -1.535  1.00  0.00     0.189 HD
BRANCH   8  10
HETATM   10  N8  UNL     1      -3.542  -0.314  -0.478  1.00  0.00    -0.276 N 
ATOM     11  H8  UNL     1      -4.398  -0.844  -0.643  1.00  0.00     0.189 HD
BRANCH  10  12
HETATM   12  C5  UNL     1      -3.612   1.043  -0.114  1.00  0.00     0.199 C 
HETATM   13  N9  UNL     1      -4.893   1.688   0.027  1.00  0.00    -0.068 NA
HETATM   14  S2  UNL     1      -2.227   1.885   0.148  1.00  0.00    -0.043 SA
ENDBRANCH  10  12
ENDBRANCH   8  10
ENDBRANCH   6   8
ENDBRANCH   4   6
ENDBRANCH   2   4
BRANCH   1  15
HETATM   15  N4  UNL     1       1.685  -0.436  -0.329  1.00  0.00    -0.376 N 
ATOM     16  H4  UNL     1       1.119  -0.079   0.441  1.00  0.00     0.160 HD
BRANCH  15  17
HETATM   17  C2  UNL     1       3.006   0.112  -0.541  1.00  0.00     0.225 C 
BRANCH  17  18
HETATM   18  C1  UNL     1       3.273   1.149   0.478  1.00  0.00     0.265 C 
HETATM   19  N3  UNL     1       4.525   1.825   0.457  1.00  0.00    -0.182 N 
ATOM     20  H3  UNL     1       4.613   2.655  -0.129  1.00  0.00     0.207 HD
HETATM   21  O1  UNL     1       2.382   1.395   1.328  1.00  0.00    -0.269 OA
BRANCH  19  22
HETATM   22  N2  UNL     1       5.503   1.468   1.102  1.00  0.00    -0.241 NA
BRANCH  22  23
HETATM   23  N1  UNL     1       6.422   1.267   1.891  1.00  0.00    -0.260 N 
ATOM     24  H12 UNL     1       6.053   2.014   2.480  1.00  0.00     0.193 HD
ATOM     25  H11 UNL     1       7.237   0.970   2.428  1.00  0.00     0.193 HD
ENDBRANCH  22  23
ENDBRANCH  19  22
ENDBRANCH  17  18
ENDBRANCH  15  17
ENDBRANCH   1  15
TORSDOF 10
