REMARK  5 active torsions:
REMARK  status: ('A' for Active; 'I' for Inactive)
REMARK       I    between atoms: N1_2  and  C2_4 
REMARK       I    between atoms: C2_4  and  N2_6 
REMARK    1  A    between atoms: N2_6  and  C3_8 
REMARK    2  A    between atoms: C3_8  and  N3_10 
REMARK    3  A    between atoms: N3_10  and  N4_12 
REMARK    4  A    between atoms: N4_12  and  S2_14 
REMARK    5  A    between atoms: S2_14  and  N5_17 
REMARK       I    between atoms: N5_17  and  C4_19 
REMARK       I    between atoms: C4_19  and  N6_21 
ROOT
HETATM    1  N4  UNL     1       0.132  -1.821  -0.409  1.00  0.00    -0.207 N 
ATOM      2  H4  UNL     1       0.153  -2.149  -1.375  1.00  0.00     0.201 HD
ENDROOT
BRANCH   1   3
HETATM    3  N3  UNL     1       1.216  -1.292   0.255  1.00  0.00    -0.265 N 
ATOM      4  H3  UNL     1       1.200  -1.339   1.274  1.00  0.00     0.190 HD
BRANCH   3   5
HETATM    5  C3  UNL     1       2.358  -0.685  -0.342  1.00  0.00     0.195 C 
HETATM    6  S1  UNL     1       2.443  -0.574  -1.991  1.00  0.00    -0.039 SA
BRANCH   5   7
HETATM    7  N2  UNL     1       3.396  -0.192   0.478  1.00  0.00    -0.284 N 
HETATM    8  C2  UNL     1       4.571   0.421  -0.049  1.00  0.00     0.322 C 
HETATM    9  N1  UNL     1       5.594   0.896   0.829  1.00  0.00    -0.347 N 
HETATM   10  O1  UNL     1       4.726   0.552  -1.279  1.00  0.00    -0.247 OA
HETATM   11  C1  UNL     1       6.774   1.514   0.286  1.00  0.00     0.151 C 
ATOM     12  H1  UNL     1       5.488   0.797   1.839  1.00  0.00     0.163 HD
ATOM     13  H2  UNL     1       3.302  -0.278   1.490  1.00  0.00     0.173 HD
ENDBRANCH   5   7
ENDBRANCH   3   5
ENDBRANCH   1   3
BRANCH   1  14
HETATM   14  S2  UNL     1      -1.263  -1.858   0.597  1.00  0.00     0.340 S 
HETATM   15  O2  UNL     1      -0.808  -1.779   2.051  1.00  0.00    -0.181 OA
HETATM   16  O3  UNL     1      -2.035  -3.137   0.359  1.00  0.00    -0.181 OA
BRANCH  14  17
HETATM   17  N5  UNL     1      -2.310  -0.533   0.231  1.00  0.00    -0.218 N 
HETATM   18  C4  UNL     1      -3.683  -0.745   0.043  1.00  0.00     0.332 C 
HETATM   19  O4  UNL     1      -4.122  -1.943   0.154  1.00  0.00    -0.246 OA
HETATM   20  N6  UNL     1      -4.578   0.308  -0.261  1.00  0.00    -0.342 N 
HETATM   21  C5  UNL     1      -5.999   0.005  -0.408  1.00  0.00     0.154 C 
HETATM   22  C6  UNL     1      -4.177   1.671  -0.445  1.00  0.00     0.154 C 
ATOM     23  H5  UNL     1      -1.927   0.409   0.151  1.00  0.00     0.185 HD
ENDBRANCH  14  17
ENDBRANCH   1  14
TORSDOF 5
