REMARK  4 active torsions:
REMARK  status: ('A' for Active; 'I' for Inactive)
REMARK    1  A    between atoms: C2_2  and  N1_3 
REMARK       I    between atoms: N1_3  and  C3_5 
REMARK       I    between atoms: C3_5  and  N2_7 
REMARK    2  A    between atoms: N2_7  and  N3_9 
REMARK    3  A    between atoms: N3_9  and  C4_11 
REMARK    4  A    between atoms: C5_14  and  C6_15 
ROOT
HETATM    1  C4  UNL     1      -0.460  -0.518   0.850  1.00  0.00     0.700 C 
HETATM    2  N4  UNL     1      -1.669  -1.001   0.577  1.00  0.00    -0.184 N 
ATOM      3  H4  UNL     1      -1.860  -1.942   0.920  1.00  0.00     0.184 HD
HETATM    4  C5  UNL     1      -2.693  -0.393  -0.108  1.00  0.00     0.124 C 
HETATM    5  C7  UNL     1      -2.918   0.962  -0.244  1.00  0.00     0.026 C 
HETATM    6  C8  UNL     1      -4.295   1.441  -0.356  1.00  0.00     0.055 C 
HETATM    7  C9  UNL     1      -1.888   1.911  -0.271  1.00  0.00     0.248 C 
HETATM    8  O3  UNL     1      -2.212   3.019  -0.747  1.00  0.00    -0.282 OA
HETATM    9  C10 UNL     1      -0.562   1.783   0.158  1.00  0.00     0.310 C 
HETATM   10  O4  UNL     1       0.220   2.736  -0.090  1.00  0.00    -0.263 OA
HETATM   11  N6  UNL     1      -0.009   0.742   0.818  1.00  0.00    -0.151 N 
ATOM     12  H6  UNL     1       0.841   0.936   1.347  1.00  0.00     0.188 HD
ENDROOT
BRANCH   1  13
HETATM   13  N3  UNL     1       0.401  -1.437   1.201  1.00  0.00    -0.128 N 
ATOM     14  H3  UNL     1       0.106  -2.413   1.240  1.00  0.00     0.205 HD
BRANCH  13  15
HETATM   15  N2  UNL     1       1.707  -1.106   1.520  1.00  0.00    -0.237 N 
HETATM   16  C3  UNL     1       2.653  -0.861   0.491  1.00  0.00     0.335 C 
HETATM   17  N1  UNL     1       4.002  -0.519   0.754  1.00  0.00    -0.342 N 
HETATM   18  O1  UNL     1       2.262  -0.956  -0.702  1.00  0.00    -0.246 OA
ATOM     19  H1  UNL     1       4.328  -0.440   1.717  1.00  0.00     0.164 HD
ATOM     20  H2  UNL     1       1.990  -1.038   2.498  1.00  0.00     0.192 HD
BRANCH  17  21
HETATM   21  C2  UNL     1       4.909  -0.284  -0.327  1.00  0.00     0.120 C 
HETATM   22  C1  UNL     1       4.384   0.867  -1.158  1.00  0.00     0.026 C 
ENDBRANCH  17  21
ENDBRANCH  13  15
ENDBRANCH   1  13
BRANCH   4  23
HETATM   23  C6  UNL     1      -3.652  -1.244  -0.756  1.00  0.00     0.282 C 
HETATM   24  N5  UNL     1      -3.553  -2.650  -0.633  1.00  0.00    -0.056 NA
HETATM   25  O2  UNL     1      -4.578  -0.777  -1.429  1.00  0.00    -0.269 OA
ENDBRANCH   4  23
TORSDOF 4
