REMARK  6 active torsions:
REMARK  status: ('A' for Active; 'I' for Inactive)
REMARK    1  A    between atoms: C2_2  and  O1_3 
REMARK    2  A    between atoms: O1_3  and  C3_4 
REMARK    3  A    between atoms: C3_4  and  C4_6 
REMARK    4  A    between atoms: C10_15  and  C11_16 
REMARK    5  A    between atoms: C11_16  and  O3_17 
REMARK    6  A    between atoms: C11_16  and  N3_19 
REMARK       I    between atoms: N3_19  and  C12_21 
ROOT
HETATM    1  C4  UNL     1       0.655   0.556  -0.548  1.00  0.00     0.057 A 
HETATM    2  C5  UNL     1       1.361   1.544  -1.283  1.00  0.00     0.042 A 
HETATM    3  C6  UNL     1       0.764   2.614  -1.868  1.00  0.00     0.065 A 
HETATM    4  C7  UNL     1       1.549   3.577  -2.598  1.00  0.00     0.101 C 
HETATM    5  N1  UNL     1       2.194   4.346  -3.170  1.00  0.00    -0.191 NA
HETATM    6  C8  UNL     1      -0.585   2.736  -1.737  1.00  0.00     0.058 A 
HETATM    7  S1  UNL     1      -1.380   4.145  -2.516  1.00  0.00    -0.049 SA
HETATM    8  C9  UNL     1      -1.306   1.815  -1.035  1.00  0.00     0.081 A 
HETATM    9  N2  UNL     1      -2.701   2.021  -0.948  1.00  0.00    -0.100 NA
HETATM   10  C10 UNL     1      -0.673   0.700  -0.419  1.00  0.00     0.057 A 
ENDROOT
BRANCH   1  11
HETATM   11  C3  UNL     1       1.434  -0.633  -0.322  1.00  0.00     0.294 C 
HETATM   12  O2  UNL     1       0.952  -1.762  -0.219  1.00  0.00    -0.259 OA
BRANCH  11  13
HETATM   13  O1  UNL     1       2.826  -0.574  -0.196  1.00  0.00    -0.318 OA
BRANCH  13  14
HETATM   14  C2  UNL     1       3.585  -1.753   0.037  1.00  0.00     0.174 C 
HETATM   15  C1  UNL     1       3.176  -2.443   1.309  1.00  0.00     0.034 C 
ENDBRANCH  13  14
ENDBRANCH  11  13
ENDBRANCH   1  11
BRANCH  10  16
HETATM   16  C11 UNL     1      -1.540  -0.170   0.335  1.00  0.00     0.155 C 
BRANCH  16  17
HETATM   17  O3  UNL     1      -2.820  -0.079   0.092  1.00  0.00    -0.345 OA
ATOM     18  H3  UNL     1      -3.391  -0.652   0.589  1.00  0.00     0.219 HD
ENDBRANCH  16  17
BRANCH  16  19
HETATM   19  N3  UNL     1      -1.258  -1.116   1.330  1.00  0.00    -0.311 N 
HETATM   20  C12 UNL     1      -2.296  -1.905   1.945  1.00  0.00     0.187 C 
HETATM   21  N4  UNL     1      -1.967  -2.755   2.853  1.00  0.00    -0.373 N 
HETATM   22  N5  UNL     1      -3.664  -1.803   1.612  1.00  0.00    -0.064 NA
ATOM     23  H42 UNL     1      -0.979  -2.829   3.094  1.00  0.00     0.158 HD
ATOM     24  H41 UNL     1      -2.701  -3.313   3.288  1.00  0.00     0.158 HD
ATOM     25  H3  UNL     1      -0.291  -1.250   1.627  1.00  0.00     0.170 HD
ENDBRANCH  16  19
ENDBRANCH  10  16
TORSDOF 6
