REMARK  2 active torsions:
REMARK  status: ('A' for Active; 'I' for Inactive)
REMARK    1  A    between atoms: N2_5  and  N3_7 
REMARK    2  A    between atoms: N3_7  and  C4_9 
ROOT
HETATM    1  C1  UNL     1       1.716  -1.077  -0.095  1.00  0.00     0.082 C 
HETATM    2  C2  UNL     1       1.617   0.391   0.114  1.00  0.00     0.101 C 
HETATM    3  C3  UNL     1       2.775   1.221   0.180  1.00  0.00     0.114 C 
HETATM    4  N1  UNL     1       3.733   1.888   0.226  1.00  0.00    -0.190 NA
HETATM    5  N2  UNL     1       0.444   0.914   0.237  1.00  0.00    -0.293 N 
ATOM      6  H2  UNL     1       0.361   1.921   0.380  1.00  0.00     0.187 HD
ENDROOT
BRANCH   5   7
HETATM    7  N3  UNL     1      -0.717   0.137   0.179  1.00  0.00    -0.278 N 
ATOM      8  H3  UNL     1      -0.659  -0.849   0.434  1.00  0.00     0.189 HD
BRANCH   7   9
HETATM    9  C4  UNL     1      -1.964   0.661  -0.218  1.00  0.00     0.199 C 
HETATM   10  N4  UNL     1      -3.093  -0.177  -0.255  1.00  0.00    -0.068 NA
HETATM   11  S1  UNL     1      -2.100   2.222  -0.631  1.00  0.00    -0.043 SA
ENDBRANCH   7   9
ENDBRANCH   5   7
TORSDOF 2
