REMARK  4 active torsions:
REMARK  status: ('A' for Active; 'I' for Inactive)
REMARK    1  A    between atoms: O1_1  and  C1_3 
REMARK    2  A    between atoms: C1_3  and  C2_4 
REMARK    3  A    between atoms: C3_6  and  C4_7 
REMARK    4  A    between atoms: C7_10  and  O3_11 
ROOT
HETATM    1  C2  UNL     1      -1.361  -0.933   0.718  1.00  0.00     0.175 A 
HETATM    2  O2  UNL     1      -1.312  -1.461  -0.699  1.00  0.00    -0.372 OA
HETATM    3  C3  UNL     1      -0.129  -1.005   0.056  1.00  0.00     0.163 A 
ENDROOT
BRANCH   3   4
HETATM    4  C4  UNL     1       0.600   0.052  -0.718  1.00  0.00     0.072 A 
HETATM    5  C5  UNL     1       1.014   1.233   0.001  1.00  0.00    -0.018 A 
HETATM    6  C6  UNL     1       2.257   1.043  -0.228  1.00  0.00     0.002 A 
HETATM    7  C7  UNL     1       2.029  -0.171  -0.985  1.00  0.00     0.150 A 
BRANCH   7   8
HETATM    8  O3  UNL     1       2.607  -1.265  -0.307  1.00  0.00    -0.391 OA
ATOM      9  H3  UNL     1       3.530  -1.409  -0.479  1.00  0.00     0.210 HD
ENDBRANCH   7   8
ENDBRANCH   3   4
BRANCH   1  10
HETATM   10  C1  UNL     1      -2.361   0.163   0.801  1.00  0.00     0.198 C 
BRANCH  10  11
HETATM   11  O1  UNL     1      -2.154   1.246  -0.011  1.00  0.00    -0.398 OA
ATOM     12  H1  UNL     1      -2.793   1.947   0.042  1.00  0.00     0.209 HD
ENDBRANCH  10  11
ENDBRANCH   1  10
TORSDOF 4
