REMARK  2 active torsions:
REMARK  status: ('A' for Active; 'I' for Inactive)
REMARK    1  A    between atoms: C3_3  and  N1_4 
REMARK    2  A    between atoms: N1_4  and  C4_6 
ROOT
HETATM    1  C1  UNL     1       3.021   1.334   1.317  1.00  0.00     0.014 C 
HETATM    2  C2  UNL     1       2.584   0.244   1.097  1.00  0.00    -0.098 C 
HETATM    3  C3  UNL     1       2.037  -1.083   0.810  1.00  0.00     0.216 C 
ENDROOT
BRANCH   3   4
HETATM    4  N1  UNL     1       0.608  -1.040   1.051  1.00  0.00    -0.345 N 
ATOM      5  H1  UNL     1       0.244  -1.418   1.926  1.00  0.00     0.164 HD
BRANCH   4   6
HETATM    6  C4  UNL     1      -0.213  -0.544   0.203  1.00  0.00     0.226 A 
HETATM    7  N2  UNL     1       0.091  -0.015  -0.969  1.00  0.00    -0.328 N 
HETATM    8  C5  UNL     1      -1.046   0.384  -1.539  1.00  0.00     0.144 A 
ATOM      9  H2  UNL     1       1.027   0.072  -1.366  1.00  0.00     0.168 HD
HETATM   10  C6  UNL     1      -2.078   0.080  -0.669  1.00  0.00     0.176 A 
HETATM   11  N3  UNL     1      -3.461   0.305  -0.820  1.00  0.00    -0.073 NA
HETATM   12  O1  UNL     1      -1.507  -0.481   0.371  1.00  0.00    -0.263 OA
ENDBRANCH   4   6
ENDBRANCH   3   4
TORSDOF 2
