REMARK  2 active torsions:
REMARK  status: ('A' for Active; 'I' for Inactive)
REMARK       I    between atoms: N1_2  and  C2_4 
REMARK    1  A    between atoms: N3_6  and  O1_8 
REMARK    2  A    between atoms: O1_8  and  C3_9 
ROOT
HETATM    1  C3  UNL     1       1.719   0.230   0.142  1.00  0.00     0.169 C 
HETATM    2  C4  UNL     1       3.043   0.996  -0.079  1.00  0.00     0.065 C 
HETATM    3  C5  UNL     1       1.854  -1.184  -0.327  1.00  0.00     0.065 C 
HETATM    4  C6  UNL     1       1.469   0.268   1.603  1.00  0.00     0.099 C 
HETATM    5  N4  UNL     1       1.294   0.310   2.753  1.00  0.00    -0.194 NA
ENDROOT
BRANCH   1   6
HETATM    6  O1  UNL     1       0.698   0.862  -0.554  1.00  0.00    -0.252 OA
BRANCH   6   7
HETATM    7  N3  UNL     1      -0.563   0.548  -0.639  1.00  0.00    -0.237 N 
HETATM    8  C2  UNL     1      -1.386  -0.278  -0.219  1.00  0.00     0.207 C 
HETATM    9  N1  UNL     1      -2.753  -0.134  -0.684  1.00  0.00    -0.367 N 
HETATM   10  N2  UNL     1      -1.209  -1.368   0.662  1.00  0.00    -0.062 NA
HETATM   11  C1  UNL     1      -3.496   1.094  -0.464  1.00  0.00     0.148 C 
ATOM     12  H1  UNL     1      -3.200  -0.909  -1.174  1.00  0.00     0.161 HD
ATOM     13  H3  UNL     1      -1.033   1.204  -1.263  1.00  0.00     0.197 HD
ENDBRANCH   6   7
ENDBRANCH   1   6
TORSDOF 2
