REMARK  1 active torsions:
REMARK  status: ('A' for Active; 'I' for Inactive)
REMARK       I    between atoms: C1_4  and  N3_6 
REMARK    1  A    between atoms: N3_6  and  N4_8 
ROOT
HETATM    1  N4  UNL     1      -0.737  -0.410   0.857  1.00  0.00    -0.279 N 
ATOM      2  H4  UNL     1      -0.865  -0.593   1.852  1.00  0.00     0.189 HD
HETATM    3  C2  UNL     1       0.436  -0.097   0.443  1.00  0.00     0.157 C 
HETATM    4  C3  UNL     1       1.536  -0.020   1.440  1.00  0.00     0.253 C 
HETATM    5  O1  UNL     1       2.533   0.767   0.890  1.00  0.00    -0.381 OA
HETATM    6  C4  UNL     1       3.104   0.108  -0.191  1.00  0.00     0.195 C 
HETATM    7  C5  UNL     1       2.098  -0.212  -1.269  1.00  0.00     0.203 C 
HETATM    8  O2  UNL     1       0.774   0.179  -0.873  1.00  0.00    -0.334 OA
ENDROOT
BRANCH   1   9
HETATM    9  N3  UNL     1      -1.846  -0.514   0.020  1.00  0.00    -0.272 N 
HETATM   10  C1  UNL     1      -3.094   0.060   0.349  1.00  0.00     0.200 C 
HETATM   11  N1  UNL     1      -4.085  -0.721   0.601  1.00  0.00    -0.372 N 
HETATM   12  N2  UNL     1      -3.272   1.455   0.407  1.00  0.00    -0.062 NA
ATOM     13  H12 UNL     1      -4.986  -0.307   0.839  1.00  0.00     0.158 HD
ATOM     14  H11 UNL     1      -3.956  -1.732   0.559  1.00  0.00     0.158 HD
ATOM     15  H3  UNL     1      -1.754  -1.022  -0.860  1.00  0.00     0.189 HD
ENDBRANCH   1   9
TORSDOF 1
