REMARK  2 active torsions:
REMARK  status: ('A' for Active; 'I' for Inactive)
REMARK    1  A    between atoms: C2_5  and  N3_6 
REMARK    2  A    between atoms: N3_6  and  C3_8 
ROOT
HETATM    1  N1  UNL     1       4.130   1.031   0.754  1.00  0.00    -0.172 NA
HETATM    2  C1  UNL     1       3.694   0.042   0.340  1.00  0.00     0.182 C 
HETATM    3  N2  UNL     1       3.181  -1.150  -0.142  1.00  0.00    -0.290 N 
ATOM      4  H2  UNL     1       3.720  -1.999   0.026  1.00  0.00     0.178 HD
HETATM    5  C2  UNL     1       2.070  -1.264  -0.788  1.00  0.00     0.192 C 
ENDROOT
BRANCH   5   6
HETATM    6  N3  UNL     1       1.313  -0.121  -1.032  1.00  0.00    -0.338 N 
ATOM      7  H3  UNL     1       1.733   0.568  -1.655  1.00  0.00     0.168 HD
BRANCH   6   8
HETATM    8  C3  UNL     1       0.167   0.169  -0.576  1.00  0.00     0.123 A 
HETATM    9  C4  UNL     1      -0.450   1.346  -0.915  1.00  0.00     0.066 A 
HETATM   10  C5  UNL     1      -1.722   1.645  -0.396  1.00  0.00     0.110 A 
HETATM   11  N4  UNL     1      -2.345   0.786   0.433  1.00  0.00    -0.202 N 
HETATM   12  C6  UNL     1      -1.716  -0.357   0.745  1.00  0.00     0.677 A 
ATOM     13  H4  UNL     1      -3.268   0.998   0.812  1.00  0.00     0.183 HD
HETATM   14  N5  UNL     1      -2.315  -1.173   1.537  1.00  0.00    -0.234 N 
HETATM   15  N6  UNL     1      -0.478  -0.663   0.250  1.00  0.00    -0.177 N 
ATOM     16  H52 UNL     1      -3.238  -0.945   1.906  1.00  0.00     0.174 HD
ATOM     17  H51 UNL     1      -1.837  -2.042   1.774  1.00  0.00     0.174 HD
ATOM     18  H6  UNL     1      -0.037  -1.544   0.516  1.00  0.00     0.185 HD
ENDBRANCH   6   8
ENDBRANCH   5   6
TORSDOF 2
