REMARK  2 active torsions:
REMARK  status: ('A' for Active; 'I' for Inactive)
REMARK    1  A    between atoms: C3_4  and  C4_5 
REMARK    2  A    between atoms: C5_9  and  N3_10 
ROOT
HETATM    1  N1  UNL     1      -2.931  -2.291   0.212  1.00  0.00    -0.191 NA
HETATM    2  C1  UNL     1      -1.948  -1.666   0.144  1.00  0.00     0.107 C 
HETATM    3  C2  UNL     1      -0.721  -0.926   0.060  1.00  0.00     0.143 A 
HETATM    4  C3  UNL     1      -0.700   0.445   0.028  1.00  0.00     0.113 A 
HETATM    5  N2  UNL     1       0.478   1.136  -0.052  1.00  0.00    -0.187 N 
ATOM      6  H2  UNL     1       0.480   2.156  -0.075  1.00  0.00     0.184 HD
HETATM    7  C5  UNL     1       1.628   0.453  -0.099  1.00  0.00     0.679 A 
HETATM    8  N4  UNL     1       1.617  -0.886  -0.068  1.00  0.00    -0.155 N 
ATOM      9  H4  UNL     1       2.510  -1.378  -0.105  1.00  0.00     0.187 HD
HETATM   10  C6  UNL     1       0.502  -1.608   0.009  1.00  0.00     0.282 A 
HETATM   11  O2  UNL     1       0.457  -2.854   0.039  1.00  0.00    -0.266 OA
ENDROOT
BRANCH   4  12
HETATM   12  C4  UNL     1      -1.952   1.199   0.080  1.00  0.00     0.290 C 
HETATM   13  O1  UNL     1      -3.060   0.664   0.152  1.00  0.00    -0.300 OA
ENDBRANCH   4  12
BRANCH   7  14
HETATM   14  N3  UNL     1       2.741   1.096  -0.174  1.00  0.00    -0.234 N 
ATOM     15  H32 UNL     1       2.749   2.116  -0.198  1.00  0.00     0.174 HD
ATOM     16  H31 UNL     1       3.617   0.575  -0.210  1.00  0.00     0.174 HD
ENDBRANCH   7  14
TORSDOF 2
