REMARK  3 active torsions:
REMARK  status: ('A' for Active; 'I' for Inactive)
REMARK    1  A    between atoms: C2_3  and  N3_7 
REMARK    2  A    between atoms: N3_7  and  S1_9 
REMARK    3  A    between atoms: S1_9  and  N4_10 
ROOT
HETATM    1  N1  UNL     1       2.559   1.910   0.477  1.00  0.00    -0.188 NA
HETATM    2  C1  UNL     1       2.089   0.870   0.289  1.00  0.00     0.137 C 
HETATM    3  C2  UNL     1       1.492  -0.417   0.059  1.00  0.00     0.192 C 
HETATM    4  N2  UNL     1       2.178  -1.446   0.409  1.00  0.00    -0.376 N 
ATOM      5  H21 UNL     1       1.754  -2.359   0.246  1.00  0.00     0.158 HD
ATOM      6  H22 UNL     1       3.100  -1.326   0.829  1.00  0.00     0.158 HD
ENDROOT
BRANCH   3   7
HETATM    7  N3  UNL     1       0.226  -0.582  -0.518  1.00  0.00    -0.244 N 
ATOM      8  H3  UNL     1       0.027  -1.435  -1.041  1.00  0.00     0.182 HD
BRANCH   7   9
HETATM    9  S1  UNL     1      -1.017   0.626  -0.368  1.00  0.00     0.318 S 
HETATM   10  O1  UNL     1      -0.458   2.003  -0.352  1.00  0.00    -0.183 OA
HETATM   11  O2  UNL     1      -1.979   0.532  -1.529  1.00  0.00    -0.183 OA
BRANCH   9  12
HETATM   12  N4  UNL     1      -1.926   0.269   1.059  1.00  0.00    -0.311 N 
ATOM     13  H42 UNL     1      -1.752  -0.514   1.690  1.00  0.00     0.170 HD
ATOM     14  H41 UNL     1      -2.655   0.977   1.147  1.00  0.00     0.170 HD
ENDBRANCH   9  12
ENDBRANCH   7   9
ENDBRANCH   3   7
TORSDOF 3
