REMARK  5 active torsions:
REMARK  status: ('A' for Active; 'I' for Inactive)
REMARK    1  A    between atoms: C1_2  and  N2_4 
REMARK    2  A    between atoms: N2_4  and  N3_6 
REMARK    3  A    between atoms: C2_8  and  N4_9 
REMARK    4  A    between atoms: C2_8  and  C4_16 
REMARK    5  A    between atoms: N4_9  and  N5_11 
ROOT
HETATM    1  N3  UNL     1      -1.462   1.402   0.353  1.00  0.00    -0.277 N 
ATOM      2  H3  UNL     1      -2.027   2.243   0.232  1.00  0.00     0.189 HD
HETATM    3  C2  UNL     1      -0.209   1.472   0.697  1.00  0.00     0.213 C 
ENDROOT
BRANCH   3   4
HETATM    4  N4  UNL     1       0.572   0.284   0.862  1.00  0.00    -0.277 N 
ATOM      5  H4  UNL     1       0.280  -0.448   1.510  1.00  0.00     0.189 HD
BRANCH   4   6
HETATM    6  N5  UNL     1       1.736   0.153   0.119  1.00  0.00    -0.274 N 
HETATM    7  C3  UNL     1       2.034  -0.950  -0.469  1.00  0.00     0.215 C 
HETATM    8  N6  UNL     1       3.241  -1.037  -1.222  1.00  0.00    -0.065 NA
HETATM    9  N7  UNL     1       1.146  -2.044  -0.348  1.00  0.00    -0.065 NA
ATOM     10  H5  UNL     1       2.369   0.949   0.038  1.00  0.00     0.189 HD
ENDBRANCH   4   6
ENDBRANCH   3   4
BRANCH   3  11
HETATM   11  C4  UNL     1       0.388   2.773   0.911  1.00  0.00     0.247 C 
HETATM   12  O1  UNL     1      -0.294   3.803   0.766  1.00  0.00    -0.642 OA
HETATM   13  O2  UNL     1       1.712   2.869   1.274  1.00  0.00    -0.642 OA
ENDBRANCH   3  11
BRANCH   1  14
HETATM   14  N2  UNL     1      -2.001   0.133   0.157  1.00  0.00    -0.277 N 
ATOM     15  H2  UNL     1      -1.768  -0.612   0.814  1.00  0.00     0.189 HD
BRANCH  14  16
HETATM   16  C1  UNL     1      -2.862  -0.152  -0.928  1.00  0.00     0.199 C 
HETATM   17  N1  UNL     1      -3.376  -1.459  -1.074  1.00  0.00    -0.068 NA
HETATM   18  S1  UNL     1      -3.276   0.981  -2.010  1.00  0.00    -0.043 SA
ENDBRANCH  14  16
ENDBRANCH   1  14
TORSDOF 5
