REMARK  5 active torsions:
REMARK  status: ('A' for Active; 'I' for Inactive)
REMARK    1  A    between atoms: C1_2  and  C2_4 
REMARK       I    between atoms: C2_4  and  N2_6 
REMARK    2  A    between atoms: N2_6  and  N3_8 
REMARK       I    between atoms: N3_8  and  C3_10 
REMARK       I    between atoms: C3_10  and  N4_12 
REMARK    3  A    between atoms: N4_12  and  C4_14 
REMARK    4  A    between atoms: C4_14  and  N5_15 
REMARK    5  A    between atoms: C4_14  and  C5_19 
ROOT
HETATM    1  N3  UNL     1      -0.723  -0.740   0.139  1.00  0.00    -0.249 N 
ATOM      2  H3  UNL     1      -0.642  -1.309   0.982  1.00  0.00     0.192 HD
HETATM    3  C3  UNL     1       0.442  -0.157  -0.409  1.00  0.00     0.336 C 
HETATM    4  O3  UNL     1       0.358   0.546  -1.462  1.00  0.00    -0.246 OA
HETATM    5  N4  UNL     1       1.694  -0.359   0.218  1.00  0.00    -0.305 N 
ATOM      6  H4  UNL     1       1.720  -0.930   1.063  1.00  0.00     0.166 HD
ENDROOT
BRANCH   1   7
HETATM    7  N2  UNL     1      -1.984  -0.560  -0.440  1.00  0.00    -0.258 N 
HETATM    8  C2  UNL     1      -3.121  -0.100   0.277  1.00  0.00     0.325 C 
HETATM    9  O2  UNL     1      -3.042   0.177   1.513  1.00  0.00    -0.261 OA
ATOM     10  H2  UNL     1      -2.093  -0.771  -1.432  1.00  0.00     0.190 HD
BRANCH   8  11
HETATM   11  C1  UNL     1      -4.393   0.060  -0.398  1.00  0.00     0.324 C 
HETATM   12  N1  UNL     1      -5.519   0.506   0.339  1.00  0.00    -0.053 NA
HETATM   13  O1  UNL     1      -4.528  -0.184  -1.618  1.00  0.00    -0.266 OA
ENDBRANCH   8  11
ENDBRANCH   1   7
BRANCH   5  14
HETATM   14  C4  UNL     1       2.940   0.194  -0.266  1.00  0.00     0.387 C 
BRANCH  14  15
HETATM   15  N5  UNL     1       3.883  -0.890  -0.420  1.00  0.00    -0.048 N 
ATOM     16  H53 UNL     1       4.000  -1.435   0.434  1.00  0.00     0.277 HD
ATOM     17  H52 UNL     1       3.528  -1.640  -1.014  1.00  0.00     0.277 HD
ATOM     18  H51 UNL     1       4.762  -0.500  -0.761  1.00  0.00     0.277 HD
ENDBRANCH  14  15
BRANCH  14  19
HETATM   19  C5  UNL     1       3.520   1.152   0.706  1.00  0.00     0.225 C 
HETATM   20  O4  UNL     1       2.903   1.365   1.767  1.00  0.00    -0.645 OA
HETATM   21  O5  UNL     1       4.711   1.763   0.391  1.00  0.00    -0.645 OA
ENDBRANCH  14  19
ENDBRANCH   5  14
TORSDOF 5
