REMARK  4 active torsions:
REMARK  status: ('A' for Active; 'I' for Inactive)
REMARK       I    between atoms: N1_2  and  C2_4 
REMARK       I    between atoms: C2_4  and  N2_6 
REMARK    1  A    between atoms: N2_6  and  N3_8 
REMARK       I    between atoms: N3_8  and  C3_10 
REMARK    2  A    between atoms: C3_10  and  C4_12 
REMARK    3  A    between atoms: C4_12  and  N4_13 
REMARK       I    between atoms: N4_13  and  C5_15 
REMARK    4  A    between atoms: C5_15  and  C6_17 
ROOT
HETATM    1  N3  UNL     1      -0.961   0.148  -0.666  1.00  0.00    -0.265 N 
ATOM      2  H3  UNL     1      -1.259   0.031  -1.634  1.00  0.00     0.190 HD
HETATM    3  C3  UNL     1       0.392  -0.047  -0.328  1.00  0.00     0.253 C 
HETATM    4  O2  UNL     1       0.775   0.094   0.853  1.00  0.00    -0.270 OA
ENDROOT
BRANCH   3   5
HETATM    5  C4  UNL     1       1.352  -0.415  -1.372  1.00  0.00     0.227 C 
BRANCH   5   6
HETATM    6  N4  UNL     1       2.710  -0.577  -0.918  1.00  0.00    -0.344 N 
HETATM    7  C5  UNL     1       3.501   0.433  -0.320  1.00  0.00     0.307 C 
HETATM    8  O3  UNL     1       2.988   1.566  -0.173  1.00  0.00    -0.263 OA
ATOM      9  H4  UNL     1       3.137  -1.496  -1.038  1.00  0.00     0.163 HD
BRANCH   7  10
HETATM   10  C6  UNL     1       4.860   0.218   0.124  1.00  0.00     0.322 C 
HETATM   11  N5  UNL     1       5.593   1.275   0.720  1.00  0.00    -0.053 NA
HETATM   12  O4  UNL     1       5.438  -0.892   0.003  1.00  0.00    -0.266 OA
ENDBRANCH   7  10
ENDBRANCH   5   6
ENDBRANCH   3   5
BRANCH   1  13
HETATM   13  N2  UNL     1      -1.898   0.499   0.304  1.00  0.00    -0.249 N 
HETATM   14  C2  UNL     1      -3.270   0.206   0.096  1.00  0.00     0.334 C 
HETATM   15  N1  UNL     1      -4.277   0.536   1.044  1.00  0.00    -0.346 N 
HETATM   16  O1  UNL     1      -3.636  -0.369  -0.962  1.00  0.00    -0.246 OA
HETATM   17  C1  UNL     1      -5.667   0.234   0.823  1.00  0.00     0.151 C 
ATOM     18  H1  UNL     1      -4.005   1.002   1.910  1.00  0.00     0.163 HD
ATOM     19  H2  UNL     1      -1.598   0.965   1.160  1.00  0.00     0.192 HD
ENDBRANCH   1  13
TORSDOF 4
