REMARK  4 active torsions:
REMARK  status: ('A' for Active; 'I' for Inactive)
REMARK    1  A    between atoms: N2_4  and  N3_6 
REMARK       I    between atoms: N3_6  and  C1_8 
REMARK    2  A    between atoms: N5_10  and  N6_12 
REMARK       I    between atoms: N6_12  and  C2_14 
REMARK       I    between atoms: C2_14  and  N8_18 
REMARK       I    between atoms: N8_18  and  C3_20 
REMARK    3  A    between atoms: C3_20  and  O2_22 
REMARK    4  A    between atoms: O2_22  and  C4_23 
ROOT
HETATM    1  N6  UNL     1      -0.605  -0.571   0.658  1.00  0.00    -0.130 N 
ATOM      2  H6  UNL     1      -0.608  -1.419   0.091  1.00  0.00     0.205 HD
HETATM    3  C2  UNL     1       0.190  -0.514   1.824  1.00  0.00     0.695 C 
HETATM    4  N7  UNL     1      -0.368  -0.795   2.960  1.00  0.00    -0.233 N 
ATOM      5  H71 UNL     1       0.206  -0.754   3.802  1.00  0.00     0.174 HD
ATOM      6  H72 UNL     1      -1.351  -1.054   3.042  1.00  0.00     0.174 HD
HETATM    7  N8  UNL     1       1.551  -0.156   1.710  1.00  0.00    -0.134 N 
ATOM      8  H8  UNL     1       2.134  -0.112   2.546  1.00  0.00     0.189 HD
HETATM    9  C3  UNL     1       2.107   0.139   0.457  1.00  0.00     0.387 C 
HETATM   10  O1  UNL     1       1.473   0.112  -0.627  1.00  0.00    -0.237 OA
ENDROOT
BRANCH   1  11
HETATM   11  N5  UNL     1      -1.380   0.511   0.276  1.00  0.00    -0.258 N 
HETATM   12  C1  UNL     1      -2.464   0.317  -0.426  1.00  0.00     0.223 C 
HETATM   13  N3  UNL     1      -2.863  -0.993  -0.808  1.00  0.00    -0.258 N 
HETATM   14  N4  UNL     1      -3.248   1.422  -0.812  1.00  0.00    -0.061 NA
ATOM     15  H3  UNL     1      -2.180  -1.647  -1.189  1.00  0.00     0.191 HD
ATOM     16  H5  UNL     1      -1.105   1.457   0.542  1.00  0.00     0.190 HD
BRANCH  13  17
HETATM   17  N2  UNL     1      -4.183  -1.374  -0.659  1.00  0.00    -0.247 N 
HETATM   18  N1  UNL     1      -4.476  -2.504  -0.181  1.00  0.00    -0.331 N 
ATOM     19  H12 UNL     1      -3.719  -3.131   0.093  1.00  0.00     0.178 HD
ATOM     20  H11 UNL     1      -5.450  -2.785  -0.071  1.00  0.00     0.178 HD
ATOM     21  H2  UNL     1      -4.928  -0.735  -0.938  1.00  0.00     0.207 HD
ENDBRANCH  13  17
ENDBRANCH   1  11
BRANCH   9  22
HETATM   22  O2  UNL     1       3.447   0.486   0.382  1.00  0.00    -0.211 OA
BRANCH  22  23
HETATM   23  C4  UNL     1       4.069   0.793  -0.829  1.00  0.00     0.381 C 
HETATM   24  N9  UNL     1       5.449   1.144  -0.856  1.00  0.00    -0.032 NA
HETATM   25  O3  UNL     1       3.385   0.750  -1.884  1.00  0.00    -0.242 OA
ENDBRANCH  22  23
ENDBRANCH   9  22
TORSDOF 4
