REMARK  8 active torsions:
REMARK  status: ('A' for Active; 'I' for Inactive)
REMARK    1  A    between atoms: C1_2  and  O1_3 
REMARK    2  A    between atoms: C1_2  and  N2_5 
REMARK    3  A    between atoms: N2_5  and  N3_6 
REMARK    4  A    between atoms: N3_6  and  C2_8 
REMARK    5  A    between atoms: C2_8  and  N4_10 
REMARK    6  A    between atoms: N4_10  and  N5_12 
REMARK    7  A    between atoms: N5_12  and  S2_14 
REMARK    8  A    between atoms: S2_14  and  N6_15 
ROOT
HETATM    1  N4  UNL     1      -1.077  -1.036   0.164  1.00  0.00    -0.264 N 
ATOM      2  H4  UNL     1      -1.146  -1.841   0.787  1.00  0.00     0.190 HD
ENDROOT
BRANCH   1   3
HETATM    3  C2  UNL     1       0.196  -0.407  -0.053  1.00  0.00     0.216 C 
HETATM    4  S1  UNL     1       0.250   0.868  -1.063  1.00  0.00    -0.037 SA
BRANCH   3   5
HETATM    5  N3  UNL     1       1.390  -0.874   0.554  1.00  0.00    -0.204 N 
ATOM      6  H3  UNL     1       1.364  -1.684   1.174  1.00  0.00     0.204 HD
BRANCH   5   7
HETATM    7  N2  UNL     1       2.617  -0.218   0.301  1.00  0.00    -0.281 NA
BRANCH   7   8
HETATM    8  C1  UNL     1       3.756   0.384   0.047  1.00  0.00     0.327 C 
HETATM    9  N1  UNL     1       4.583   1.182   0.875  1.00  0.00    -0.040 NA
BRANCH   8  10
HETATM   10  O1  UNL     1       4.249   0.265  -1.188  1.00  0.00    -0.323 OA
ATOM     11  H1  UNL     1       3.694  -0.270  -1.743  1.00  0.00     0.221 HD
ENDBRANCH   8  10
ENDBRANCH   7   8
ENDBRANCH   5   7
ENDBRANCH   3   5
ENDBRANCH   1   3
BRANCH   1  12
HETATM   12  N5  UNL     1      -2.209  -0.555  -0.468  1.00  0.00    -0.208 N 
ATOM     13  H5  UNL     1      -2.383  -0.667  -1.467  1.00  0.00     0.201 HD
BRANCH  12  14
HETATM   14  S2  UNL     1      -3.286   0.244   0.586  1.00  0.00     0.330 S 
HETATM   15  O2  UNL     1      -2.918   1.659   0.810  1.00  0.00    -0.181 OA
HETATM   16  O3  UNL     1      -3.369  -0.562   1.881  1.00  0.00    -0.181 OA
BRANCH  14  17
HETATM   17  N6  UNL     1      -4.872   0.240  -0.162  1.00  0.00    -0.310 N 
ATOM     18  H62 UNL     1      -5.095  -0.172  -1.068  1.00  0.00     0.170 HD
ATOM     19  H61 UNL     1      -5.516   0.718   0.468  1.00  0.00     0.170 HD
ENDBRANCH  14  17
ENDBRANCH  12  14
ENDBRANCH   1  12
TORSDOF 8
