REMARK  13 active torsions:
REMARK  status: ('A' for Active; 'I' for Inactive)
REMARK    1  A    between atoms: N1_2  and  C2_3 
REMARK    2  A    between atoms: N1_2  and  C13_35 
REMARK    3  A    between atoms: C2_3  and  C3_4 
REMARK    4  A    between atoms: C3_4  and  C4_5 
REMARK       I    between atoms: C4_5  and  N2_7 
REMARK    5  A    between atoms: N2_7  and  C5_9 
REMARK    6  A    between atoms: C8_16  and  N4_17 
REMARK    7  A    between atoms: N4_17  and  C9_19 
REMARK    8  A    between atoms: C10_22  and  N6_23 
REMARK    9  A    between atoms: N7_26  and  N8_27 
REMARK   10  A    between atoms: C11_30  and  O2_31 
REMARK   11  A    between atoms: C15_39  and  C16_40 
REMARK       I    between atoms: C16_40  and  N11_42 
REMARK   12  A    between atoms: N11_42  and  O4_44 
REMARK   13  A    between atoms: O4_44  and  C17_45 
ROOT
HETATM    1  C5  UNL     1      -3.703   1.921  -0.680  1.00  0.00     0.150 C 
HETATM    2  C6  UNL     1      -3.468   3.379  -1.013  1.00  0.00     0.111 C 
HETATM    3  S1  UNL     1      -4.483   3.793  -2.456  1.00  0.00    -0.088 SA
HETATM    4  C7  UNL     1      -3.971   4.107   0.212  1.00  0.00     0.253 C 
HETATM    5  N3  UNL     1      -4.352   3.104   1.167  1.00  0.00    -0.051 N 
ATOM      6  H31 UNL     1      -4.989   3.420   1.898  1.00  0.00     0.279 HD
ATOM      7  H32 UNL     1      -3.613   2.811   1.806  1.00  0.00     0.279 HD
HETATM    8  C8  UNL     1      -4.875   2.055   0.300  1.00  0.00     0.309 C 
ENDROOT
BRANCH   1   9
HETATM    9  N2  UNL     1      -2.525   1.449  -0.024  1.00  0.00    -0.351 N 
HETATM   10  C4  UNL     1      -1.861   0.206  -0.379  1.00  0.00     0.219 C 
HETATM   11  O1  UNL     1      -2.418  -0.408  -1.318  1.00  0.00    -0.274 OA
ATOM     12  H2  UNL     1      -2.131   2.012   0.730  1.00  0.00     0.163 HD
BRANCH  10  13
HETATM   13  C3  UNL     1      -0.668  -0.229   0.324  1.00  0.00     0.123 C 
BRANCH  13  14
HETATM   14  C2  UNL     1       0.176  -1.285  -0.249  1.00  0.00     0.150 C 
BRANCH  14  15
HETATM   15  N1  UNL     1       0.869  -1.049  -1.479  1.00  0.00    -0.222 N 
HETATM   16  C1  UNL     1       0.239  -0.962  -2.767  1.00  0.00     0.168 C 
BRANCH  15  17
HETATM   17  C13 UNL     1       2.302  -0.864  -1.486  1.00  0.00     0.679 A 
HETATM   18  N10 UNL     1       2.963  -0.912  -0.336  1.00  0.00    -0.201 N 
HETATM   19  C14 UNL     1       4.311  -0.737  -0.271  1.00  0.00     0.124 A 
ATOM     20  H10 UNL     1       2.445  -1.085   0.525  1.00  0.00     0.183 HD
HETATM   21  C15 UNL     1       5.026  -0.502  -1.426  1.00  0.00     0.066 A 
HETATM   22  C21 UNL     1       4.324  -0.456  -2.616  1.00  0.00     0.124 A 
HETATM   23  N12 UNL     1       2.985  -0.640  -2.600  1.00  0.00    -0.201 N 
ATOM     24  H12 UNL     1       2.478  -0.605  -3.484  1.00  0.00     0.183 HD
BRANCH  21  25
HETATM   25  C16 UNL     1       6.487  -0.289  -1.407  1.00  0.00     0.277 C 
HETATM   26  O3  UNL     1       7.090  -0.225  -2.532  1.00  0.00    -0.265 OA
HETATM   27  N11 UNL     1       7.240  -0.153  -0.243  1.00  0.00    -0.230 N 
ATOM     28  H11 UNL     1       6.752  -0.208   0.651  1.00  0.00     0.197 HD
BRANCH  27  29
HETATM   29  O4  UNL     1       8.572   0.046  -0.223  1.00  0.00    -0.267 OA
BRANCH  29  30
HETATM   30  C17 UNL     1       9.179  -0.906   0.616  1.00  0.00     0.078 C 
HETATM   31  C18 UNL     1       8.639  -0.786   2.013  1.00  0.00     0.048 C 
HETATM   32  C19 UNL     1      10.682  -0.765   0.626  1.00  0.00     0.048 C 
HETATM   33  C20 UNL     1       8.842  -2.270   0.049  1.00  0.00     0.048 C 
ENDBRANCH  29  30
ENDBRANCH  27  29
ENDBRANCH  21  25
ENDBRANCH  15  17
ENDBRANCH  14  15
ENDBRANCH  13  14
ENDBRANCH  10  13
ENDBRANCH   1   9
BRANCH   8  34
HETATM   34  N4  UNL     1      -5.174   0.859   0.967  1.00  0.00    -0.345 N 
ATOM     35  H4  UNL     1      -4.439   0.444   1.540  1.00  0.00     0.163 HD
BRANCH  34  36
HETATM   36  C9  UNL     1      -6.288   0.251   0.914  1.00  0.00     0.147 A 
HETATM   37  N5  UNL     1      -7.383   0.610   0.229  1.00  0.00    -0.173 N 
HETATM   38  C10 UNL     1      -8.519  -0.102   0.235  1.00  0.00     0.700 A 
ATOM     39  H5  UNL     1      -7.350   1.467  -0.324  1.00  0.00     0.186 HD
HETATM   40  N7  UNL     1      -8.611  -1.231   0.944  1.00  0.00    -0.068 N 
HETATM   41  C11 UNL     1      -7.541  -1.637   1.650  1.00  0.00     0.207 A 
HETATM   42  C12 UNL     1      -6.370  -0.937   1.666  1.00  0.00     0.143 A 
HETATM   43  N9  UNL     1      -5.253  -1.371   2.408  1.00  0.00    -0.094 NA
BRANCH  38  44
HETATM   44  N6  UNL     1      -9.541   0.295  -0.443  1.00  0.00    -0.233 N 
ATOM     45  H62 UNL     1      -9.471   1.157  -0.984  1.00  0.00     0.174 HD
ATOM     46  H61 UNL     1     -10.405  -0.247  -0.438  1.00  0.00     0.174 HD
ENDBRANCH  38  44
BRANCH  40  47
HETATM   47  N8  UNL     1      -9.813  -1.991   0.961  1.00  0.00    -0.322 N 
ATOM     48  H82 UNL     1     -10.625  -1.683   0.425  1.00  0.00     0.178 HD
ATOM     49  H81 UNL     1      -9.883  -2.853   1.502  1.00  0.00     0.178 HD
ENDBRANCH  40  47
BRANCH  41  50
HETATM   50  O2  UNL     1      -7.668  -2.831   2.387  1.00  0.00    -0.343 OA
ATOM     51  H2  UNL     1      -6.912  -3.118   2.886  1.00  0.00     0.219 HD
ENDBRANCH  41  50
ENDBRANCH  34  36
ENDBRANCH   8  34
TORSDOF 13
