REMARK  15 active torsions:
REMARK  status: ('A' for Active; 'I' for Inactive)
REMARK    1  A    between atoms: C1_4  and  O1_5 
REMARK    2  A    between atoms: C1_4  and  C2_7 
REMARK    3  A    between atoms: C3_10  and  O2_11 
REMARK    4  A    between atoms: C3_10  and  C4_13 
REMARK    5  A    between atoms: C4_13  and  O3_14 
REMARK    6  A    between atoms: C4_13  and  N4_16 
REMARK    7  A    between atoms: C7_19  and  N5_20 
REMARK       I    between atoms: N5_20  and  C8_22 
REMARK    8  A    between atoms: C8_22  and  C9_24 
REMARK    9  A    between atoms: C12_27  and  C13_28 
REMARK   10  A    between atoms: N6_29  and  O5_31 
REMARK   11  A    between atoms: C18_37  and  C19_38 
REMARK   12  A    between atoms: C19_38  and  O7_40 
REMARK   13  A    between atoms: O7_40  and  C20_41 
REMARK   14  A    between atoms: C20_41  and  C21_42 
REMARK   15  A    between atoms: C22_45  and  O10_46 
ROOT
HETATM    1  C2  UNL     1      -5.753  -2.060   1.235  1.00  0.00     0.239 C 
HETATM    2  N2  UNL     1      -4.325  -1.852   1.517  1.00  0.00    -0.139 NA
HETATM    3  N3  UNL     1      -3.895  -0.737   0.849  1.00  0.00    -0.162 NA
HETATM    4  C3  UNL     1      -2.703  -0.817   0.009  1.00  0.00     0.231 A 
HETATM    5  C18 UNL     1      -4.060  -0.752  -0.583  1.00  0.00     0.207 A 
HETATM    6  C22 UNL     1      -4.671  -2.068  -1.044  1.00  0.00     0.229 C 
HETATM    7  C23 UNL     1      -5.871  -2.374  -0.193  1.00  0.00     0.186 C 
HETATM    8  O11 UNL     1      -6.839  -2.845  -0.711  1.00  0.00    -0.293 OA
ENDROOT
BRANCH   4   9
HETATM    9  O2  UNL     1      -2.151  -2.096   0.027  1.00  0.00    -0.365 OA
ATOM     10  H2  UNL     1      -1.376  -2.148  -0.519  1.00  0.00     0.212 HD
ENDBRANCH   4   9
BRANCH   4  11
HETATM   11  C4  UNL     1      -1.806   0.327  -0.008  1.00  0.00     0.177 C 
BRANCH  11  12
HETATM   12  O3  UNL     1      -2.399   1.489   0.025  1.00  0.00    -0.346 OA
ATOM     13  H3  UNL     1      -1.813   2.237   0.014  1.00  0.00     0.219 HD
ENDBRANCH  11  12
BRANCH  11  14
HETATM   14  N4  UNL     1      -0.404   0.334  -0.054  1.00  0.00    -0.313 N 
HETATM   15  C5  UNL     1       0.243   1.553  -0.058  1.00  0.00     0.100 A 
HETATM   16  C6  UNL     1       1.595   1.649  -0.112  1.00  0.00     0.047 A 
HETATM   17  C7  UNL     1       2.426   0.527  -0.168  1.00  0.00     0.037 A 
HETATM   18  C16 UNL     1       1.784  -0.671  -0.163  1.00  0.00     0.047 A 
HETATM   19  C17 UNL     1       0.388  -0.736  -0.107  1.00  0.00     0.100 A 
BRANCH  17  20
HETATM   20  N5  UNL     1       3.828   0.680  -0.222  1.00  0.00    -0.323 N 
HETATM   21  C8  UNL     1       4.811  -0.302  -0.426  1.00  0.00     0.256 C 
HETATM   22  O4  UNL     1       4.556  -1.500  -0.597  1.00  0.00    -0.267 OA
ATOM     23  H5  UNL     1       4.174   1.631  -0.096  1.00  0.00     0.169 HD
BRANCH  21  24
HETATM   24  C9  UNL     1       6.241   0.051  -0.451  1.00  0.00     0.032 A 
HETATM   25  C10 UNL     1       7.144  -0.841  -0.999  1.00  0.00     0.018 A 
HETATM   26  C11 UNL     1       8.497  -0.557  -1.046  1.00  0.00     0.014 A 
HETATM   27  C12 UNL     1       9.005   0.626  -0.550  1.00  0.00    -0.019 A 
HETATM   28  C14 UNL     1       8.114   1.510  -0.007  1.00  0.00     0.014 A 
HETATM   29  C15 UNL     1       6.754   1.225   0.041  1.00  0.00     0.018 A 
BRANCH  27  30
HETATM   30  C13 UNL     1      10.434   0.887  -0.620  1.00  0.00     0.125 C 
HETATM   31  N6  UNL     1      10.910   1.984  -0.166  1.00  0.00    -0.280 N 
ATOM     32  H6  UNL     1      10.285   2.677   0.246  1.00  0.00     0.193 HD
BRANCH  31  33
HETATM   33  O5  UNL     1      12.259   2.232  -0.231  1.00  0.00    -0.290 OA
ATOM     34  H5  UNL     1      12.613   3.047   0.106  1.00  0.00     0.244 HD
ENDBRANCH  31  33
ENDBRANCH  27  30
ENDBRANCH  21  24
ENDBRANCH  17  20
ENDBRANCH  11  14
ENDBRANCH   4  11
BRANCH   5  35
HETATM   35  C19 UNL     1      -4.676   0.466  -1.129  1.00  0.00     0.292 C 
HETATM   36  O6  UNL     1      -4.756   0.602  -2.401  1.00  0.00    -0.263 OA
BRANCH  35  37
HETATM   37  O7  UNL     1      -5.189   1.497  -0.389  1.00  0.00    -0.309 OA
BRANCH  37  38
HETATM   38  C20 UNL     1      -5.778   2.653  -0.950  1.00  0.00     0.291 C 
BRANCH  38  39
HETATM   39  C21 UNL     1      -6.235   3.592   0.109  1.00  0.00     0.198 C 
HETATM   40  O8  UNL     1      -6.793   4.683  -0.154  1.00  0.00    -0.646 OA
HETATM   41  O9  UNL     1      -6.026   3.225   1.435  1.00  0.00    -0.646 OA
ENDBRANCH  38  39
ENDBRANCH  37  38
ENDBRANCH  35  37
ENDBRANCH   5  35
BRANCH   6  42
HETATM   42  O10 UNL     1      -5.136  -1.868  -2.339  1.00  0.00    -0.385 OA
ATOM     43  H10 UNL     1      -5.517  -2.689  -2.627  1.00  0.00     0.210 HD
ENDBRANCH   6  42
BRANCH   1  44
HETATM   44  C1  UNL     1      -6.350  -3.002   2.174  1.00  0.00     0.137 C 
HETATM   45  N1  UNL     1      -6.698  -4.175   1.866  1.00  0.00    -0.382 N 
ATOM     46  H12 UNL     1      -7.116  -4.834   2.523  1.00  0.00     0.158 HD
ATOM     47  H11 UNL     1      -6.554  -4.484   0.905  1.00  0.00     0.158 HD
BRANCH  44  48
HETATM   48  O1  UNL     1      -6.547  -2.580   3.487  1.00  0.00    -0.348 OA
ATOM     49  H1  UNL     1      -6.285  -1.697   3.719  1.00  0.00     0.219 HD
ENDBRANCH  44  48
ENDBRANCH   1  44
TORSDOF 15
