REMARK  10 active torsions:
REMARK  status: ('A' for Active; 'I' for Inactive)
REMARK    1  A    between atoms: C2_2  and  C4_4 
REMARK    2  A    between atoms: C4_4  and  C5_5 
REMARK    3  A    between atoms: C5_5  and  O1_6 
REMARK    4  A    between atoms: O1_6  and  C6_7 
REMARK    5  A    between atoms: C8_11  and  N2_12 
REMARK    6  A    between atoms: C9_15  and  N3_16 
REMARK    7  A    between atoms: N3_16  and  S1_18 
REMARK    8  A    between atoms: S1_18  and  C10_21 
REMARK    9  A    between atoms: C10_21  and  C12_23 
REMARK   10  A    between atoms: C12_23  and  N4_26 
ROOT
HETATM    1  C6  UNL     1       1.900   0.174  -0.214  1.00  0.00     0.159 A 
HETATM    2  C7  UNL     1       2.106   1.497  -0.599  1.00  0.00     0.145 A 
HETATM    3  N1  UNL     1       1.068   2.318  -0.803  1.00  0.00    -0.345 N 
ATOM      4  H1  UNL     1       1.223   3.286  -1.084  1.00  0.00     0.167 HD
HETATM    5  C8  UNL     1      -0.186   1.848  -0.632  1.00  0.00     0.144 A 
HETATM    6  C9  UNL     1      -0.397   0.544  -0.253  1.00  0.00     0.161 A 
HETATM    7  N5  UNL     1       0.673  -0.295  -0.044  1.00  0.00    -0.318 N 
ATOM      8  H5  UNL     1       0.524  -1.264   0.238  1.00  0.00     0.169 HD
ENDROOT
BRANCH   6   9
HETATM    9  N3  UNL     1      -1.533   0.050  -0.078  1.00  0.00    -0.266 N 
ATOM     10  H3  UNL     1      -1.471  -0.929   0.201  1.00  0.00     0.180 HD
BRANCH   9  11
HETATM   11  S1  UNL     1      -3.108   0.548  -0.175  1.00  0.00     0.238 S 
HETATM   12  O2  UNL     1      -3.379   1.646   0.849  1.00  0.00    -0.205 OA
HETATM   13  O3  UNL     1      -3.579   1.091  -1.492  1.00  0.00    -0.205 OA
BRANCH  11  14
HETATM   14  C10 UNL     1      -4.275  -0.751   0.245  1.00  0.00     0.160 C 
HETATM   15  C11 UNL     1      -4.121  -1.951  -0.625  1.00  0.00     0.031 C 
BRANCH  14  16
HETATM   16  C12 UNL     1      -5.646  -0.161   0.268  1.00  0.00     0.134 C 
HETATM   17  C13 UNL     1      -6.651  -1.264   0.628  1.00  0.00     0.047 C 
HETATM   18  C14 UNL     1      -6.102   0.421  -1.032  1.00  0.00     0.047 C 
BRANCH  16  19
HETATM   19  N4  UNL     1      -5.701   0.868   1.280  1.00  0.00    -0.070 N 
ATOM     20  H43 UNL     1      -5.410   0.527   2.196  1.00  0.00     0.275 HD
ATOM     21  H42 UNL     1      -4.977   1.575   1.154  1.00  0.00     0.275 HD
ATOM     22  H41 UNL     1      -6.638   1.271   1.296  1.00  0.00     0.275 HD
ENDBRANCH  16  19
ENDBRANCH  14  16
ENDBRANCH  11  14
ENDBRANCH   9  11
ENDBRANCH   6   9
BRANCH   5  23
HETATM   23  N2  UNL     1      -1.201   2.664  -0.836  1.00  0.00    -0.382 N 
ATOM     24  H22 UNL     1      -1.044   3.632  -1.117  1.00  0.00     0.157 HD
ATOM     25  H21 UNL     1      -2.148   2.309  -0.707  1.00  0.00     0.157 HD
ENDBRANCH   5  23
BRANCH   1  26
HETATM   26  O1  UNL     1       2.974  -0.680  -0.001  1.00  0.00    -0.335 OA
BRANCH  26  27
HETATM   27  C5  UNL     1       4.270  -0.199  -0.176  1.00  0.00     0.178 C 
BRANCH  27  28
HETATM   28  C4  UNL     1       5.343  -1.199   0.078  1.00  0.00     0.030 C 
BRANCH  28  29
HETATM   29  C2  UNL     1       6.686  -0.503  -0.160  1.00  0.00    -0.021 C 
HETATM   30  C1  UNL     1       7.763  -1.524   0.100  1.00  0.00     0.009 C 
HETATM   31  C3  UNL     1       6.813   0.716   0.694  1.00  0.00     0.009 C 
ENDBRANCH  28  29
ENDBRANCH  27  28
ENDBRANCH  26  27
ENDBRANCH   1  26
TORSDOF 10
