REMARK  6 active torsions:
REMARK  status: ('A' for Active; 'I' for Inactive)
REMARK    1  A    between atoms: N3_4  and  N4_6 
REMARK    2  A    between atoms: C2_8  and  C3_9 
REMARK    3  A    between atoms: C6_12  and  C7_13 
REMARK    4  A    between atoms: C7_13  and  C8_14 
REMARK       I    between atoms: C8_14  and  N5_16 
REMARK    5  A    between atoms: N5_16  and  N6_18 
REMARK    6  A    between atoms: C9_20  and  C10_21 
ROOT
HETATM    1  C7  UNL     1       0.539  -2.253  -0.540  1.00  0.00     0.143 C 
ENDROOT
BRANCH   1   2
HETATM    2  C6  UNL     1      -0.720  -1.459  -0.491  1.00  0.00    -0.049 A 
HETATM    3  C5  UNL     1      -1.251  -0.849  -1.608  1.00  0.00     0.008 A 
HETATM    4  C4  UNL     1      -2.416  -0.114  -1.563  1.00  0.00     0.013 A 
HETATM    5  C3  UNL     1      -3.092   0.029  -0.366  1.00  0.00    -0.019 A 
HETATM    6  C16 UNL     1      -2.583  -0.569   0.756  1.00  0.00     0.013 A 
HETATM    7  C15 UNL     1      -1.413  -1.302   0.694  1.00  0.00     0.008 A 
BRANCH   5   8
HETATM    8  C2  UNL     1      -4.318   0.816  -0.375  1.00  0.00     0.118 C 
HETATM    9  N4  UNL     1      -4.929   0.929   0.773  1.00  0.00    -0.309 N 
ATOM     10  H4  UNL     1      -4.561   0.490   1.617  1.00  0.00     0.186 HD
BRANCH   9  11
HETATM   11  N3  UNL     1      -6.100   1.672   0.796  1.00  0.00    -0.276 N 
HETATM   12  C1  UNL     1      -7.237   1.071   0.706  1.00  0.00     0.215 C 
HETATM   13  N1  UNL     1      -8.421   1.860   0.733  1.00  0.00    -0.065 NA
HETATM   14  N2  UNL     1      -7.379  -0.326   0.581  1.00  0.00    -0.065 NA
ATOM     15  H3  UNL     1      -6.062   2.688   0.884  1.00  0.00     0.189 HD
ENDBRANCH   9  11
ENDBRANCH   5   8
ENDBRANCH   1   2
BRANCH   1  16
HETATM   16  C8  UNL     1       1.719  -1.413  -0.284  1.00  0.00     0.240 C 
HETATM   17  O1  UNL     1       1.568  -0.196  -0.065  1.00  0.00    -0.272 OA
HETATM   18  N5  UNL     1       3.003  -1.988  -0.290  1.00  0.00    -0.270 N 
ATOM     19  H5  UNL     1       3.085  -2.988  -0.475  1.00  0.00     0.190 HD
BRANCH  18  20
HETATM   20  N6  UNL     1       4.175  -1.256  -0.055  1.00  0.00    -0.307 N 
HETATM   21  C9  UNL     1       4.379  -0.141  -0.636  1.00  0.00     0.136 C 
ATOM     22  H6  UNL     1       4.875  -1.622   0.591  1.00  0.00     0.186 HD
BRANCH  21  23
HETATM   23  C10 UNL     1       5.621   0.590  -0.359  1.00  0.00     0.049 A 
HETATM   24  C11 UNL     1       6.558   0.085   0.514  1.00  0.00     0.031 A 
HETATM   25  C12 UNL     1       7.723   0.777   0.769  1.00  0.00     0.004 A 
HETATM   26  C13 UNL     1       7.900   1.978   0.118  1.00  0.00     0.017 A 
HETATM   27  C14 UNL     1       6.955   2.482  -0.760  1.00  0.00     0.088 A 
HETATM   28  N7  UNL     1       5.840   1.770  -0.972  1.00  0.00    -0.365 N 
ATOM     29  H7  UNL     1       5.137   2.132  -1.616  1.00  0.00     0.165 HD
ENDBRANCH  21  23
ENDBRANCH  18  20
ENDBRANCH   1  16
TORSDOF 6
