REMARK  7 active torsions:
REMARK  status: ('A' for Active; 'I' for Inactive)
REMARK    1  A    between atoms: O1_2  and  C2_3 
REMARK    2  A    between atoms: C4_5  and  C5_6 
REMARK    3  A    between atoms: C5_6  and  N1_7 
REMARK    4  A    between atoms: N1_7  and  C6_9 
REMARK    5  A    between atoms: C10_19  and  N5_20 
REMARK       I    between atoms: N5_20  and  C11_22 
REMARK    6  A    between atoms: C11_22  and  C12_24 
REMARK    7  A    between atoms: C12_24  and  N6_26 
REMARK       I    between atoms: N6_26  and  C14_28 
ROOT
HETATM    1  C2  UNL     1       0.455  -0.787  -1.398  1.00  0.00     0.095 A 
HETATM    2  C3  UNL     1       1.789  -0.495  -1.527  1.00  0.00     0.048 A 
HETATM    3  C4  UNL     1       2.400   0.532  -0.845  1.00  0.00    -0.038 A 
HETATM    4  C8  UNL     1       1.637   1.301   0.005  1.00  0.00     0.011 A 
HETATM    5  C9  UNL     1       0.275   1.005   0.139  1.00  0.00     0.033 A 
HETATM    6  C10 UNL     1      -0.344  -0.020  -0.539  1.00  0.00     0.068 A 
ENDROOT
BRANCH   3   7
HETATM    7  C5  UNL     1       3.861   0.789  -1.038  1.00  0.00     0.160 C 
BRANCH   7   8
HETATM    8  N1  UNL     1       4.668   0.049  -0.123  1.00  0.00    -0.370 N 
ATOM      9  H1  UNL     1       4.403  -0.914   0.085  1.00  0.00     0.161 HD
BRANCH   8  10
HETATM   10  C6  UNL     1       5.721   0.535   0.458  1.00  0.00     0.134 A 
HETATM   11  C7  UNL     1       6.221   1.806   0.295  1.00  0.00     0.158 A 
HETATM   12  N2  UNL     1       7.327   1.876   1.092  1.00  0.00    -0.294 N 
HETATM   13  N3  UNL     1       7.503   0.726   1.709  1.00  0.00    -0.241 N 
ATOM     14  H2  UNL     1       7.926   2.695   1.194  1.00  0.00     0.187 HD
HETATM   15  N4  UNL     1       6.544  -0.075   1.330  1.00  0.00    -0.270 N 
ATOM     16  H3  UNL     1       8.252   0.502   2.364  1.00  0.00     0.208 HD
ATOM     17  H4  UNL     1       6.433  -1.036   1.653  1.00  0.00     0.190 HD
ENDBRANCH   8  10
ENDBRANCH   7   8
ENDBRANCH   3   7
BRANCH   1  18
HETATM   18  O1  UNL     1      -0.147  -1.831  -2.096  1.00  0.00    -0.354 OA
HETATM   19  C1  UNL     1       0.648  -2.614  -2.967  1.00  0.00     0.210 C 
ENDBRANCH   1  18
BRANCH   6  20
HETATM   20  N5  UNL     1      -1.717  -0.353  -0.433  1.00  0.00    -0.323 N 
HETATM   21  C11 UNL     1      -2.696   0.255   0.345  1.00  0.00     0.244 C 
HETATM   22  O2  UNL     1      -2.504   1.225   1.099  1.00  0.00    -0.271 OA
ATOM     23  H5  UNL     1      -2.028  -1.141  -1.001  1.00  0.00     0.169 HD
BRANCH  21  24
HETATM   24  C12 UNL     1      -4.108  -0.275   0.298  1.00  0.00     0.172 C 
HETATM   25  C13 UNL     1      -4.564  -0.110  -1.136  1.00  0.00     0.042 C 
BRANCH  24  26
HETATM   26  N6  UNL     1      -4.971   0.478   1.166  1.00  0.00    -0.348 N 
HETATM   27  C14 UNL     1      -5.661  -0.152   2.225  1.00  0.00     0.214 C 
HETATM   28  C15 UNL     1      -6.559   0.604   3.137  1.00  0.00     0.117 C 
HETATM   29  O3  UNL     1      -5.533  -1.389   2.431  1.00  0.00    -0.274 OA
ATOM     30  H6  UNL     1      -5.087   1.480   1.015  1.00  0.00     0.163 HD
ENDBRANCH  24  26
ENDBRANCH  21  24
ENDBRANCH   6  20
TORSDOF 7
