REMARK  10 active torsions:
REMARK  status: ('A' for Active; 'I' for Inactive)
REMARK    1  A    between atoms: N1_1  and  C1_5 
REMARK    2  A    between atoms: C1_5  and  C2_6 
REMARK    3  A    between atoms: C1_5  and  C3_8 
REMARK    4  A    between atoms: C6_11  and  O2_12 
REMARK    5  A    between atoms: O2_12  and  C7_13 
REMARK    6  A    between atoms: C7_13  and  C8_14 
REMARK    7  A    between atoms: C8_14  and  O3_15 
REMARK    8  A    between atoms: C8_14  and  C9_17 
REMARK    9  A    between atoms: C9_17  and  N2_18 
REMARK   10  A    between atoms: N2_18  and  C10_20 
ROOT
HETATM    1  C8  UNL     1      -0.431   2.719  -0.694  1.00  0.00     0.160 C 
ENDROOT
BRANCH   1   2
HETATM    2  C7  UNL     1       0.799   2.086  -0.076  1.00  0.00     0.209 C 
BRANCH   2   3
HETATM    3  O2  UNL     1       1.386   1.246  -1.024  1.00  0.00    -0.349 OA
BRANCH   3   4
HETATM    4  C6  UNL     1       2.536   0.507  -0.787  1.00  0.00     0.068 A 
HETATM    5  C5  UNL     1       3.131   0.606   0.446  1.00  0.00     0.037 A 
HETATM    6  C4  UNL     1       4.287  -0.146   0.662  1.00  0.00     0.012 A 
HETATM    7  C3  UNL     1       4.816  -0.956  -0.313  1.00  0.00    -0.021 A 
HETATM    8  C18 UNL     1       4.197  -1.034  -1.541  1.00  0.00     0.012 A 
HETATM    9  C17 UNL     1       3.035  -0.294  -1.793  1.00  0.00     0.037 A 
BRANCH   7  10
HETATM   10  C1  UNL     1       6.049  -1.721   0.004  1.00  0.00     0.277 C 
BRANCH  10  11
HETATM   11  N1  UNL     1       6.976  -0.831   0.675  1.00  0.00    -0.065 N 
ATOM     12  H13 UNL     1       6.642  -0.569   1.602  1.00  0.00     0.275 HD
ATOM     13  H12 UNL     1       7.831  -1.315   0.950  1.00  0.00     0.275 HD
ATOM     14  H11 UNL     1       7.175  -0.012   0.101  1.00  0.00     0.275 HD
ENDBRANCH  10  11
BRANCH  10  15
HETATM   15  C2  UNL     1       5.760  -2.909   0.836  1.00  0.00     0.268 C 
HETATM   16  O1  UNL     1       5.002  -3.763   0.433  1.00  0.00    -0.304 OA
ENDBRANCH  10  15
ENDBRANCH   7  10
ENDBRANCH   3   4
ENDBRANCH   2   3
ENDBRANCH   1   2
BRANCH   1  17
HETATM   17  O3  UNL     1      -0.986   3.548   0.281  1.00  0.00    -0.392 OA
ATOM     18  H3  UNL     1      -1.757   3.945  -0.107  1.00  0.00     0.210 HD
ENDBRANCH   1  17
BRANCH   1  19
HETATM   19  C9  UNL     1      -1.474   1.692  -1.046  1.00  0.00     0.172 C 
BRANCH  19  20
HETATM   20  N2  UNL     1      -1.856   0.901   0.103  1.00  0.00    -0.223 N 
ATOM     21  H2  UNL     1      -1.175   0.730   0.843  1.00  0.00     0.177 HD
BRANCH  20  22
HETATM   22  C10 UNL     1      -3.027   0.414   0.208  1.00  0.00     0.679 A 
HETATM   23  N3  UNL     1      -4.020   0.553  -0.676  1.00  0.00    -0.190 N 
HETATM   24  C11 UNL     1      -5.118  -0.108  -0.217  1.00  0.00     0.076 A 
ATOM     25  H3  UNL     1      -3.964   1.071  -1.553  1.00  0.00     0.184 HD
HETATM   26  C12 UNL     1      -6.383  -0.272  -0.741  1.00  0.00     0.032 A 
HETATM   27  C16 UNL     1      -4.781  -0.674   0.999  1.00  0.00     0.076 A 
HETATM   28  C13 UNL     1      -7.294  -1.016  -0.016  1.00  0.00     0.002 A 
HETATM   29  C14 UNL     1      -6.987  -1.591   1.195  1.00  0.00     0.002 A 
HETATM   30  C15 UNL     1      -5.712  -1.413   1.702  1.00  0.00     0.032 A 
HETATM   31  N4  UNL     1      -3.496  -0.328   1.216  1.00  0.00    -0.190 N 
ATOM     32  H4  UNL     1      -2.955  -0.596   2.038  1.00  0.00     0.184 HD
ENDBRANCH  20  22
ENDBRANCH  19  20
ENDBRANCH   1  19
TORSDOF 10
