REMARK  3 active torsions:
REMARK  status: ('A' for Active; 'I' for Inactive)
REMARK    1  A    between atoms: C4_4  and  C5_5 
REMARK    2  A    between atoms: C6_6  and  C7_7 
REMARK    3  A    between atoms: C14_14  and  C15_15 
ROOT
HETATM    1  C1  UNL     1       5.718   0.483   1.016  1.00  0.00     0.017 C 
HETATM    2  C2  UNL     1       5.258  -0.203   0.135  1.00  0.00    -0.089 C 
HETATM    3  C3  UNL     1       4.732  -1.027  -0.916  1.00  0.00     0.063 C 
HETATM    4  C4  UNL     1       3.427  -1.163  -1.097  1.00  0.00     0.009 C 
ENDROOT
BRANCH   4   5
HETATM    5  C5  UNL     1       2.464  -0.499  -0.258  1.00  0.00    -0.002 C 
HETATM    6  C6  UNL     1       1.178  -0.613  -0.411  1.00  0.00    -0.009 C 
BRANCH   6   7
HETATM    7  C7  UNL     1       0.152   0.055   0.435  1.00  0.00     0.093 C 
HETATM    8  C8  UNL     1      -0.770  -0.752   1.104  1.00  0.00    -0.173 C 
HETATM    9  C9  UNL     1      -1.677  -1.595   1.770  1.00  0.00     0.084 C 
HETATM   10  C10 UNL     1      -3.079  -1.202   1.180  1.00  0.00     0.039 C 
HETATM   11  C11 UNL     1      -2.985  -0.595  -0.160  1.00  0.00    -0.019 C 
HETATM   12  C12 UNL     1      -2.135   0.463  -0.605  1.00  0.00    -0.055 C 
HETATM   13  C13 UNL     1      -2.750   1.374  -1.401  1.00  0.00     0.019 C 
HETATM   14  C14 UNL     1      -0.701   0.965  -0.518  1.00  0.00     0.137 C 
BRANCH  14  15
HETATM   15  C15 UNL     1      -0.740   2.322   0.098  1.00  0.00     0.183 C 
HETATM   16  O1  UNL     1      -1.823   2.833   0.471  1.00  0.00    -0.647 OA
HETATM   17  O2  UNL     1       0.440   3.035   0.263  1.00  0.00    -0.647 OA
ENDBRANCH  14  15
ENDBRANCH   6   7
ENDBRANCH   4   5
TORSDOF 3
