REMARK  3 active torsions:
REMARK  status: ('A' for Active; 'I' for Inactive)
REMARK    1  A    between atoms: C1_2  and  C2_3 
REMARK       I    between atoms: C1_2  and  N1_7 
REMARK    2  A    between atoms: C2_3  and  C3_4 
REMARK    3  A    between atoms: N1_7  and  C6_9 
ROOT
HETATM    1  C6  UNL     1      -0.432  -0.132   0.093  1.00  0.00     0.092 C 
HETATM    2  C7  UNL     1      -1.244   1.118   0.372  1.00  0.00     0.009 C 
HETATM    3  C8  UNL     1      -2.376   0.706   1.291  1.00  0.00     0.011 C 
HETATM    4  C9  UNL     1      -3.215  -0.346   0.625  1.00  0.00    -0.013 C 
HETATM    5  C10 UNL     1      -3.844   0.276  -0.604  1.00  0.00     0.009 C 
HETATM    6  C11 UNL     1      -2.736   0.684  -1.532  1.00  0.00    -0.013 C 
HETATM    7  C12 UNL     1      -1.841   1.710  -0.865  1.00  0.00     0.011 C 
HETATM    8  C13 UNL     1      -1.866  -0.471  -1.942  1.00  0.00     0.011 C 
HETATM    9  C14 UNL     1      -1.242  -1.084  -0.725  1.00  0.00     0.009 C 
HETATM   10  C15 UNL     1      -2.404  -1.542   0.171  1.00  0.00     0.011 C 
ENDROOT
BRANCH   1  11
HETATM   11  N1  UNL     1       0.865   0.144  -0.417  1.00  0.00    -0.356 N 
HETATM   12  C1  UNL     1       2.095  -0.153   0.251  1.00  0.00     0.218 C 
HETATM   13  O1  UNL     1       1.930  -0.704   1.376  1.00  0.00    -0.274 OA
ATOM     14  H1  UNL     1       0.924   0.590  -1.333  1.00  0.00     0.162 HD
BRANCH  12  15
HETATM   15  C2  UNL     1       3.363   0.181  -0.380  1.00  0.00     0.107 C 
BRANCH  15  16
HETATM   16  C3  UNL     1       4.618  -0.178   0.293  1.00  0.00    -0.006 A 
HETATM   17  C4  UNL     1       4.988   0.309   1.644  1.00  0.00     0.005 A 
HETATM   18  C5  UNL     1       4.848  -1.159   1.348  1.00  0.00     0.005 A 
ENDBRANCH  15  16
ENDBRANCH  12  15
ENDBRANCH   1  11
TORSDOF 3
