REMARK  3 active torsions:
REMARK  status: ('A' for Active; 'I' for Inactive)
REMARK       I    between atoms: C1_2  and  N1_3 
REMARK    1  A    between atoms: C1_2  and  C6_9 
REMARK    2  A    between atoms: N1_3  and  C2_5 
REMARK    3  A    between atoms: C2_5  and  C3_6 
ROOT
HETATM    1  C6  UNL     1       0.497   0.142  -0.019  1.00  0.00     0.042 C 
HETATM    2  C7  UNL     1       1.083   1.465  -0.345  1.00  0.00     0.020 C 
HETATM    3  C8  UNL     1       2.450   1.699   0.228  1.00  0.00     0.006 C 
HETATM    4  C9  UNL     1       3.467   0.698  -0.180  1.00  0.00    -0.014 C 
HETATM    5  C10 UNL     1       3.099  -0.114  -1.387  1.00  0.00     0.010 C 
HETATM    6  C11 UNL     1       2.238  -1.224  -0.845  1.00  0.00    -0.009 C 
HETATM    7  C12 UNL     1       0.805  -0.889  -1.114  1.00  0.00     0.024 C 
HETATM    8  C13 UNL     1       2.366  -1.202   0.646  1.00  0.00    -0.009 C 
HETATM    9  C14 UNL     1       3.587  -0.346   0.914  1.00  0.00     0.010 C 
HETATM   10  C15 UNL     1       1.122  -0.521   1.182  1.00  0.00     0.024 C 
ENDROOT
BRANCH   1  11
HETATM   11  C1  UNL     1      -0.967   0.241   0.073  1.00  0.00     0.226 C 
HETATM   12  O1  UNL     1      -1.523   1.354  -0.119  1.00  0.00    -0.273 OA
HETATM   13  N1  UNL     1      -1.818  -0.853   0.371  1.00  0.00    -0.360 N 
ATOM     14  H1  UNL     1      -1.393  -1.766   0.532  1.00  0.00     0.162 HD
BRANCH  13  15
HETATM   15  C2  UNL     1      -3.248  -0.744   0.458  1.00  0.00     0.127 C 
BRANCH  15  16
HETATM   16  C3  UNL     1      -3.854  -0.265  -0.859  1.00  0.00     0.003 A 
HETATM   17  C4  UNL     1      -5.369  -0.111  -0.897  1.00  0.00     0.007 A 
HETATM   18  C5  UNL     1      -4.540   1.095  -0.743  1.00  0.00     0.007 A 
ENDBRANCH  15  16
ENDBRANCH  13  15
ENDBRANCH   1  11
TORSDOF 3
