REMARK  3 active torsions:
REMARK  status: ('A' for Active; 'I' for Inactive)
REMARK    1  A    between atoms: C2_2  and  C3_3 
REMARK    2  A    between atoms: C2_2  and  C7_7 
REMARK    3  A    between atoms: C12_12  and  C13_13 
ROOT
HETATM    1  C7  UNL     1       0.073   0.258  -0.018  1.00  0.00     0.024 C 
HETATM    2  C8  UNL     1      -0.909  -0.366   0.975  1.00  0.00    -0.004 C 
HETATM    3  C9  UNL     1      -1.171  -1.689   0.344  1.00  0.00     0.010 C 
HETATM    4  C10 UNL     1      -1.280  -1.335  -1.127  1.00  0.00    -0.007 C 
HETATM    5  C11 UNL     1      -2.666  -0.765  -1.393  1.00  0.00     0.024 C 
HETATM    6  C12 UNL     1      -2.123   0.528  -0.818  1.00  0.00     0.044 C 
HETATM    7  C14 UNL     1      -2.112   0.524   0.691  1.00  0.00     0.024 C 
HETATM    8  C15 UNL     1      -0.747   0.073  -1.250  1.00  0.00     0.015 C 
ENDROOT
BRANCH   1   9
HETATM    9  C2  UNL     1       1.394  -0.399  -0.022  1.00  0.00    -0.080 C 
HETATM   10  C1  UNL     1       1.817  -1.088  -1.064  1.00  0.00     0.015 C 
BRANCH   9  11
HETATM   11  C3  UNL     1       2.313  -0.319   1.160  1.00  0.00     0.014 C 
HETATM   12  C4  UNL     1       3.774  -0.574   0.841  1.00  0.00     0.009 C 
HETATM   13  C5  UNL     1       4.089   0.482   1.912  1.00  0.00     0.001 C 
HETATM   14  C6  UNL     1       2.727   1.087   1.539  1.00  0.00     0.009 C 
ENDBRANCH   9  11
ENDBRANCH   1   9
BRANCH   6  15
HETATM   15  C13 UNL     1      -2.679   1.688  -1.480  1.00  0.00     0.240 C 
HETATM   16  N1  UNL     1      -4.080   1.900  -1.456  1.00  0.00    -0.061 NA
HETATM   17  O1  UNL     1      -1.989   2.550  -2.094  1.00  0.00    -0.276 OA
ENDBRANCH   6  15
TORSDOF 3
