REMARK  9 active torsions:
REMARK  status: ('A' for Active; 'I' for Inactive)
REMARK    1  A    between atoms: C2_2  and  O1_3 
REMARK    2  A    between atoms: O1_3  and  C3_4 
REMARK       I    between atoms: C3_4  and  N1_6 
REMARK    3  A    between atoms: C6_9  and  C7_10 
REMARK    4  A    between atoms: C7_10  and  N2_11 
REMARK       I    between atoms: N2_11  and  C8_13 
REMARK    5  A    between atoms: C8_13  and  C9_15 
REMARK       I    between atoms: C9_15  and  N3_17 
REMARK    6  A    between atoms: N3_17  and  C10_19 
REMARK    7  A    between atoms: C10_19  and  C11_20 
REMARK    8  A    between atoms: C14_23  and  C15_24 
REMARK       I    between atoms: C15_24  and  N4_26 
REMARK    9  A    between atoms: C22_36  and  C23_37 
ROOT
HETATM    1  N2  UNL     1       2.337   1.193  -0.991  1.00  0.00    -0.353 N 
ATOM      2  H2  UNL     1       2.113   0.961  -0.023  1.00  0.00     0.162 HD
HETATM    3  C8  UNL     1       1.322   1.723  -1.823  1.00  0.00     0.309 C 
HETATM    4  O3  UNL     1       1.509   2.032  -3.009  1.00  0.00    -0.262 OA
ENDROOT
BRANCH   3   5
HETATM    5  C9  UNL     1      -0.034   1.920  -1.253  1.00  0.00     0.309 C 
HETATM    6  O4  UNL     1      -0.152   1.596  -0.064  1.00  0.00    -0.262 OA
HETATM    7  N3  UNL     1      -1.032   2.437  -2.078  1.00  0.00    -0.351 N 
ATOM      8  H3  UNL     1      -0.706   2.650  -3.021  1.00  0.00     0.162 HD
BRANCH   7   9
HETATM    9  C10 UNL     1      -2.403   2.728  -1.881  1.00  0.00     0.156 C 
BRANCH   9  10
HETATM   10  C11 UNL     1      -3.283   1.601  -1.627  1.00  0.00     0.204 C 
HETATM   11  C12 UNL     1      -3.046   0.805  -0.390  1.00  0.00     0.037 C 
HETATM   12  C13 UNL     1      -4.441   0.176  -0.106  1.00  0.00     0.045 C 
HETATM   13  C14 UNL     1      -5.222   0.587  -1.323  1.00  0.00     0.277 C 
HETATM   14  N5  UNL     1      -4.726   1.969  -1.501  1.00  0.00    -0.057 N 
ATOM     15  H52 UNL     1      -4.976   2.654  -0.788  1.00  0.00     0.278 HD
ATOM     16  H51 UNL     1      -5.138   2.524  -2.251  1.00  0.00     0.278 HD
BRANCH  13  17
HETATM   17  C15 UNL     1      -6.673   0.580  -1.104  1.00  0.00     0.250 C 
HETATM   18  O5  UNL     1      -7.271   1.680  -0.986  1.00  0.00    -0.271 OA
HETATM   19  N4  UNL     1      -7.387  -0.611  -1.026  1.00  0.00    -0.350 N 
HETATM   20  C16 UNL     1      -8.805  -0.614  -0.766  1.00  0.00     0.126 C 
HETATM   21  C20 UNL     1      -6.748  -1.884  -1.223  1.00  0.00     0.126 C 
HETATM   22  C17 UNL     1      -9.277  -2.043  -0.714  1.00  0.00     0.020 C 
HETATM   23  C18 UNL     1      -8.444  -2.904   0.172  1.00  0.00     0.003 C 
HETATM   24  C19 UNL     1      -6.965  -2.796  -0.031  1.00  0.00     0.020 C 
ENDBRANCH  13  17
ENDBRANCH   9  10
ENDBRANCH   7   9
ENDBRANCH   3   5
BRANCH   1  25
HETATM   25  C7  UNL     1       3.676   0.972  -1.470  1.00  0.00     0.128 C 
BRANCH  25  26
HETATM   26  C6  UNL     1       4.523   0.406  -0.376  1.00  0.00     0.007 C 
HETATM   27  C5  UNL     1       3.982  -0.913   0.124  1.00  0.00     0.026 C 
HETATM   28  C4  UNL     1       5.078  -1.521   1.000  1.00  0.00     0.129 C 
HETATM   29  N1  UNL     1       6.040  -0.508   1.390  1.00  0.00    -0.315 N 
HETATM   30  C3  UNL     1       7.420  -0.870   1.434  1.00  0.00     0.363 C 
HETATM   31  C22 UNL     1       5.651   0.841   1.729  1.00  0.00     0.197 C 
HETATM   32  O2  UNL     1       7.807  -2.013   1.150  1.00  0.00    -0.238 OA
HETATM   33  C21 UNL     1       4.551   1.349   0.825  1.00  0.00     0.041 C 
BRANCH  30  34
HETATM   34  O1  UNL     1       8.381   0.076   1.804  1.00  0.00    -0.304 OA
BRANCH  34  35
HETATM   35  C2  UNL     1       9.762  -0.220   1.867  1.00  0.00     0.176 C 
HETATM   36  C1  UNL     1      10.091  -1.316   2.835  1.00  0.00     0.034 C 
ENDBRANCH  34  35
ENDBRANCH  30  34
BRANCH  31  37
HETATM   37  C23 UNL     1       5.240   0.960   3.190  1.00  0.00     0.407 C 
HETATM   38  F1  UNL     1       4.165   0.108   3.391  1.00  0.00    -0.169 F 
HETATM   39  F2  UNL     1       6.252   0.585   4.030  1.00  0.00    -0.169 F 
HETATM   40  F3  UNL     1       4.882   2.243   3.506  1.00  0.00    -0.169 F 
ENDBRANCH  31  37
ENDBRANCH  25  26
ENDBRANCH   1  25
TORSDOF 9
