REMARK  8 active torsions:
REMARK  status: ('A' for Active; 'I' for Inactive)
REMARK    1  A    between atoms: C2_2  and  C3_3 
REMARK    2  A    between atoms: C3_3  and  C5_6 
REMARK    3  A    between atoms: C5_6  and  N1_7 
REMARK    4  A    between atoms: C5_6  and  C6_11 
REMARK       I    between atoms: C6_11  and  N2_13 
REMARK    5  A    between atoms: N3_16  and  C9_17 
REMARK    6  A    between atoms: C9_17  and  C10_18 
REMARK       I    between atoms: N4_22  and  C14_23 
REMARK    7  A    between atoms: C14_23  and  C15_25 
REMARK    8  A    between atoms: C17_30  and  C18_31 
ROOT
HETATM    1  C10 UNL     1       1.382   0.130  -0.550  1.00  0.00     0.032 C 
HETATM    2  C11 UNL     1       2.316   1.134  -1.197  1.00  0.00     0.009 C 
HETATM    3  C12 UNL     1       3.089   0.450  -2.316  1.00  0.00     0.020 C 
HETATM    4  C13 UNL     1       3.598  -0.902  -1.845  1.00  0.00     0.126 C 
HETATM    5  N4  UNL     1       3.619  -0.862  -0.421  1.00  0.00    -0.345 N 
HETATM    6  C14 UNL     1       4.737  -0.809   0.429  1.00  0.00     0.287 C 
HETATM    7  O2  UNL     1       4.528  -0.788   1.687  1.00  0.00    -0.264 OA
HETATM    8  C19 UNL     1       2.277  -0.867   0.203  1.00  0.00     0.132 C 
ENDROOT
BRANCH   1   9
HETATM    9  C9  UNL     1       0.537   0.797   0.507  1.00  0.00     0.278 C 
BRANCH   9  10
HETATM   10  N3  UNL     1      -0.287   1.858   0.027  1.00  0.00     0.092 N 
HETATM   11  C8  UNL     1      -1.027   2.406   1.143  1.00  0.00     0.292 C 
HETATM   12  C7  UNL     1      -2.489   2.629   0.839  1.00  0.00     0.156 C 
HETATM   13  N2  UNL     1      -3.003   1.282   0.472  1.00  0.00    -0.347 N 
HETATM   14  C6  UNL     1      -3.991   0.726   1.279  1.00  0.00     0.252 C 
HETATM   15  C21 UNL     1      -2.374   0.737  -0.693  1.00  0.00     0.156 C 
HETATM   16  O1  UNL     1      -4.359   1.452   2.286  1.00  0.00    -0.271 OA
HETATM   17  C20 UNL     1      -1.128   1.558  -1.078  1.00  0.00     0.292 C 
BRANCH  14  18
HETATM   18  C5  UNL     1      -4.696  -0.558   1.183  1.00  0.00     0.297 C 
BRANCH  18  19
HETATM   19  C3  UNL     1      -6.166  -0.489   1.394  1.00  0.00     0.070 C 
HETATM   20  C4  UNL     1      -6.685  -1.925   1.595  1.00  0.00     0.035 C 
HETATM   21 CL1  UNL     1      -6.522   0.392   2.939  1.00  0.00    -0.117 Cl
BRANCH  19  22
HETATM   22  C2  UNL     1      -6.998   0.154   0.356  1.00  0.00     0.023 C 
HETATM   23  C1  UNL     1      -7.031  -0.509  -0.992  1.00  0.00     0.007 C 
ENDBRANCH  19  22
ENDBRANCH  18  19
BRANCH  18  24
HETATM   24  N1  UNL     1      -4.351  -1.293   0.021  1.00  0.00    -0.065 N 
ATOM     25  H13 UNL     1      -4.764  -2.225   0.040  1.00  0.00     0.275 HD
ATOM     26  H12 UNL     1      -4.824  -0.921  -0.803  1.00  0.00     0.275 HD
ATOM     27  H11 UNL     1      -3.342  -1.340  -0.124  1.00  0.00     0.275 HD
ENDBRANCH  18  24
ENDBRANCH  14  18
ENDBRANCH   9  10
ENDBRANCH   1   9
BRANCH   6  28
HETATM   28  C15 UNL     1       6.124  -0.775  -0.010  1.00  0.00     0.176 A 
HETATM   29  N5  UNL     1       6.640  -0.774  -1.240  1.00  0.00    -0.326 N 
HETATM   30  C16 UNL     1       7.970  -0.730  -1.165  1.00  0.00     0.139 A 
ATOM     31  H5  UNL     1       6.100  -0.803  -2.105  1.00  0.00     0.168 HD
HETATM   32 CL2  UNL     1       9.124  -0.710  -2.515  1.00  0.00    -0.062 Cl
HETATM   33  C17 UNL     1       8.330  -0.701   0.162  1.00  0.00     0.150 A 
HETATM   34  N6  UNL     1       7.179  -0.729   0.845  1.00  0.00    -0.330 N 
ATOM     35  H6  UNL     1       7.105  -0.717   1.862  1.00  0.00     0.168 HD
BRANCH  33  36
HETATM   36  C18 UNL     1       9.676  -0.651   0.706  1.00  0.00     0.230 C 
HETATM   37  O3  UNL     1       9.882  -0.629   1.940  1.00  0.00    -0.643 OA
HETATM   38  O4  UNL     1      10.750  -0.627  -0.150  1.00  0.00    -0.643 OA
ENDBRANCH  33  36
ENDBRANCH   6  28
TORSDOF 8
