REMARK  9 active torsions:
REMARK  status: ('A' for Active; 'I' for Inactive)
REMARK    1  A    between atoms: C2_2  and  C3_3 
REMARK    2  A    between atoms: C7_9  and  N2_10 
REMARK       I    between atoms: N2_10  and  C8_12 
REMARK    3  A    between atoms: C8_12  and  C9_14 
REMARK    4  A    between atoms: N4_22  and  C13_24 
REMARK    5  A    between atoms: C13_24  and  C14_25 
REMARK    6  A    between atoms: C14_25  and  N5_26 
REMARK    7  A    between atoms: N5_26  and  C16_28 
REMARK    8  A    between atoms: C16_28  and  C17_29 
REMARK    9  A    between atoms: C17_29  and  O2_30 
ROOT
HETATM    1  C3  UNL     1      -0.719   3.761  -0.304  1.00  0.00     0.056 A 
HETATM    2  C4  UNL     1      -1.916   3.454   0.308  1.00  0.00     0.048 A 
HETATM    3  C5  UNL     1      -2.194   2.142   0.550  1.00  0.00     0.014 A 
HETATM    4  C6  UNL     1      -3.370   1.722   1.161  1.00  0.00     0.120 A 
HETATM    5  N1  UNL     1      -3.531   0.402   1.344  1.00  0.00    -0.201 N 
ATOM      6  H1  UNL     1      -4.385   0.067   1.790  1.00  0.00     0.183 HD
HETATM    7  C7  UNL     1      -2.602  -0.496   0.958  1.00  0.00     0.685 A 
HETATM    8  N3  UNL     1      -1.462  -0.090   0.366  1.00  0.00    -0.186 N 
ATOM      9  H3  UNL     1      -0.767  -0.779   0.079  1.00  0.00     0.184 HD
HETATM   10  C11 UNL     1      -1.239   1.195   0.155  1.00  0.00     0.112 A 
HETATM   11  C12 UNL     1      -0.055   1.537  -0.454  1.00  0.00     0.172 A 
HETATM   12  N4  UNL     1       0.820   0.756  -0.821  1.00  0.00    -0.367 N 
ATOM     13  H4  UNL     1       1.577   1.298  -1.238  1.00  0.00     0.161 HD
HETATM   14  O3  UNL     1       0.147   2.844  -0.657  1.00  0.00    -0.296 OA
ENDROOT
BRANCH  12  15
HETATM   15  C13 UNL     1       1.161  -0.575  -0.880  1.00  0.00     0.152 C 
BRANCH  15  16
HETATM   16  C14 UNL     1       2.621  -0.675  -0.379  1.00  0.00     0.291 C 
BRANCH  16  17
HETATM   17  N5  UNL     1       3.100  -2.023  -0.380  1.00  0.00     0.087 N 
HETATM   18  C15 UNL     1       3.243  -2.508  -1.726  1.00  0.00     0.310 C 
BRANCH  17  19
HETATM   19  C16 UNL     1       4.281  -2.195   0.416  1.00  0.00     0.297 C 
BRANCH  19  20
HETATM   20  C17 UNL     1       5.483  -1.490  -0.185  1.00  0.00     0.194 C 
BRANCH  20  21
HETATM   21  O2  UNL     1       6.615  -1.671   0.605  1.00  0.00    -0.399 OA
ATOM     22  H2  UNL     1       7.367  -1.230   0.229  1.00  0.00     0.209 HD
ENDBRANCH  20  21
ENDBRANCH  19  20
ENDBRANCH  17  19
ENDBRANCH  16  17
ENDBRANCH  15  16
ENDBRANCH  12  15
BRANCH   1  23
HETATM   23  C2  UNL     1      -0.451   5.219  -0.551  1.00  0.00     0.060 C 
HETATM   24  C1  UNL     1       0.904   5.419  -1.195  1.00  0.00     0.012 C 
ENDBRANCH   1  23
BRANCH   7  25
HETATM   25  N2  UNL     1      -2.834  -1.752   1.166  1.00  0.00    -0.157 N 
HETATM   26  C8  UNL     1      -3.966  -2.306   1.760  1.00  0.00     0.266 C 
HETATM   27  O1  UNL     1      -4.058  -2.180   3.028  1.00  0.00    -0.270 OA
ATOM     28  H2  UNL     1      -2.112  -2.405   0.863  1.00  0.00     0.187 HD
BRANCH  26  29
HETATM   29  C9  UNL     1      -5.046  -3.015   1.040  1.00  0.00     0.153 C 
HETATM   30  C10 UNL     1      -4.409  -4.184   0.294  1.00  0.00     0.051 C 
HETATM   31 BR1  UNL     1      -5.980  -1.932  -0.232  1.00  0.00    -0.063 Br
HETATM   32 BR2  UNL     1      -6.290  -3.786   2.309  1.00  0.00    -0.063 Br
ENDBRANCH  26  29
ENDBRANCH   7  25
TORSDOF 9
