REMARK  8 active torsions:
REMARK  status: ('A' for Active; 'I' for Inactive)
REMARK    1  A    between atoms: C2_2  and  C3_3 
REMARK    2  A    between atoms: C8_10  and  N1_11 
REMARK    3  A    between atoms: C10_16  and  N3_17 
REMARK    4  A    between atoms: C15_26  and  N6_27 
REMARK    5  A    between atoms: N6_27  and  C16_29 
REMARK    6  A    between atoms: C16_29  and  C17_30 
REMARK    7  A    between atoms: C17_30  and  C18_31 
REMARK    8  A    between atoms: C18_31  and  N7_32 
ROOT
HETATM    1  N1  UNL     1      -3.804  -0.811   1.099  1.00  0.00    -0.188 N 
ATOM      2  H1  UNL     1      -4.718  -0.364   1.030  1.00  0.00     0.184 HD
HETATM    3  C9  UNL     1      -2.742  -0.158   0.759  1.00  0.00     0.711 A 
HETATM    4  N2  UNL     1      -2.874   1.128   0.310  1.00  0.00    -0.021 N 
ATOM      5  H2  UNL     1      -3.810   1.530   0.259  1.00  0.00     0.203 HD
HETATM    6  C10 UNL     1      -1.836   1.884  -0.065  1.00  0.00     0.709 A 
HETATM    7  N5  UNL     1      -0.614   1.305   0.022  1.00  0.00    -0.021 N 
ATOM      8  H5  UNL     1       0.206   1.845  -0.253  1.00  0.00     0.203 HD
HETATM    9  C15 UNL     1      -0.443   0.046   0.457  1.00  0.00     0.707 A 
HETATM   10  N8  UNL     1      -1.524  -0.706   0.834  1.00  0.00    -0.021 N 
ATOM     11  H8  UNL     1      -1.403  -1.663   1.165  1.00  0.00     0.203 HD
ENDROOT
BRANCH   1  12
HETATM   12  C8  UNL     1      -3.707  -2.135   1.564  1.00  0.00     0.079 A 
HETATM   13  C3  UNL     1      -4.094  -3.147   0.713  1.00  0.00    -0.029 A 
HETATM   14  C4  UNL     1      -3.980  -4.450   1.198  1.00  0.00     0.011 A 
HETATM   15  C5  UNL     1      -3.502  -4.693   2.469  1.00  0.00     0.026 A 
HETATM   16  C6  UNL     1      -3.117  -3.664   3.314  1.00  0.00     0.058 A 
HETATM   17 CL1  UNL     1      -2.504  -3.988   4.941  1.00  0.00    -0.082 Cl
HETATM   18  C7  UNL     1      -3.228  -2.378   2.837  1.00  0.00     0.083 A 
HETATM   19 CL2  UNL     1      -2.749  -1.072   3.916  1.00  0.00    -0.080 Cl
BRANCH  13  20
HETATM   20  C2  UNL     1      -4.626  -2.883  -0.642  1.00  0.00     0.036 C 
HETATM   21  C1  UNL     1      -3.614  -2.528  -1.670  1.00  0.00     0.010 C 
ENDBRANCH  13  20
ENDBRANCH   1  12
BRANCH   6  22
HETATM   22  N3  UNL     1      -1.967   3.199  -0.515  1.00  0.00    -0.214 N 
HETATM   23  C11 UNL     1      -1.695   4.275   0.447  1.00  0.00     0.160 C 
HETATM   24  C12 UNL     1      -0.904   5.297  -0.384  1.00  0.00     0.134 C 
HETATM   25  N4  UNL     1      -1.879   5.845  -1.305  1.00  0.00    -0.418 N 
HETATM   26  C13 UNL     1      -2.414   4.919  -2.238  1.00  0.00     0.134 C 
ATOM     27  H4  UNL     1      -2.160   6.825  -1.284  1.00  0.00     0.153 HD
HETATM   28  C14 UNL     1      -2.369   3.482  -1.865  1.00  0.00     0.160 C 
ENDBRANCH   6  22
BRANCH   9  29
HETATM   29  N6  UNL     1       0.682  -0.551   0.582  1.00  0.00    -0.225 N 
ATOM     30  H6  UNL     1       0.637  -1.510   0.927  1.00  0.00     0.177 HD
BRANCH  29  31
HETATM   31  C16 UNL     1       1.989  -0.055   0.304  1.00  0.00     0.140 C 
BRANCH  31  32
HETATM   32  C17 UNL     1       2.554  -0.783  -0.901  1.00  0.00     0.050 C 
BRANCH  32  33
HETATM   33  C18 UNL     1       3.953  -0.290  -1.226  1.00  0.00     0.274 C 
BRANCH  33  34
HETATM   34  N7  UNL     1       4.859  -0.506  -0.124  1.00  0.00     0.088 N 
HETATM   35  C19 UNL     1       5.159  -1.873   0.148  1.00  0.00     0.272 C 
HETATM   36  C20 UNL     1       6.488  -1.787   0.877  1.00  0.00     0.032 C 
HETATM   37  C21 UNL     1       7.207  -0.720   0.078  1.00  0.00     0.032 C 
HETATM   38  C22 UNL     1       6.075   0.224  -0.275  1.00  0.00     0.272 C 
ENDBRANCH  33  34
ENDBRANCH  32  33
ENDBRANCH  31  32
ENDBRANCH  29  31
ENDBRANCH   9  29
TORSDOF 8
