REMARK  12 active torsions:
REMARK  status: ('A' for Active; 'I' for Inactive)
REMARK       I    between atoms: C2_2  and  N1_4 
REMARK    1  A    between atoms: N1_4  and  C3_6 
REMARK    2  A    between atoms: C3_6  and  C4_7 
REMARK    3  A    between atoms: C3_6  and  C7_12 
REMARK    4  A    between atoms: C4_7  and  C5_8 
REMARK    5  A    between atoms: C5_8  and  C6_10 
REMARK    6  A    between atoms: C7_12  and  O4_14 
REMARK    7  A    between atoms: O4_14  and  C8_15 
REMARK    8  A    between atoms: C8_15  and  O5_16 
REMARK    9  A    between atoms: C8_15  and  C9_18 
REMARK   10  A    between atoms: C9_18  and  C21_33 
REMARK   11  A    between atoms: C11_20  and  C12_22 
REMARK   12  A    between atoms: C15_25  and  O6_26 
ROOT
HETATM    1  C8  UNL     1      -0.356  -0.999  -0.611  1.00  0.00     0.277 C 
ENDROOT
BRANCH   1   2
HETATM    2  O4  UNL     1       0.791  -0.738   0.173  1.00  0.00    -0.287 OA
BRANCH   2   3
HETATM    3  C7  UNL     1       2.076  -0.970  -0.277  1.00  0.00     0.284 C 
HETATM    4  O3  UNL     1       2.200  -1.433  -1.436  1.00  0.00    -0.263 OA
BRANCH   3   5
HETATM    5  C3  UNL     1       3.304  -0.708   0.522  1.00  0.00     0.191 C 
BRANCH   5   6
HETATM    6  N1  UNL     1       4.454  -1.063  -0.253  1.00  0.00    -0.347 N 
HETATM    7  C2  UNL     1       5.354  -0.181  -0.857  1.00  0.00     0.214 C 
HETATM    8  C1  UNL     1       6.503  -0.689  -1.629  1.00  0.00     0.117 C 
HETATM    9  O1  UNL     1       5.200   1.053  -0.752  1.00  0.00    -0.274 OA
ATOM     10  H1  UNL     1       4.635  -2.059  -0.377  1.00  0.00     0.163 HD
ENDBRANCH   5   6
BRANCH   5  11
HETATM   11  C4  UNL     1       3.232  -1.311   1.882  1.00  0.00     0.115 C 
BRANCH  11  12
HETATM   12  C5  UNL     1       4.376  -0.943   2.747  1.00  0.00     0.142 C 
HETATM   13  O2  UNL     1       5.277  -0.220   2.369  1.00  0.00    -0.297 OA
BRANCH  12  14
HETATM   14  C6  UNL     1       4.462  -1.462   4.143  1.00  0.00     0.192 C 
HETATM   15 CL1  UNL     1       3.069  -2.496   4.522  1.00  0.00    -0.123 Cl
ENDBRANCH  12  14
ENDBRANCH  11  12
ENDBRANCH   5  11
ENDBRANCH   3   5
ENDBRANCH   2   3
ENDBRANCH   1   2
BRANCH   1  16
HETATM   16  O5  UNL     1      -1.127  -2.028  -0.089  1.00  0.00    -0.370 OA
ATOM     17  H5  UNL     1      -1.898  -2.203  -0.616  1.00  0.00     0.212 HD
ENDBRANCH   1  16
BRANCH   1  18
HETATM   18  C9  UNL     1      -1.152   0.223  -0.967  1.00  0.00     0.034 A 
HETATM   19  C10 UNL     1      -0.346   1.220  -1.756  1.00  0.00     0.039 A 
HETATM   20  C11 UNL     1      -0.984   1.547  -0.450  1.00  0.00     0.036 A 
HETATM   21 BR1  UNL     1       0.342   2.015   0.907  1.00  0.00    -0.084 Br
BRANCH  20  22
HETATM   22  C12 UNL     1      -2.174   2.420  -0.441  1.00  0.00     0.011 C 
HETATM   23  C13 UNL     1      -2.740   2.579   0.965  1.00  0.00     0.014 C 
HETATM   24  C14 UNL     1      -3.809   1.536   1.061  1.00  0.00     0.021 C 
HETATM   25  C15 UNL     1      -3.265   0.100   1.092  1.00  0.00     0.131 C 
HETATM   26  C18 UNL     1      -4.250   1.273  -0.320  1.00  0.00     0.007 C 
HETATM   27  C16 UNL     1      -3.571  -0.108  -0.307  1.00  0.00    -0.009 C 
HETATM   28  C17 UNL     1      -4.590  -1.230  -0.557  1.00  0.00     0.018 C 
HETATM   29  C21 UNL     1      -2.558  -0.107  -1.380  1.00  0.00     0.012 C 
HETATM   30  C20 UNL     1      -3.113   0.972  -2.280  1.00  0.00     0.012 C 
HETATM   31  C19 UNL     1      -3.326   2.054  -1.265  1.00  0.00    -0.003 C 
BRANCH  25  32
HETATM   32  O6  UNL     1      -4.101  -0.666   1.936  1.00  0.00    -0.394 OA
ATOM     33  H6  UNL     1      -3.765  -1.554   1.955  1.00  0.00     0.210 HD
ENDBRANCH  25  32
ENDBRANCH  20  22
ENDBRANCH   1  18
TORSDOF 12
