REMARK  8 active torsions:
REMARK  status: ('A' for Active; 'I' for Inactive)
REMARK       I    between atoms: N1_4  and  C4_6 
REMARK    1  A    between atoms: C4_6  and  C5_8 
REMARK    2  A    between atoms: C8_12  and  O3_13 
REMARK    3  A    between atoms: C10_16  and  N2_17 
REMARK    4  A    between atoms: N2_17  and  C11_19 
REMARK    5  A    between atoms: C12_21  and  C13_22 
REMARK    6  A    between atoms: C13_22  and  C14_23 
REMARK    7  A    between atoms: C14_23  and  N3_24 
REMARK       I    between atoms: N3_24  and  C15_26 
REMARK    8  A    between atoms: C15_26  and  C16_28 
ROOT
HETATM    1  C5  UNL     1      -2.570  -0.213   0.036  1.00  0.00     0.101 C 
HETATM    2  C6  UNL     1      -3.448  -0.543   1.154  1.00  0.00     0.190 C 
HETATM    3  O2  UNL     1      -4.595  -1.081   0.613  1.00  0.00    -0.387 OA
HETATM    4  C7  UNL     1      -4.325  -1.611  -0.633  1.00  0.00     0.207 C 
HETATM    5  C8  UNL     1      -3.151  -0.869  -1.178  1.00  0.00     0.100 C 
HETATM    6  C9  UNL     1      -2.071  -1.700  -1.775  1.00  0.00     0.067 C 
HETATM    7  C10 UNL     1      -1.111  -1.968  -0.546  1.00  0.00     0.092 C 
HETATM    8  C12 UNL     1      -1.115  -0.661   0.141  1.00  0.00     0.034 C 
ENDROOT
BRANCH   8   9
HETATM    9  C13 UNL     1      -0.542  -0.492   1.464  1.00  0.00     0.041 C 
BRANCH   9  10
HETATM   10  C14 UNL     1       0.892  -0.779   1.739  1.00  0.00     0.056 C 
HETATM   11  C22 UNL     1       1.233  -2.208   1.999  1.00  0.00     0.059 C 
HETATM   12  C23 UNL     1       0.415  -2.461   3.273  1.00  0.00     0.170 C 
HETATM   13  O6  UNL     1       0.271  -1.243   3.898  1.00  0.00    -0.389 OA
HETATM   14  C24 UNL     1       1.071  -0.310   3.240  1.00  0.00     0.198 C 
BRANCH  10  15
HETATM   15  N3  UNL     1       1.788  -0.013   0.968  1.00  0.00    -0.349 N 
HETATM   16  C15 UNL     1       3.179   0.002   0.980  1.00  0.00     0.222 C 
HETATM   17  O5  UNL     1       3.850  -0.724   1.745  1.00  0.00    -0.273 OA
ATOM     18  H3  UNL     1       1.352   0.625   0.302  1.00  0.00     0.163 HD
BRANCH  16  19
HETATM   19  C16 UNL     1       3.964   0.916   0.050  1.00  0.00     0.078 C 
HETATM   20  C17 UNL     1       3.589   0.516  -1.340  1.00  0.00     0.020 C 
HETATM   21  C18 UNL     1       4.448   1.117  -2.407  1.00  0.00     0.080 C 
HETATM   22  C19 UNL     1       5.582   1.956  -1.869  1.00  0.00     0.243 C 
HETATM   23  F1  UNL     1       5.170   3.216  -1.500  1.00  0.00    -0.206 F 
HETATM   24  F2  UNL     1       6.503   2.138  -2.908  1.00  0.00    -0.206 F 
HETATM   25  C20 UNL     1       6.308   1.297  -0.743  1.00  0.00     0.080 C 
HETATM   26  C21 UNL     1       5.415   0.758   0.326  1.00  0.00     0.020 C 
ENDBRANCH  16  19
ENDBRANCH  10  15
ENDBRANCH   9  10
ENDBRANCH   8   9
BRANCH   1  27
HETATM   27  C4  UNL     1      -2.617   1.293  -0.133  1.00  0.00     0.236 C 
HETATM   28  N1  UNL     1      -3.859   1.923  -0.335  1.00  0.00    -0.334 N 
HETATM   29  C2  UNL     1      -4.043   3.109  -0.764  1.00  0.00    -0.018 C 
ATOM     30  H1  UNL     1      -4.693   1.378  -0.117  1.00  0.00     0.168 HD
HETATM   31  C1  UNL     1      -5.402   3.674  -0.940  1.00  0.00     0.062 C 
HETATM   32  C3  UNL     1      -2.892   3.978  -1.106  1.00  0.00     0.062 C 
HETATM   33  O1  UNL     1      -1.523   1.896  -0.081  1.00  0.00    -0.272 OA
ENDBRANCH   1  27
BRANCH   7  34
HETATM   34  N2  UNL     1      -1.602  -3.125   0.121  1.00  0.00    -0.363 N 
ATOM     35  H2  UNL     1      -2.284  -3.052   0.876  1.00  0.00     0.162 HD
BRANCH  34  36
HETATM   36  C11 UNL     1      -1.099  -4.399  -0.311  1.00  0.00     0.348 C 
HETATM   37  O4  UNL     1      -0.262  -4.525  -1.236  1.00  0.00    -0.284 OA
ENDBRANCH  34  36
ENDBRANCH   7  34
BRANCH   5  38
HETATM   38  O3  UNL     1      -3.643   0.083  -2.091  1.00  0.00    -0.386 OA
ATOM     39  H3  UNL     1      -4.012  -0.333  -2.861  1.00  0.00     0.210 HD
ENDBRANCH   5  38
TORSDOF 8
