REMARK  8 active torsions:
REMARK  status: ('A' for Active; 'I' for Inactive)
REMARK    1  A    between atoms: C3_3  and  O1_4 
REMARK    2  A    between atoms: N2_15  and  N3_16 
REMARK       I    between atoms: N3_16  and  C9_18 
REMARK    3  A    between atoms: C9_18  and  C10_20 
REMARK    4  A    between atoms: C10_20  and  N4_21 
REMARK    5  A    between atoms: N5_24  and  C13_25 
REMARK    6  A    between atoms: C13_25  and  C14_26 
REMARK    7  A    between atoms: C14_26  and  C15_27 
REMARK    8  A    between atoms: C15_27  and  N6_28 
ROOT
HETATM    1  N3  UNL     1      -3.412  -1.939  -0.381  1.00  0.00    -0.261 N 
ATOM      2  H3  UNL     1      -3.405  -2.778  -0.962  1.00  0.00     0.190 HD
HETATM    3  C9  UNL     1      -2.232  -1.553   0.250  1.00  0.00     0.275 C 
HETATM    4  O2  UNL     1      -2.183  -0.525   0.962  1.00  0.00    -0.265 OA
ENDROOT
BRANCH   1   5
HETATM    5  N2  UNL     1      -4.615  -1.217  -0.249  1.00  0.00    -0.258 N 
HETATM    6  C8  UNL     1      -5.066  -1.198   1.125  1.00  0.00     0.158 C 
HETATM    7  C7  UNL     1      -5.644   0.128   1.465  1.00  0.00     0.106 C 
HETATM    8  C6  UNL     1      -7.157   0.192   1.321  1.00  0.00     0.275 C 
HETATM    9  C5  UNL     1      -7.501   0.923   0.086  1.00  0.00     0.046 A 
HETATM   10  F1  UNL     1      -7.659   0.709   2.462  1.00  0.00    -0.201 F 
HETATM   11  F2  UNL     1      -7.604  -1.138   1.259  1.00  0.00    -0.201 F 
HETATM   12  C2  UNL     1      -8.240   2.059   0.113  1.00  0.00     0.003 A 
HETATM   13  C4  UNL     1      -7.192   0.655  -1.222  1.00  0.00     0.033 A 
HETATM   14  C1  UNL     1      -8.783   2.707   1.313  1.00  0.00     0.054 C 
HETATM   15  C3  UNL     1      -8.375   2.481  -1.210  1.00  0.00     0.147 A 
HETATM   16  N1  UNL     1      -7.739   1.623  -1.989  1.00  0.00    -0.339 N 
ATOM     17  H1  UNL     1      -7.672   1.682  -3.005  1.00  0.00     0.168 HD
HETATM   18  C25 UNL     1      -6.450  -0.373  -2.004  1.00  0.00     0.162 C 
HETATM   19  C24 UNL     1      -5.121  -0.698  -1.461  1.00  0.00     0.243 C 
HETATM   20  O3  UNL     1      -4.198  -0.456  -2.278  1.00  0.00    -0.271 OA
BRANCH  15  21
HETATM   21  O1  UNL     1      -9.065   3.617  -1.633  1.00  0.00    -0.346 OA
ATOM     22  H1  UNL     1      -9.157   3.904  -2.534  1.00  0.00     0.219 HD
ENDBRANCH  15  21
ENDBRANCH   1   5
BRANCH   3  23
HETATM   23  C10 UNL     1      -1.025  -2.389   0.068  1.00  0.00     0.162 C 
BRANCH  23  24
HETATM   24  N4  UNL     1       0.078  -1.870   0.774  1.00  0.00    -0.382 N 
HETATM   25  C11 UNL     1       0.688  -0.678   0.323  1.00  0.00     0.152 C 
HETATM   26  C12 UNL     1       1.842  -0.944  -0.616  1.00  0.00     0.292 C 
HETATM   27  N5  UNL     1       2.775  -1.833   0.016  1.00  0.00     0.091 N 
HETATM   28  C22 UNL     1       2.110  -3.111   0.218  1.00  0.00     0.292 C 
HETATM   29  C23 UNL     1       1.016  -2.867   1.238  1.00  0.00     0.152 C 
BRANCH  27  30
HETATM   30  C13 UNL     1       3.951  -2.074  -0.792  1.00  0.00     0.274 C 
BRANCH  30  31
HETATM   31  C14 UNL     1       4.877  -0.927  -0.943  1.00  0.00     0.050 C 
BRANCH  31  32
HETATM   32  C15 UNL     1       5.490  -0.433   0.349  1.00  0.00     0.119 C 
BRANCH  32  33
HETATM   33  N6  UNL     1       6.351   0.663   0.066  1.00  0.00    -0.408 N 
HETATM   34  C16 UNL     1       5.681   1.841  -0.346  1.00  0.00     0.117 C 
HETATM   35  C17 UNL     1       6.216   3.095   0.318  1.00  0.00     0.019 C 
HETATM   36  C18 UNL     1       7.701   3.213   0.203  1.00  0.00     0.004 C 
HETATM   37  C19 UNL     1       8.381   1.886   0.165  1.00  0.00     0.024 C 
HETATM   38  C20 UNL     1       7.528   0.800   0.836  1.00  0.00     0.075 C 
HETATM   39  C21 UNL     1       8.364  -0.475   0.707  1.00  0.00     0.032 C 
ENDBRANCH  32  33
ENDBRANCH  31  32
ENDBRANCH  30  31
ENDBRANCH  27  30
ENDBRANCH  23  24
ENDBRANCH   3  23
TORSDOF 8
