REMARK  3 active torsions:
REMARK  status: ('A' for Active; 'I' for Inactive)
REMARK    1  A    between atoms: C3_4  and  N2_5 
REMARK    2  A    between atoms: C5_9  and  C6_10 
REMARK    3  A    between atoms: C9_20  and  N6_21 
ROOT
HETATM    1  N1  UNL     1      -0.737   2.947  -0.496  1.00  0.00    -0.191 NA
HETATM    2  C1  UNL     1      -1.148   1.856  -0.387  1.00  0.00     0.107 C 
HETATM    3  C2  UNL     1      -1.652   0.524  -0.231  1.00  0.00     0.132 A 
HETATM    4  C3  UNL     1      -0.773  -0.484   0.165  1.00  0.00     0.141 A 
HETATM    5  N4  UNL     1      -1.244  -1.731   0.311  1.00  0.00    -0.293 N 
ATOM      6  H4  UNL     1      -0.622  -2.486   0.600  1.00  0.00     0.172 HD
HETATM    7  C8  UNL     1      -2.537  -1.973   0.074  1.00  0.00     0.327 A 
HETATM    8  O3  UNL     1      -2.973  -3.159   0.216  1.00  0.00    -0.247 OA
HETATM    9  N5  UNL     1      -3.411  -1.030  -0.308  1.00  0.00    -0.293 N 
ATOM     10  H5  UNL     1      -4.388  -1.271  -0.475  1.00  0.00     0.172 HD
HETATM   11  C9  UNL     1      -2.984   0.248  -0.470  1.00  0.00     0.127 A 
ENDROOT
BRANCH   4  12
HETATM   12  N2  UNL     1       0.588  -0.129   0.395  1.00  0.00    -0.300 N 
HETATM   13  C4  UNL     1       1.088   0.463   1.494  1.00  0.00     0.190 A 
HETATM   14  N3  UNL     1       2.410   0.663   1.397  1.00  0.00    -0.345 N 
HETATM   15  C5  UNL     1       2.787   0.190   0.199  1.00  0.00     0.126 A 
ATOM     16  H3  UNL     1       3.013   1.092   2.099  1.00  0.00     0.167 HD
HETATM   17  C7  UNL     1       1.639  -0.302  -0.417  1.00  0.00     0.136 A 
BRANCH  15  18
HETATM   18  C6  UNL     1       4.140   0.211  -0.306  1.00  0.00     0.228 C 
HETATM   19  O1  UNL     1       4.384  -0.257  -1.437  1.00  0.00    -0.643 OA
HETATM   20  O2  UNL     1       5.171   0.738   0.436  1.00  0.00    -0.643 OA
ENDBRANCH  15  18
ENDBRANCH   4  12
BRANCH  11  21
HETATM   21  N6  UNL     1      -3.823   1.158  -0.838  1.00  0.00    -0.384 N 
ATOM     22  H62 UNL     1      -3.502   2.119  -0.960  1.00  0.00     0.157 HD
ATOM     23  H61 UNL     1      -4.807   0.954  -1.015  1.00  0.00     0.157 HD
ENDBRANCH  11  21
TORSDOF 3
