REMARK  5 active torsions:
REMARK  status: ('A' for Active; 'I' for Inactive)
REMARK    1  A    between atoms: N1_1  and  C1_4 
REMARK    2  A    between atoms: C4_10  and  O2_11 
REMARK    3  A    between atoms: O2_11  and  C5_12 
REMARK    4  A    between atoms: C5_12  and  C6_13 
REMARK    5  A    between atoms: C10_22  and  N5_23 
ROOT
HETATM    1  C1  UNL     1       0.735  -4.747  -0.144  1.00  0.00     0.680 A 
HETATM    2  N2  UNL     1      -0.544  -4.397  -0.105  1.00  0.00    -0.155 N 
ATOM      3  H2  UNL     1      -1.252  -5.126  -0.025  1.00  0.00     0.187 HD
HETATM    4  C2  UNL     1      -0.938  -3.112  -0.167  1.00  0.00     0.278 A 
HETATM    5  O1  UNL     1      -2.171  -2.803  -0.127  1.00  0.00    -0.266 OA
HETATM    6  C3  UNL     1       0.051  -2.159  -0.274  1.00  0.00     0.129 A 
HETATM    7  C4  UNL     1      -0.271  -0.827  -0.342  1.00  0.00     0.177 A 
HETATM    8  N4  UNL     1       0.709   0.080  -0.446  1.00  0.00    -0.169 N 
ATOM      9  H4  UNL     1       0.443   1.064  -0.494  1.00  0.00     0.186 HD
HETATM   10  C10 UNL     1       2.018  -0.217  -0.491  1.00  0.00     0.684 A 
HETATM   11  N7  UNL     1       2.348  -1.533  -0.424  1.00  0.00    -0.175 N 
ATOM     12  H7  UNL     1       3.330  -1.808  -0.454  1.00  0.00     0.186 HD
HETATM   13  C15 UNL     1       1.392  -2.481  -0.318  1.00  0.00     0.156 A 
HETATM   14  N8  UNL     1       1.700  -3.789  -0.251  1.00  0.00    -0.175 N 
ATOM     15  H8  UNL     1       2.680  -4.071  -0.281  1.00  0.00     0.186 HD
ENDROOT
BRANCH   7  16
HETATM   16  O2  UNL     1      -1.620  -0.485  -0.299  1.00  0.00    -0.332 OA
BRANCH  16  17
HETATM   17  C5  UNL     1      -2.082   0.850  -0.360  1.00  0.00     0.210 C 
BRANCH  17  18
HETATM   18  C6  UNL     1      -3.594   0.800  -0.284  1.00  0.00     0.210 C 
HETATM   19  C7  UNL     1      -4.224   2.156  -0.271  1.00  0.00     0.037 C 
HETATM   20  C8  UNL     1      -5.320   2.024   0.774  1.00  0.00     0.029 C 
HETATM   21  C9  UNL     1      -5.375   0.554   1.063  1.00  0.00     0.233 C 
HETATM   22  N3  UNL     1      -3.959   0.166   0.982  1.00  0.00    -0.069 N 
ATOM     23  H32 UNL     1      -3.767  -0.833   1.050  1.00  0.00     0.277 HD
ATOM     24  H31 UNL     1      -3.383   0.415   1.786  1.00  0.00     0.277 HD
ENDBRANCH  17  18
ENDBRANCH  16  17
ENDBRANCH   7  16
BRANCH  10  25
HETATM   25  N5  UNL     1       3.017   0.785  -0.602  1.00  0.00    -0.208 N 
HETATM   26  C11 UNL     1       2.688   2.185  -0.674  1.00  0.00     0.186 C 
HETATM   27  C12 UNL     1       3.529   3.047   0.208  1.00  0.00     0.080 C 
HETATM   28  N6  UNL     1       4.816   2.585   0.515  1.00  0.00    -0.379 N 
HETATM   29  C13 UNL     1       5.109   1.222   0.429  1.00  0.00     0.080 C 
ATOM     30  H6  UNL     1       5.539   3.245   0.801  1.00  0.00     0.164 HD
HETATM   31  C14 UNL     1       4.421   0.452  -0.649  1.00  0.00     0.186 C 
ENDBRANCH  10  25
BRANCH   1  32
HETATM   32  N1  UNL     1       1.041  -5.996  -0.081  1.00  0.00    -0.234 N 
ATOM     33  H12 UNL     1       0.319  -6.712  -0.001  1.00  0.00     0.174 HD
ATOM     34  H11 UNL     1       2.024  -6.265  -0.111  1.00  0.00     0.174 HD
ENDBRANCH   1  32
TORSDOF 5
