REMARK  7 active torsions:
REMARK  status: ('A' for Active; 'I' for Inactive)
REMARK    1  A    between atoms: N1_1  and  C1_4 
REMARK    2  A    between atoms: C2_10  and  C3_11 
REMARK    3  A    between atoms: C5_13  and  C6_14 
REMARK    4  A    between atoms: C6_14  and  C7_15 
REMARK    5  A    between atoms: C7_15  and  C8_16 
REMARK    6  A    between atoms: C10_21  and  C11_22 
REMARK    7  A    between atoms: C13_29  and  C14_30 
ROOT
HETATM    1  C3  UNL     1      -3.433  -0.968   0.536  1.00  0.00     0.108 A 
HETATM    2  C4  UNL     1      -2.226  -1.337   1.092  1.00  0.00     0.049 A 
HETATM    3  C5  UNL     1      -1.357  -0.299   0.877  1.00  0.00    -0.022 A 
HETATM    4  C13 UNL     1      -2.060   0.672   0.196  1.00  0.00     0.064 A 
HETATM    5  O4  UNL     1      -3.257   0.209   0.036  1.00  0.00    -0.312 OA
ENDROOT
BRANCH   3   6
HETATM    6  C6  UNL     1       0.065  -0.163   1.263  1.00  0.00     0.072 C 
BRANCH   6   7
HETATM    7  C7  UNL     1       0.947  -0.363   0.092  1.00  0.00     0.026 C 
BRANCH   7   8
HETATM    8  C8  UNL     1       2.258  -0.218   0.221  1.00  0.00     0.105 A 
HETATM    9  N4  UNL     1       2.930   0.110   1.354  1.00  0.00    -0.308 N 
HETATM   10  C9  UNL     1       4.247   0.160   1.081  1.00  0.00     0.278 A 
ATOM     11  H4  UNL     1       2.506   0.289   2.264  1.00  0.00     0.170 HD
HETATM   12  O2  UNL     1       5.201   0.433   1.878  1.00  0.00    -0.265 OA
HETATM   13  C10 UNL     1       4.421  -0.141  -0.253  1.00  0.00     0.154 A 
HETATM   14  N6  UNL     1       3.189  -0.363  -0.735  1.00  0.00    -0.335 N 
ATOM     15  H6  UNL     1       2.986  -0.610  -1.703  1.00  0.00     0.168 HD
BRANCH  13  16
HETATM   16  C11 UNL     1       5.586  -0.193  -0.904  1.00  0.00     0.174 C 
HETATM   17  N5  UNL     1       6.950   0.007  -0.562  1.00  0.00    -0.347 N 
HETATM   18  C12 UNL     1       7.319  -0.767  -1.713  1.00  0.00     0.302 C 
ATOM     19  H5  UNL     1       7.452   0.492   0.182  1.00  0.00     0.163 HD
HETATM   20  O3  UNL     1       6.005  -0.463  -2.196  1.00  0.00    -0.314 OA
ENDBRANCH  13  16
ENDBRANCH   7   8
ENDBRANCH   6   7
ENDBRANCH   3   6
BRANCH   4  21
HETATM   21  C14 UNL     1      -1.567   2.000  -0.275  1.00  0.00     0.044 A 
HETATM   22  C15 UNL     1      -2.614   2.866  -0.999  1.00  0.00     0.012 A 
HETATM   23  C16 UNL     1      -2.123   3.215   0.370  1.00  0.00     0.012 A 
ENDBRANCH   4  21
BRANCH   1  24
HETATM   24  C2  UNL     1      -4.628  -1.768   0.535  1.00  0.00     0.135 A 
HETATM   25  C1  UNL     1      -5.849  -1.431  -0.011  1.00  0.00     0.153 A 
HETATM   26  N2  UNL     1      -6.681  -2.462   0.213  1.00  0.00    -0.224 N 
HETATM   27  O1  UNL     1      -6.023  -3.399   0.865  1.00  0.00    -0.155 OA
ATOM     28  H2  UNL     1      -7.659  -2.511  -0.074  1.00  0.00     0.198 HD
HETATM   29  N3  UNL     1      -4.804  -3.000   1.063  1.00  0.00    -0.235 N 
ATOM     30  H3  UNL     1      -4.084  -3.537   1.546  1.00  0.00     0.197 HD
BRANCH  25  31
HETATM   31  N1  UNL     1      -6.170  -0.359  -0.620  1.00  0.00    -0.382 N 
ATOM     32  H12 UNL     1      -7.073  -0.110  -1.024  1.00  0.00     0.157 HD
ATOM     33  H11 UNL     1      -5.538   0.424  -0.790  1.00  0.00     0.157 HD
ENDBRANCH  25  31
ENDBRANCH   1  24
TORSDOF 7
