REMARK  6 active torsions:
REMARK  status: ('A' for Active; 'I' for Inactive)
REMARK    1  A    between atoms: C2_2  and  N1_3 
REMARK    2  A    between atoms: C3_5  and  C4_6 
REMARK    3  A    between atoms: C7_15  and  C8_16 
REMARK    4  A    between atoms: C8_16  and  C9_17 
REMARK    5  A    between atoms: C11_21  and  N5_22 
REMARK    6  A    between atoms: C12_27  and  N7_28 
ROOT
HETATM    1  C4  UNL     1       2.276  -0.272  -1.002  1.00  0.00     0.092 A 
HETATM    2  C5  UNL     1       3.090  -0.353  -2.113  1.00  0.00     0.264 A 
HETATM    3  O1  UNL     1       4.253   0.188  -2.108  1.00  0.00    -0.267 OA
HETATM    4  N2  UNL     1       2.756  -0.972  -3.233  1.00  0.00    -0.274 N 
ATOM      5  H2  UNL     1       3.388  -1.011  -4.033  1.00  0.00     0.173 HD
HETATM    6  C6  UNL     1       1.537  -1.550  -3.264  1.00  0.00     0.341 A 
HETATM    7  O2  UNL     1       1.117  -2.162  -4.273  1.00  0.00    -0.245 OA
HETATM    8  N3  UNL     1       0.708  -1.485  -2.179  1.00  0.00    -0.215 N 
HETATM    9  S1  UNL     1      -0.863  -2.079  -1.852  1.00  0.00     0.012 SA
HETATM   10  C7  UNL     1      -1.021  -1.491  -0.253  1.00  0.00     0.074 A 
HETATM   11  N8  UNL     1       0.120  -0.891  -0.083  1.00  0.00    -0.337 N 
ATOM     12  H8  UNL     1       0.324  -0.430   0.804  1.00  0.00     0.168 HD
HETATM   13  C13 UNL     1       1.006  -0.876  -1.041  1.00  0.00     0.140 A 
ENDROOT
BRANCH  10  14
HETATM   14  C8  UNL     1      -2.143  -1.614   0.709  1.00  0.00     0.110 C 
BRANCH  14  15
HETATM   15  C9  UNL     1      -3.115  -0.523   0.598  1.00  0.00     0.008 A 
HETATM   16  C10 UNL     1      -3.013   0.512  -0.305  1.00  0.00     0.117 A 
HETATM   17  N4  UNL     1      -3.931   1.477  -0.358  1.00  0.00    -0.202 N 
HETATM   18  C11 UNL     1      -5.007   1.476   0.480  1.00  0.00     0.677 A 
ATOM     19  H4  UNL     1      -3.827   2.230  -1.038  1.00  0.00     0.183 HD
HETATM   20  N6  UNL     1      -5.116   0.464   1.370  1.00  0.00    -0.177 N 
HETATM   21  C12 UNL     1      -4.200  -0.534   1.452  1.00  0.00     0.122 A 
ATOM     22  H6  UNL     1      -5.916   0.450   2.003  1.00  0.00     0.185 HD
BRANCH  18  23
HETATM   23  N5  UNL     1      -5.892   2.409   0.427  1.00  0.00    -0.234 N 
ATOM     24  H52 UNL     1      -5.810   3.172  -0.244  1.00  0.00     0.174 HD
ATOM     25  H51 UNL     1      -6.697   2.408   1.054  1.00  0.00     0.174 HD
ENDBRANCH  18  23
BRANCH  21  26
HETATM   26  N7  UNL     1      -4.386  -1.449   2.324  1.00  0.00    -0.385 N 
ATOM     27  H72 UNL     1      -3.698  -2.199   2.386  1.00  0.00     0.157 HD
ATOM     28  H71 UNL     1      -5.187  -1.457   2.955  1.00  0.00     0.157 HD
ENDBRANCH  21  26
ENDBRANCH  14  15
ENDBRANCH  10  14
BRANCH   1  29
HETATM   29  C3  UNL     1       2.740   0.433   0.183  1.00  0.00     0.104 C 
HETATM   30  N1  UNL     1       3.882   0.966   0.194  1.00  0.00    -0.398 N 
ATOM     31  H1  UNL     1       4.438   0.872  -0.656  1.00  0.00     0.158 HD
BRANCH  30  32
HETATM   32  C2  UNL     1       4.480   1.690   1.276  1.00  0.00     0.114 C 
HETATM   33  C1  UNL     1       5.392   0.824   2.119  1.00  0.00     0.026 C 
ENDBRANCH  30  32
ENDBRANCH   1  29
TORSDOF 6
