REMARK  5 active torsions:
REMARK  status: ('A' for Active; 'I' for Inactive)
REMARK    1  A    between atoms: C3_5  and  C4_6 
REMARK    2  A    between atoms: N3_13  and  C8_14 
REMARK    3  A    between atoms: C10_16  and  O1_17 
REMARK    4  A    between atoms: C10_16  and  C11_19 
REMARK    5  A    between atoms: C14_24  and  N5_25 
ROOT
HETATM    1  C8  UNL     1       0.457   1.203   0.627  1.00  0.00     0.131 A 
HETATM    2  C9  UNL     1       1.606   0.528   0.818  1.00  0.00     0.110 A 
HETATM    3  C10 UNL     1       1.947  -0.775   0.304  1.00  0.00     0.076 C 
HETATM    4  N4  UNL     1       2.490   1.037   1.748  1.00  0.00    -0.187 N 
ATOM      5  H4  UNL     1       3.365   0.535   1.899  1.00  0.00     0.184 HD
HETATM    6  C14 UNL     1       2.275   2.141   2.461  1.00  0.00     0.679 A 
HETATM    7  N6  UNL     1       1.141   2.818   2.285  1.00  0.00    -0.154 N 
ATOM      8  H6  UNL     1       0.961   3.665   2.824  1.00  0.00     0.187 HD
HETATM    9  C15 UNL     1       0.228   2.377   1.387  1.00  0.00     0.288 A 
HETATM   10  O2  UNL     1      -0.812   3.062   1.273  1.00  0.00    -0.265 OA
ENDROOT
BRANCH   1  11
HETATM   11  N3  UNL     1      -0.489   0.909  -0.373  1.00  0.00    -0.339 N 
HETATM   12  C4  UNL     1      -1.704   0.339  -0.668  1.00  0.00     0.357 C 
HETATM   13  N2  UNL     1      -1.575  -0.256  -2.026  1.00  0.00    -0.042 N 
HETATM   14  C5  UNL     1      -0.788   0.678  -2.753  1.00  0.00     0.202 C 
ATOM     15  H22 UNL     1      -1.203  -1.206  -2.030  1.00  0.00     0.280 HD
ATOM     16  H21 UNL     1      -2.466  -0.481  -2.468  1.00  0.00     0.280 HD
HETATM   17  C6  UNL     1      -1.610   1.723  -3.518  1.00  0.00     0.042 C 
HETATM   18  C7  UNL     1      -0.024   1.411  -1.731  1.00  0.00     0.158 C 
BRANCH  12  19
HETATM   19  C3  UNL     1      -2.467  -0.598   0.113  1.00  0.00     0.150 A 
HETATM   20  N1  UNL     1      -2.316  -1.916   0.248  1.00  0.00    -0.330 N 
HETATM   21  C2  UNL     1      -3.283  -2.448   1.004  1.00  0.00     0.093 A 
ATOM     22  H1  UNL     1      -1.557  -2.452  -0.173  1.00  0.00     0.168 HD
HETATM   23  C1  UNL     1      -3.425  -3.892   1.332  1.00  0.00     0.090 C 
HETATM   24  N8  UNL     1      -4.061  -1.423   1.355  1.00  0.00    -0.286 N 
HETATM   25  N7  UNL     1      -3.576  -0.312   0.821  1.00  0.00    -0.280 N 
ATOM     26  H8  UNL     1      -4.894  -1.485   1.940  1.00  0.00     0.188 HD
HETATM   27  C16 UNL     1      -4.229   0.988   1.003  1.00  0.00     0.179 C 
ENDBRANCH  12  19
ENDBRANCH   1  11
BRANCH   3  28
HETATM   28  O1  UNL     1       1.003  -1.512  -0.333  1.00  0.00    -0.362 OA
ATOM     29  H1  UNL     1       1.228  -2.371  -0.672  1.00  0.00     0.217 HD
ENDBRANCH   3  28
BRANCH   3  30
HETATM   30  C11 UNL     1       3.227  -0.943  -0.451  1.00  0.00     0.036 C 
HETATM   31  C12 UNL     1       4.528  -0.577   0.107  1.00  0.00     0.016 C 
HETATM   32  C13 UNL     1       3.324  -2.474  -0.770  1.00  0.00     0.016 C 
ENDBRANCH   3  30
BRANCH   6  33
HETATM   33  N5  UNL     1       3.180   2.552   3.304  1.00  0.00    -0.234 N 
ATOM     34  H52 UNL     1       4.048   2.034   3.439  1.00  0.00     0.174 HD
ATOM     35  H51 UNL     1       3.015   3.398   3.850  1.00  0.00     0.174 HD
ENDBRANCH   6  33
TORSDOF 5
