REMARK  6 active torsions:
REMARK  status: ('A' for Active; 'I' for Inactive)
REMARK    1  A    between atoms: N1_1  and  C1_4 
REMARK    2  A    between atoms: C7_14  and  C8_15 
REMARK    3  A    between atoms: C8_15  and  N4_16 
REMARK    4  A    between atoms: N7_28  and  C13_29 
REMARK    5  A    between atoms: C13_29  and  C14_30 
REMARK    6  A    between atoms: C14_30  and  C15_31 
ROOT
HETATM    1  C1  UNL     1      -0.185   2.620   0.327  1.00  0.00     0.111 A 
HETATM    2  N2  UNL     1       0.808   3.501   0.124  1.00  0.00    -0.338 N 
ATOM      3  H2  UNL     1       0.643   4.501   0.235  1.00  0.00     0.168 HD
HETATM    4  C2  UNL     1       2.036   3.041  -0.231  1.00  0.00     0.183 A 
HETATM    5  N3  UNL     1       2.250   1.747  -0.373  1.00  0.00    -0.338 N 
ATOM      6  H3  UNL     1       3.186   1.441  -0.640  1.00  0.00     0.168 HD
HETATM    7  C3  UNL     1       1.313   0.814  -0.187  1.00  0.00     0.119 A 
HETATM    8  C4  UNL     1       0.026   1.262   0.182  1.00  0.00     0.046 A 
HETATM    9  C5  UNL     1      -0.844   0.096   0.328  1.00  0.00     0.056 C 
HETATM   10  C6  UNL     1      -1.828   0.135   1.443  1.00  0.00     0.034 C 
HETATM   11  C7  UNL     1      -3.214   0.115   0.850  1.00  0.00     0.049 C 
HETATM   12  C9  UNL     1      -3.001  -0.164  -0.569  1.00  0.00    -0.010 A 
HETATM   13  C10 UNL     1      -3.636  -0.431  -1.765  1.00  0.00     0.116 A 
HETATM   14  N5  UNL     1      -2.682  -0.585  -2.695  1.00  0.00    -0.311 N 
ATOM     15  H5  UNL     1      -2.866  -0.792  -3.677  1.00  0.00     0.186 HD
HETATM   16  N6  UNL     1      -1.491  -0.437  -2.187  1.00  0.00    -0.303 N 
ATOM     17  H6  UNL     1      -0.604  -0.505  -2.686  1.00  0.00     0.186 HD
HETATM   18  C11 UNL     1      -1.657  -0.176  -0.871  1.00  0.00     0.049 A 
HETATM   19  C12 UNL     1       0.173  -1.034   0.554  1.00  0.00     0.150 C 
HETATM   20  N7  UNL     1       1.304  -0.599  -0.312  1.00  0.00    -0.345 N 
ENDROOT
BRANCH   1  21
HETATM   21  N1  UNL     1      -1.361   3.027   0.658  1.00  0.00    -0.385 N 
ATOM     22  H12 UNL     1      -1.517   4.029   0.765  1.00  0.00     0.157 HD
ATOM     23  H11 UNL     1      -2.115   2.358   0.812  1.00  0.00     0.157 HD
ENDBRANCH   1  21
BRANCH  11  24
HETATM   24  C8  UNL     1      -4.113  -0.888   1.528  1.00  0.00     0.239 C 
BRANCH  24  25
HETATM   25  N4  UNL     1      -3.662  -2.229   1.457  1.00  0.00    -0.079 N 
ATOM     26  H43 UNL     1      -3.501  -2.497   0.486  1.00  0.00     0.274 HD
ATOM     27  H42 UNL     1      -2.712  -2.303   1.820  1.00  0.00     0.274 HD
ATOM     28  H41 UNL     1      -4.270  -2.907   1.916  1.00  0.00     0.274 HD
ENDBRANCH  24  25
ENDBRANCH  11  24
BRANCH  20  29
HETATM   29  C13 UNL     1       2.054  -1.493  -1.118  1.00  0.00     0.073 C 
BRANCH  29  30
HETATM   30  C14 UNL     1       3.405  -1.199  -1.581  1.00  0.00     0.124 C 
BRANCH  30  31
HETATM   31  C15 UNL     1       4.450  -1.174  -0.544  1.00  0.00     0.117 A 
HETATM   32  N8  UNL     1       5.109  -2.311  -0.163  1.00  0.00    -0.272 N 
HETATM   33  N9  UNL     1       5.995  -1.973   0.751  1.00  0.00    -0.227 N 
ATOM     34  H8  UNL     1       4.944  -3.251  -0.522  1.00  0.00     0.190 HD
HETATM   35  N10 UNL     1       5.937  -0.679   0.975  1.00  0.00    -0.227 N 
ATOM     36  H9  UNL     1       6.632  -2.620   1.216  1.00  0.00     0.210 HD
HETATM   37  N11 UNL     1       4.990  -0.227   0.173  1.00  0.00    -0.272 N 
ATOM     38  H10 UNL     1       6.503  -0.139   1.629  1.00  0.00     0.210 HD
ATOM     39  H11 UNL     1       4.712   0.753   0.120  1.00  0.00     0.190 HD
ENDBRANCH  30  31
ENDBRANCH  29  30
ENDBRANCH  20  29
TORSDOF 6
