REMARK  7 active torsions:
REMARK  status: ('A' for Active; 'I' for Inactive)
REMARK    1  A    between atoms: N1_1  and  C1_4 
REMARK    2  A    between atoms: N4_12  and  C5_14 
REMARK    3  A    between atoms: C5_14  and  C6_15 
REMARK    4  A    between atoms: C12_27  and  N7_28 
REMARK    5  A    between atoms: N7_28  and  C13_29 
REMARK    6  A    between atoms: C13_29  and  C14_30 
REMARK    7  A    between atoms: C14_30  and  O3_31 
ROOT
HETATM    1  C1  UNL     1       2.839   2.181  -1.271  1.00  0.00     0.129 A 
HETATM    2  N2  UNL     1       1.881   2.838  -1.980  1.00  0.00    -0.337 N 
ATOM      3  H2  UNL     1       2.060   3.794  -2.287  1.00  0.00     0.168 HD
HETATM    4  C2  UNL     1       0.707   2.264  -2.287  1.00  0.00     0.182 A 
HETATM    5  N3  UNL     1       0.481   1.019  -1.885  1.00  0.00    -0.347 N 
ATOM      6  H3  UNL     1      -0.416   0.598  -2.128  1.00  0.00     0.167 HD
HETATM    7  C3  UNL     1       1.342   0.280  -1.187  1.00  0.00     0.108 A 
HETATM    8  C4  UNL     1       1.026  -1.007  -0.810  1.00  0.00     0.138 A 
HETATM    9  N4  UNL     1      -0.060  -1.555  -1.087  1.00  0.00    -0.346 N 
ATOM     10  H4  UNL     1      -0.122  -2.507  -0.727  1.00  0.00     0.167 HD
HETATM   11  N6  UNL     1       1.980  -1.670  -0.101  1.00  0.00    -0.300 N 
ATOM     12  H6  UNL     1       1.788  -2.626   0.199  1.00  0.00     0.171 HD
HETATM   13  C12 UNL     1       3.159  -1.124   0.220  1.00  0.00     0.260 A 
HETATM   14  N8  UNL     1       3.437   0.162  -0.175  1.00  0.00    -0.311 N 
ATOM     15  H8  UNL     1       4.337   0.575   0.072  1.00  0.00     0.170 HD
HETATM   16  C15 UNL     1       2.557   0.886  -0.875  1.00  0.00     0.110 A 
ENDROOT
BRANCH   9  17
HETATM   17  C5  UNL     1      -1.208  -1.167  -1.774  1.00  0.00     0.147 C 
BRANCH  17  18
HETATM   18  C6  UNL     1      -2.199  -0.461  -0.876  1.00  0.00     0.181 C 
HETATM   19  N5  UNL     1      -2.023  -0.335   0.394  1.00  0.00    -0.240 N 
HETATM   20  O1  UNL     1      -3.099   0.357   0.941  1.00  0.00    -0.238 OA
ATOM     21  H5  UNL     1      -1.221  -0.687   0.916  1.00  0.00     0.196 HD
HETATM   22  C7  UNL     1      -4.103   0.332  -0.030  1.00  0.00     0.197 C 
HETATM   23  C8  UNL     1      -5.076  -0.816   0.247  1.00  0.00     0.071 C 
HETATM   24  C11 UNL     1      -5.005   1.513  -0.037  1.00  0.00     0.071 C 
HETATM   25  O2  UNL     1      -3.398   0.138  -1.234  1.00  0.00    -0.293 OA
HETATM   26  C9  UNL     1      -5.831  -0.221   1.439  1.00  0.00     0.006 C 
HETATM   27  C10 UNL     1      -5.943   1.250   1.126  1.00  0.00     0.006 C 
ENDBRANCH  17  18
ENDBRANCH   9  17
BRANCH  13  28
HETATM   28  N7  UNL     1       3.994  -1.716   0.845  1.00  0.00    -0.386 NA
BRANCH  28  29
HETATM   29  C13 UNL     1       4.929  -2.360   1.538  1.00  0.00     0.185 C 
BRANCH  29  30
HETATM   30  C14 UNL     1       5.709  -1.537   2.571  1.00  0.00     0.223 C 
BRANCH  30  31
HETATM   31  O3  UNL     1       6.367  -0.489   1.931  1.00  0.00    -0.395 OA
ATOM     32  H3  UNL     1       6.850   0.021   2.571  1.00  0.00     0.209 HD
ENDBRANCH  30  31
ENDBRANCH  29  30
ENDBRANCH  28  29
ENDBRANCH  13  28
BRANCH   1  33
HETATM   33  N1  UNL     1       3.940   2.739  -0.992  1.00  0.00    -0.384 N 
ATOM     34  H12 UNL     1       4.148   3.694  -1.284  1.00  0.00     0.157 HD
ATOM     35  H11 UNL     1       4.658   2.247  -0.461  1.00  0.00     0.157 HD
ENDBRANCH   1  33
TORSDOF 7
