REMARK  4 active torsions:
REMARK  status: ('A' for Active; 'I' for Inactive)
REMARK    1  A    between atoms: N1_1  and  C1_4 
REMARK    2  A    between atoms: C4_11  and  C5_12 
REMARK    3  A    between atoms: C5_12  and  N4_13 
REMARK    4  A    between atoms: N4_13  and  C6_15 
ROOT
HETATM    1  C1  UNL     1      -1.443   0.735  -0.509  1.00  0.00     0.108 A 
HETATM    2  N2  UNL     1      -2.576   0.042  -0.342  1.00  0.00    -0.338 N 
ATOM      3  H2  UNL     1      -3.451   0.395  -0.730  1.00  0.00     0.168 HD
HETATM    4  C2  UNL     1      -2.563  -1.116   0.335  1.00  0.00     0.181 A 
HETATM    5  N3  UNL     1      -1.420  -1.587   0.848  1.00  0.00    -0.361 N 
ATOM      6  H3  UNL     1      -1.418  -2.468   1.362  1.00  0.00     0.166 HD
HETATM    7  C3  UNL     1      -0.272  -0.900   0.687  1.00  0.00     0.101 A 
HETATM    8  C4  UNL     1      -0.221   0.277   0.012  1.00  0.00     0.018 A 
ENDROOT
BRANCH   8   9
HETATM    9  C5  UNL     1       0.944   1.130  -0.217  1.00  0.00     0.165 C 
BRANCH   9  10
HETATM   10  N4  UNL     1       2.193   0.655   0.269  1.00  0.00    -0.364 N 
ATOM     11  H4  UNL     1       2.645   1.177   1.020  1.00  0.00     0.162 HD
BRANCH  10  12
HETATM   12  C6  UNL     1       2.849  -0.503  -0.228  1.00  0.00     0.348 C 
HETATM   13  O1  UNL     1       2.293  -1.141  -1.162  1.00  0.00    -0.284 OA
ENDBRANCH  10  12
ENDBRANCH   9  10
ENDBRANCH   8   9
BRANCH   1  14
HETATM   14  N1  UNL     1      -1.489   1.838  -1.162  1.00  0.00    -0.385 N 
ATOM     15  H12 UNL     1      -2.376   2.170  -1.540  1.00  0.00     0.157 HD
ATOM     16  H11 UNL     1      -0.626   2.366  -1.289  1.00  0.00     0.157 HD
ENDBRANCH   1  14
TORSDOF 4
