REMARK  4 active torsions:
REMARK  status: ('A' for Active; 'I' for Inactive)
REMARK    1  A    between atoms: N1_2  and  C2_5 
REMARK    2  A    between atoms: C2_5  and  C3_6 
REMARK    3  A    between atoms: C3_6  and  C4_7 
REMARK    4  A    between atoms: C4_7  and  C5_8 
ROOT
HETATM    1  C5  UNL     1       1.940  -0.578   0.458  1.00  0.00     0.044 A 
HETATM    2  C6  UNL     1       2.949  -1.187  -0.258  1.00  0.00     0.135 A 
HETATM    3  N2  UNL     1       4.111  -0.806   0.291  1.00  0.00    -0.296 N 
ATOM      4  H2  UNL     1       5.035  -1.097  -0.028  1.00  0.00     0.187 HD
HETATM    5  N3  UNL     1       3.877   0.000   1.303  1.00  0.00    -0.243 N 
ATOM      6  H3  UNL     1       4.579   0.437   1.900  1.00  0.00     0.208 HD
HETATM    7  N4  UNL     1       2.571   0.140   1.406  1.00  0.00    -0.289 N 
ATOM      8  H4  UNL     1       2.102   0.713   2.107  1.00  0.00     0.188 HD
ENDROOT
BRANCH   1   9
HETATM    9  C4  UNL     1       0.463  -0.679   0.245  1.00  0.00     0.062 C 
BRANCH   9  10
HETATM   10  C3  UNL     1       0.048   0.419  -0.711  1.00  0.00     0.033 C 
BRANCH  10  11
HETATM   11  C2  UNL     1      -1.442   0.360  -0.960  1.00  0.00     0.232 C 
BRANCH  11  12
HETATM   12  N1  UNL     1      -2.164   0.532   0.296  1.00  0.00    -0.079 N 
HETATM   13  C1  UNL     1      -3.586   0.484   0.110  1.00  0.00     0.266 C 
ATOM     14  H12 UNL     1      -1.882   1.390   0.771  1.00  0.00     0.276 HD
ATOM     15  H11 UNL     1      -1.859  -0.146   0.994  1.00  0.00     0.276 HD
ENDBRANCH  11  12
ENDBRANCH  10  11
ENDBRANCH   9  10
ENDBRANCH   1   9
TORSDOF 4
