REMARK  4 active torsions:
REMARK  status: ('A' for Active; 'I' for Inactive)
REMARK    1  A    between atoms: C2_2  and  C3_3 
REMARK    2  A    between atoms: C3_3  and  N1_4 
REMARK    3  A    between atoms: N1_4  and  C4_7 
REMARK    4  A    between atoms: C4_7  and  C5_8 
ROOT
HETATM    1  C5  UNL     1      -1.160   0.721  -0.175  1.00  0.00     0.238 C 
HETATM    2  C6  UNL     1      -1.735   0.750  -1.547  1.00  0.00     0.269 C 
HETATM    3  N2  UNL     1      -2.858  -0.141  -1.592  1.00  0.00    -0.049 N 
ATOM      4  H21 UNL     1      -2.732  -0.925  -2.232  1.00  0.00     0.279 HD
ATOM      5  H22 UNL     1      -3.678   0.258  -2.049  1.00  0.00     0.279 HD
HETATM    6  C7  UNL     1      -3.096  -0.543  -0.225  1.00  0.00     0.463 C 
HETATM    7  N3  UNL     1      -1.824  -0.400   0.459  1.00  0.00    -0.044 N 
ATOM      8  H31 UNL     1      -1.913  -0.303   1.471  1.00  0.00     0.279 HD
ATOM      9  H32 UNL     1      -1.266  -1.254   0.467  1.00  0.00     0.279 HD
ENDROOT
BRANCH   1  10
HETATM   10  C4  UNL     1       0.340   0.575  -0.175  1.00  0.00     0.267 C 
BRANCH  10  11
HETATM   11  N1  UNL     1       0.840   0.552   1.169  1.00  0.00    -0.070 N 
ATOM     12  H12 UNL     1       0.369  -0.172   1.711  1.00  0.00     0.277 HD
ATOM     13  H11 UNL     1       0.530   1.380   1.678  1.00  0.00     0.277 HD
BRANCH  11  14
HETATM   14  C3  UNL     1       2.257   0.407   1.270  1.00  0.00     0.259 C 
BRANCH  14  15
HETATM   15  C2  UNL     1       2.738  -0.935   0.835  1.00  0.00    -0.010 C 
HETATM   16  C1  UNL     1       3.604  -0.968  -0.191  1.00  0.00     0.008 C 
ENDBRANCH  14  15
ENDBRANCH  11  14
ENDBRANCH  10  11
ENDBRANCH   1  10
TORSDOF 4
