REMARK  4 active torsions:
REMARK  status: ('A' for Active; 'I' for Inactive)
REMARK    1  A    between atoms: N1_2  and  C2_5 
REMARK    2  A    between atoms: C2_5  and  C3_6 
REMARK    3  A    between atoms: C3_6  and  C4_7 
REMARK    4  A    between atoms: C4_7  and  N2_8 
ROOT
HETATM    1  N2  UNL     1       0.449   0.145   0.279  1.00  0.00    -0.362 N 
ATOM      2  H2  UNL     1      -0.082   0.924   0.668  1.00  0.00     0.162 HD
HETATM    3  C5  UNL     1       1.717   0.089   0.437  1.00  0.00     0.171 C 
HETATM    4  N3  UNL     1       2.594  -0.913  -0.035  1.00  0.00    -0.361 N 
ATOM      5  H3  UNL     1       2.336  -1.867  -0.286  1.00  0.00     0.162 HD
HETATM    6  C6  UNL     1       3.943  -0.336  -0.100  1.00  0.00     0.142 C 
HETATM    7  C7  UNL     1       3.874   0.980   0.639  1.00  0.00     0.142 C 
HETATM    8  N4  UNL     1       2.493   1.049   1.132  1.00  0.00    -0.361 N 
ATOM      9  H4  UNL     1       2.150   1.682   1.854  1.00  0.00     0.162 HD
ENDROOT
BRANCH   1  10
HETATM   10  C4  UNL     1      -0.227  -0.901  -0.454  1.00  0.00     0.124 C 
BRANCH  10  11
HETATM   11  C3  UNL     1      -1.724  -0.910  -0.213  1.00  0.00     0.047 C 
BRANCH  11  12
HETATM   12  C2  UNL     1      -2.360   0.391  -0.635  1.00  0.00     0.233 C 
BRANCH  12  13
HETATM   13  N1  UNL     1      -3.782   0.361  -0.393  1.00  0.00    -0.079 N 
HETATM   14  C1  UNL     1      -4.116   0.349   1.001  1.00  0.00     0.266 C 
ATOM     15  H12 UNL     1      -4.216  -0.424  -0.877  1.00  0.00     0.276 HD
ATOM     16  H11 UNL     1      -4.248   1.132  -0.872  1.00  0.00     0.276 HD
ENDBRANCH  12  13
ENDBRANCH  11  12
ENDBRANCH  10  11
ENDBRANCH   1  10
TORSDOF 4
