REMARK  4 active torsions:
REMARK  status: ('A' for Active; 'I' for Inactive)
REMARK    1  A    between atoms: C2_2  and  C3_3 
REMARK    2  A    between atoms: C3_3  and  N1_4 
REMARK    3  A    between atoms: N1_4  and  C4_7 
REMARK    4  A    between atoms: C4_7  and  C5_8 
ROOT
HETATM    1  C5  UNL     1       1.440  -0.834   0.143  1.00  0.00     0.408 C 
HETATM    2  N2  UNL     1       2.230  -0.111   1.118  1.00  0.00    -0.043 N 
ATOM      3  H21 UNL     1       2.318  -0.604   2.007  1.00  0.00     0.279 HD
ATOM      4  H22 UNL     1       1.761   0.721   1.476  1.00  0.00     0.279 HD
HETATM    5  C6  UNL     1       3.491   0.175   0.509  1.00  0.00     0.262 C 
HETATM    6  C7  UNL     1       3.325  -0.285  -0.918  1.00  0.00     0.262 C 
HETATM    7  N3  UNL     1       1.888  -0.205  -1.087  1.00  0.00    -0.043 N 
ATOM      8  H31 UNL     1       1.516   0.728  -1.266  1.00  0.00     0.279 HD
ATOM      9  H32 UNL     1       1.522  -0.610  -1.948  1.00  0.00     0.279 HD
ENDROOT
BRANCH   1  10
HETATM   10  C4  UNL     1      -0.026  -0.716   0.374  1.00  0.00     0.294 C 
BRANCH  10  11
HETATM   11  N1  UNL     1      -0.495   0.639   0.318  1.00  0.00    -0.071 N 
ATOM     12  H12 UNL     1      -0.257   1.072  -0.574  1.00  0.00     0.277 HD
ATOM     13  H11 UNL     1       0.045   1.239   0.942  1.00  0.00     0.277 HD
BRANCH  11  14
HETATM   14  C3  UNL     1      -1.893   0.751   0.584  1.00  0.00     0.232 C 
BRANCH  14  15
HETATM   15  C2  UNL     1      -2.788   0.160  -0.459  1.00  0.00     0.023 C 
HETATM   16  C1  UNL     1      -4.230   0.389   0.017  1.00  0.00     0.007 C 
ENDBRANCH  14  15
ENDBRANCH  11  14
ENDBRANCH  10  11
ENDBRANCH   1  10
TORSDOF 4
