REMARK  4 active torsions:
REMARK  status: ('A' for Active; 'I' for Inactive)
REMARK    1  A    between atoms: C2_4  and  C3_5 
REMARK    2  A    between atoms: C3_5  and  C4_6 
REMARK    3  A    between atoms: C4_6  and  N2_7 
REMARK    4  A    between atoms: N2_7  and  C5_10 
ROOT
HETATM    1  C4  UNL     1      -0.323  -0.059   0.754  1.00  0.00     0.241 C 
ENDROOT
BRANCH   1   2
HETATM    2  C3  UNL     1       0.432   0.401  -0.453  1.00  0.00     0.086 C 
BRANCH   2   3
HETATM    3  C2  UNL     1       1.843  -0.058  -0.383  1.00  0.00     0.027 A 
HETATM    4  N1  UNL     1       2.378  -1.199  -0.847  1.00  0.00    -0.355 N 
HETATM    5  C1  UNL     1       3.692  -1.240  -0.583  1.00  0.00     0.180 A 
ATOM      6  H1  UNL     1       1.858  -1.931  -1.332  1.00  0.00     0.166 HD
HETATM    7  N4  UNL     1       4.012  -0.104   0.062  1.00  0.00    -0.360 N 
HETATM    8  C7  UNL     1       2.902   0.644   0.202  1.00  0.00     0.114 A 
ATOM      9  H4  UNL     1       4.944   0.149   0.391  1.00  0.00     0.166 HD
ENDBRANCH   2   3
ENDBRANCH   1   2
BRANCH   1  10
HETATM   10  N2  UNL     1      -1.698   0.346   0.759  1.00  0.00    -0.044 N 
ATOM     11  H22 UNL     1      -2.110   0.207   1.682  1.00  0.00     0.279 HD
ATOM     12  H21 UNL     1      -1.774   1.361   0.689  1.00  0.00     0.279 HD
BRANCH  10  13
HETATM   13  C5  UNL     1      -2.499  -0.296  -0.259  1.00  0.00     0.408 A 
HETATM   14  C6  UNL     1      -3.958   0.112  -0.247  1.00  0.00     0.297 A 
HETATM   15  N3  UNL     1      -3.078   0.502  -1.313  1.00  0.00    -0.041 N 
ATOM     16  H32 UNL     1      -2.832   1.406  -1.717  1.00  0.00     0.279 HD
ATOM     17  H31 UNL     1      -3.121   0.392  -2.326  1.00  0.00     0.279 HD
ENDBRANCH  10  13
ENDBRANCH   1  10
TORSDOF 4
