REMARK  7 active torsions:
REMARK  status: ('A' for Active; 'I' for Inactive)
REMARK    1  A    between atoms: N1_2  and  C2_3 
REMARK    2  A    between atoms: N1_2  and  C8_11 
REMARK    3  A    between atoms: C2_3  and  C3_4 
REMARK    4  A    between atoms: C3_4  and  N2_5 
REMARK    5  A    between atoms: C12_17  and  O2_18 
REMARK    6  A    between atoms: C13_20  and  C14_21 
REMARK    7  A    between atoms: N3_22  and  N4_24 
ROOT
HETATM    1  C8  UNL     1       0.731   1.683   0.153  1.00  0.00     0.045 A 
HETATM    2  C9  UNL     1       0.268   2.842  -0.462  1.00  0.00     0.051 A 
HETATM    3  C10 UNL     1       1.099   3.711  -1.135  1.00  0.00     0.033 A 
HETATM    4 BR1  UNL     1       0.448   5.292  -1.973  1.00  0.00    -0.050 Br
HETATM    5  C11 UNL     1       2.448   3.445  -1.218  1.00  0.00     0.062 A 
HETATM    6 BR2  UNL     1       3.639   4.632  -2.148  1.00  0.00    -0.047 Br
HETATM    7  C12 UNL     1       2.920   2.302  -0.614  1.00  0.00     0.098 A 
HETATM    8  C13 UNL     1       2.076   1.419   0.069  1.00  0.00     0.042 A 
ENDROOT
BRANCH   1   9
HETATM    9  N1  UNL     1      -0.149   0.821   0.857  1.00  0.00    -0.383 N 
HETATM   10  C1  UNL     1      -0.019   0.739   2.297  1.00  0.00     0.150 C 
BRANCH   9  11
HETATM   11  C2  UNL     1      -1.170   0.014   0.226  1.00  0.00     0.141 C 
BRANCH  11  12
HETATM   12  C3  UNL     1      -2.521   0.528   0.602  1.00  0.00     0.136 C 
BRANCH  12  13
HETATM   13  N2  UNL     1      -3.608  -0.194   0.037  1.00  0.00    -0.407 N 
HETATM   14  C4  UNL     1      -3.794  -0.105  -1.366  1.00  0.00     0.143 C 
HETATM   15  C5  UNL     1      -4.224  -1.478  -1.889  1.00  0.00     0.187 C 
HETATM   16  O1  UNL     1      -5.404  -1.791  -1.223  1.00  0.00    -0.388 OA
HETATM   17  C6  UNL     1      -5.276  -1.908   0.138  1.00  0.00     0.187 C 
HETATM   18  C7  UNL     1      -3.928  -1.435   0.649  1.00  0.00     0.143 C 
ENDBRANCH  12  13
ENDBRANCH  11  12
ENDBRANCH   9  11
ENDBRANCH   1   9
BRANCH   8  19
HETATM   19  C14 UNL     1       2.647   0.216   0.663  1.00  0.00     0.123 C 
HETATM   20  N3  UNL     1       3.911  -0.069   0.608  1.00  0.00    -0.309 N 
ATOM     21  H3  UNL     1       4.544   0.572   0.129  1.00  0.00     0.186 HD
BRANCH  20  22
HETATM   22  N4  UNL     1       4.429  -1.232   1.188  1.00  0.00    -0.276 N 
HETATM   23  C15 UNL     1       4.937  -2.194   0.518  1.00  0.00     0.215 C 
HETATM   24  N5  UNL     1       5.446  -3.348   1.139  1.00  0.00    -0.065 NA
HETATM   25  N6  UNL     1       4.988  -2.086  -0.896  1.00  0.00    -0.065 NA
ATOM     26  H4  UNL     1       4.399  -1.317   2.204  1.00  0.00     0.189 HD
ENDBRANCH  20  22
ENDBRANCH   8  19
BRANCH   7  27
HETATM   27  O2  UNL     1       4.284   2.029  -0.698  1.00  0.00    -0.358 OA
ATOM     28  H2  UNL     1       4.610   1.240  -0.281  1.00  0.00     0.217 HD
ENDBRANCH   7  27
TORSDOF 7
