REMARK  8 active torsions:
REMARK  status: ('A' for Active; 'I' for Inactive)
REMARK    1  A    between atoms: S1_2  and  C2_3 
REMARK    2  A    between atoms: C2_3  and  C3_4 
REMARK    3  A    between atoms: C3_4  and  C4_5 
REMARK    4  A    between atoms: C4_5  and  C5_6 
REMARK    5  A    between atoms: C6_10  and  O1_11 
REMARK    6  A    between atoms: C12_22  and  O3_23 
REMARK    7  A    between atoms: C13_25  and  C14_26 
REMARK    8  A    between atoms: C17_31  and  O4_32 
ROOT
HETATM    1  C5  UNL     1       1.549  -0.443  -0.340  1.00  0.00     0.195 C 
HETATM    2  F1  UNL     1       2.307  -0.840   0.823  1.00  0.00    -0.218 F 
HETATM    3  N1  UNL     1       0.508   0.298   0.399  1.00  0.00    -0.336 N 
ATOM      4  H1  UNL     1      -0.061  -0.283   1.015  1.00  0.00     0.164 HD
HETATM    5  C6  UNL     1       0.169   1.625   0.407  1.00  0.00     0.132 C 
HETATM    6  C7  UNL     1      -0.301   2.514  -0.686  1.00  0.00     0.209 C 
HETATM    7  N2  UNL     1      -1.311   3.455  -0.165  1.00  0.00    -0.347 N 
HETATM    8  C8  UNL     1      -1.337   4.763  -0.791  1.00  0.00     0.153 C 
HETATM    9  C9  UNL     1      -2.207   3.146   0.876  1.00  0.00     0.242 C 
HETATM   10  O2  UNL     1      -2.436   4.055   1.741  1.00  0.00    -0.271 OA
HETATM   11  C10 UNL     1      -2.915   1.841   1.052  1.00  0.00     0.172 C 
HETATM   12  C11 UNL     1      -4.248   2.172   1.758  1.00  0.00     0.042 C 
HETATM   13  N3  UNL     1      -3.159   1.213  -0.231  1.00  0.00    -0.356 N 
ATOM     14  H3  UNL     1      -3.095   1.840  -1.033  1.00  0.00     0.162 HD
HETATM   15  C12 UNL     1      -3.465  -0.101  -0.543  1.00  0.00     0.160 C 
HETATM   16  C13 UNL     1      -2.714  -1.362  -0.262  1.00  0.00     0.065 C 
HETATM   17  N4  UNL     1      -1.573  -1.524  -1.124  1.00  0.00    -0.339 N 
ATOM     18  H4  UNL     1      -1.823  -1.113  -2.023  1.00  0.00     0.167 HD
HETATM   19  C17 UNL     1      -0.313  -1.989  -1.246  1.00  0.00     0.132 C 
HETATM   20  C18 UNL     1       1.113  -1.617  -1.063  1.00  0.00     0.110 A 
HETATM   21  C19 UNL     1       1.777  -1.801  -2.479  1.00  0.00     0.029 A 
HETATM   22  C20 UNL     1       2.590  -2.940  -2.016  1.00  0.00     0.040 A 
HETATM   23  C21 UNL     1       1.983  -2.803  -0.662  1.00  0.00     0.191 A 
HETATM   24  F2  UNL     1       1.272  -3.911  -0.195  1.00  0.00    -0.248 F 
ENDROOT
BRANCH   1  25
HETATM   25  C4  UNL     1       2.438   0.578  -0.927  1.00  0.00     0.069 C 
BRANCH  25  26
HETATM   26  C3  UNL     1       3.819   0.340  -1.308  1.00  0.00     0.015 C 
BRANCH  26  27
HETATM   27  C2  UNL     1       4.761  -0.092  -0.207  1.00  0.00     0.073 C 
BRANCH  27  28
HETATM   28  S1  UNL     1       4.893   1.078   1.134  1.00  0.00    -0.173 SA
HETATM   29  C1  UNL     1       6.057   0.392   2.350  1.00  0.00     0.089 C 
ENDBRANCH  27  28
ENDBRANCH  26  27
ENDBRANCH  25  26
ENDBRANCH   1  25
BRANCH   5  30
HETATM   30  O1  UNL     1       0.249   2.274   1.533  1.00  0.00    -0.348 OA
ATOM     31  H1  UNL     1       0.014   3.194   1.539  1.00  0.00     0.219 HD
ENDBRANCH   5  30
BRANCH  19  32
HETATM   32  O4  UNL     1      -0.293  -3.247  -1.708  1.00  0.00    -0.349 OA
ATOM     33  H4  UNL     1       0.595  -3.575  -1.794  1.00  0.00     0.219 HD
ENDBRANCH  19  32
BRANCH  16  34
HETATM   34  C14 UNL     1      -2.650  -1.754   1.153  1.00  0.00     0.032 C 
HETATM   35  C15 UNL     1      -4.086  -1.947   1.651  1.00  0.00     0.016 C 
HETATM   36  C16 UNL     1      -2.034  -3.156   1.224  1.00  0.00     0.016 C 
ENDBRANCH  16  34
BRANCH  15  37
HETATM   37  O3  UNL     1      -4.591  -0.220  -1.183  1.00  0.00    -0.345 OA
ATOM     38  H3  UNL     1      -4.801  -1.121  -1.397  1.00  0.00     0.219 HD
ENDBRANCH  15  37
TORSDOF 8
