REMARK  9 active torsions:
REMARK  status: ('A' for Active; 'I' for Inactive)
REMARK    1  A    between atoms: O1_2  and  C2_3 
REMARK    2  A    between atoms: C2_3  and  O2_4 
REMARK    3  A    between atoms: O2_4  and  C3_5 
REMARK    4  A    between atoms: C3_5  and  C4_7 
REMARK    5  A    between atoms: C12_17  and  C13_18 
REMARK    6  A    between atoms: C15_21  and  C16_22 
REMARK    7  A    between atoms: C20_28  and  O7_29 
REMARK    8  A    between atoms: C21_31  and  C22_32 
REMARK    9  A    between atoms: C22_32  and  O8_33 
ROOT
HETATM    1  C4  UNL     1       2.421   0.133  -1.429  1.00  0.00     0.198 C 
HETATM    2  F1  UNL     1       2.197   1.070  -2.477  1.00  0.00    -0.231 F 
HETATM    3  C5  UNL     1       2.873  -1.112  -2.186  1.00  0.00     0.058 C 
HETATM    4  C6  UNL     1       2.194  -2.291  -1.586  1.00  0.00     0.048 C 
HETATM    5  C7  UNL     1       1.263  -1.780  -0.508  1.00  0.00     0.111 C 
HETATM    6  F2  UNL     1       1.922  -2.029   0.696  1.00  0.00    -0.242 F 
HETATM    7  C8  UNL     1      -0.015  -2.524  -0.458  1.00  0.00     0.045 C 
HETATM    8  C9  UNL     1      -1.269  -1.806  -0.843  1.00  0.00     0.019 C 
HETATM    9  C10 UNL     1      -1.749  -0.767   0.074  1.00  0.00     0.026 C 
HETATM   10  C11 UNL     1      -1.634  -1.142   1.539  1.00  0.00     0.022 C 
HETATM   11  C12 UNL     1      -3.143  -0.270  -0.086  1.00  0.00     0.102 C 
HETATM   12  C15 UNL     1      -2.981   1.182   0.415  1.00  0.00     0.172 C 
HETATM   13  O6  UNL     1      -1.685   1.273   0.922  1.00  0.00    -0.343 OA
HETATM   14  C20 UNL     1      -1.004   0.554  -0.097  1.00  0.00     0.177 C 
HETATM   15  C21 UNL     1       0.458   0.422   0.201  1.00  0.00     0.083 C 
HETATM   16  C23 UNL     1       1.156  -0.324  -0.842  1.00  0.00     0.086 C 
ENDROOT
BRANCH   1  17
HETATM   17  C3  UNL     1       3.523   0.557  -0.591  1.00  0.00     0.301 C 
HETATM   18  O3  UNL     1       4.103   1.643  -0.846  1.00  0.00    -0.261 OA
BRANCH  17  19
HETATM   19  O2  UNL     1       4.033  -0.111   0.495  1.00  0.00    -0.293 OA
BRANCH  19  20
HETATM   20  C2  UNL     1       5.112   0.348   1.282  1.00  0.00     0.347 C 
BRANCH  20  21
HETATM   21  O1  UNL     1       6.218   0.470   0.451  1.00  0.00    -0.371 OA
HETATM   22  C1  UNL     1       7.343   0.921   1.142  1.00  0.00     0.204 C 
ENDBRANCH  20  21
ENDBRANCH  19  20
ENDBRANCH  17  19
ENDBRANCH   1  17
BRANCH  15  23
HETATM   23  C22 UNL     1       0.935   1.801   0.538  1.00  0.00     0.174 C 
BRANCH  23  24
HETATM   24  O8  UNL     1       0.764   2.720  -0.484  1.00  0.00    -0.400 OA
ATOM     25  H8  UNL     1       1.067   3.595  -0.270  1.00  0.00     0.209 HD
ENDBRANCH  23  24
ENDBRANCH  15  23
BRANCH  14  26
HETATM   26  O7  UNL     1      -1.301   1.212  -1.247  1.00  0.00    -0.364 OA
ATOM     27  H7  UNL     1      -0.837   2.034  -1.353  1.00  0.00     0.213 HD
ENDBRANCH  14  26
BRANCH  11  28
HETATM   28  C13 UNL     1      -3.773  -0.322  -1.386  1.00  0.00     0.131 C 
HETATM   29  C14 UNL     1      -4.067  -1.568  -2.106  1.00  0.00     0.091 C 
HETATM   30  O4  UNL     1      -4.091   0.713  -1.945  1.00  0.00    -0.298 OA
ENDBRANCH  11  28
BRANCH  12  31
HETATM   31  C16 UNL     1      -4.002   1.560   1.391  1.00  0.00    -0.004 A 
HETATM   32  C17 UNL     1      -3.923   2.647   2.229  1.00  0.00     0.036 A 
HETATM   33  C18 UNL     1      -5.086   2.643   2.981  1.00  0.00     0.142 A 
HETATM   34  O5  UNL     1      -5.788   1.611   2.593  1.00  0.00    -0.334 OA
HETATM   35  C19 UNL     1      -5.180   0.939   1.648  1.00  0.00     0.151 A 
ENDBRANCH  12  31
TORSDOF 9
