REMARK  7 active torsions:
REMARK  status: ('A' for Active; 'I' for Inactive)
REMARK    1  A    between atoms: O1_2  and  C2_3 
REMARK    2  A    between atoms: C6_10  and  N2_11 
REMARK    3  A    between atoms: C7_16  and  O3_17 
REMARK    4  A    between atoms: O3_17  and  C8_18 
REMARK    5  A    between atoms: C8_18  and  C9_19 
REMARK    6  A    between atoms: C11_21  and  C12_22 
REMARK    7  A    between atoms: C19_33  and  O6_34 
ROOT
HETATM    1  C2  UNL     1      -5.083   1.044  -0.540  1.00  0.00     0.104 A 
HETATM    2  C3  UNL     1      -4.775  -0.299  -0.466  1.00  0.00     0.078 A 
HETATM    3  C4  UNL     1      -3.477  -0.746  -0.292  1.00  0.00     0.095 A 
HETATM    4  O2  UNL     1      -3.183  -2.026  -0.222  1.00  0.00    -0.291 OA
HETATM    5  C5  UNL     1      -1.980  -2.497  -0.058  1.00  0.00     0.181 A 
HETATM    6  N1  UNL     1      -1.711  -3.820   0.010  1.00  0.00    -0.169 N 
ATOM      7  H1  UNL     1      -2.486  -4.478  -0.071  1.00  0.00     0.186 HD
HETATM    8  C6  UNL     1      -0.469  -4.310   0.179  1.00  0.00     0.679 A 
HETATM    9  N3  UNL     1       0.539  -3.427   0.283  1.00  0.00    -0.170 N 
ATOM     10  H3  UNL     1       1.490  -3.774   0.412  1.00  0.00     0.186 HD
HETATM   11  C7  UNL     1       0.333  -2.113   0.223  1.00  0.00     0.176 A 
HETATM   12  C15 UNL     1      -0.940  -1.598   0.049  1.00  0.00     0.118 A 
HETATM   13  C16 UNL     1      -1.199  -0.244  -0.018  1.00  0.00     0.203 A 
HETATM   14  O5  UNL     1      -0.250   0.573   0.080  1.00  0.00    -0.286 OA
HETATM   15  C17 UNL     1      -2.495   0.219  -0.193  1.00  0.00     0.052 A 
HETATM   16  C18 UNL     1      -2.806   1.561  -0.267  1.00  0.00     0.058 A 
HETATM   17  C19 UNL     1      -4.100   2.008  -0.442  1.00  0.00     0.102 A 
ENDROOT
BRANCH  11  18
HETATM   18  O3  UNL     1       1.353  -1.160   0.326  1.00  0.00    -0.332 OA
BRANCH  18  19
HETATM   19  C8  UNL     1       2.660  -1.667   0.503  1.00  0.00     0.209 C 
BRANCH  19  20
HETATM   20  C9  UNL     1       3.694  -0.584   0.605  1.00  0.00     0.146 C 
HETATM   21  C10 UNL     1       3.864   0.168  -0.702  1.00  0.00     0.041 C 
HETATM   22  C11 UNL     1       5.063   1.079  -0.597  1.00  0.00     0.022 C 
HETATM   23  C13 UNL     1       5.292   1.563   0.809  1.00  0.00     0.111 C 
HETATM   24 CL2  UNL     1       5.942   3.205   0.867  1.00  0.00    -0.122 Cl
HETATM   25  C14 UNL     1       3.934   1.536   1.508  1.00  0.00     0.188 C 
HETATM   26  O4  UNL     1       3.450   0.262   1.676  1.00  0.00    -0.382 OA
BRANCH  22  27
HETATM   27  C12 UNL     1       6.297   0.354  -1.053  1.00  0.00     0.121 C 
HETATM   28 CL1  UNL     1       6.164  -0.186  -2.744  1.00  0.00    -0.130 Cl
ENDBRANCH  22  27
ENDBRANCH  19  20
ENDBRANCH  18  19
ENDBRANCH  11  18
BRANCH   8  29
HETATM   29  N2  UNL     1      -0.249  -5.601   0.240  1.00  0.00    -0.234 N 
ATOM     30  H22 UNL     1      -1.014  -6.271   0.161  1.00  0.00     0.174 HD
ATOM     31  H21 UNL     1       0.692  -5.972   0.368  1.00  0.00     0.174 HD
ENDBRANCH   8  29
BRANCH  17  32
HETATM   32  O6  UNL     1      -4.414   3.361  -0.516  1.00  0.00    -0.353 OA
HETATM   33  C20 UNL     1      -3.348   4.289  -0.406  1.00  0.00     0.210 C 
ENDBRANCH  17  32
BRANCH   1  34
HETATM   34  O1  UNL     1      -6.385   1.488  -0.715  1.00  0.00    -0.353 OA
HETATM   35  C1  UNL     1      -7.484   0.589  -0.830  1.00  0.00     0.210 C 
ENDBRANCH   1  34
TORSDOF 7
