REMARK  7 active torsions:
REMARK  status: ('A' for Active; 'I' for Inactive)
REMARK    1  A    between atoms: C2_2  and  C4_4 
REMARK    2  A    between atoms: C6_6  and  N1_7 
REMARK    3  A    between atoms: C8_9  and  N2_10 
REMARK    4  A    between atoms: C10_12  and  C11_13 
REMARK    5  A    between atoms: C12_16  and  N4_17 
REMARK    6  A    between atoms: C14_19  and  N5_20 
REMARK    7  A    between atoms: C20_33  and  C21_34 
ROOT
HETATM    1  N2  UNL     1       1.030  -0.223   1.168  1.00  0.00    -0.294 N 
HETATM    2  C9  UNL     1       1.914  -0.205   2.171  1.00  0.00     0.131 A 
HETATM    3  C10 UNL     1       3.216   0.023   1.676  1.00  0.00     0.091 A 
HETATM    4  C12 UNL     1       3.033   0.138   0.328  1.00  0.00     0.135 A 
HETATM    5  N6  UNL     1       1.699  -0.018   0.068  1.00  0.00    -0.282 N 
ATOM      6  H6  UNL     1       1.283   0.021  -0.863  1.00  0.00     0.189 HD
ENDROOT
BRANCH   1   7
HETATM    7  C8  UNL     1      -0.393  -0.438   1.368  1.00  0.00     0.125 C 
HETATM    8  C7  UNL     1      -1.140  -0.256   0.077  1.00  0.00     0.152 C 
HETATM    9  N1  UNL     1      -2.413  -0.904   0.220  1.00  0.00    -0.353 N 
HETATM   10  C20 UNL     1      -2.427  -2.337   0.309  1.00  0.00     0.090 C 
HETATM   11  C19 UNL     1      -1.089  -2.818   0.879  1.00  0.00     0.028 C 
HETATM   12  C18 UNL     1      -0.709  -1.792   1.933  1.00  0.00     0.031 C 
BRANCH   9  13
HETATM   13  C6  UNL     1      -3.591  -0.141   0.276  1.00  0.00     0.170 A 
HETATM   14  C5  UNL     1      -3.722   1.248   0.190  1.00  0.00     0.085 A 
HETATM   15  C4  UNL     1      -5.059   1.551   0.294  1.00  0.00     0.040 A 
HETATM   16  N7  UNL     1      -5.688   0.396   0.434  1.00  0.00    -0.263 N 
HETATM   17  O2  UNL     1      -4.842  -0.552   0.421  1.00  0.00    -0.220 OA
ATOM     18  H7  UNL     1      -6.697   0.284   0.537  1.00  0.00     0.194 HD
BRANCH  15  19
HETATM   19  C2  UNL     1      -5.634   2.907   0.252  1.00  0.00     0.029 C 
HETATM   20  C1  UNL     1      -6.377   3.256   1.522  1.00  0.00     0.016 C 
HETATM   21  C3  UNL     1      -6.625   3.073  -0.891  1.00  0.00     0.016 C 
ENDBRANCH  15  19
ENDBRANCH   9  13
BRANCH  10  22
HETATM   22  C21 UNL     1      -2.715  -3.071  -0.945  1.00  0.00     0.000 C 
HETATM   23  C22 UNL     1      -1.759  -2.817  -2.066  1.00  0.00     0.011 C 
HETATM   24  C23 UNL     1      -4.120  -2.929  -1.472  1.00  0.00     0.011 C 
ENDBRANCH  10  22
ENDBRANCH   1   7
BRANCH   3  25
HETATM   25  C11 UNL     1       4.415   0.090   2.488  1.00  0.00     0.270 C 
HETATM   26  N3  UNL     1       4.303   0.010   3.897  1.00  0.00    -0.057 NA
HETATM   27  O1  UNL     1       5.532   0.215   1.973  1.00  0.00    -0.271 OA
ENDBRANCH   3  25
BRANCH   4  28
HETATM   28  N4  UNL     1       4.028   0.412  -0.666  1.00  0.00    -0.358 N 
HETATM   29  C13 UNL     1       4.523   1.753  -0.749  1.00  0.00     0.157 C 
HETATM   30  C14 UNL     1       5.799   1.918  -1.474  1.00  0.00     0.207 C 
HETATM   31  C15 UNL     1       6.128   0.801  -2.422  1.00  0.00     0.115 C 
HETATM   32  C16 UNL     1       5.843  -0.558  -1.898  1.00  0.00     0.261 C 
HETATM   33  F1  UNL     1       6.021  -1.437  -2.986  1.00  0.00    -0.204 F 
HETATM   34  F2  UNL     1       6.765  -0.974  -0.961  1.00  0.00    -0.204 F 
HETATM   35  C17 UNL     1       4.423  -0.685  -1.493  1.00  0.00     0.203 C 
BRANCH  30  36
HETATM   36  N5  UNL     1       6.911   2.195  -0.602  1.00  0.00    -0.073 N 
ATOM     37  H53 UNL     1       6.719   3.006  -0.014  1.00  0.00     0.274 HD
ATOM     38  H52 UNL     1       6.993   1.480   0.121  1.00  0.00     0.274 HD
ATOM     39  H51 UNL     1       7.792   2.309  -1.103  1.00  0.00     0.274 HD
ENDBRANCH  30  36
ENDBRANCH   4  28
TORSDOF 7
