REMARK  9 active torsions:
REMARK  status: ('A' for Active; 'I' for Inactive)
REMARK    1  A    between atoms: O1_3  and  C2_4 
REMARK    2  A    between atoms: C2_4  and  C3_5 
REMARK    3  A    between atoms: C3_5  and  N2_6 
REMARK    4  A    between atoms: N2_6  and  C4_8 
REMARK    5  A    between atoms: C5_11  and  N4_12 
REMARK    6  A    between atoms: C6_17  and  N6_18 
REMARK    7  A    between atoms: N6_18  and  C7_20 
REMARK    8  A    between atoms: C10_26  and  C11_27 
REMARK    9  A    between atoms: C11_27  and  O2_28 
ROOT
HETATM    1  N1  UNL     1       7.075  -0.549   1.773  1.00  0.00    -0.164 NA
HETATM    2  C1  UNL     1       6.828  -0.294   0.669  1.00  0.00     0.228 C 
HETATM    3  O1  UNL     1       6.534   0.034  -0.639  1.00  0.00    -0.282 OA
ENDROOT
BRANCH   3   4
HETATM    4  C2  UNL     1       5.191   0.138  -1.026  1.00  0.00     0.210 C 
BRANCH   4   5
HETATM    5  C3  UNL     1       4.501   1.214  -0.203  1.00  0.00     0.165 C 
BRANCH   5   6
HETATM    6  N2  UNL     1       3.119   1.368  -0.554  1.00  0.00    -0.223 N 
ATOM      7  H2  UNL     1       2.877   2.122  -1.197  1.00  0.00     0.177 HD
BRANCH   6   8
HETATM    8  C4  UNL     1       2.168   0.633  -0.123  1.00  0.00     0.707 A 
HETATM    9  N3  UNL     1       2.458  -0.367   0.726  1.00  0.00    -0.022 N 
HETATM   10  C5  UNL     1       1.428  -1.131   1.168  1.00  0.00     0.705 A 
ATOM     11  H3  UNL     1       3.416  -0.545   1.027  1.00  0.00     0.203 HD
HETATM   12  N5  UNL     1       0.177  -0.883   0.763  1.00  0.00    -0.022 N 
HETATM   13  C6  UNL     1      -0.108   0.116  -0.084  1.00  0.00     0.707 A 
ATOM     14  H5  UNL     1      -0.581  -1.471   1.109  1.00  0.00     0.203 HD
HETATM   15  N8  UNL     1       0.891   0.872  -0.525  1.00  0.00    -0.022 N 
ATOM     16  H8  UNL     1       0.699   1.638  -1.170  1.00  0.00     0.203 HD
BRANCH  10  17
HETATM   17  N4  UNL     1       1.722  -2.095   1.988  1.00  0.00    -0.234 N 
ATOM     18  H42 UNL     1       2.676  -2.284   2.297  1.00  0.00     0.174 HD
ATOM     19  H41 UNL     1       0.947  -2.669   2.320  1.00  0.00     0.174 HD
ENDBRANCH  10  17
BRANCH  13  20
HETATM   20  N6  UNL     1      -1.308   0.373  -0.487  1.00  0.00    -0.218 N 
ATOM     21  H6  UNL     1      -1.430   1.154  -1.132  1.00  0.00     0.178 HD
BRANCH  20  22
HETATM   22  C7  UNL     1      -2.477  -0.350  -0.101  1.00  0.00     0.132 C 
HETATM   23  C8  UNL     1      -2.788  -1.502  -1.040  1.00  0.00     0.258 C 
HETATM   24  N7  UNL     1      -4.202  -1.507  -1.257  1.00  0.00    -0.073 N 
HETATM   25  C9  UNL     1      -4.788  -0.524  -0.364  1.00  0.00     0.241 C 
ATOM     26  H72 UNL     1      -4.454  -1.356  -2.234  1.00  0.00     0.277 HD
ATOM     27  H71 UNL     1      -4.616  -2.433  -1.154  1.00  0.00     0.277 HD
HETATM   28  C10 UNL     1      -3.706   0.536  -0.333  1.00  0.00     0.060 C 
BRANCH  28  29
HETATM   29  C11 UNL     1      -3.902   1.501   0.808  1.00  0.00     0.172 C 
BRANCH  29  30
HETATM   30  O2  UNL     1      -5.032   2.261   0.513  1.00  0.00    -0.400 OA
ATOM     31  H2  UNL     1      -5.156   2.869   1.232  1.00  0.00     0.209 HD
ENDBRANCH  29  30
ENDBRANCH  28  29
ENDBRANCH  20  22
ENDBRANCH  13  20
ENDBRANCH   6   8
ENDBRANCH   5   6
ENDBRANCH   4   5
ENDBRANCH   3   4
TORSDOF 9
