REMARK  5 active torsions:
REMARK  status: ('A' for Active; 'I' for Inactive)
REMARK    1  A    between atoms: C2_3  and  C3_4 
REMARK    2  A    between atoms: C3_4  and  N2_5 
REMARK    3  A    between atoms: N2_5  and  N3_6 
REMARK       I    between atoms: N3_6  and  C4_8 
REMARK    4  A    between atoms: C4_8  and  C5_10 
REMARK    5  A    between atoms: C5_10  and  N4_11 
ROOT
HETATM    1  N1  UNL     1       7.466  -0.558  -0.739  1.00  0.00    -0.197 NA
HETATM    2  C1  UNL     1       6.570  -0.344  -0.038  1.00  0.00     0.060 C 
HETATM    3  C2  UNL     1       5.431  -0.044   0.855  1.00  0.00     0.141 C 
ENDROOT
BRANCH   3   4
HETATM    4  C3  UNL     1       4.210   0.038  -0.062  1.00  0.00     0.149 C 
BRANCH   4   5
HETATM    5  N2  UNL     1       2.990   0.339   0.700  1.00  0.00    -0.138 NA
BRANCH   5   6
HETATM    6  N3  UNL     1       1.972   0.438  -0.248  1.00  0.00    -0.273 N 
HETATM    7  C4  UNL     1       0.874  -0.465  -0.288  1.00  0.00     0.251 C 
HETATM    8  O1  UNL     1       0.814  -1.389   0.565  1.00  0.00    -0.270 OA
ATOM      9  H3  UNL     1       2.017   1.187  -0.939  1.00  0.00     0.185 HD
BRANCH   7  10
HETATM   10  C5  UNL     1      -0.174  -0.316  -1.315  1.00  0.00     0.239 C 
BRANCH  10  11
HETATM   11  N4  UNL     1      -1.304   0.469  -0.864  1.00  0.00    -0.274 N 
HETATM   12  C6  UNL     1      -1.456   1.799  -0.972  1.00  0.00     0.329 A 
HETATM   13  O2  UNL     1      -0.672   2.647  -1.466  1.00  0.00    -0.246 OA
HETATM   14  N5  UNL     1      -2.643   2.156  -0.447  1.00  0.00    -0.300 N 
HETATM   15  C7  UNL     1      -3.282   1.044   0.014  1.00  0.00     0.150 A 
ATOM     16  H5  UNL     1      -3.007   3.108  -0.401  1.00  0.00     0.171 HD
HETATM   17  C8  UNL     1      -4.506   0.846   0.629  1.00  0.00     0.290 A 
HETATM   18  C10 UNL     1      -2.422   0.003  -0.259  1.00  0.00     0.160 A 
HETATM   19  O3  UNL     1      -5.263   1.828   0.860  1.00  0.00    -0.265 OA
HETATM   20  N6  UNL     1      -4.890  -0.396   0.981  1.00  0.00    -0.154 N 
HETATM   21  C9  UNL     1      -4.031  -1.406   0.704  1.00  0.00     0.680 A 
ATOM     22  H6  UNL     1      -5.787  -0.568   1.435  1.00  0.00     0.187 HD
HETATM   23  N7  UNL     1      -4.390  -2.605   1.041  1.00  0.00    -0.234 N 
HETATM   24  N8  UNL     1      -2.843  -1.233   0.110  1.00  0.00    -0.174 N 
ATOM     25  H72 UNL     1      -5.295  -2.737   1.493  1.00  0.00     0.174 HD
ATOM     26  H71 UNL     1      -3.743  -3.366   0.832  1.00  0.00     0.174 HD
ATOM     27  H8  UNL     1      -2.247  -2.041  -0.067  1.00  0.00     0.186 HD
ENDBRANCH  10  11
ENDBRANCH   7  10
ENDBRANCH   5   6
ENDBRANCH   4   5
ENDBRANCH   3   4
TORSDOF 5
