REMARK  4 active torsions:
REMARK  status: ('A' for Active; 'I' for Inactive)
REMARK    1  A    between atoms: C2_2  and  N1_4 
REMARK    2  A    between atoms: N1_4  and  N2_6 
REMARK    3  A    between atoms: C4_8  and  C5_9 
REMARK    4  A    between atoms: C9_13  and  C10_14 
ROOT
HETATM    1  C5  UNL     1       0.785  -0.133  -0.404  1.00  0.00    -0.018 A 
HETATM    2  C6  UNL     1       0.993   0.715  -1.471  1.00  0.00     0.013 A 
HETATM    3  C7  UNL     1       2.278   1.147  -1.725  1.00  0.00     0.002 A 
HETATM    4  C8  UNL     1       3.317   0.730  -0.922  1.00  0.00     0.015 A 
HETATM    5  C9  UNL     1       3.127  -0.133   0.169  1.00  0.00     0.005 A 
HETATM    6  C11 UNL     1       1.846  -0.557   0.415  1.00  0.00     0.027 A 
ENDROOT
BRANCH   1   7
HETATM    7  C4  UNL     1      -0.570  -0.585  -0.138  1.00  0.00     0.118 C 
HETATM    8  N2  UNL     1      -1.523  -0.183  -0.901  1.00  0.00    -0.315 N 
ATOM      9  H2  UNL     1      -1.346   0.445  -1.685  1.00  0.00     0.185 HD
BRANCH   8  10
HETATM   10  N1  UNL     1      -2.813  -0.641  -0.613  1.00  0.00    -0.333 N 
ATOM     11  H1  UNL     1      -3.253  -1.373  -1.171  1.00  0.00     0.180 HD
BRANCH  10  12
HETATM   12  C2  UNL     1      -3.496  -0.038   0.503  1.00  0.00     0.091 C 
HETATM   13  C1  UNL     1      -3.670   1.432   0.319  1.00  0.00     0.033 C 
HETATM   14  C3  UNL     1      -4.778  -0.765   0.822  1.00  0.00     0.033 C 
ENDBRANCH  10  12
ENDBRANCH   8  10
ENDBRANCH   1   7
BRANCH   5  15
HETATM   15  C10 UNL     1       4.242  -0.547   0.986  1.00  0.00     0.120 C 
HETATM   16  N3  UNL     1       4.089  -1.324   1.973  1.00  0.00    -0.387 N 
ATOM     17  H32 UNL     1       3.156  -1.669   2.199  1.00  0.00     0.157 HD
ATOM     18  H31 UNL     1       4.877  -1.617   2.551  1.00  0.00     0.157 HD
HETATM   19  N4  UNL     1       5.541  -0.067   0.672  1.00  0.00    -0.082 NA
ENDBRANCH   5  15
TORSDOF 4
