REMARK  5 active torsions:
REMARK  status: ('A' for Active; 'I' for Inactive)
REMARK    1  A    between atoms: C2_2  and  N1_3 
REMARK    2  A    between atoms: C2_2  and  C11_17 
REMARK    3  A    between atoms: N1_3  and  C3_5 
REMARK    4  A    between atoms: C3_5  and  C4_6 
REMARK    5  A    between atoms: C3_5  and  C5_11 
ROOT
HETATM    1  C3  UNL     1       0.057   0.254   0.230  1.00  0.00     0.175 C 
ENDROOT
BRANCH   1   2
HETATM    2  N1  UNL     1      -0.701  -0.868  -0.079  1.00  0.00    -0.396 N 
ATOM      3  H1  UNL     1      -0.206  -1.739  -0.273  1.00  0.00     0.155 HD
BRANCH   2   4
HETATM    4  C2  UNL     1      -2.092  -0.882  -0.141  1.00  0.00     0.163 C 
HETATM    5  C1  UNL     1      -2.746  -0.104  -1.214  1.00  0.00     0.041 C 
BRANCH   4   6
HETATM    6  C11 UNL     1      -2.725  -0.530   1.179  1.00  0.00     0.253 C 
HETATM    7  N4  UNL     1      -4.052  -0.071   1.302  1.00  0.00    -0.060 NA
HETATM    8  O1  UNL     1      -2.019  -0.647   2.207  1.00  0.00    -0.275 OA
ENDBRANCH   4   6
ENDBRANCH   2   4
ENDBRANCH   1   2
BRANCH   1   9
HETATM    9  C4  UNL     1       0.058   1.405  -0.695  1.00  0.00     0.114 C 
HETATM   10  N2  UNL     1      -0.453   2.562  -0.382  1.00  0.00    -0.389 N 
ATOM     11  H22 UNL     1      -0.878   2.652   0.541  1.00  0.00     0.157 HD
ATOM     12  H21 UNL     1      -0.452   3.357  -1.021  1.00  0.00     0.157 HD
HETATM   13  N3  UNL     1       0.646   1.280  -1.970  1.00  0.00    -0.086 NA
ENDBRANCH   1   9
BRANCH   1  14
HETATM   14  C5  UNL     1       1.516  -0.122   0.358  1.00  0.00    -0.029 A 
HETATM   15  C6  UNL     1       2.282   0.289   1.445  1.00  0.00     0.009 A 
HETATM   16  C7  UNL     1       3.618  -0.004   1.571  1.00  0.00     0.001 A 
HETATM   17  C8  UNL     1       4.241  -0.750   0.568  1.00  0.00     0.000 A 
HETATM   18  C9  UNL     1       3.506  -1.173  -0.527  1.00  0.00     0.001 A 
HETATM   19  C10 UNL     1       2.172  -0.851  -0.603  1.00  0.00     0.009 A 
ENDBRANCH   1  14
TORSDOF 5
