REMARK  4 active torsions:
REMARK  status: ('A' for Active; 'I' for Inactive)
REMARK    1  A    between atoms: C6_6  and  N1_7 
REMARK    2  A    between atoms: C10_14  and  N3_15 
REMARK    3  A    between atoms: C11_18  and  C12_19 
REMARK    4  A    between atoms: C15_22  and  C16_23 
ROOT
HETATM    1  N1  UNL     1       4.035  -0.167  -0.235  1.00  0.00    -0.249 N 
HETATM    2  C7  UNL     1       4.674  -1.175  -0.889  1.00  0.00     0.333 A 
HETATM    3  O1  UNL     1       5.783  -0.930  -1.430  1.00  0.00    -0.246 OA
HETATM    4  N2  UNL     1       4.098  -2.373  -0.928  1.00  0.00    -0.307 N 
ATOM      5  H2  UNL     1       4.566  -3.137  -1.415  1.00  0.00     0.170 HD
HETATM    6  C8  UNL     1       2.904  -2.597  -0.334  1.00  0.00     0.059 A 
HETATM    7  C9  UNL     1       2.224  -1.615   0.336  1.00  0.00     0.028 A 
HETATM    8  C10 UNL     1       2.850  -0.377   0.359  1.00  0.00     0.119 A 
HETATM    9  C11 UNL     1       0.985  -2.150   0.863  1.00  0.00     0.108 A 
HETATM   10  C27 UNL     1       0.951  -3.568   0.456  1.00  0.00     0.035 A 
HETATM   11  N6  UNL     1       0.075  -4.563   0.644  1.00  0.00    -0.368 N 
ATOM     12  H6  UNL     1      -0.779  -4.381   1.171  1.00  0.00     0.165 HD
HETATM   13  C28 UNL     1       0.294  -5.788   0.158  1.00  0.00     0.088 A 
HETATM   14  C29 UNL     1       1.422  -6.117  -0.564  1.00  0.00     0.018 A 
HETATM   15  C30 UNL     1       2.335  -5.095  -0.765  1.00  0.00     0.017 A 
HETATM   16  C31 UNL     1       2.098  -3.813  -0.252  1.00  0.00     0.015 A 
ENDROOT
BRANCH   9  17
HETATM   17  C12 UNL     1      -0.228  -1.409   0.444  1.00  0.00    -0.043 A 
HETATM   18  C13 UNL     1      -0.797  -0.481   1.287  1.00  0.00     0.009 A 
HETATM   19  C14 UNL     1      -1.930   0.232   0.904  1.00  0.00     0.012 A 
HETATM   20  C15 UNL     1      -2.538   0.059  -0.313  1.00  0.00    -0.035 A 
HETATM   21  C25 UNL     1      -1.953  -0.889  -1.168  1.00  0.00     0.012 A 
HETATM   22  C26 UNL     1      -0.831  -1.590  -0.780  1.00  0.00     0.009 A 
BRANCH  20  23
HETATM   23  C16 UNL     1      -3.732   0.787  -0.741  1.00  0.00     0.025 C 
HETATM   24  C17 UNL     1      -4.822   0.810  -0.034  1.00  0.00    -0.006 A 
HETATM   25  C18 UNL     1      -4.979   0.118   1.239  1.00  0.00     0.119 A 
HETATM   26  C24 UNL     1      -5.983   1.598  -0.482  1.00  0.00     0.004 A 
HETATM   27  N4  UNL     1      -6.083   0.206   1.921  1.00  0.00    -0.311 N 
HETATM   28  N5  UNL     1      -7.176   0.946   1.505  1.00  0.00    -0.300 N 
ATOM     29  H4  UNL     1      -6.146  -0.296   2.807  1.00  0.00     0.186 HD
HETATM   30  C19 UNL     1      -7.138   1.671   0.264  1.00  0.00     0.059 A 
ATOM     31  H5  UNL     1      -8.015   0.977   2.084  1.00  0.00     0.187 HD
HETATM   32  C20 UNL     1      -8.237   2.403  -0.133  1.00  0.00     0.032 A 
HETATM   33  C21 UNL     1      -8.208   3.092  -1.303  1.00  0.00     0.002 A 
HETATM   34  C22 UNL     1      -7.091   3.054  -2.077  1.00  0.00     0.001 A 
HETATM   35  C23 UNL     1      -5.984   2.306  -1.662  1.00  0.00     0.014 A 
ENDBRANCH  20  23
ENDBRANCH   9  17
BRANCH   8  36
HETATM   36  N3  UNL     1       2.229   0.568   0.981  1.00  0.00    -0.384 N 
ATOM     37  H32 UNL     1       2.689   1.478   0.998  1.00  0.00     0.157 HD
ATOM     38  H31 UNL     1       1.328   0.408   1.432  1.00  0.00     0.157 HD
ENDBRANCH   8  36
BRANCH   1  39
HETATM   39  C6  UNL     1       4.666   1.114  -0.202  1.00  0.00     0.046 A 
HETATM   40  C5  UNL     1       4.710   1.976  -1.278  1.00  0.00     0.030 A 
HETATM   41  C4  UNL     1       5.333   3.211  -1.198  1.00  0.00     0.003 A 
HETATM   42  C3  UNL     1       5.932   3.620  -0.033  1.00  0.00     0.007 A 
HETATM   43  C2  UNL     1       5.899   2.764   1.064  1.00  0.00    -0.060 A 
HETATM   44  C1  UNL     1       6.552   3.221   2.333  1.00  0.00     0.048 C 
HETATM   45  C32 UNL     1       5.271   1.536   0.957  1.00  0.00     0.037 A 
ENDBRANCH   1  39
TORSDOF 4
