REMARK  5 active torsions:
REMARK  status: ('A' for Active; 'I' for Inactive)
REMARK    1  A    between atoms: C2_3  and  C3_4 
REMARK    2  A    between atoms: C4_5  and  O2_6 
REMARK    3  A    between atoms: C19_28  and  C20_29 
REMARK    4  A    between atoms: C23_32  and  C24_33 
REMARK    5  A    between atoms: N3_41  and  O5_42 
ROOT
HETATM    1  O1  UNL     1      -4.027   0.074   3.662  1.00  0.00    -0.265 OA
HETATM    2  C1  UNL     1      -3.083  -0.025   2.812  1.00  0.00     0.284 A 
HETATM    3  C2  UNL     1      -3.223  -0.335   1.401  1.00  0.00     0.062 A 
HETATM    4  C11 UNL     1      -2.014  -0.346   0.865  1.00  0.00     0.021 A 
HETATM    5  C12 UNL     1      -0.987  -0.051   1.848  1.00  0.00     0.079 A 
HETATM    6  C13 UNL     1       0.207  -0.073   1.261  1.00  0.00     0.046 A 
HETATM    7  C14 UNL     1       0.081  -0.383  -0.157  1.00  0.00    -0.012 A 
HETATM    8  C15 UNL     1      -1.272  -0.550  -0.400  1.00  0.00    -0.011 A 
HETATM    9  C16 UNL     1      -1.696  -0.852  -1.672  1.00  0.00     0.013 A 
HETATM   10  C17 UNL     1      -0.786  -0.988  -2.696  1.00  0.00     0.002 A 
HETATM   11  C18 UNL     1       0.568  -0.822  -2.459  1.00  0.00     0.013 A 
HETATM   12  C19 UNL     1       0.999  -0.520  -1.190  1.00  0.00    -0.015 A 
HETATM   13  N3  UNL     1      -1.699   0.146   3.064  1.00  0.00    -0.186 N 
ENDROOT
BRANCH   3  14
HETATM   14  C3  UNL     1      -4.430  -0.652   0.639  1.00  0.00     0.032 A 
HETATM   15  C4  UNL     1      -4.753  -2.010   0.442  1.00  0.00     0.078 A 
HETATM   16  C5  UNL     1      -5.884  -2.312  -0.276  1.00  0.00     0.040 A 
HETATM   17  C6  UNL     1      -6.700  -1.335  -0.801  1.00  0.00     0.033 A 
HETATM   18  C7  UNL     1      -6.381  -0.007  -0.608  1.00  0.00     0.053 A 
HETATM   19  N1  UNL     1      -7.182   0.932  -1.137  1.00  0.00    -0.308 N 
HETATM   20  C10 UNL     1      -5.226   0.316   0.124  1.00  0.00     0.073 A 
HETATM   21  C8  UNL     1      -6.880   2.228  -0.969  1.00  0.00     0.327 A 
ATOM     22  H1  UNL     1      -8.013   0.662  -1.662  1.00  0.00     0.170 HD
HETATM   23  O3  UNL     1      -7.627   3.120  -1.463  1.00  0.00    -0.247 OA
HETATM   24  N2  UNL     1      -5.785   2.586  -0.278  1.00  0.00    -0.275 N 
HETATM   25  C9  UNL     1      -4.956   1.655   0.269  1.00  0.00     0.262 A 
ATOM     26  H2  UNL     1      -5.570   3.576  -0.161  1.00  0.00     0.173 HD
HETATM   27  O4  UNL     1      -3.945   2.018   0.904  1.00  0.00    -0.267 OA
BRANCH  15  28
HETATM   28  O2  UNL     1      -3.920  -2.954   0.978  1.00  0.00    -0.360 OA
ATOM     29  H2  UNL     1      -4.138  -3.869   0.845  1.00  0.00     0.217 HD
ENDBRANCH  15  28
ENDBRANCH   3  14
BRANCH  13  30
HETATM   30  O5  UNL     1      -1.086   0.447   4.242  1.00  0.00    -0.279 OA
ATOM     31  H5  UNL     1      -0.158   0.562   4.411  1.00  0.00     0.245 HD
ENDBRANCH  13  30
BRANCH  12  32
HETATM   32  C20 UNL     1       2.408  -0.340  -0.893  1.00  0.00    -0.025 A 
HETATM   33  C21 UNL     1       3.026  -0.925   0.167  1.00  0.00     0.013 A 
HETATM   34  C22 UNL     1       4.370  -0.691   0.392  1.00  0.00     0.013 A 
HETATM   35  C23 UNL     1       5.050   0.135  -0.473  1.00  0.00    -0.026 A 
HETATM   36  C30 UNL     1       4.438   0.736  -1.553  1.00  0.00     0.013 A 
HETATM   37  C31 UNL     1       3.117   0.494  -1.757  1.00  0.00     0.013 A 
BRANCH  35  38
HETATM   38  C24 UNL     1       6.466   0.417  -0.271  1.00  0.00    -0.026 A 
HETATM   39  C25 UNL     1       7.291   0.660  -1.351  1.00  0.00     0.012 A 
HETATM   40  C26 UNL     1       8.619   0.923  -1.057  1.00  0.00     0.001 A 
HETATM   41  C27 UNL     1       9.109   0.945   0.233  1.00  0.00     0.000 A 
HETATM   42  C28 UNL     1       8.247   0.696   1.286  1.00  0.00     0.001 A 
HETATM   43  C29 UNL     1       6.928   0.433   1.030  1.00  0.00     0.012 A 
ENDBRANCH  35  38
ENDBRANCH  12  32
TORSDOF 5
