REMARK  5 active torsions:
REMARK  status: ('A' for Active; 'I' for Inactive)
REMARK       I    between atoms: C2_5  and  N3_6 
REMARK       I    between atoms: C2_5  and  N6_35 
REMARK    1  A    between atoms: N3_6  and  C3_8 
REMARK    2  A    between atoms: N4_11  and  C6_12 
REMARK    3  A    between atoms: N6_35  and  C24_37 
REMARK    4  A    between atoms: C24_37  and  C25_38 
REMARK    5  A    between atoms: C25_38  and  N7_39 
ROOT
HETATM    1  N1  UNL     1       2.082   3.703   1.244  1.00  0.00    -0.171 NA
HETATM    2  C1  UNL     1       2.763   2.797   1.008  1.00  0.00     0.196 C 
HETATM    3  N2  UNL     1       3.610   1.688   0.742  1.00  0.00    -0.126 N 
ATOM      4  H2  UNL     1       4.548   1.663   1.143  1.00  0.00     0.197 HD
HETATM    5  C2  UNL     1       3.210   0.713   0.001  1.00  0.00     0.687 C 
HETATM    6  N3  UNL     1       1.911   0.760  -0.546  1.00  0.00    -0.187 N 
ATOM      7  H3  UNL     1       1.813   1.236  -1.443  1.00  0.00     0.184 HD
HETATM    8  N6  UNL     1       4.037  -0.396  -0.293  1.00  0.00    -0.224 N 
ATOM      9  H6  UNL     1       3.570  -1.284  -0.475  1.00  0.00     0.177 HD
ENDROOT
BRANCH   6  10
HETATM   10  C3  UNL     1       0.843   0.272  -0.041  1.00  0.00     0.101 A 
HETATM   11  C4  UNL     1      -0.317   0.459  -0.788  1.00  0.00     0.066 A 
HETATM   12  C5  UNL     1      -1.535  -0.022  -0.372  1.00  0.00     0.064 A 
HETATM   13  N4  UNL     1      -2.659   0.041  -1.113  1.00  0.00    -0.338 N 
HETATM   14  C18 UNL     1      -1.603  -0.770   0.900  1.00  0.00     0.064 A 
HETATM   15  C12 UNL     1      -3.815  -0.606  -0.710  1.00  0.00     0.065 A 
HETATM   16  C13 UNL     1      -4.935  -0.718  -1.488  1.00  0.00     0.033 A 
HETATM   17  C17 UNL     1      -3.804  -1.294   0.505  1.00  0.00     0.094 A 
HETATM   18  C14 UNL     1      -6.059  -1.452  -1.147  1.00  0.00     0.014 A 
HETATM   19  C15 UNL     1      -6.055  -2.121   0.050  1.00  0.00     0.001 A 
HETATM   20  C16 UNL     1      -4.939  -2.036   0.850  1.00  0.00     0.106 A 
HETATM   21  C23 UNL     1      -7.345  -2.834   0.225  1.00  0.00     0.209 C 
HETATM   22  O2  UNL     1      -4.738  -2.636   2.085  1.00  0.00    -0.346 OA
HETATM   23  C21 UNL     1      -5.641  -3.409   2.884  1.00  0.00     0.202 C 
HETATM   24  C22 UNL     1      -7.071  -3.093   2.438  1.00  0.00     0.194 C 
HETATM   25  O3  UNL     1      -7.275  -3.758   1.245  1.00  0.00    -0.384 OA
HETATM   26  N5  UNL     1      -2.728  -1.378   1.305  1.00  0.00    -0.350 N 
ATOM     27  H5  UNL     1      -2.765  -1.886   2.189  1.00  0.00     0.166 HD
HETATM   28  C19 UNL     1      -0.427  -0.929   1.606  1.00  0.00     0.089 A 
HETATM   29  C20 UNL     1       0.767  -0.419   1.145  1.00  0.00     0.201 A 
HETATM   30  O1  UNL     1       1.814  -0.586   1.819  1.00  0.00    -0.286 OA
BRANCH  13  31
HETATM   31  C6  UNL     1      -2.855   1.056  -2.140  1.00  0.00     0.090 C 
HETATM   32  C7  UNL     1      -2.004   2.214  -2.360  1.00  0.00     0.026 C 
HETATM   33  C8  UNL     1      -1.887   3.239  -1.254  1.00  0.00     0.002 C 
HETATM   34  C9  UNL     1      -3.113   4.134  -1.376  1.00  0.00     0.000 C 
HETATM   35  C10 UNL     1      -4.188   3.312  -1.954  1.00  0.00     0.002 C 
HETATM   36  C11 UNL     1      -4.156   1.826  -1.687  1.00  0.00     0.026 C 
ENDBRANCH  13  31
ENDBRANCH   6  10
BRANCH   8  37
HETATM   37  C24 UNL     1       5.478  -0.391  -0.360  1.00  0.00     0.168 C 
BRANCH  37  38
HETATM   38  C25 UNL     1       6.106  -0.221   0.974  1.00  0.00     0.292 C 
BRANCH  38  39
HETATM   39  N7  UNL     1       7.557  -0.218   0.919  1.00  0.00     0.094 N 
HETATM   40  C26 UNL     1       8.105   0.940   0.263  1.00  0.00     0.298 C 
HETATM   41  C27 UNL     1       8.830   0.541  -0.984  1.00  0.00     0.198 C 
HETATM   42  O4  UNL     1       9.886  -0.292  -0.699  1.00  0.00    -0.388 OA
HETATM   43  C28 UNL     1       9.632  -1.191   0.327  1.00  0.00     0.198 C 
HETATM   44  C29 UNL     1       8.127  -1.452   0.448  1.00  0.00     0.298 C 
ENDBRANCH  38  39
ENDBRANCH  37  38
ENDBRANCH   8  37
TORSDOF 5
