REMARK  3 active torsions:
REMARK  status: ('A' for Active; 'I' for Inactive)
REMARK    1  A    between atoms: N2_6  and  N3_7 
REMARK    2  A    between atoms: N5_28  and  C19_29 
REMARK    3  A    between atoms: C19_29  and  C20_30 
ROOT
HETATM    1  C1  UNL     1       1.178  -5.327  -1.957  1.00  0.00     0.143 C 
HETATM    2  N1  UNL     1       1.287  -4.207  -1.080  1.00  0.00    -0.415 N 
HETATM    3  C2  UNL     1       2.522  -3.504  -1.134  1.00  0.00     0.118 C 
HETATM    4  C3  UNL     1       3.411  -3.703   0.058  1.00  0.00     0.041 C 
HETATM    5  C4  UNL     1       3.545  -2.402   0.788  1.00  0.00     0.150 C 
HETATM    6  N2  UNL     1       4.801  -1.756   0.488  1.00  0.00    -0.269 N 
HETATM    7  C5  UNL     1       5.320  -0.770   1.372  1.00  0.00     0.150 C 
HETATM    8  C6  UNL     1       4.773   0.632   1.084  1.00  0.00     0.041 C 
HETATM    9  C7  UNL     1       5.873   1.596   1.464  1.00  0.00     0.121 C 
HETATM   10  N4  UNL     1       5.632   2.930   0.950  1.00  0.00    -0.390 N 
ATOM     11  H4  UNL     1       6.412   3.573   1.088  1.00  0.00     0.159 HD
HETATM   12  C8  UNL     1       4.513   3.515   0.288  1.00  0.00     0.030 A 
HETATM   13  C9  UNL     1       4.980   4.332  -0.775  1.00  0.00     0.029 A 
HETATM   14  C10 UNL     1       4.172   5.045  -1.614  1.00  0.00     0.005 A 
HETATM   15  C11 UNL     1       2.825   4.924  -1.362  1.00  0.00     0.037 A 
HETATM   16  C12 UNL     1       2.300   4.134  -0.327  1.00  0.00     0.070 A 
HETATM   17  C13 UNL     1       3.163   3.426   0.499  1.00  0.00     0.065 A 
HETATM   18  O3  UNL     1       0.920   4.195  -0.301  1.00  0.00    -0.351 OA
HETATM   19  C14 UNL     1      -0.063   4.576   0.593  1.00  0.00     0.178 C 
HETATM   20  C15 UNL     1      -1.043   3.413   0.748  1.00  0.00     0.053 C 
HETATM   21  C16 UNL     1      -2.410   3.885   1.125  1.00  0.00     0.169 C 
HETATM   22  O4  UNL     1      -3.335   3.335   0.246  1.00  0.00    -0.389 OA
HETATM   23  C17 UNL     1      -3.311   1.952   0.421  1.00  0.00     0.187 C 
HETATM   24  C18 UNL     1      -3.502   1.238  -0.924  1.00  0.00     0.153 C 
HETATM   25  N5  UNL     1      -3.778  -0.119  -0.660  1.00  0.00    -0.366 N 
HETATM   26  C25 UNL     1      -3.077  -0.736   0.387  1.00  0.00     0.065 C 
HETATM   27  C26 UNL     1      -3.021  -2.222   0.368  1.00  0.00     0.072 C 
HETATM   28  C27 UNL     1      -2.354  -2.801  -0.835  1.00  0.00     0.237 C 
HETATM   29  N7  UNL     1      -0.939  -2.981  -0.619  1.00  0.00    -0.073 N 
ATOM     30  H71 UNL     1      -0.501  -2.174  -0.176  1.00  0.00     0.277 HD
ATOM     31  H72 UNL     1      -0.402  -2.968  -1.486  1.00  0.00     0.277 HD
HETATM   32  C28 UNL     1      -0.756  -4.209   0.139  1.00  0.00     0.251 C 
HETATM   33  C29 UNL     1       0.761  -4.416   0.229  1.00  0.00     0.143 C 
ENDROOT
BRANCH  25  34
HETATM   34  C19 UNL     1      -5.003  -0.666  -1.068  1.00  0.00     0.119 C 
BRANCH  34  35
HETATM   35  C20 UNL     1      -6.135   0.042  -0.414  1.00  0.00     0.047 A 
HETATM   36  C21 UNL     1      -6.821   1.003  -1.096  1.00  0.00     0.031 A 
HETATM   37  C22 UNL     1      -7.867   1.645  -0.465  1.00  0.00     0.004 A 
HETATM   38  C23 UNL     1      -8.218   1.325   0.837  1.00  0.00     0.017 A 
HETATM   39  C24 UNL     1      -7.501   0.355   1.480  1.00  0.00     0.088 A 
HETATM   40  N6  UNL     1      -6.496  -0.260   0.869  1.00  0.00    -0.365 N 
ATOM     41  H6  UNL     1      -5.977  -0.980   1.372  1.00  0.00     0.165 HD
ENDBRANCH  34  35
ENDBRANCH  25  34
BRANCH   6  42
HETATM   42  N3  UNL     1       5.476  -2.119  -0.668  1.00  0.00    -0.041 N 
HETATM   43  O1  UNL     1       5.077  -1.764  -1.768  1.00  0.00    -0.517 OA
HETATM   44  O2  UNL     1       6.605  -2.888  -0.565  1.00  0.00    -0.517 OA
ENDBRANCH   6  42
TORSDOF 3
