REMARK  8 active torsions:
REMARK  status: ('A' for Active; 'I' for Inactive)
REMARK    1  A    between atoms: C2_2  and  S1_3 
REMARK    2  A    between atoms: S1_3  and  C3_6 
REMARK    3  A    between atoms: C6_9  and  C7_10 
REMARK    4  A    between atoms: C7_10  and  C8_11 
REMARK    5  A    between atoms: C8_11  and  C9_12 
REMARK    6  A    between atoms: C9_12  and  C10_13 
REMARK    7  A    between atoms: C10_13  and  N1_14 
REMARK    8  A    between atoms: N1_14  and  C11_16 
ROOT
HETATM    1  C11 UNL     1      -2.039  -1.267  -1.185  1.00  0.00     0.113 A 
HETATM    2  N2  UNL     1      -1.268  -1.741  -2.214  1.00  0.00    -0.338 N 
ATOM      3  H2  UNL     1      -0.251  -1.731  -2.138  1.00  0.00     0.168 HD
HETATM    4  C12 UNL     1      -1.855  -2.218  -3.321  1.00  0.00     0.184 A 
HETATM    5  N3  UNL     1      -3.192  -2.229  -3.415  1.00  0.00    -0.332 N 
ATOM      6  H3  UNL     1      -3.635  -2.593  -4.259  1.00  0.00     0.168 HD
HETATM    7  C13 UNL     1      -3.970  -1.758  -2.392  1.00  0.00     0.161 A 
HETATM    8  C14 UNL     1      -3.413  -1.253  -1.227  1.00  0.00     0.048 A 
HETATM    9  C15 UNL     1      -4.266  -0.749  -0.199  1.00  0.00     0.018 C 
HETATM   10  C16 UNL     1      -3.898  -0.666   1.204  1.00  0.00     0.016 C 
HETATM   11  C17 UNL     1      -3.679   0.741   1.726  1.00  0.00     0.001 C 
HETATM   12  C18 UNL     1      -5.043   1.436   1.721  1.00  0.00     0.000 C 
HETATM   13  C19 UNL     1      -5.625   1.303   0.337  1.00  0.00     0.001 C 
HETATM   14  C20 UNL     1      -4.681   0.673  -0.636  1.00  0.00     0.016 C 
HETATM   15  C21 UNL     1      -5.604  -1.513  -0.280  1.00  0.00     0.180 C 
HETATM   16  C22 UNL     1      -5.330  -2.960  -0.103  1.00  0.00     0.073 C 
HETATM   17  N4  UNL     1      -5.118  -4.088   0.043  1.00  0.00    -0.196 NA
HETATM   18  C23 UNL     1      -6.194  -1.387  -1.639  1.00  0.00     0.138 C 
HETATM   19  N5  UNL     1      -7.339  -0.926  -1.926  1.00  0.00    -0.382 N 
ATOM     20  H51 UNL     1      -7.744  -0.840  -2.858  1.00  0.00     0.158 HD
ATOM     21  H52 UNL     1      -7.963  -0.592  -1.191  1.00  0.00     0.158 HD
HETATM   22  O3  UNL     1      -5.332  -1.848  -2.655  1.00  0.00    -0.279 OA
ENDROOT
BRANCH   1  23
HETATM   23  N1  UNL     1      -1.495  -0.810  -0.118  1.00  0.00    -0.374 N 
ATOM     24  H1  UNL     1      -2.057  -0.455   0.655  1.00  0.00     0.161 HD
BRANCH  23  25
HETATM   25  C10 UNL     1      -0.057  -0.820  -0.058  1.00  0.00     0.144 C 
BRANCH  25  26
HETATM   26  C9  UNL     1       0.564   0.502   0.336  1.00  0.00     0.043 C 
HETATM   27  C24 UNL     1       0.261   0.884   1.748  1.00  0.00     0.054 C 
HETATM   28  C25 UNL     1      -0.026   2.316   1.987  1.00  0.00     0.273 C 
HETATM   29  N6  UNL     1       0.625   3.120   0.978  1.00  0.00     0.084 N 
HETATM   30  C26 UNL     1       0.666   4.521   1.316  1.00  0.00     0.309 C 
HETATM   31  C27 UNL     1      -0.100   2.871  -0.255  1.00  0.00     0.273 C 
HETATM   32  C28 UNL     1       0.270   1.502  -0.710  1.00  0.00     0.054 C 
BRANCH  26  33
HETATM   33  C8  UNL     1       2.032   0.241   0.318  1.00  0.00    -0.089 C 
BRANCH  33  34
HETATM   34  C7  UNL     1       3.227   0.043   0.288  1.00  0.00    -0.066 C 
BRANCH  34  35
HETATM   35  C6  UNL     1       4.642  -0.173   0.270  1.00  0.00     0.017 A 
HETATM   36  C5  UNL     1       5.427   0.132  -0.823  1.00  0.00     0.022 A 
HETATM   37  C4  UNL     1       6.768  -0.099  -0.774  1.00  0.00     0.025 A 
HETATM   38  C3  UNL     1       7.366  -0.632   0.346  1.00  0.00     0.063 A 
HETATM   39  C30 UNL     1       6.571  -0.930   1.425  1.00  0.00     0.025 A 
HETATM   40  C29 UNL     1       5.211  -0.708   1.404  1.00  0.00     0.022 A 
BRANCH  38  41
HETATM   41  S1  UNL     1       9.076  -0.940   0.443  1.00  0.00     0.196 S 
HETATM   42  O1  UNL     1       9.854   0.091  -0.329  1.00  0.00    -0.218 OA
HETATM   43  O2  UNL     1       9.501  -0.859   1.903  1.00  0.00    -0.218 OA
BRANCH  41  44
HETATM   44  C2  UNL     1       9.482  -2.548  -0.107  1.00  0.00     0.104 C 
HETATM   45  C1  UNL     1       9.300  -3.590   0.682  1.00  0.00     0.024 C 
ENDBRANCH  41  44
ENDBRANCH  38  41
ENDBRANCH  34  35
ENDBRANCH  33  34
ENDBRANCH  26  33
ENDBRANCH  25  26
ENDBRANCH  23  25
ENDBRANCH   1  23
TORSDOF 8
