REMARK  11 active torsions:
REMARK  status: ('A' for Active; 'I' for Inactive)
REMARK    1  A    between atoms: C5_6  and  C6_7 
REMARK    2  A    between atoms: C10_13  and  N3_14 
REMARK    3  A    between atoms: C13_19  and  C15_22 
REMARK    4  A    between atoms: C15_22  and  C16_23 
REMARK    5  A    between atoms: C17_24  and  C18_25 
REMARK    6  A    between atoms: C19_26  and  C20_27 
REMARK    7  A    between atoms: C21_28  and  C22_29 
REMARK    8  A    between atoms: C23_30  and  C24_31 
REMARK    9  A    between atoms: C24_31  and  O2_32 
REMARK   10  A    between atoms: C24_31  and  C25_34 
REMARK   11  A    between atoms: C25_34  and  O3_37 
ROOT
HETATM    1  N3  UNL     1      -0.923  -0.375  -0.196  1.00  0.00    -0.284 N 
HETATM    2  C11 UNL     1       0.022  -0.767   0.770  1.00  0.00     0.235 C 
HETATM    3  O1  UNL     1       0.210  -0.160   1.889  1.00  0.00    -0.272 OA
HETATM    4  C12 UNL     1       0.799  -1.971   0.372  1.00  0.00     0.180 C 
HETATM    5  S1  UNL     1       0.556  -1.970  -1.426  1.00  0.00    -0.112 SA
HETATM    6  C13 UNL     1      -0.407  -0.374  -1.548  1.00  0.00     0.188 C 
HETATM    7  C14 UNL     1      -1.465  -0.554  -2.543  1.00  0.00     0.104 C 
HETATM    8  N4  UNL     1      -2.309  -0.714  -3.325  1.00  0.00    -0.194 NA
ENDROOT
BRANCH   6   9
HETATM    9  C15 UNL     1       0.580   0.651  -1.917  1.00  0.00     0.154 C 
BRANCH   9  10
HETATM   10  C16 UNL     1       1.862   0.625  -1.258  1.00  0.00    -0.088 C 
HETATM   11  C17 UNL     1       2.969   0.585  -0.783  1.00  0.00    -0.015 C 
BRANCH  11  12
HETATM   12  C18 UNL     1       4.308   0.508  -0.301  1.00  0.00    -0.010 C 
HETATM   13  C19 UNL     1       5.481   0.426   0.050  1.00  0.00    -0.064 C 
BRANCH  13  14
HETATM   14  C20 UNL     1       6.868   0.319   0.390  1.00  0.00     0.074 C 
HETATM   15  C21 UNL     1       7.275   0.175   1.620  1.00  0.00     0.073 C 
BRANCH  15  16
HETATM   16  C22 UNL     1       8.688   0.073   1.900  1.00  0.00    -0.075 C 
HETATM   17  C23 UNL     1       9.895   0.000   2.109  1.00  0.00    -0.067 C 
BRANCH  17  18
HETATM   18  C24 UNL     1      11.348  -0.076   2.323  1.00  0.00     0.230 C 
BRANCH  18  19
HETATM   19  O2  UNL     1      11.672  -1.260   2.932  1.00  0.00    -0.380 OA
ATOM     20  H2  UNL     1      12.611  -1.309   3.070  1.00  0.00     0.211 HD
ENDBRANCH  18  19
BRANCH  18  21
HETATM   21  C25 UNL     1      12.086   0.055   0.992  1.00  0.00     0.087 C 
HETATM   22  C26 UNL     1      13.564   0.105   1.189  1.00  0.00     0.049 C 
HETATM   23  C27 UNL     1      11.628  -1.050   0.068  1.00  0.00     0.049 C 
BRANCH  21  24
HETATM   24  O3  UNL     1      11.692   1.290   0.457  1.00  0.00    -0.387 OA
ATOM     25  H3  UNL     1      12.151   1.371  -0.371  1.00  0.00     0.210 HD
ENDBRANCH  21  24
ENDBRANCH  18  21
ENDBRANCH  17  18
ENDBRANCH  15  16
ENDBRANCH  13  14
ENDBRANCH  11  12
ENDBRANCH   9  10
ENDBRANCH   6   9
BRANCH   1  26
HETATM   26  C10 UNL     1      -2.299   0.000  -0.003  1.00  0.00     0.041 A 
HETATM   27  C9  UNL     1      -2.635   1.334  -0.015  1.00  0.00     0.032 A 
HETATM   28  C8  UNL     1      -3.912   1.784   0.063  1.00  0.00     0.033 A 
HETATM   29  C7  UNL     1      -4.984   0.883   0.165  1.00  0.00     0.050 A 
HETATM   30  N2  UNL     1      -6.248   1.187   0.210  1.00  0.00    -0.352 N 
HETATM   31  C29 UNL     1      -4.663  -0.457   0.181  1.00  0.00     0.035 A 
HETATM   32  C6  UNL     1      -7.159   0.254   0.266  1.00  0.00     0.058 A 
ATOM     33  H2  UNL     1      -6.531   2.167   0.201  1.00  0.00     0.166 HD
HETATM   34  S2  UNL     1      -6.209  -1.177   0.262  1.00  0.00    -0.074 SA
HETATM   35  C28 UNL     1      -3.336  -0.893   0.100  1.00  0.00     0.051 A 
BRANCH  32  36
HETATM   36  C5  UNL     1      -8.686   0.394   0.290  1.00  0.00     0.071 C 
HETATM   37  C4  UNL     1      -9.230  -0.966   0.449  1.00  0.00     0.015 C 
HETATM   38  C3  UNL     1     -10.665  -1.059   0.079  1.00  0.00     0.031 C 
HETATM   39  C2  UNL     1     -11.270   0.254  -0.287  1.00  0.00     0.272 C 
HETATM   40  N1  UNL     1     -10.487   1.011  -1.206  1.00  0.00     0.085 N 
HETATM   41  C1  UNL     1     -10.886   0.808  -2.593  1.00  0.00     0.309 C 
HETATM   42  C30 UNL     1      -9.088   1.000  -1.031  1.00  0.00     0.283 C 
ENDBRANCH  32  36
ENDBRANCH   1  26
TORSDOF 11
