REMARK  4 active torsions:
REMARK  status: ('A' for Active; 'I' for Inactive)
REMARK    1  A    between atoms: N1_4  and  C4_5 
REMARK    2  A    between atoms: C4_5  and  C5_6 
REMARK    3  A    between atoms: C16_27  and  N6_28 
REMARK       I    between atoms: N6_28  and  C17_30 
REMARK       I    between atoms: C17_30  and  N7_32 
REMARK    4  A    between atoms: N8_35  and  C20_36 
ROOT
HETATM    1  C1  UNL     1      -3.883   0.283  -1.689  1.00  0.00     0.021 C 
HETATM    2  C2  UNL     1      -3.425   0.467  -0.446  1.00  0.00    -0.029 C 
HETATM    3  C3  UNL     1      -4.423   0.751   0.608  1.00  0.00     0.311 C 
HETATM    4  N1  UNL     1      -5.684   1.282   0.064  1.00  0.00     0.101 N 
HETATM    5  C6  UNL     1      -6.814   0.558   0.674  1.00  0.00     0.299 C 
HETATM    6  C7  UNL     1      -7.238  -0.647  -0.084  1.00  0.00     0.198 C 
HETATM    7  O1  UNL     1      -6.581  -1.810   0.232  1.00  0.00    -0.386 OA
HETATM    8  C8  UNL     1      -7.046  -2.293   1.446  1.00  0.00     0.194 C 
HETATM    9  C9  UNL     1      -6.655  -3.698   1.720  1.00  0.00    -0.003 C 
HETATM   10  C10 UNL     1      -5.468  -4.221   1.572  1.00  0.00    -0.003 C 
HETATM   11  C11 UNL     1      -4.253  -3.532   1.101  1.00  0.00     0.194 C 
HETATM   12  O2  UNL     1      -3.648  -2.719   2.060  1.00  0.00    -0.387 OA
HETATM   13  C12 UNL     1      -2.438  -2.292   1.517  1.00  0.00     0.172 C 
HETATM   14  C13 UNL     1      -2.034  -0.906   1.916  1.00  0.00     0.066 C 
HETATM   15  C14 UNL     1      -1.314  -0.211   0.775  1.00  0.00    -0.043 A 
HETATM   16  C15 UNL     1       0.062  -0.187   0.776  1.00  0.00     0.037 A 
HETATM   17  C16 UNL     1       0.858   0.402  -0.219  1.00  0.00     0.036 A 
HETATM   18  C28 UNL     1       0.169   0.980  -1.246  1.00  0.00     0.030 A 
HETATM   19  C29 UNL     1      -1.223   0.966  -1.264  1.00  0.00     0.015 A 
HETATM   20  C30 UNL     1      -1.987   0.379  -0.269  1.00  0.00    -0.022 A 
ENDROOT
BRANCH  17  21
HETATM   21  N6  UNL     1       2.266   0.335  -0.103  1.00  0.00    -0.309 N 
HETATM   22  C17 UNL     1       3.150   1.201  -0.723  1.00  0.00     0.323 C 
HETATM   23  O3  UNL     1       2.764   2.165  -1.467  1.00  0.00    -0.247 OA
HETATM   24  N7  UNL     1       4.563   1.021  -0.532  1.00  0.00    -0.331 N 
HETATM   25  C18 UNL     1       5.507   1.908  -1.174  1.00  0.00     0.147 C 
HETATM   26  C27 UNL     1       5.032  -0.047   0.303  1.00  0.00     0.147 C 
HETATM   27  C19 UNL     1       6.634   1.006  -1.679  1.00  0.00     0.143 C 
HETATM   28  N8  UNL     1       7.238   0.334  -0.554  1.00  0.00    -0.378 N 
HETATM   29  C26 UNL     1       6.504   0.119   0.672  1.00  0.00     0.143 C 
ATOM     30  H6  UNL     1       2.658  -0.405   0.479  1.00  0.00     0.170 HD
BRANCH  28  31
HETATM   31  C20 UNL     1       8.579  -0.113  -0.702  1.00  0.00     0.030 A 
HETATM   32  C21 UNL     1       9.245  -0.544   0.427  1.00  0.00     0.029 A 
HETATM   33  C22 UNL     1      10.561  -0.995   0.309  1.00  0.00     0.002 A 
HETATM   34  C23 UNL     1      11.174  -1.005  -0.917  1.00  0.00     0.000 A 
HETATM   35  C24 UNL     1      10.504  -0.574  -2.039  1.00  0.00     0.002 A 
HETATM   36  C25 UNL     1       9.208  -0.130  -1.927  1.00  0.00     0.029 A 
ENDBRANCH  28  31
ENDBRANCH  17  21
BRANCH   4  37
HETATM   37  C4  UNL     1      -5.830   2.705   0.368  1.00  0.00     0.351 C 
BRANCH  37  38
HETATM   38  C5  UNL     1      -4.710   3.445  -0.238  1.00  0.00     0.141 A 
HETATM   39  N2  UNL     1      -3.519   3.772   0.286  1.00  0.00    -0.271 N 
HETATM   40  N3  UNL     1      -2.841   4.443  -0.616  1.00  0.00    -0.227 N 
ATOM     41  H2  UNL     1      -3.196   3.539   1.225  1.00  0.00     0.190 HD
HETATM   42  N4  UNL     1      -3.568   4.550  -1.695  1.00  0.00    -0.227 N 
ATOM     43  H3  UNL     1      -1.901   4.819  -0.494  1.00  0.00     0.210 HD
HETATM   44  N5  UNL     1      -4.723   3.944  -1.488  1.00  0.00    -0.271 N 
ATOM     45  H4  UNL     1      -3.290   5.023  -2.555  1.00  0.00     0.210 HD
ATOM     46  H5  UNL     1      -5.489   3.868  -2.157  1.00  0.00     0.190 HD
ENDBRANCH  37  38
ENDBRANCH   4  37
TORSDOF 4
