REMARK  10 active torsions:
REMARK  status: ('A' for Active; 'I' for Inactive)
REMARK    1  A    between atoms: C2_2  and  C3_3 
REMARK    2  A    between atoms: C4_4  and  C5_5 
REMARK    3  A    between atoms: C5_5  and  C6_6 
REMARK    4  A    between atoms: C6_6  and  C7_7 
REMARK    5  A    between atoms: C8_8  and  C9_9 
REMARK    6  A    between atoms: C9_9  and  C10_10 
REMARK    7  A    between atoms: C10_10  and  O1_11 
REMARK    8  A    between atoms: C19_24  and  O3_25 
REMARK    9  A    between atoms: C20_27  and  O4_28 
REMARK   10  A    between atoms: O4_28  and  C21_29 
ROOT
HETATM    1  C10 UNL     1       3.245   0.625   0.775  1.00  0.00     0.075 C 
HETATM    2  C11 UNL     1       2.747   0.897   2.180  1.00  0.00     0.040 C 
HETATM    3  C12 UNL     1       1.630   1.896   1.896  1.00  0.00     0.010 C 
HETATM    4  C13 UNL     1       0.991   1.309   0.680  1.00  0.00     0.020 C 
HETATM    5  C14 UNL     1      -0.226   0.533   1.117  1.00  0.00     0.096 C 
HETATM    6  N1  UNL     1      -1.137   1.469   1.742  1.00  0.00    -0.369 N 
ATOM      7  H1  UNL     1      -0.818   2.381   2.069  1.00  0.00     0.161 HD
HETATM    8  C15 UNL     1      -2.369   1.104   1.869  1.00  0.00     0.112 C 
HETATM    9  C16 UNL     1      -3.320   2.056   2.510  1.00  0.00     0.097 C 
HETATM   10  O2  UNL     1      -2.713  -0.147   1.397  1.00  0.00    -0.312 OA
HETATM   11  C17 UNL     1      -2.173  -0.578   0.163  1.00  0.00     0.181 C 
HETATM   12  C18 UNL     1      -2.393  -2.060  -0.050  1.00  0.00     0.091 C 
HETATM   13  C19 UNL     1      -3.848  -2.316  -0.109  1.00  0.00     0.166 C 
HETATM   14  C20 UNL     1      -4.519  -1.268  -0.942  1.00  0.00     0.278 C 
HETATM   15  S1  UNL     1      -3.300   0.047  -1.099  1.00  0.00     0.207 S 
HETATM   16  O6  UNL     1      -2.679   0.020  -2.443  1.00  0.00    -0.222 OA
HETATM   17  O7  UNL     1      -3.852   1.362  -0.708  1.00  0.00    -0.222 OA
HETATM   18  C26 UNL     1      -0.780  -0.146  -0.094  1.00  0.00     0.059 C 
HETATM   19  C27 UNL     1       0.169  -1.227  -0.518  1.00  0.00     0.011 C 
HETATM   20  C28 UNL     1       1.588  -0.992  -0.127  1.00  0.00     0.013 C 
HETATM   21  C29 UNL     1       2.006   0.438  -0.014  1.00  0.00    -0.006 C 
HETATM   22  C30 UNL     1       2.203   1.002  -1.403  1.00  0.00     0.019 C 
ENDROOT
BRANCH  13  23
HETATM   23  O3  UNL     1      -4.439  -2.495   1.136  1.00  0.00    -0.392 OA
ATOM     24  H3  UNL     1      -5.374  -2.659   1.098  1.00  0.00     0.210 HD
ENDBRANCH  13  23
BRANCH  14  25
HETATM   25  O4  UNL     1      -5.548  -0.718  -0.142  1.00  0.00    -0.338 OA
BRANCH  25  26
HETATM   26  C21 UNL     1      -6.772  -0.744  -0.802  1.00  0.00     0.261 C 
HETATM   27  C22 UNL     1      -7.335   0.640  -0.968  1.00  0.00     0.061 C 
HETATM   28  C23 UNL     1      -7.636   1.294   0.364  1.00  0.00     0.007 C 
HETATM   29  C24 UNL     1      -8.466   0.327   1.180  1.00  0.00     0.026 C 
HETATM   30  C25 UNL     1      -8.743  -0.916   0.393  1.00  0.00     0.171 C 
HETATM   31  O5  UNL     1      -7.619  -1.558  -0.069  1.00  0.00    -0.361 OA
ENDBRANCH  25  26
ENDBRANCH  14  25
BRANCH   1  32
HETATM   32  C9  UNL     1       4.223  -0.513   0.741  1.00  0.00     0.132 C 
BRANCH  32  33
HETATM   33  C8  UNL     1       4.770  -0.733  -0.590  1.00  0.00    -0.104 C 
HETATM   34  C7  UNL     1       5.245  -0.930  -1.697  1.00  0.00    -0.106 C 
BRANCH  34  35
HETATM   35  C6  UNL     1       5.840  -1.169  -3.019  1.00  0.00     0.106 C 
BRANCH  35  36
HETATM   36  C5  UNL     1       7.099  -0.334  -3.191  1.00  0.00     0.106 C 
BRANCH  36  37
HETATM   37  C4  UNL     1       8.096  -0.678  -2.164  1.00  0.00    -0.106 C 
HETATM   38  C3  UNL     1       8.905  -0.955  -1.300  1.00  0.00    -0.107 C 
BRANCH  38  39
HETATM   39  C2  UNL     1       9.861  -1.278  -0.245  1.00  0.00     0.089 C 
HETATM   40  C1  UNL     1       9.676  -0.255   0.860  1.00  0.00     0.018 C 
ENDBRANCH  38  39
ENDBRANCH  36  37
ENDBRANCH  35  36
ENDBRANCH  34  35
ENDBRANCH  32  33
ENDBRANCH   1  32
BRANCH   1  41
HETATM   41  O1  UNL     1       3.899   1.786   0.367  1.00  0.00    -0.388 OA
ATOM     42  H1  UNL     1       3.280   2.506   0.389  1.00  0.00     0.210 HD
ENDBRANCH   1  41
TORSDOF 10
