REMARK  12 active torsions:
REMARK  status: ('A' for Active; 'I' for Inactive)
REMARK    1  A    between atoms: N1_2  and  C2_5 
REMARK    2  A    between atoms: C2_5  and  C4_7 
REMARK       I    between atoms: C4_7  and  N2_9 
REMARK    3  A    between atoms: N2_9  and  C5_11 
REMARK    4  A    between atoms: C5_11  and  C6_12 
REMARK    5  A    between atoms: C5_11  and  C19_41 
REMARK    6  A    between atoms: C6_12  and  O2_13 
REMARK    7  A    between atoms: C6_12  and  N3_15 
REMARK    8  A    between atoms: C7_16  and  C8_17 
REMARK    9  A    between atoms: C10_21  and  C12_23 
REMARK       I    between atoms: C12_23  and  N4_25 
REMARK       I    between atoms: N4_25  and  C13_27 
REMARK       I    between atoms: C13_27  and  N5_29 
REMARK   10  A    between atoms: C17_33  and  C18_34 
REMARK   11  A    between atoms: C18_34  and  O5_35 
REMARK   12  A    between atoms: N6_37  and  O6_39 
ROOT
HETATM    1  N3  UNL     1      -0.506  -1.667  -0.496  1.00  0.00    -0.336 N 
HETATM    2  C7  UNL     1      -0.187  -3.039  -0.346  1.00  0.00     0.155 A 
HETATM    3  C9  UNL     1       1.321  -2.751  -0.433  1.00  0.00     0.071 A 
HETATM    4  C10 UNL     1       0.947  -1.329  -0.627  1.00  0.00     0.114 A 
HETATM    5  C11 UNL     1       1.209  -0.716  -2.003  1.00  0.00     0.049 C 
ENDROOT
BRANCH   4   6
HETATM    6  C12 UNL     1       1.411  -0.407   0.425  1.00  0.00     0.254 C 
HETATM    7  O3  UNL     1       0.475   0.071   1.175  1.00  0.00    -0.270 OA
HETATM    8  N4  UNL     1       2.693   0.038   0.748  1.00  0.00    -0.277 N 
HETATM    9  C13 UNL     1       3.942  -0.310   0.208  1.00  0.00     0.325 C 
ATOM     10  H4  UNL     1       2.729   0.728   1.498  1.00  0.00     0.173 HD
HETATM   11  O4  UNL     1       3.902  -1.181  -0.749  1.00  0.00    -0.247 OA
HETATM   12  N5  UNL     1       5.217   0.128   0.530  1.00  0.00    -0.322 N 
HETATM   13  C14 UNL     1       6.470  -0.318  -0.195  1.00  0.00     0.129 C 
HETATM   14  C17 UNL     1       5.777   1.014   1.481  1.00  0.00     0.165 C 
HETATM   15  C15 UNL     1       7.224   0.987  -0.341  1.00  0.00     0.022 C 
HETATM   16  C16 UNL     1       6.477   2.003   0.546  1.00  0.00     0.035 C 
BRANCH  14  17
HETATM   17  C18 UNL     1       5.028   1.613   2.539  1.00  0.00     0.159 C 
HETATM   18  N6  UNL     1       4.641   2.857   2.644  1.00  0.00    -0.249 N 
ATOM     19  H6  UNL     1       4.108   3.120   3.473  1.00  0.00     0.196 HD
BRANCH  17  20
HETATM   20  O5  UNL     1       4.617   0.827   3.648  1.00  0.00    -0.347 OA
ATOM     21  H5  UNL     1       4.119   1.225   4.352  1.00  0.00     0.219 HD
ENDBRANCH  17  20
BRANCH  18  22
HETATM   22  O6  UNL     1       4.899   3.827   1.724  1.00  0.00    -0.288 OA
ATOM     23  H6  UNL     1       4.618   4.731   1.800  1.00  0.00     0.244 HD
ENDBRANCH  18  22
ENDBRANCH  14  17
ENDBRANCH   4   6
BRANCH   1  24
HETATM   24  C6  UNL     1      -1.626  -0.825  -0.458  1.00  0.00     0.139 C 
BRANCH  24  25
HETATM   25  C5  UNL     1      -2.999  -0.961  -0.090  1.00  0.00     0.162 C 
BRANCH  25  26
HETATM   26  N2  UNL     1      -3.681   0.302  -0.496  1.00  0.00    -0.347 N 
HETATM   27  C4  UNL     1      -4.169   1.227   0.455  1.00  0.00     0.248 C 
HETATM   28  O1  UNL     1      -4.021   0.970   1.669  1.00  0.00    -0.271 OA
ATOM     29  H2  UNL     1      -3.799   0.504  -1.489  1.00  0.00     0.163 HD
BRANCH  27  30
HETATM   30  C2  UNL     1      -4.846   2.485   0.079  1.00  0.00     0.272 C 
HETATM   31  C3  UNL     1      -6.074   2.270  -0.768  1.00  0.00     0.050 C 
BRANCH  30  32
HETATM   32  N1  UNL     1      -5.235   3.239   1.254  1.00  0.00    -0.067 N 
HETATM   33  C1  UNL     1      -5.735   4.536   0.895  1.00  0.00     0.267 C 
ATOM     34  H12 UNL     1      -4.472   3.304   1.928  1.00  0.00     0.277 HD
ATOM     35  H11 UNL     1      -5.904   2.724   1.826  1.00  0.00     0.277 HD
ENDBRANCH  30  32
ENDBRANCH  27  30
ENDBRANCH  25  26
BRANCH  25  36
HETATM   36  C19 UNL     1      -3.876  -2.049  -0.493  1.00  0.00     0.008 C 
HETATM   37  C20 UNL     1      -4.164  -2.239  -1.938  1.00  0.00     0.012 C 
HETATM   38  C21 UNL     1      -3.718  -3.285   0.341  1.00  0.00     0.012 C 
ENDBRANCH  25  36
ENDBRANCH  24  25
BRANCH  24  39
HETATM   39  O2  UNL     1      -1.351   0.394  -0.855  1.00  0.00    -0.348 OA
ATOM     40  H2  UNL     1      -0.438   0.484  -1.100  1.00  0.00     0.219 HD
ENDBRANCH  24  39
ENDBRANCH   1  24
BRANCH   2  41
HETATM   41  C8  UNL     1      -0.481  -4.000  -1.479  1.00  0.00     0.376 C 
HETATM   42  F1  UNL     1      -0.109  -5.286  -1.142  1.00  0.00    -0.212 F 
HETATM   43  F2  UNL     1       0.176  -3.706  -2.651  1.00  0.00    -0.212 F 
ENDBRANCH   2  41
TORSDOF 12
