REMARK  9 active torsions:
REMARK  status: ('A' for Active; 'I' for Inactive)
REMARK    1  A    between atoms: C2_2  and  N1_5 
REMARK       I    between atoms: N1_5  and  C5_7 
REMARK    2  A    between atoms: C5_7  and  O2_9 
REMARK    3  A    between atoms: O2_9  and  C6_10 
REMARK    4  A    between atoms: C6_10  and  C7_11 
REMARK    5  A    between atoms: N2_15  and  S1_16 
REMARK    6  A    between atoms: S1_16  and  N3_19 
REMARK       I    between atoms: N3_19  and  C11_21 
REMARK       I    between atoms: C11_21  and  N4_23 
REMARK    7  A    between atoms: N4_23  and  C12_25 
REMARK    8  A    between atoms: C12_25  and  C13_26 
REMARK    9  A    between atoms: C12_25  and  C14_28 
ROOT
HETATM    1  C7  UNL     1      -0.882   1.027  -0.456  1.00  0.00     0.046 C 
HETATM    2  C8  UNL     1      -1.488   1.892   0.579  1.00  0.00     0.024 C 
HETATM    3  C9  UNL     1      -0.406  -0.276   0.209  1.00  0.00     0.033 C 
HETATM    4  C10 UNL     1       0.935  -0.177   0.817  1.00  0.00     0.110 C 
HETATM    5  N2  UNL     1       1.417   1.133   1.063  1.00  0.00    -0.187 NA
HETATM    6  C15 UNL     1       1.279   2.080   0.026  1.00  0.00     0.188 C 
HETATM    7  C16 UNL     1       0.356   1.653  -1.065  1.00  0.00     0.265 C 
HETATM    8  F1  UNL     1       0.023   2.706  -1.911  1.00  0.00    -0.204 F 
HETATM    9  F2  UNL     1       0.967   0.635  -1.817  1.00  0.00    -0.204 F 
ENDROOT
BRANCH   5  10
HETATM   10  S1  UNL     1       3.020   1.064   1.676  1.00  0.00     0.306 S 
HETATM   11  O3  UNL     1       3.490   2.448   2.035  1.00  0.00    -0.188 OA
HETATM   12  O4  UNL     1       2.986   0.202   2.931  1.00  0.00    -0.188 OA
BRANCH  10  13
HETATM   13  N3  UNL     1       4.029   0.332   0.495  1.00  0.00    -0.223 N 
HETATM   14  C11 UNL     1       5.354  -0.009   0.819  1.00  0.00     0.331 C 
HETATM   15  O5  UNL     1       5.774   0.235   1.990  1.00  0.00    -0.246 OA
HETATM   16  N4  UNL     1       6.212  -0.619  -0.154  1.00  0.00    -0.331 N 
ATOM     17  H4  UNL     1       5.841  -0.800  -1.087  1.00  0.00     0.165 HD
ATOM     18  H3  UNL     1       3.668   0.145  -0.440  1.00  0.00     0.184 HD
BRANCH  16  19
HETATM   19  C12 UNL     1       7.565  -0.984   0.126  1.00  0.00     0.157 C 
BRANCH  19  20
HETATM   20  C13 UNL     1       8.531  -0.219  -0.735  1.00  0.00     0.257 C 
HETATM   21  O6  UNL     1       8.173   0.592  -1.550  1.00  0.00    -0.305 OA
ENDBRANCH  19  20
BRANCH  19  22
HETATM   22  C14 UNL     1       7.743  -2.461  -0.175  1.00  0.00     0.117 C 
HETATM   23 BR1  UNL     1       9.564  -3.028   0.186  1.00  0.00    -0.094 Br
ENDBRANCH  19  22
ENDBRANCH  16  19
ENDBRANCH  10  13
ENDBRANCH   5  10
BRANCH   1  24
HETATM   24  C6  UNL     1      -1.785   0.634  -1.599  1.00  0.00     0.196 C 
BRANCH  24  25
HETATM   25  O2  UNL     1      -2.902  -0.078  -1.379  1.00  0.00    -0.303 OA
BRANCH  25  26
HETATM   26  C5  UNL     1      -4.084   0.056  -0.779  1.00  0.00     0.361 C 
HETATM   27  N1  UNL     1      -5.098  -0.958  -0.706  1.00  0.00    -0.329 N 
ATOM     28  H1  UNL     1      -4.912  -1.859  -1.147  1.00  0.00     0.165 HD
HETATM   29  O1  UNL     1      -4.367   1.138  -0.223  1.00  0.00    -0.238 OA
BRANCH  27  30
HETATM   30  C2  UNL     1      -6.357  -0.774  -0.048  1.00  0.00     0.024 C 
HETATM   31  C1  UNL     1      -6.198  -0.440   1.422  1.00  0.00     0.037 C 
HETATM   32  C3  UNL     1      -7.102  -2.110  -0.078  1.00  0.00     0.037 C 
HETATM   33  C4  UNL     1      -7.228   0.258  -0.703  1.00  0.00     0.037 C 
ENDBRANCH  27  30
ENDBRANCH  25  26
ENDBRANCH  24  25
ENDBRANCH   1  24
TORSDOF 9
