REMARK  10 active torsions:
REMARK  status: ('A' for Active; 'I' for Inactive)
REMARK    1  A    between atoms: O1_2  and  C2_3 
REMARK    2  A    between atoms: C2_3  and  C3_4 
REMARK    3  A    between atoms: C3_4  and  O2_5 
REMARK    4  A    between atoms: C3_4  and  C4_7 
REMARK    5  A    between atoms: C4_7  and  C5_8 
REMARK    6  A    between atoms: C5_8  and  N1_9 
REMARK    7  A    between atoms: N1_9  and  C6_11 
REMARK    8  A    between atoms: C7_14  and  C8_15 
REMARK    9  A    between atoms: C8_15  and  C9_16 
REMARK   10  A    between atoms: C12_22  and  C13_23 
ROOT
HETATM    1  C6  UNL     1      -0.417   0.922   0.021  1.00  0.00     0.131 A 
HETATM    2  N2  UNL     1      -0.169   2.224   0.180  1.00  0.00    -0.341 N 
ATOM      3  H2  UNL     1       0.802   2.532   0.234  1.00  0.00     0.167 HD
HETATM    4  C7  UNL     1      -1.158   3.162   0.273  1.00  0.00     0.036 A 
HETATM    5  C10 UNL     1      -2.461   2.743   0.201  1.00  0.00     0.061 A 
HETATM    6  C11 UNL     1      -2.785   1.408   0.036  1.00  0.00     0.066 A 
HETATM    7  N3  UNL     1      -3.927   0.683  -0.061  1.00  0.00    -0.340 N 
ATOM      8  H3  UNL     1      -4.869   1.074  -0.029  1.00  0.00     0.167 HD
HETATM    9  C12 UNL     1      -3.647  -0.607  -0.204  1.00  0.00     0.123 A 
HETATM   10  N5  UNL     1      -2.281  -0.678  -0.195  1.00  0.00    -0.337 N 
ATOM     11  H5  UNL     1      -1.746  -1.541  -0.288  1.00  0.00     0.167 HD
HETATM   12  C17 UNL     1      -1.748   0.524  -0.050  1.00  0.00     0.105 A 
ENDROOT
BRANCH   1  13
HETATM   13  N1  UNL     1       0.469   0.043  -0.036  1.00  0.00    -0.374 N 
ATOM     14  H1  UNL     1       0.110  -0.903  -0.162  1.00  0.00     0.161 HD
BRANCH  13  15
HETATM   15  C5  UNL     1       1.891   0.121   0.043  1.00  0.00     0.123 C 
BRANCH  15  16
HETATM   16  C4  UNL     1       2.400  -1.303   0.065  1.00  0.00     0.053 C 
BRANCH  16  17
HETATM   17  C3  UNL     1       3.890  -1.432   0.187  1.00  0.00     0.143 C 
BRANCH  17  18
HETATM   18  C2  UNL     1       4.685  -0.808  -0.892  1.00  0.00     0.198 C 
BRANCH  18  19
HETATM   19  O1  UNL     1       5.993  -1.175  -0.905  1.00  0.00    -0.393 OA
HETATM   20  C1  UNL     1       6.794  -0.937   0.169  1.00  0.00     0.201 C 
ENDBRANCH  18  19
ENDBRANCH  17  18
BRANCH  17  21
HETATM   21  O2  UNL     1       4.311  -1.066   1.462  1.00  0.00    -0.393 OA
ATOM     22  H2  UNL     1       3.800  -1.467   2.155  1.00  0.00     0.210 HD
ENDBRANCH  17  21
ENDBRANCH  16  17
ENDBRANCH  15  16
ENDBRANCH  13  15
ENDBRANCH   1  13
BRANCH   4  23
HETATM   23  C8  UNL     1      -0.767   4.564   0.439  1.00  0.00     0.037 C 
BRANCH  23  24
HETATM   24  C9  UNL     1      -1.655   5.515   0.535  1.00  0.00     0.058 C 
HETATM   25 BR1  UNL     1      -1.024   7.320   0.753  1.00  0.00    -0.064 Br
ENDBRANCH  23  24
ENDBRANCH   4  23
BRANCH   9  26
HETATM   26  C13 UNL     1      -4.496  -1.784  -0.329  1.00  0.00     0.099 A 
HETATM   27  C14 UNL     1      -5.569  -2.083   0.361  1.00  0.00     0.098 A 
HETATM   28 BR2  UNL     1      -6.307  -1.010   1.748  1.00  0.00    -0.044 Br
HETATM   29  C15 UNL     1      -6.142  -3.367  -0.073  1.00  0.00     0.266 A 
HETATM   30  O3  UNL     1      -7.173  -3.920   0.404  1.00  0.00    -0.267 OA
HETATM   31  N4  UNL     1      -5.316  -3.851  -1.116  1.00  0.00    -0.288 N 
HETATM   32  C16 UNL     1      -4.289  -2.886  -1.293  1.00  0.00     0.263 A 
ATOM     33  H4  UNL     1      -5.435  -4.720  -1.637  1.00  0.00     0.172 HD
HETATM   34  O4  UNL     1      -3.328  -2.894  -2.109  1.00  0.00    -0.267 OA
ENDBRANCH   9  26
TORSDOF 10
