REMARK  10 active torsions:
REMARK  status: ('A' for Active; 'I' for Inactive)
REMARK    1  A    between atoms: O1_2  and  C2_3 
REMARK    2  A    between atoms: C2_3  and  C3_4 
REMARK    3  A    between atoms: C5_7  and  C6_8 
REMARK    4  A    between atoms: C6_8  and  O2_9 
REMARK    5  A    between atoms: C8_12  and  O3_13 
REMARK    6  A    between atoms: C11_18  and  O4_19 
REMARK    7  A    between atoms: C12_21  and  C13_22 
REMARK    8  A    between atoms: C13_22  and  C14_23 
REMARK    9  A    between atoms: C14_23  and  N1_24 
REMARK       I    between atoms: N1_24  and  C15_26 
REMARK   10  A    between atoms: C15_26  and  O6_28 
ROOT
HETATM    1  C3  UNL     1      -2.664   0.476   0.810  1.00  0.00     0.063 C 
HETATM    2  C4  UNL     1      -2.658  -1.025   1.025  1.00  0.00     0.085 C 
HETATM    3 BR1  UNL     1      -4.389  -1.680   0.466  1.00  0.00    -0.089 Br
HETATM    4  C5  UNL     1      -1.541  -1.540   0.120  1.00  0.00     0.062 C 
HETATM    5  C7  UNL     1      -1.689  -0.668  -1.105  1.00  0.00     0.063 C 
HETATM    6  C8  UNL     1      -2.028   0.680  -0.570  1.00  0.00     0.085 C 
HETATM    7  C9  UNL     1      -0.837   1.529  -0.458  1.00  0.00     0.028 C 
HETATM    8  C10 UNL     1       0.388   1.491   0.086  1.00  0.00     0.021 C 
HETATM    9 BR2  UNL     1       1.244   3.181  -0.337  1.00  0.00    -0.053 Br
HETATM   10  C11 UNL     1       1.208   0.575   0.892  1.00  0.00     0.191 C 
HETATM   11  C12 UNL     1       1.143  -0.858   0.612  1.00  0.00     0.005 C 
HETATM   12  C17 UNL     1      -0.226  -1.447   0.778  1.00  0.00     0.167 C 
HETATM   13  O7  UNL     1      -0.265  -2.067   1.827  1.00  0.00    -0.292 OA
ENDROOT
BRANCH  11  14
HETATM   14  C13 UNL     1       1.842  -1.377  -0.573  1.00  0.00     0.085 C 
BRANCH  14  15
HETATM   15  C14 UNL     1       3.298  -1.224  -0.632  1.00  0.00     0.070 C 
BRANCH  15  16
HETATM   16  N1  UNL     1       3.906   0.038  -0.779  1.00  0.00    -0.316 N 
HETATM   17  C15 UNL     1       5.339   0.203  -0.766  1.00  0.00     0.363 C 
HETATM   18  O5  UNL     1       6.042  -0.825  -0.617  1.00  0.00    -0.238 OA
ATOM     19  H1  UNL     1       3.315   0.861  -0.898  1.00  0.00     0.170 HD
BRANCH  17  20
HETATM   20  O6  UNL     1       5.934   1.424  -0.908  1.00  0.00    -0.309 OA
HETATM   21  C16 UNL     1       7.325   1.620  -0.900  1.00  0.00     0.215 C 
ENDBRANCH  17  20
ENDBRANCH  15  16
ENDBRANCH  14  15
ENDBRANCH  11  14
BRANCH  10  22
HETATM   22  O4  UNL     1       0.847   0.793   2.294  1.00  0.00    -0.386 OA
ATOM     23  H4  UNL     1       1.377   0.201   2.815  1.00  0.00     0.210 HD
ENDBRANCH  10  22
BRANCH   4  24
HETATM   24  C6  UNL     1      -1.927  -2.950  -0.271  1.00  0.00     0.183 C 
BRANCH  24  25
HETATM   25  O2  UNL     1      -2.046  -3.741   0.874  1.00  0.00    -0.400 OA
ATOM     26  H2  UNL     1      -2.288  -4.626   0.629  1.00  0.00     0.209 HD
ENDBRANCH  24  25
ENDBRANCH   4  24
BRANCH   6  27
HETATM   27  O3  UNL     1      -2.975   1.318  -1.409  1.00  0.00    -0.385 OA
ATOM     28  H3  UNL     1      -2.581   1.444  -2.264  1.00  0.00     0.211 HD
ENDBRANCH   6  27
BRANCH   1  29
HETATM   29  C2  UNL     1      -4.039   1.050   0.791  1.00  0.00     0.176 C 
BRANCH  29  30
HETATM   30  O1  UNL     1      -3.957   2.420   0.591  1.00  0.00    -0.395 OA
HETATM   31  C1  UNL     1      -5.227   3.011   0.564  1.00  0.00     0.201 C 
ENDBRANCH  29  30
ENDBRANCH   1  29
TORSDOF 10
