REMARK  8 active torsions:
REMARK  status: ('A' for Active; 'I' for Inactive)
REMARK       I    between atoms: C2_2  and  N1_4 
REMARK    1  A    between atoms: N1_4  and  C3_6 
REMARK    2  A    between atoms: C7_10  and  N2_11 
REMARK    3  A    between atoms: C7_10  and  C22_35 
REMARK       I    between atoms: N2_11  and  C8_13 
REMARK    4  A    between atoms: C8_13  and  C9_15 
REMARK    5  A    between atoms: C9_15  and  N3_16 
REMARK    6  A    between atoms: C9_15  and  C20_30 
REMARK       I    between atoms: N3_16  and  C10_18 
REMARK       I    between atoms: C10_18  and  N4_20 
REMARK    7  A    between atoms: C15_25  and  C16_26 
REMARK    8  A    between atoms: C20_30  and  C21_32 
ROOT
HETATM    1  C9  UNL     1       0.311  -1.370   2.100  1.00  0.00     0.254 C 
ENDROOT
BRANCH   1   2
HETATM    2  C8  UNL     1       1.313  -1.471   0.975  1.00  0.00     0.249 C 
HETATM    3  N2  UNL     1       1.721  -2.664   0.417  1.00  0.00    -0.339 N 
ATOM      4  H2  UNL     1       1.269  -3.500   0.788  1.00  0.00     0.163 HD
HETATM    5  O2  UNL     1       1.719  -0.314   0.618  1.00  0.00    -0.271 OA
BRANCH   3   6
HETATM    6  C7  UNL     1       2.700  -2.893  -0.620  1.00  0.00     0.127 C 
HETATM    7  C6  UNL     1       4.097  -2.664  -0.083  1.00  0.00     0.043 C 
HETATM    8  C5  UNL     1       4.946  -2.561  -1.311  1.00  0.00     0.010 C 
HETATM    9  C4  UNL     1       4.005  -1.997  -2.339  1.00  0.00     0.018 A 
HETATM   10  C3  UNL     1       3.393  -0.705  -1.911  1.00  0.00     0.096 A 
HETATM   11  C23 UNL     1       2.639  -1.945  -1.765  1.00  0.00     0.054 A 
BRANCH  10  12
HETATM   12  N1  UNL     1       3.016   0.173  -3.011  1.00  0.00    -0.356 N 
HETATM   13  C2  UNL     1       3.319   1.553  -3.035  1.00  0.00     0.213 C 
HETATM   14  C1  UNL     1       2.926   2.432  -4.148  1.00  0.00     0.117 C 
HETATM   15  O1  UNL     1       3.949   2.057  -2.067  1.00  0.00    -0.274 OA
ATOM     16  H1  UNL     1       2.510  -0.227  -3.801  1.00  0.00     0.162 HD
ENDBRANCH  10  12
BRANCH   6  17
HETATM   17  C22 UNL     1       2.603  -4.270  -1.115  1.00  0.00     0.203 C 
HETATM   18  O5  UNL     1       1.786  -5.071  -0.565  1.00  0.00    -0.646 OA
HETATM   19  O6  UNL     1       3.362  -4.723  -2.149  1.00  0.00    -0.646 OA
ENDBRANCH   6  17
ENDBRANCH   3   6
ENDBRANCH   1   2
BRANCH   1  20
HETATM   20  N3  UNL     1      -0.709  -0.399   1.787  1.00  0.00    -0.323 N 
HETATM   21  C10 UNL     1      -0.657   0.981   1.931  1.00  0.00     0.323 C 
HETATM   22  O3  UNL     1       0.416   1.481   2.382  1.00  0.00    -0.247 OA
HETATM   23  N4  UNL     1      -1.706   1.841   1.608  1.00  0.00    -0.307 N 
HETATM   24  C11 UNL     1      -1.399   3.292   1.712  1.00  0.00     0.133 C 
HETATM   25  C15 UNL     1      -3.059   1.474   1.288  1.00  0.00     0.001 C 
HETATM   26  C12 UNL     1      -2.416   4.059   2.479  1.00  0.00     0.021 C 
HETATM   27  C13 UNL     1      -3.830   3.650   2.353  1.00  0.00     0.007 C 
HETATM   28  C14 UNL     1      -3.999   2.187   2.261  1.00  0.00     0.053 C 
ATOM     29  H3  UNL     1      -1.580  -0.774   1.412  1.00  0.00     0.165 HD
BRANCH  25  30
HETATM   30  C16 UNL     1      -3.529   1.422  -0.097  1.00  0.00    -0.012 C 
HETATM   31  C17 UNL     1      -3.465   2.640  -0.936  1.00  0.00     0.021 C 
HETATM   32  C18 UNL     1      -2.967   0.295  -0.958  1.00  0.00     0.021 C 
HETATM   33  C19 UNL     1      -5.063   1.050  -0.048  1.00  0.00     0.021 C 
ENDBRANCH  25  30
ENDBRANCH   1  20
BRANCH   1  34
HETATM   34  C20 UNL     1      -0.117  -2.661   2.583  1.00  0.00     0.222 C 
HETATM   35  O4  UNL     1      -1.221  -3.136   2.361  1.00  0.00    -0.289 OA
BRANCH  34  36
HETATM   36  C21 UNL     1       0.800  -3.516   3.421  1.00  0.00     0.424 C 
HETATM   37  F1  UNL     1       0.887  -2.956   4.700  1.00  0.00    -0.206 F 
HETATM   38  F2  UNL     1       0.253  -4.755   3.549  1.00  0.00    -0.206 F 
ENDBRANCH  34  36
ENDBRANCH   1  34
TORSDOF 8
