REMARK  10 active torsions:
REMARK  status: ('A' for Active; 'I' for Inactive)
REMARK    1  A    between atoms: C2_3  and  C3_5 
REMARK    2  A    between atoms: C3_5  and  C4_8 
REMARK       I    between atoms: C4_8  and  N2_10 
REMARK    3  A    between atoms: N2_10  and  C5_12 
REMARK    4  A    between atoms: C5_12  and  C6_13 
REMARK    5  A    between atoms: C5_12  and  C22_36 
REMARK    6  A    between atoms: C6_13  and  O3_14 
REMARK    7  A    between atoms: C6_13  and  N3_16 
REMARK    8  A    between atoms: C15_25  and  C16_26 
REMARK       I    between atoms: C16_26  and  N4_28 
REMARK    9  A    between atoms: N4_28  and  C17_30 
REMARK   10  A    between atoms: C22_36  and  O5_38 
ROOT
HETATM    1  C1  UNL     1       7.640  -1.819  -0.880  1.00  0.00     0.233 C 
HETATM    2  N1  UNL     1       7.132  -0.636  -0.733  1.00  0.00    -0.390 NA
HETATM    3  C2  UNL     1       6.567   0.680  -0.571  1.00  0.00     0.373 C 
HETATM    4  O1  UNL     1       6.938   1.665  -1.234  1.00  0.00    -0.249 OA
ENDROOT
BRANCH   3   5
HETATM    5  C3  UNL     1       5.496   0.941   0.413  1.00  0.00     0.414 C 
HETATM    6  F1  UNL     1       5.972   0.869   1.714  1.00  0.00    -0.183 F 
HETATM    7  F2  UNL     1       4.944   2.159   0.212  1.00  0.00    -0.183 F 
BRANCH   5   8
HETATM    8  C4  UNL     1       4.361  -0.084   0.273  1.00  0.00     0.306 C 
HETATM    9  O2  UNL     1       4.721  -1.150  -0.230  1.00  0.00    -0.266 OA
HETATM   10  N2  UNL     1       3.109   0.245   0.702  1.00  0.00    -0.319 N 
ATOM     11  H2  UNL     1       3.023   1.197   1.058  1.00  0.00     0.169 HD
BRANCH  10  12
HETATM   12  C5  UNL     1       1.893  -0.512   0.741  1.00  0.00     0.091 C 
BRANCH  12  13
HETATM   13  C6  UNL     1       0.774   0.307   1.165  1.00  0.00     0.164 C 
BRANCH  13  14
HETATM   14  O3  UNL     1       1.190   1.081   2.197  1.00  0.00    -0.345 OA
ATOM     15  H3  UNL     1       0.457   1.618   2.475  1.00  0.00     0.219 HD
ENDBRANCH  13  14
BRANCH  13  16
HETATM   16  N3  UNL     1      -0.543   0.558   0.870  1.00  0.00    -0.346 N 
HETATM   17  C7  UNL     1      -1.255   1.547   1.690  1.00  0.00     0.131 C 
HETATM   18  C8  UNL     1      -2.109   2.504   0.972  1.00  0.00     0.008 C 
HETATM   19  C9  UNL     1      -1.390   3.868   0.979  1.00  0.00     0.006 C 
HETATM   20  C13 UNL     1      -2.525   2.211  -0.396  1.00  0.00    -0.006 C 
HETATM   21  C10 UNL     1      -2.463   4.876   0.647  1.00  0.00     0.000 C 
HETATM   22  C11 UNL     1      -2.858   4.683  -0.801  1.00  0.00     0.000 C 
HETATM   23  C12 UNL     1      -2.276   3.415  -1.326  1.00  0.00     0.005 C 
HETATM   24  C14 UNL     1      -1.927   1.052  -1.078  1.00  0.00     0.040 C 
HETATM   25  C15 UNL     1      -1.321  -0.015  -0.160  1.00  0.00     0.178 C 
BRANCH  25  26
HETATM   26  C16 UNL     1      -2.397  -0.918   0.333  1.00  0.00     0.242 C 
HETATM   27  O4  UNL     1      -2.598  -1.049   1.553  1.00  0.00    -0.271 OA
HETATM   28  N4  UNL     1      -3.193  -1.629  -0.586  1.00  0.00    -0.337 N 
ATOM     29  H4  UNL     1      -3.032  -1.531  -1.588  1.00  0.00     0.164 HD
BRANCH  28  30
HETATM   30  C17 UNL     1      -4.240  -2.498  -0.098  1.00  0.00     0.122 C 
HETATM   31  C18 UNL     1      -5.280  -1.812   0.662  1.00  0.00     0.091 C 
HETATM   32  N5  UNL     1      -6.113  -1.288   1.245  1.00  0.00    -0.195 NA
HETATM   33  C19 UNL     1      -4.708  -3.460  -1.153  1.00  0.00     0.047 C 
HETATM   34  C20 UNL     1      -3.624  -4.420  -0.650  1.00  0.00     0.007 C 
HETATM   35  C21 UNL     1      -3.677  -3.705   0.666  1.00  0.00     0.047 C 
ENDBRANCH  28  30
ENDBRANCH  25  26
ENDBRANCH  13  16
ENDBRANCH  12  13
BRANCH  12  36
HETATM   36  C22 UNL     1       1.666  -1.628  -0.170  1.00  0.00     0.168 C 
HETATM   37  C23 UNL     1       2.393  -2.902   0.230  1.00  0.00     0.046 C 
BRANCH  36  38
HETATM   38  O5  UNL     1       1.819  -1.410  -1.517  1.00  0.00    -0.390 OA
ATOM     39  H5  UNL     1       1.671  -2.137  -2.110  1.00  0.00     0.210 HD
ENDBRANCH  36  38
ENDBRANCH  12  36
ENDBRANCH  10  12
ENDBRANCH   5   8
ENDBRANCH   3   5
TORSDOF 9
