REMARK  10 active torsions:
REMARK  status: ('A' for Active; 'I' for Inactive)
REMARK    1  A    between atoms: C2_2  and  O1_3 
REMARK    2  A    between atoms: C2_2  and  C9_25 
REMARK    3  A    between atoms: O1_3  and  C3_4 
REMARK    4  A    between atoms: C3_4  and  C4_5 
REMARK    5  A    between atoms: C4_5  and  N1_6 
REMARK    6  A    between atoms: N1_6  and  C5_8 
REMARK    7  A    between atoms: C7_15  and  N4_16 
REMARK    8  A    between atoms: N6_21  and  O2_23 
REMARK    9  A    between atoms: C10_26  and  C11_27 
REMARK   10  A    between atoms: C11_27  and  N7_28 
ROOT
HETATM    1  O1  UNL     1       0.911   0.577  -0.415  1.00  0.00    -0.327 OA
ENDROOT
BRANCH   1   2
HETATM    2  C2  UNL     1       0.077   0.727   0.691  1.00  0.00     0.158 C 
HETATM    3  C1  UNL     1       0.913   0.369   1.927  1.00  0.00     0.045 C 
BRANCH   2   4
HETATM    4  C9  UNL     1      -1.120  -0.161   0.602  1.00  0.00    -0.020 C 
HETATM    5  C10 UNL     1      -2.327   0.364   0.785  1.00  0.00    -0.052 C 
HETATM    6  C17 UNL     1      -3.564  -0.506   0.713  1.00  0.00     0.066 C 
HETATM    7  C18 UNL     1      -3.351  -1.878   0.244  1.00  0.00     0.023 C 
HETATM    8  C19 UNL     1      -4.329  -2.153  -0.917  1.00  0.00     0.038 C 
HETATM    9  C20 UNL     1      -3.790  -2.837   1.346  1.00  0.00     0.038 C 
HETATM   10  N8  UNL     1      -2.081  -2.254  -0.196  1.00  0.00    -0.401 N 
HETATM   11  C21 UNL     1      -0.954  -1.586   0.360  1.00  0.00     0.045 C 
ATOM     12  H8  UNL     1      -1.964  -2.987  -0.896  1.00  0.00     0.155 HD
HETATM   13  C22 UNL     1      -0.578  -2.287   1.648  1.00  0.00     0.043 C 
HETATM   14  C23 UNL     1       0.184  -1.915  -0.626  1.00  0.00     0.043 C 
BRANCH   5  15
HETATM   15  C11 UNL     1      -2.627   1.773   1.081  1.00  0.00     0.162 C 
BRANCH  15  16
HETATM   16  N7  UNL     1      -3.417   2.415   0.069  1.00  0.00    -0.363 N 
HETATM   17  C12 UNL     1      -2.838   2.990  -0.995  1.00  0.00     0.090 A 
HETATM   18  C13 UNL     1      -3.581   3.659  -1.968  1.00  0.00     0.017 A 
HETATM   19  C14 UNL     1      -4.944   3.723  -1.820  1.00  0.00     0.003 A 
HETATM   20  C15 UNL     1      -5.538   3.140  -0.739  1.00  0.00     0.017 A 
HETATM   21  C16 UNL     1      -4.743   2.493   0.188  1.00  0.00     0.090 A 
ENDBRANCH  15  16
ENDBRANCH   5  15
ENDBRANCH   2   4
ENDBRANCH   1   2
BRANCH   1  22
HETATM   22  C3  UNL     1       2.085   1.210  -0.709  1.00  0.00     0.158 C 
HETATM   23  N6  UNL     1       2.124   2.473  -0.556  1.00  0.00    -0.245 N 
HETATM   24  C8  UNL     1       3.362   3.181  -0.857  1.00  0.00     0.187 C 
BRANCH  22  25
HETATM   25  C4  UNL     1       3.294   0.485  -1.193  1.00  0.00     0.224 C 
BRANCH  25  26
HETATM   26  N1  UNL     1       3.843  -0.408  -0.186  1.00  0.00    -0.218 N 
ATOM     27  H1  UNL     1       3.303  -0.689   0.632  1.00  0.00     0.178 HD
BRANCH  26  28
HETATM   28  C5  UNL     1       5.044  -0.827  -0.378  1.00  0.00     0.695 A 
HETATM   29  N2  UNL     1       5.787  -0.474  -1.452  1.00  0.00    -0.165 N 
HETATM   30  C6  UNL     1       7.037  -0.915  -1.641  1.00  0.00     0.208 A 
ATOM     31  H2  UNL     1       5.379   0.153  -2.145  1.00  0.00     0.186 HD
HETATM   32 CL1  UNL     1       7.914  -0.401  -3.056  1.00  0.00    -0.044 Cl
HETATM   33  N3  UNL     1       7.616  -1.737  -0.765  1.00  0.00    -0.165 N 
HETATM   34  C7  UNL     1       6.904  -2.108   0.314  1.00  0.00     0.692 A 
ATOM     35  H3  UNL     1       8.568  -2.074  -0.909  1.00  0.00     0.186 HD
HETATM   36  N5  UNL     1       5.636  -1.659   0.505  1.00  0.00    -0.023 N 
ATOM     37  H5  UNL     1       5.120  -1.957   1.333  1.00  0.00     0.203 HD
BRANCH  34  38
HETATM   38  N4  UNL     1       7.458  -2.907   1.177  1.00  0.00    -0.234 N 
ATOM     39  H42 UNL     1       8.410  -3.244   1.034  1.00  0.00     0.174 HD
ATOM     40  H41 UNL     1       6.918  -3.188   1.995  1.00  0.00     0.174 HD
ENDBRANCH  34  38
ENDBRANCH  26  28
ENDBRANCH  25  26
ENDBRANCH  22  25
BRANCH  23  41
HETATM   41  O2  UNL     1       1.086   3.283  -0.146  1.00  0.00    -0.286 OA
ATOM     42  H2  UNL     1       1.115   4.226  -0.032  1.00  0.00     0.244 HD
ENDBRANCH  23  41
ENDBRANCH   1  22
TORSDOF 10
