REMARK  8 active torsions:
REMARK  status: ('A' for Active; 'I' for Inactive)
REMARK    1  A    between atoms: C2_2  and  O1_3 
REMARK    2  A    between atoms: O1_3  and  C3_4 
REMARK    3  A    between atoms: C3_4  and  C4_5 
REMARK    4  A    between atoms: C4_5  and  O2_6 
REMARK    5  A    between atoms: O2_6  and  C5_7 
REMARK    6  A    between atoms: C5_7  and  N1_8 
REMARK    7  A    between atoms: C12_20  and  N3_21 
REMARK    8  A    between atoms: N3_21  and  N4_23 
ROOT
HETATM    1  N1  UNL     1      -1.022   0.280   0.121  1.00  0.00    -0.250 N 
HETATM    2  N2  UNL     1      -1.657   1.281  -0.485  1.00  0.00    -0.294 N 
ATOM      3  H2  UNL     1      -1.221   2.044  -1.003  1.00  0.00     0.187 HD
HETATM    4  C6  UNL     1      -2.970   1.106  -0.293  1.00  0.00     0.065 A 
HETATM    5  C7  UNL     1      -4.080   1.851  -0.706  1.00  0.00     0.052 A 
HETATM    6  C8  UNL     1      -5.316   1.412  -0.348  1.00  0.00     0.032 A 
HETATM    7 BR1  UNL     1      -6.837   2.430  -0.913  1.00  0.00    -0.050 Br
HETATM    8  C9  UNL     1      -5.559   0.277   0.398  1.00  0.00     0.046 A 
HETATM    9 BR2  UNL     1      -7.318  -0.290   0.871  1.00  0.00    -0.048 Br
HETATM   10  C10 UNL     1      -4.455  -0.448   0.799  1.00  0.00     0.046 A 
HETATM   11 BR3  UNL     1      -4.632  -2.036   1.833  1.00  0.00    -0.049 Br
HETATM   12  C11 UNL     1      -3.186  -0.031   0.453  1.00  0.00     0.058 A 
HETATM   13  C12 UNL     1      -1.907  -0.538   0.702  1.00  0.00     0.152 A 
ENDROOT
BRANCH   1  14
HETATM   14  C5  UNL     1       0.436   0.172   0.108  1.00  0.00     0.318 C 
BRANCH  14  15
HETATM   15  O2  UNL     1       0.759  -0.588  -0.996  1.00  0.00    -0.368 OA
BRANCH  15  16
HETATM   16  C4  UNL     1       2.096  -0.814  -1.192  1.00  0.00     0.196 C 
BRANCH  16  17
HETATM   17  C3  UNL     1       2.908   0.448  -1.379  1.00  0.00     0.193 C 
BRANCH  17  18
HETATM   18  O1  UNL     1       4.242   0.202  -1.574  1.00  0.00    -0.389 OA
BRANCH  18  19
HETATM   19  C2  UNL     1       4.860  -0.463  -0.545  1.00  0.00     0.163 C 
HETATM   20  C1  UNL     1       4.797   0.284   0.768  1.00  0.00     0.033 C 
ENDBRANCH  18  19
ENDBRANCH  17  18
ENDBRANCH  16  17
ENDBRANCH  15  16
ENDBRANCH  14  15
ENDBRANCH   1  14
BRANCH  13  21
HETATM   21  N3  UNL     1      -1.725  -1.598   1.365  1.00  0.00    -0.290 N 
ATOM     22  H3  UNL     1      -2.582  -2.036   1.703  1.00  0.00     0.188 HD
BRANCH  21  23
HETATM   23  N4  UNL     1      -0.582  -2.258   1.707  1.00  0.00    -0.344 N 
ATOM     24  H42 UNL     1       0.263  -1.804   1.360  1.00  0.00     0.176 HD
ATOM     25  H41 UNL     1      -0.435  -3.114   2.242  1.00  0.00     0.176 HD
ENDBRANCH  21  23
ENDBRANCH  13  21
TORSDOF 8
