REMARK  9 active torsions:
REMARK  status: ('A' for Active; 'I' for Inactive)
REMARK    1  A    between atoms: C2_2  and  C3_3 
REMARK    2  A    between atoms: C3_3  and  C4_4 
REMARK    3  A    between atoms: C14_14  and  C15_15 
REMARK    4  A    between atoms: C15_15  and  C16_16 
REMARK       I    between atoms: C16_16  and  N1_18 
REMARK    5  A    between atoms: N1_18  and  C18_20 
REMARK    6  A    between atoms: C18_20  and  C19_21 
REMARK    7  A    between atoms: C21_27  and  C22_28 
REMARK    8  A    between atoms: C23_31  and  O5_32 
REMARK    9  A    between atoms: C25_35  and  O6_36 
ROOT
HETATM    1  C4  UNL     1      -2.943   1.144  -0.840  1.00  0.00    -0.010 C 
HETATM    2  C5  UNL     1      -3.773  -0.154  -1.038  1.00  0.00     0.012 C 
HETATM    3  C6  UNL     1      -3.235  -1.053  -0.049  1.00  0.00     0.022 C 
HETATM    4  C7  UNL     1      -3.835  -2.346   0.315  1.00  0.00     0.009 C 
HETATM    5  C8  UNL     1      -2.542  -2.982   0.904  1.00  0.00     0.015 C 
HETATM    6  C9  UNL     1      -1.370  -2.235   0.515  1.00  0.00     0.026 A 
HETATM    7  C10 UNL     1      -0.790  -1.322  -0.462  1.00  0.00     0.044 A 
HETATM    8  C11 UNL     1      -0.753   0.138  -0.028  1.00  0.00    -0.021 A 
HETATM    9  C12 UNL     1      -1.496   0.916  -1.053  1.00  0.00     0.015 C 
HETATM   10  C13 UNL     1       0.584   0.516   0.483  1.00  0.00     0.014 A 
HETATM   11  C14 UNL     1       1.613  -0.537   0.791  1.00  0.00     0.071 C 
HETATM   12  C20 UNL     1       1.030  -1.893   0.942  1.00  0.00     0.154 C 
HETATM   13  O2  UNL     1       1.630  -2.886   0.605  1.00  0.00    -0.296 OA
HETATM   14  C21 UNL     1      -0.374  -1.992   1.547  1.00  0.00     0.146 C 
HETATM   15  C23 UNL     1      -0.480  -0.720   2.325  1.00  0.00     0.151 C 
HETATM   16  C24 UNL     1      -0.596   0.419   1.364  1.00  0.00     0.031 A 
HETATM   17  C25 UNL     1      -2.019  -1.704  -0.665  1.00  0.00     0.076 A 
ENDROOT
BRANCH  11  18
HETATM   18  C15 UNL     1       2.760  -0.535  -0.182  1.00  0.00     0.115 C 
BRANCH  18  19
HETATM   19  C16 UNL     1       3.520   0.723  -0.182  1.00  0.00     0.220 C 
HETATM   20  O1  UNL     1       3.241   1.599   0.674  1.00  0.00    -0.273 OA
HETATM   21  N1  UNL     1       4.564   0.989  -1.116  1.00  0.00    -0.348 N 
HETATM   22  C17 UNL     1       4.951   0.038  -2.135  1.00  0.00     0.152 C 
BRANCH  21  23
HETATM   23  C18 UNL     1       5.256   2.253  -1.039  1.00  0.00     0.242 C 
BRANCH  23  24
HETATM   24  C19 UNL     1       6.458   2.148  -0.115  1.00  0.00     0.403 C 
HETATM   25  F1  UNL     1       7.327   1.191  -0.600  1.00  0.00    -0.169 F 
HETATM   26  F2  UNL     1       6.104   1.755   1.160  1.00  0.00    -0.169 F 
HETATM   27  F3  UNL     1       7.096   3.373  -0.015  1.00  0.00    -0.169 F 
ENDBRANCH  23  24
ENDBRANCH  21  23
ENDBRANCH  18  19
ENDBRANCH  11  18
BRANCH  14  28
HETATM   28  C22 UNL     1      -0.242  -3.143   2.458  1.00  0.00     0.193 C 
HETATM   29  O3  UNL     1      -0.719  -4.249   2.166  1.00  0.00    -0.647 OA
HETATM   30  O4  UNL     1       0.427  -3.000   3.662  1.00  0.00    -0.647 OA
ENDBRANCH  14  28
BRANCH  15  31
HETATM   31  O5  UNL     1      -1.473  -0.739   3.299  1.00  0.00    -0.393 OA
ATOM     32  H5  UNL     1      -1.540   0.069   3.793  1.00  0.00     0.210 HD
ENDBRANCH  15  31
BRANCH  17  33
HETATM   33  O6  UNL     1      -2.379  -2.643  -1.665  1.00  0.00    -0.388 OA
ATOM     34  H6  UNL     1      -1.614  -3.052  -2.052  1.00  0.00     0.210 HD
ENDBRANCH  17  33
BRANCH   1  35
HETATM   35  C3  UNL     1      -3.551   2.267  -1.594  1.00  0.00     0.031 C 
BRANCH  35  36
HETATM   36  C2  UNL     1      -2.777   3.513  -1.410  1.00  0.00    -0.037 C 
HETATM   37  C1  UNL     1      -3.338   4.602  -0.847  1.00  0.00     0.007 C 
ENDBRANCH  35  36
ENDBRANCH   1  35
TORSDOF 9
