REMARK  8 active torsions:
REMARK  status: ('A' for Active; 'I' for Inactive)
REMARK    1  A    between atoms: C2_2  and  N1_4 
REMARK       I    between atoms: N1_4  and  C4_6 
REMARK    2  A    between atoms: C4_6  and  C5_8 
REMARK    3  A    between atoms: C5_8  and  N2_9 
REMARK       I    between atoms: N2_9  and  C6_11 
REMARK    4  A    between atoms: C6_11  and  C7_13 
REMARK       I    between atoms: N3_16  and  C10_17 
REMARK       I    between atoms: C10_17  and  N4_19 
REMARK    5  A    between atoms: N5_22  and  C13_23 
REMARK    6  A    between atoms: C13_23  and  C14_24 
REMARK    7  A    between atoms: C14_24  and  C15_25 
REMARK    8  A    between atoms: C21_34  and  O4_36 
ROOT
HETATM    1  N2  UNL     1      -2.441  -1.114   1.688  1.00  0.00    -0.339 N 
ATOM      2  H2  UNL     1      -2.492  -1.941   2.284  1.00  0.00     0.164 HD
HETATM    3  C6  UNL     1      -1.182  -0.759   1.165  1.00  0.00     0.241 C 
HETATM    4  O2  UNL     1      -1.087   0.241   0.441  1.00  0.00    -0.271 OA
ENDROOT
BRANCH   3   5
HETATM    5  C7  UNL     1      -0.012  -1.577   1.489  1.00  0.00     0.182 C 
HETATM    6  C8  UNL     1       0.504  -1.352   2.918  1.00  0.00     0.055 C 
HETATM    7  C9  UNL     1       1.818  -1.729   2.265  1.00  0.00     0.131 C 
HETATM    8  N3  UNL     1       1.276  -1.229   0.994  1.00  0.00    -0.320 N 
HETATM    9  C10 UNL     1       1.915  -0.670  -0.138  1.00  0.00     0.321 C 
HETATM   10  O3  UNL     1       1.150  -0.299  -1.109  1.00  0.00    -0.247 OA
HETATM   11  N4  UNL     1       3.285  -0.462  -0.352  1.00  0.00    -0.331 N 
HETATM   12  C11 UNL     1       4.311  -0.845   0.590  1.00  0.00     0.158 C 
HETATM   13  C17 UNL     1       3.790   0.183  -1.569  1.00  0.00     0.158 C 
HETATM   14  C12 UNL     1       5.657  -0.868  -0.135  1.00  0.00     0.292 C 
HETATM   15  N5  UNL     1       5.987   0.498  -0.505  1.00  0.00     0.091 N 
HETATM   16  C16 UNL     1       4.953   1.112  -1.287  1.00  0.00     0.292 C 
BRANCH  15  17
HETATM   17  C13 UNL     1       7.307   0.607  -1.028  1.00  0.00     0.281 C 
BRANCH  17  18
HETATM   18  C14 UNL     1       7.539  -0.037  -2.358  1.00  0.00     0.147 C 
BRANCH  18  19
HETATM   19  C15 UNL     1       9.014   0.210  -2.707  1.00  0.00     0.389 C 
HETATM   20  F1  UNL     1       9.295   1.554  -2.774  1.00  0.00    -0.171 F 
HETATM   21  F2  UNL     1       9.334  -0.343  -3.937  1.00  0.00    -0.171 F 
HETATM   22  F3  UNL     1       9.806  -0.338  -1.715  1.00  0.00    -0.171 F 
ENDBRANCH  18  19
ENDBRANCH  17  18
ENDBRANCH  15  17
ENDBRANCH   3   5
BRANCH   1  23
HETATM   23  C5  UNL     1      -3.688  -0.374   1.434  1.00  0.00     0.144 C 
HETATM   24  C18 UNL     1      -4.771  -1.111   2.152  1.00  0.00     0.044 C 
HETATM   25  C19 UNL     1      -5.708  -0.121   2.719  1.00  0.00     0.006 C 
HETATM   26  C20 UNL     1      -4.967   1.176   2.757  1.00  0.00     0.041 C 
HETATM   27  C21 UNL     1      -3.660   0.971   2.035  1.00  0.00     0.088 C 
HETATM   28  C22 UNL     1      -3.470   2.138   1.127  1.00  0.00     0.049 C 
BRANCH  23  29
HETATM   29  C4  UNL     1      -4.001  -0.408  -0.023  1.00  0.00     0.249 C 
HETATM   30  N1  UNL     1      -5.139   0.263  -0.548  1.00  0.00    -0.355 N 
ATOM     31  H1  UNL     1      -5.744   0.776   0.093  1.00  0.00     0.162 HD
HETATM   32  O1  UNL     1      -3.292  -1.021  -0.864  1.00  0.00    -0.271 OA
BRANCH  30  33
HETATM   33  C2  UNL     1      -5.475   0.247  -1.963  1.00  0.00     0.076 C 
HETATM   34  C1  UNL     1      -6.852  -0.306  -2.147  1.00  0.00     0.032 C 
HETATM   35  C3  UNL     1      -5.434   1.636  -2.578  1.00  0.00     0.032 C 
ENDBRANCH  30  33
ENDBRANCH  23  29
BRANCH  27  36
HETATM   36  O4  UNL     1      -2.663   0.962   3.030  1.00  0.00    -0.387 OA
ATOM     37  H4  UNL     1      -2.645   1.829   3.417  1.00  0.00     0.210 HD
ENDBRANCH  27  36
ENDBRANCH   1  23
TORSDOF 8
