REMARK  5 active torsions:
REMARK  status: ('A' for Active; 'I' for Inactive)
REMARK    1  A    between atoms: N1_1  and  C1_5 
REMARK    2  A    between atoms: C1_5  and  C2_6 
REMARK    3  A    between atoms: C2_6  and  N2_7 
REMARK    4  A    between atoms: C2_6  and  C3_11 
REMARK    5  A    between atoms: C3_11  and  N3_12 
ROOT
HETATM    1  C3  UNL     1      -0.217   0.955  -0.706  1.00  0.00     0.183 C 
ENDROOT
BRANCH   1   2
HETATM    2  C2  UNL     1      -1.175   0.500   0.362  1.00  0.00     0.228 C 
BRANCH   2   3
HETATM    3  C1  UNL     1      -1.752  -0.864   0.086  1.00  0.00     0.264 C 
BRANCH   3   4
HETATM    4  N1  UNL     1      -2.648  -1.207   1.154  1.00  0.00    -0.077 N 
ATOM      5  H13 UNL     1      -2.204  -1.149   2.071  1.00  0.00     0.274 HD
ATOM      6  H12 UNL     1      -3.369  -0.500   1.302  1.00  0.00     0.274 HD
ATOM      7  H11 UNL     1      -3.039  -2.131   0.967  1.00  0.00     0.274 HD
ENDBRANCH   3   4
ENDBRANCH   2   3
BRANCH   2   8
HETATM    8  N2  UNL     1      -2.265   1.446   0.431  1.00  0.00    -0.072 N 
ATOM      9  H23 UNL     1      -2.854   1.429  -0.402  1.00  0.00     0.274 HD
ATOM     10  H22 UNL     1      -2.978   1.176   1.109  1.00  0.00     0.274 HD
ATOM     11  H21 UNL     1      -1.874   2.370   0.618  1.00  0.00     0.274 HD
ENDBRANCH   2   8
ENDBRANCH   1   2
BRANCH   1  12
HETATM   12  N3  UNL     1       0.910   0.080  -0.864  1.00  0.00    -0.254 N 
HETATM   13  N4  UNL     1       1.044  -0.970  -1.654  1.00  0.00    -0.017 NA
HETATM   14  N5  UNL     1       2.238  -1.521  -1.515  1.00  0.00    -0.265 N 
HETATM   15  C4  UNL     1       2.931  -0.805  -0.592  1.00  0.00     0.180 A 
ATOM     16  H5  UNL     1       2.580  -2.342  -2.015  1.00  0.00     0.186 HD
HETATM   17  N6  UNL     1       3.878  -0.350   0.244  1.00  0.00    -0.280 N 
HETATM   18  C5  UNL     1       2.076   0.191  -0.201  1.00  0.00     0.183 A 
HETATM   19  N7  UNL     1       3.063   0.610   0.626  1.00  0.00    -0.280 N 
ATOM     20  H6  UNL     1       4.829  -0.630   0.483  1.00  0.00     0.188 HD
ATOM     21  H7  UNL     1       3.144   1.378   1.292  1.00  0.00     0.189 HD
ENDBRANCH   1  12
TORSDOF 5
