REMARK  6 active torsions:
REMARK  status: ('A' for Active; 'I' for Inactive)
REMARK    1  A    between atoms: N1_1  and  C1_5 
REMARK    2  A    between atoms: C1_5  and  C2_6 
REMARK    3  A    between atoms: C2_6  and  C3_7 
REMARK    4  A    between atoms: C3_7  and  N2_8 
REMARK    5  A    between atoms: N2_8  and  C4_10 
REMARK    6  A    between atoms: N5_16  and  N6_17 
ROOT
HETATM    1  C4  UNL     1       1.035   0.006  -0.096  1.00  0.00     0.700 A 
HETATM    2  N3  UNL     1       1.082   1.319   0.118  1.00  0.00    -0.197 N 
ATOM      3  H3  UNL     1       0.316   1.972  -0.047  1.00  0.00     0.183 HD
HETATM    4  C5  UNL     1       2.299   1.648   0.586  1.00  0.00     0.153 A 
HETATM    5  C6  UNL     1       3.057   0.498   0.673  1.00  0.00     0.171 A 
HETATM    6  N4  UNL     1       4.411   0.371   1.119  1.00  0.00    -0.079 NA
HETATM    7  N5  UNL     1       2.237  -0.492   0.242  1.00  0.00    -0.078 N 
ENDROOT
BRANCH   1   8
HETATM    8  N2  UNL     1       0.051  -0.719  -0.543  1.00  0.00    -0.224 N 
ATOM      9  H2  UNL     1       0.186  -1.725  -0.648  1.00  0.00     0.177 HD
BRANCH   8  10
HETATM   10  C3  UNL     1      -1.222  -0.146  -0.894  1.00  0.00     0.140 C 
BRANCH  10  11
HETATM   11  C2  UNL     1      -2.178  -0.368   0.245  1.00  0.00     0.047 C 
BRANCH  11  12
HETATM   12  C1  UNL     1      -3.550   0.203  -0.032  1.00  0.00     0.231 C 
BRANCH  12  13
HETATM   13  N1  UNL     1      -4.374  -0.075   1.135  1.00  0.00    -0.079 N 
ATOM     14  H13 UNL     1      -4.395  -1.064   1.383  1.00  0.00     0.274 HD
ATOM     15  H12 UNL     1      -3.966   0.269   2.004  1.00  0.00     0.274 HD
ATOM     16  H11 UNL     1      -5.300   0.310   0.948  1.00  0.00     0.274 HD
ENDBRANCH  12  13
ENDBRANCH  11  12
ENDBRANCH  10  11
ENDBRANCH   8  10
ENDBRANCH   1   8
BRANCH   7  17
HETATM   17  N6  UNL     1       2.641  -1.823   0.180  1.00  0.00    -0.323 N 
ATOM     18  H62 UNL     1       2.024  -2.568  -0.144  1.00  0.00     0.178 HD
ATOM     19  H61 UNL     1       3.553  -2.201   0.436  1.00  0.00     0.178 HD
ENDBRANCH   7  17
TORSDOF 6
