REMARK  4 active torsions:
REMARK  status: ('A' for Active; 'I' for Inactive)
REMARK    1  A    between atoms: N5_14  and  C5_15 
REMARK    2  A    between atoms: C5_15  and  C6_16 
REMARK    3  A    between atoms: C6_16  and  N6_17 
REMARK    4  A    between atoms: C6_16  and  N7_21 
ROOT
HETATM    1  N1  UNL     1      -4.239  -1.381  -0.093  1.00  0.00    -0.382 N 
ATOM      2  H11 UNL     1      -4.338  -2.367   0.148  1.00  0.00     0.157 HD
ATOM      3  H12 UNL     1      -5.155  -1.057  -0.404  1.00  0.00     0.157 HD
HETATM    4  C1  UNL     1      -3.181  -0.677  -0.024  1.00  0.00     0.144 A 
HETATM    5  N2  UNL     1      -3.049   0.638  -0.345  1.00  0.00    -0.282 N 
ATOM      6  H2  UNL     1      -3.799   1.237  -0.689  1.00  0.00     0.188 HD
HETATM    7  N3  UNL     1      -1.805   1.019  -0.144  1.00  0.00    -0.282 N 
ATOM      8  H3  UNL     1      -1.437   1.956  -0.307  1.00  0.00     0.188 HD
HETATM    9  C2  UNL     1      -1.103  -0.024   0.308  1.00  0.00     0.154 A 
HETATM   10  C3  UNL     1      -1.947  -1.114   0.395  1.00  0.00     0.124 A 
HETATM   11  N4  UNL     1      -1.181  -2.125   0.854  1.00  0.00    -0.346 N 
ATOM     12  H4  UNL     1      -1.508  -3.075   1.029  1.00  0.00     0.167 HD
HETATM   13  C4  UNL     1       0.092  -1.690   1.048  1.00  0.00     0.185 A 
HETATM   14  N5  UNL     1       0.126  -0.390   0.707  1.00  0.00    -0.323 N 
ENDROOT
BRANCH  14  15
HETATM   15  C5  UNL     1       1.269   0.498   0.748  1.00  0.00     0.193 C 
BRANCH  15  16
HETATM   16  C6  UNL     1       2.018   0.475  -0.554  1.00  0.00     0.396 C 
BRANCH  16  17
HETATM   17  N6  UNL     1       3.146   1.383  -0.444  1.00  0.00    -0.049 N 
ATOM     18  H63 UNL     1       2.868   2.324  -0.167  1.00  0.00     0.276 HD
ATOM     19  H62 UNL     1       3.742   1.174   0.357  1.00  0.00     0.276 HD
ATOM     20  H61 UNL     1       3.655   1.367  -1.328  1.00  0.00     0.276 HD
ENDBRANCH  16  17
BRANCH  16  21
HETATM   21  N7  UNL     1       2.569  -0.865  -0.761  1.00  0.00    -0.049 N 
ATOM     22  H73 UNL     1       3.143  -1.175   0.023  1.00  0.00     0.276 HD
ATOM     23  H72 UNL     1       1.855  -1.591  -0.710  1.00  0.00     0.276 HD
ATOM     24  H71 UNL     1       3.078  -0.881  -1.645  1.00  0.00     0.276 HD
ENDBRANCH  16  21
ENDBRANCH  15  16
ENDBRANCH  14  15
TORSDOF 4
