REMARK  5 active torsions:
REMARK  status: ('A' for Active; 'I' for Inactive)
REMARK    1  A    between atoms: N2_4  and  N3_6 
REMARK    2  A    between atoms: C1_8  and  N4_9 
REMARK    3  A    between atoms: N4_9  and  C2_11 
REMARK    4  A    between atoms: C2_11  and  C3_12 
REMARK    5  A    between atoms: C3_12  and  N5_13 
ROOT
HETATM    1  N4  UNL     1       1.911  -0.602  -1.077  1.00  0.00    -0.383 N 
ATOM      2  H4  UNL     1       2.269  -0.509  -2.027  1.00  0.00     0.160 HD
ENDROOT
BRANCH   1   3
HETATM    3  C1  UNL     1       2.615  -1.433  -0.166  1.00  0.00     0.194 C 
HETATM    4  N3  UNL     1       3.507  -0.904   0.590  1.00  0.00    -0.283 N 
ATOM      5  H3  UNL     1       4.023  -1.485   1.251  1.00  0.00     0.189 HD
BRANCH   4   6
HETATM    6  N2  UNL     1       3.774   0.470   0.510  1.00  0.00    -0.248 N 
HETATM    7  N1  UNL     1       4.436   0.899  -0.463  1.00  0.00    -0.331 N 
ATOM      8  H12 UNL     1       4.767   0.248  -1.175  1.00  0.00     0.178 HD
ATOM      9  H11 UNL     1       4.630   1.899  -0.521  1.00  0.00     0.178 HD
ATOM     10  H2  UNL     1       3.436   1.108   1.230  1.00  0.00     0.207 HD
ENDBRANCH   4   6
ENDBRANCH   1   3
BRANCH   1  11
HETATM   11  C2  UNL     1       0.711   0.117  -0.719  1.00  0.00     0.140 C 
BRANCH  11  12
HETATM   12  C3  UNL     1      -0.443  -0.835  -0.476  1.00  0.00     0.148 C 
BRANCH  12  13
HETATM   13  N5  UNL     1      -1.638  -0.098  -0.120  1.00  0.00    -0.350 N 
HETATM   14  C4  UNL     1      -2.015   0.241   1.136  1.00  0.00     0.108 A 
HETATM   15  C5  UNL     1      -3.203   0.926   0.998  1.00  0.00     0.106 A 
HETATM   16  N6  UNL     1      -3.545   1.007  -0.303  1.00  0.00    -0.361 N 
HETATM   17  C6  UNL     1      -2.568   0.370  -0.964  1.00  0.00     0.182 A 
ATOM     18  H6  UNL     1      -4.370   1.457  -0.700  1.00  0.00     0.166 HD
ENDBRANCH  12  13
ENDBRANCH  11  12
ENDBRANCH   1  11
TORSDOF 5
