REMARK  2 active torsions:
REMARK  status: ('A' for Active; 'I' for Inactive)
REMARK    1  A    between atoms: C3_4  and  C4_5 
REMARK    2  A    between atoms: C7_9  and  O2_10 
ROOT
HETATM    1  N1  UNL     1      -0.355   1.079  -2.855  1.00  0.00    -0.197 NA
HETATM    2  C1  UNL     1      -0.254   0.721  -1.748  1.00  0.00     0.067 C 
HETATM    3  C2  UNL     1      -0.180   0.297  -0.389  1.00  0.00     0.129 C 
HETATM    4  C3  UNL     1       1.124  -0.285   0.065  1.00  0.00     0.048 C 
HETATM    5  C8  UNL     1       1.263  -1.510  -0.831  1.00  0.00     0.055 C 
HETATM    6  C9  UNL     1       0.209  -2.490  -0.315  1.00  0.00     0.057 C 
HETATM    7  N2  UNL     1      -1.038  -1.981   0.014  1.00  0.00    -0.392 N 
ATOM      8  H2  UNL     1      -1.797  -2.631   0.220  1.00  0.00     0.159 HD
HETATM    9  C10 UNL     1      -1.288  -0.616   0.073  1.00  0.00     0.046 C 
HETATM   10  C11 UNL     1      -2.552  -0.282  -0.708  1.00  0.00     0.032 C 
HETATM   11  C12 UNL     1      -3.189   0.864   0.027  1.00  0.00     0.002 C 
HETATM   12  C13 UNL     1      -2.557   0.985   1.371  1.00  0.00     0.002 C 
HETATM   13  C14 UNL     1      -1.645  -0.219   1.493  1.00  0.00     0.032 C 
ENDROOT
BRANCH   4  14
HETATM   14  C4  UNL     1       2.213   0.684  -0.031  1.00  0.00     0.008 A 
HETATM   15  C5  UNL     1       2.644   1.369  -1.139  1.00  0.00     0.037 A 
HETATM   16  C6  UNL     1       3.768   2.128  -0.727  1.00  0.00     0.145 A 
HETATM   17  O1  UNL     1       3.974   1.887   0.531  1.00  0.00    -0.300 OA
HETATM   18  C7  UNL     1       3.101   1.058   0.993  1.00  0.00     0.189 A 
BRANCH  18  19
HETATM   19  O2  UNL     1       2.985   0.567   2.282  1.00  0.00    -0.340 OA
ATOM     20  H2  UNL     1       3.585   0.820   2.974  1.00  0.00     0.220 HD
ENDBRANCH  18  19
ENDBRANCH   4  14
TORSDOF 2
