REMARK  3 active torsions:
REMARK  status: ('A' for Active; 'I' for Inactive)
REMARK    1  A    between atoms: N1_1  and  C1_5 
REMARK    2  A    between atoms: C1_5  and  N2_6 
REMARK    3  A    between atoms: C1_5  and  C2_10 
ROOT
HETATM    1  C2  UNL     1      -0.928  -0.007   0.319  1.00  0.00     0.114 A 
HETATM    2  C3  UNL     1       0.383   0.106  -0.079  1.00  0.00     0.145 A 
HETATM    3  N3  UNL     1       1.200   0.162   0.990  1.00  0.00    -0.186 N 
HETATM    4  N4  UNL     1       0.415   0.085   2.067  1.00  0.00    -0.253 N 
ATOM      5  H4  UNL     1       0.751   0.102   3.030  1.00  0.00     0.191 HD
HETATM    6  C4  UNL     1      -0.870  -0.018   1.714  1.00  0.00     0.274 A 
HETATM    7  O1  UNL     1      -1.871  -0.110   2.488  1.00  0.00    -0.266 OA
HETATM    8  C5  UNL     1       2.612   0.281   0.832  1.00  0.00     0.344 C 
HETATM    9  O2  UNL     1       3.382   0.334   1.830  1.00  0.00    -0.245 OA
HETATM   10  N5  UNL     1       3.175   0.343  -0.472  1.00  0.00    -0.325 N 
ATOM     11  H5  UNL     1       4.106   0.728  -0.629  1.00  0.00     0.165 HD
HETATM   12  C6  UNL     1       2.374  -0.162  -1.569  1.00  0.00     0.249 C 
HETATM   13  N6  UNL     1       0.974   0.170  -1.386  1.00  0.00    -0.358 N 
ATOM     14  H6  UNL     1       0.408   0.449  -2.187  1.00  0.00     0.162 HD
ENDROOT
BRANCH   1  15
HETATM   15  C1  UNL     1      -2.162  -0.101  -0.514  1.00  0.00     0.420 C 
BRANCH  15  16
HETATM   16  N1  UNL     1      -3.215   0.779   0.008  1.00  0.00    -0.046 N 
ATOM     17  H13 UNL     1      -4.108   0.667  -0.473  1.00  0.00     0.277 HD
ATOM     18  H12 UNL     1      -3.536   0.513   0.939  1.00  0.00     0.277 HD
ATOM     19  H11 UNL     1      -2.851   1.731  -0.036  1.00  0.00     0.277 HD
ENDBRANCH  15  16
BRANCH  15  20
HETATM   20  N2  UNL     1      -2.679  -1.455  -0.452  1.00  0.00    -0.046 N 
ATOM     21  H23 UNL     1      -3.000  -1.721   0.479  1.00  0.00     0.277 HD
ATOM     22  H22 UNL     1      -3.572  -1.567  -0.933  1.00  0.00     0.277 HD
ATOM     23  H21 UNL     1      -1.947  -2.066  -0.815  1.00  0.00     0.277 HD
ENDBRANCH  15  20
ENDBRANCH   1  15
TORSDOF 3
