REMARK  3 active torsions:
REMARK  status: ('A' for Active; 'I' for Inactive)
REMARK    1  A    between atoms: N1_1  and  C1_4 
REMARK    2  A    between atoms: C2_7  and  S1_8 
REMARK    3  A    between atoms: S1_8  and  N3_9 
ROOT
HETATM    1  C1  UNL     1      -2.005  -1.028   0.334  1.00  0.00     0.679 A 
HETATM    2  N2  UNL     1      -0.730  -1.222  -0.046  1.00  0.00    -0.177 N 
ATOM      3  H2  UNL     1      -0.434  -2.166  -0.294  1.00  0.00     0.185 HD
HETATM    4  C2  UNL     1       0.172  -0.229  -0.114  1.00  0.00     0.193 A 
HETATM    5  C3  UNL     1      -0.283   1.038   0.234  1.00  0.00     0.155 A 
HETATM    6  N4  UNL     1       0.644   2.106   0.172  1.00  0.00    -0.093 NA
HETATM    7  C4  UNL     1      -1.598   1.219   0.622  1.00  0.00     0.286 A 
HETATM    8  O3  UNL     1      -1.991   2.386   0.935  1.00  0.00    -0.265 OA
HETATM    9  N5  UNL     1      -2.443   0.200   0.670  1.00  0.00    -0.155 N 
ATOM     10  H5  UNL     1      -3.411   0.344   0.957  1.00  0.00     0.187 HD
ENDROOT
BRANCH   4  11
HETATM   11  S1  UNL     1       1.826  -0.447  -0.601  1.00  0.00     0.275 S 
HETATM   12  O1  UNL     1       2.159   0.266  -1.874  1.00  0.00    -0.199 OA
HETATM   13  O2  UNL     1       2.069  -1.922  -0.862  1.00  0.00    -0.199 OA
BRANCH  11  14
HETATM   14  N3  UNL     1       2.938   0.019   0.634  1.00  0.00    -0.323 N 
ATOM     15  H32 UNL     1       2.642   0.380   1.541  1.00  0.00     0.169 HD
ATOM     16  H31 UNL     1       3.909  -0.109   0.348  1.00  0.00     0.169 HD
ENDBRANCH  11  14
ENDBRANCH   4  11
BRANCH   1  17
HETATM   17  N1  UNL     1      -2.872  -1.983   0.399  1.00  0.00    -0.234 N 
ATOM     18  H12 UNL     1      -2.540  -2.913   0.144  1.00  0.00     0.174 HD
ATOM     19  H11 UNL     1      -3.839  -1.836   0.687  1.00  0.00     0.174 HD
ENDBRANCH   1  17
TORSDOF 3
