REMARK  4 active torsions:
REMARK  status: ('A' for Active; 'I' for Inactive)
REMARK    1  A    between atoms: N1_1  and  C1_4 
REMARK    2  A    between atoms: C3_10  and  N4_11 
REMARK    3  A    between atoms: N4_11  and  N5_13 
REMARK    4  A    between atoms: N5_13  and  C4_15 
ROOT
HETATM    1  C1  UNL     1      -3.361  -0.543   0.241  1.00  0.00     0.691 A 
HETATM    2  N2  UNL     1      -3.466   0.358  -0.747  1.00  0.00    -0.187 N 
ATOM      3  H2  UNL     1      -4.352   0.487  -1.235  1.00  0.00     0.185 HD
HETATM    4  C2  UNL     1      -2.389   1.091  -1.088  1.00  0.00     0.215 A 
HETATM    5  N3  UNL     1      -1.215   0.932  -0.452  1.00  0.00    -0.185 N 
ATOM      6  H3  UNL     1      -0.411   1.497  -0.725  1.00  0.00     0.185 HD
HETATM    7  C3  UNL     1      -1.092   0.039   0.536  1.00  0.00     0.712 A 
HETATM    8  N8  UNL     1      -2.170  -0.689   0.870  1.00  0.00    -0.021 N 
ATOM      9  H8  UNL     1      -2.089  -1.374   1.622  1.00  0.00     0.203 HD
ENDROOT
BRANCH   7  10
HETATM   10  N4  UNL     1       0.033  -0.140   1.172  1.00  0.00    -0.134 N 
ATOM     11  H4  UNL     1       0.110  -0.826   1.923  1.00  0.00     0.205 HD
BRANCH  10  12
HETATM   12  N5  UNL     1       1.126   0.637   0.792  1.00  0.00    -0.297 N 
ATOM     13  H5  UNL     1       1.014   1.627   0.573  1.00  0.00     0.183 HD
BRANCH  12  14
HETATM   14  C4  UNL     1       2.421   0.004   0.716  1.00  0.00     0.216 C 
HETATM   15  C5  UNL     1       2.348  -1.116  -0.298  1.00  0.00     0.168 C 
HETATM   16  N6  UNL     1       2.799  -0.463  -1.505  1.00  0.00    -0.383 N 
HETATM   17  C6  UNL     1       3.385   0.651  -1.268  1.00  0.00     0.173 C 
ATOM     18  H6  UNL     1       2.666  -0.846  -2.441  1.00  0.00     0.160 HD
HETATM   19  N7  UNL     1       3.395   0.874   0.117  1.00  0.00    -0.363 N 
ATOM     20  H7  UNL     1       3.990   1.538   0.612  1.00  0.00     0.162 HD
ENDBRANCH  12  14
ENDBRANCH  10  12
ENDBRANCH   7  10
BRANCH   1  21
HETATM   21  N1  UNL     1      -4.400  -1.260   0.580  1.00  0.00    -0.234 N 
ATOM     22  H12 UNL     1      -5.297  -1.150   0.106  1.00  0.00     0.174 HD
ATOM     23  H11 UNL     1      -4.320  -1.945   1.331  1.00  0.00     0.174 HD
ENDBRANCH   1  21
TORSDOF 4
