REMARK  7 active torsions:
REMARK  status: ('A' for Active; 'I' for Inactive)
REMARK    1  A    between atoms: N1_2  and  C2_4 
REMARK    2  A    between atoms: C4_6  and  N2_7 
REMARK    3  A    between atoms: N2_7  and  C5_9 
REMARK    4  A    between atoms: C5_9  and  C6_10 
REMARK    5  A    between atoms: C6_10  and  N3_11 
REMARK    6  A    between atoms: C8_16  and  N4_17 
REMARK    7  A    between atoms: C9_21  and  O1_22 
ROOT
HETATM    1  C2  UNL     1      -1.786   0.582   0.616  1.00  0.00     0.112 C 
HETATM    2  C3  UNL     1      -0.673  -0.146   1.303  1.00  0.00     0.052 C 
HETATM    3  C4  UNL     1       0.348  -0.745   0.404  1.00  0.00     0.084 C 
HETATM    4  C7  UNL     1      -0.205  -1.546  -0.751  1.00  0.00     0.060 C 
HETATM    5  C8  UNL     1      -1.636  -1.280  -1.074  1.00  0.00     0.216 C 
HETATM    6  C9  UNL     1      -2.075   0.118  -0.779  1.00  0.00     0.171 C 
ENDROOT
BRANCH   3   7
HETATM    7  N2  UNL     1       1.359   0.085  -0.098  1.00  0.00    -0.396 N 
ATOM      8  H2  UNL     1       1.163   1.044  -0.385  1.00  0.00     0.159 HD
BRANCH   7   9
HETATM    9  C5  UNL     1       2.658  -0.455  -0.192  1.00  0.00     0.082 C 
BRANCH   9  10
HETATM   10  C6  UNL     1       3.616   0.500  -0.831  1.00  0.00     0.273 C 
BRANCH  10  11
HETATM   11  N3  UNL     1       3.745   1.754  -0.080  1.00  0.00    -0.075 N 
ATOM     12  H33 UNL     1       2.834   2.190   0.065  1.00  0.00     0.274 HD
ATOM     13  H32 UNL     1       3.998   1.575   0.892  1.00  0.00     0.274 HD
ATOM     14  H31 UNL     1       4.398   2.405  -0.516  1.00  0.00     0.274 HD
ENDBRANCH  10  11
ENDBRANCH   9  10
ENDBRANCH   7   9
ENDBRANCH   3   7
BRANCH   1  15
HETATM   15  N1  UNL     1      -1.568   2.014   0.638  1.00  0.00    -0.401 N 
HETATM   16  C1  UNL     1      -1.918   2.744   1.624  1.00  0.00     0.112 C 
ATOM     17  H1  UNL     1      -1.118   2.455  -0.164  1.00  0.00     0.158 HD
ENDBRANCH   1  15
BRANCH   5  18
HETATM   18  N4  UNL     1      -2.518  -2.228  -0.406  1.00  0.00    -0.072 N 
ATOM     19  H43 UNL     1      -2.260  -3.192  -0.618  1.00  0.00     0.274 HD
ATOM     20  H42 UNL     1      -2.359  -2.241   0.601  1.00  0.00     0.274 HD
ATOM     21  H41 UNL     1      -3.497  -2.046  -0.627  1.00  0.00     0.274 HD
ENDBRANCH   5  18
BRANCH   6  22
HETATM   22  O1  UNL     1      -3.445   0.192  -1.043  1.00  0.00    -0.391 OA
ATOM     23  H1  UNL     1      -3.628  -0.102  -1.928  1.00  0.00     0.210 HD
ENDBRANCH   6  22
TORSDOF 7
