REMARK  5 active torsions:
REMARK  status: ('A' for Active; 'I' for Inactive)
REMARK    1  A    between atoms: C2_2  and  C3_3 
REMARK    2  A    between atoms: C3_3  and  N1_4 
REMARK    3  A    between atoms: N1_4  and  C4_6 
REMARK    4  A    between atoms: C4_6  and  C5_7 
REMARK    5  A    between atoms: C8_18  and  O1_19 
ROOT
HETATM    1  C5  UNL     1      -0.708  -1.034   0.109  1.00  0.00     0.138 C 
HETATM    2  N2  UNL     1      -1.237  -0.118   1.043  1.00  0.00    -0.355 N 
ATOM      3  H2  UNL     1      -0.924  -0.201   2.010  1.00  0.00     0.162 HD
HETATM    4  C6  UNL     1      -2.180   0.920   0.741  1.00  0.00     0.190 C 
HETATM    5  N3  UNL     1      -2.516   1.849   1.771  1.00  0.00    -0.063 NA
HETATM    6  N4  UNL     1      -2.722   1.025  -0.412  1.00  0.00    -0.318 N 
ATOM      7  H4  UNL     1      -3.394   1.766  -0.609  1.00  0.00     0.169 HD
HETATM    8  C7  UNL     1      -2.363   0.083  -1.409  1.00  0.00     0.108 C 
HETATM    9  N5  UNL     1      -2.680   0.337  -2.657  1.00  0.00    -0.387 N 
ATOM     10  H51 UNL     1      -2.422  -0.341  -3.374  1.00  0.00     0.157 HD
ATOM     11  H52 UNL     1      -3.163   1.201  -2.905  1.00  0.00     0.157 HD
HETATM   12  C8  UNL     1      -1.663  -1.170  -1.050  1.00  0.00     0.209 C 
ENDROOT
BRANCH   1  13
HETATM   13  C4  UNL     1       0.681  -0.618  -0.359  1.00  0.00     0.147 C 
BRANCH  13  14
HETATM   14  N1  UNL     1       1.536  -0.543   0.767  1.00  0.00    -0.397 N 
ATOM     15  H1  UNL     1       1.132  -0.481   1.702  1.00  0.00     0.158 HD
BRANCH  14  16
HETATM   16  C3  UNL     1       2.914  -0.552   0.618  1.00  0.00     0.082 C 
BRANCH  16  17
HETATM   17  C2  UNL     1       3.626   0.569   0.010  1.00  0.00     0.006 C 
HETATM   18  C1  UNL     1       3.139   1.692  -0.426  1.00  0.00     0.012 C 
ENDBRANCH  16  17
ENDBRANCH  14  16
ENDBRANCH  13  14
ENDBRANCH   1  13
BRANCH  12  19
HETATM   19  O1  UNL     1      -2.625  -2.138  -0.675  1.00  0.00    -0.386 OA
ATOM     20  H1  UNL     1      -3.227  -2.224  -1.405  1.00  0.00     0.210 HD
ENDBRANCH  12  19
TORSDOF 5
