REMARK  5 active torsions:
REMARK  status: ('A' for Active; 'I' for Inactive)
REMARK    1  A    between atoms: N1_1  and  C1_4 
REMARK    2  A    between atoms: C2_7  and  N3_8 
REMARK    3  A    between atoms: N4_11  and  C3_12 
REMARK    4  A    between atoms: C4_13  and  C5_14 
REMARK    5  A    between atoms: C5_14  and  C6_15 
ROOT
HETATM    1  C1  UNL     1       2.776   1.134   0.770  1.00  0.00     0.694 A 
HETATM    2  N2  UNL     1       2.721   0.491  -0.405  1.00  0.00    -0.022 N 
ATOM      3  H2  UNL     1       3.417   0.659  -1.132  1.00  0.00     0.203 HD
HETATM    4  C2  UNL     1       1.700  -0.397  -0.595  1.00  0.00     0.700 A 
HETATM    5  N4  UNL     1       0.771  -0.640   0.337  1.00  0.00    -0.106 N 
HETATM    6  C7  UNL     1       0.896   0.055   1.508  1.00  0.00     0.359 A 
HETATM    7  O1  UNL     1       0.054  -0.119   2.445  1.00  0.00    -0.245 OA
HETATM    8  N6  UNL     1       1.872   0.930   1.743  1.00  0.00    -0.140 N 
ATOM      9  H6  UNL     1       1.931   1.428   2.631  1.00  0.00     0.189 HD
ENDROOT
BRANCH   5  10
HETATM   10  C3  UNL     1      -0.219  -1.615   0.208  1.00  0.00     0.120 C 
HETATM   11  C4  UNL     1      -1.466  -1.548  -0.508  1.00  0.00     0.019 C 
BRANCH  11  12
HETATM   12  C5  UNL     1      -2.561  -0.596  -0.343  1.00  0.00     0.016 C 
BRANCH  12  13
HETATM   13  C6  UNL     1      -2.473   0.820  -0.711  1.00  0.00     0.100 C 
HETATM   14  N5  UNL     1      -1.572   1.712  -0.122  1.00  0.00    -0.115 NA
ENDBRANCH  12  13
ENDBRANCH  11  12
ENDBRANCH   5  10
BRANCH   4  15
HETATM   15  N3  UNL     1       1.728  -0.980  -1.743  1.00  0.00    -0.233 N 
ATOM     16  H32 UNL     1       2.436  -0.795  -2.453  1.00  0.00     0.174 HD
ATOM     17  H31 UNL     1       0.966  -1.643  -1.885  1.00  0.00     0.174 HD
ENDBRANCH   4  15
BRANCH   1  18
HETATM   18  N1  UNL     1       3.729   1.981   0.983  1.00  0.00    -0.234 N 
ATOM     19  H12 UNL     1       4.415   2.136   0.244  1.00  0.00     0.174 HD
ATOM     20  H11 UNL     1       3.771   2.470   1.877  1.00  0.00     0.174 HD
ENDBRANCH   1  18
TORSDOF 5
