REMARK  6 active torsions:
REMARK  status: ('A' for Active; 'I' for Inactive)
REMARK    1  A    between atoms: C3_3  and  N1_4 
REMARK    2  A    between atoms: N1_4  and  C4_7 
REMARK    3  A    between atoms: C4_7  and  C5_8 
REMARK    4  A    between atoms: C5_8  and  N2_9 
REMARK    5  A    between atoms: C6_10  and  N3_11 
REMARK    6  A    between atoms: C7_16  and  N5_17 
ROOT
HETATM    1  C1  UNL     1       4.191   1.159   1.602  1.00  0.00     0.013 C 
HETATM    2  C2  UNL     1       3.988   0.588   0.582  1.00  0.00    -0.090 C 
HETATM    3  C3  UNL     1       3.710  -0.131  -0.672  1.00  0.00     0.324 C 
ENDROOT
BRANCH   3   4
HETATM    4  N1  UNL     1       2.565  -0.996  -0.517  1.00  0.00    -0.064 N 
ATOM      5  H12 UNL     1       2.499  -1.660  -1.288  1.00  0.00     0.278 HD
ATOM      6  H11 UNL     1       2.701  -1.652   0.252  1.00  0.00     0.278 HD
BRANCH   4   7
HETATM    7  C4  UNL     1       1.335  -0.259  -0.360  1.00  0.00     0.254 C 
BRANCH   7   8
HETATM    8  C5  UNL     1       0.185  -1.223  -0.197  1.00  0.00     0.180 C 
BRANCH   8   9
HETATM    9  N2  UNL     1      -1.077  -0.533  -0.039  1.00  0.00    -0.130 N 
HETATM   10  C6  UNL     1      -1.872  -0.200  -1.081  1.00  0.00     0.696 A 
HETATM   11  N4  UNL     1      -3.038   0.446  -0.907  1.00  0.00    -0.022 N 
HETATM   12  C7  UNL     1      -3.442   0.778   0.315  1.00  0.00     0.694 A 
ATOM     13  H4  UNL     1      -3.614   0.682  -1.715  1.00  0.00     0.203 HD
HETATM   14  N6  UNL     1      -2.685   0.467   1.366  1.00  0.00    -0.140 N 
HETATM   15  C8  UNL     1      -1.506  -0.187   1.187  1.00  0.00     0.355 A 
ATOM     16  H6  UNL     1      -2.990   0.720   2.306  1.00  0.00     0.189 HD
HETATM   17  O1  UNL     1      -0.860  -0.439   2.239  1.00  0.00    -0.245 OA
BRANCH  10  18
HETATM   18  N3  UNL     1      -1.477  -0.523  -2.266  1.00  0.00    -0.234 N 
ATOM     19  H32 UNL     1      -0.592  -1.013  -2.398  1.00  0.00     0.174 HD
ATOM     20  H31 UNL     1      -2.077  -0.272  -3.052  1.00  0.00     0.174 HD
ENDBRANCH  10  18
BRANCH  12  21
HETATM   21  N5  UNL     1      -4.555   1.399   0.513  1.00  0.00    -0.234 N 
ATOM     22  H52 UNL     1      -5.135   1.637  -0.292  1.00  0.00     0.174 HD
ATOM     23  H51 UNL     1      -4.865   1.654   1.451  1.00  0.00     0.174 HD
ENDBRANCH  12  21
ENDBRANCH   8   9
ENDBRANCH   7   8
ENDBRANCH   4   7
ENDBRANCH   3   4
TORSDOF 6
