REMARK  7 active torsions:
REMARK  status: ('A' for Active; 'I' for Inactive)
REMARK       I    between atoms: C1_4  and  N2_5 
REMARK       I    between atoms: C1_4  and  N12_35 
REMARK       I    between atoms: C2_7  and  N4_9 
REMARK    1  A    between atoms: N5_11  and  N6_13 
REMARK    2  A    between atoms: C4_15  and  C5_16 
REMARK    3  A    between atoms: C5_16  and  C6_17 
REMARK    4  A    between atoms: C6_17  and  N7_18 
REMARK    5  A    between atoms: C7_24  and  N9_25 
REMARK    6  A    between atoms: C9_32  and  O2_33 
REMARK    7  A    between atoms: N12_35  and  N13_37 
ROOT
HETATM    1  N6  UNL     1       0.349   0.049  -0.340  1.00  0.00    -0.276 N 
HETATM    2  C3  UNL     1      -0.210  -1.285  -0.489  1.00  0.00     0.172 C 
HETATM    3  C4  UNL     1      -1.354  -1.363   0.532  1.00  0.00     0.104 C 
HETATM    4  N8  UNL     1      -2.230  -0.245   0.249  1.00  0.00    -0.368 N 
ATOM      5  H8  UNL     1      -3.210  -0.338   0.516  1.00  0.00     0.161 HD
HETATM    6  C7  UNL     1      -1.875   0.848  -0.307  1.00  0.00     0.157 C 
HETATM    7  C9  UNL     1      -0.490   1.155  -0.758  1.00  0.00     0.307 C 
ENDROOT
BRANCH   1   8
HETATM    8  N5  UNL     1       1.607   0.296   0.166  1.00  0.00    -0.240 N 
HETATM    9  N4  UNL     1       2.204   1.352  -0.123  1.00  0.00    -0.259 N 
HETATM   10  C2  UNL     1       3.485   1.738   0.318  1.00  0.00     0.222 C 
ATOM     11  H4  UNL     1       1.716   2.001  -0.740  1.00  0.00     0.191 HD
HETATM   12  N2  UNL     1       4.492   0.996   0.075  1.00  0.00    -0.161 N 
HETATM   13  N3  UNL     1       3.665   2.944   1.029  1.00  0.00    -0.061 NA
HETATM   14  C1  UNL     1       4.324  -0.211  -0.634  1.00  0.00     0.697 C 
ATOM     15  H2  UNL     1       5.420   1.275   0.394  1.00  0.00     0.187 HD
HETATM   16  N1  UNL     1       3.943  -0.272  -1.873  1.00  0.00    -0.233 N 
HETATM   17  N12 UNL     1       4.572  -1.489  -0.012  1.00  0.00    -0.072 N 
ATOM     18  H12 UNL     1       3.768   0.631  -2.313  1.00  0.00     0.174 HD
ATOM     19  H11 UNL     1       3.821  -1.145  -2.386  1.00  0.00     0.174 HD
ATOM     20  H12 UNL     1       3.821  -2.024   0.423  1.00  0.00     0.212 HD
ATOM     21  H5  UNL     1       2.051  -0.387   0.779  1.00  0.00     0.208 HD
BRANCH  17  22
HETATM   22  N13 UNL     1       5.875  -1.956  -0.032  1.00  0.00    -0.024 N 
HETATM   23  O3  UNL     1       6.095  -3.170  -0.064  1.00  0.00    -0.516 OA
HETATM   24  O4  UNL     1       6.913  -1.075  -0.017  1.00  0.00    -0.516 OA
ENDBRANCH  17  22
ENDBRANCH   1   8
BRANCH   7  25
HETATM   25  O2  UNL     1      -0.463   1.291  -2.147  1.00  0.00    -0.368 OA
ATOM     26  H2  UNL     1      -1.013   2.016  -2.421  1.00  0.00     0.212 HD
ENDBRANCH   7  25
BRANCH   3  27
HETATM   27  C5  UNL     1      -2.047  -2.679   0.314  1.00  0.00     0.054 C 
BRANCH  27  28
HETATM   28  C6  UNL     1      -3.190  -2.833   1.286  1.00  0.00     0.231 C 
BRANCH  28  29
HETATM   29  N7  UNL     1      -4.144  -1.759   1.086  1.00  0.00    -0.079 N 
ATOM     30  H73 UNL     1      -3.707  -0.839   1.147  1.00  0.00     0.274 HD
ATOM     31  H72 UNL     1      -4.465  -1.704   0.119  1.00  0.00     0.274 HD
ATOM     32  H71 UNL     1      -4.917  -1.863   1.743  1.00  0.00     0.274 HD
ENDBRANCH  28  29
ENDBRANCH  27  28
ENDBRANCH   3  27
BRANCH   6  33
HETATM   33  N9  UNL     1      -2.841   1.893  -0.538  1.00  0.00    -0.173 N 
HETATM   34  N10 UNL     1      -2.916   3.200  -0.346  1.00  0.00    -0.226 N 
HETATM   35  N11 UNL     1      -4.128   3.262  -0.850  1.00  0.00    -0.234 N 
ATOM     36  H10 UNL     1      -2.278   3.894   0.044  1.00  0.00     0.209 HD
HETATM   37  C8  UNL     1      -4.080   1.938  -1.056  1.00  0.00     0.364 A 
ATOM     38  H11 UNL     1      -4.812   4.001  -1.014  1.00  0.00     0.193 HD
HETATM   39  O1  UNL     1      -4.819   1.020  -1.526  1.00  0.00    -0.243 OA
ENDBRANCH   6  33
TORSDOF 7
