REMARK  9 active torsions:
REMARK  status: ('A' for Active; 'I' for Inactive)
REMARK    1  A    between atoms: N1_1  and  C1_4 
REMARK    2  A    between atoms: C4_9  and  S1_10 
REMARK    3  A    between atoms: C5_16  and  N4_17 
REMARK    4  A    between atoms: C7_23  and  N6_24 
REMARK    5  A    between atoms: N6_24  and  O4_25 
REMARK    6  A    between atoms: N6_24  and  O5_27 
REMARK    7  A    between atoms: C8_29  and  C9_30 
REMARK    8  A    between atoms: C9_30  and  C10_31 
REMARK    9  A    between atoms: C10_31  and  O6_32 
ROOT
HETATM    1  C1  UNL     1       2.980  -0.989   2.174  1.00  0.00     0.678 A 
HETATM    2  N2  UNL     1       1.683  -0.972   1.869  1.00  0.00    -0.174 N 
ATOM      3  H2  UNL     1       1.008  -1.363   2.526  1.00  0.00     0.186 HD
HETATM    4  C2  UNL     1       1.250  -0.449   0.711  1.00  0.00     0.161 A 
HETATM    5  C3  UNL     1       2.177   0.083  -0.182  1.00  0.00     0.096 A 
HETATM    6  C4  UNL     1       3.540   0.082   0.100  1.00  0.00     0.183 A 
HETATM    7  N3  UNL     1       3.862  -0.478   1.312  1.00  0.00    -0.177 N 
ATOM      8  H3  UNL     1       4.848  -0.505   1.573  1.00  0.00     0.185 HD
HETATM    9  C5  UNL     1       1.698   0.622  -1.344  1.00  0.00     0.117 A 
HETATM   10  N5  UNL     1       0.362   0.609  -1.570  1.00  0.00    -0.325 N 
ATOM     11  H5  UNL     1       0.007   1.009  -2.438  1.00  0.00     0.169 HD
HETATM   12  C6  UNL     1      -0.511   0.089  -0.693  1.00  0.00     0.159 A 
HETATM   13  C7  UNL     1      -1.889  -0.057  -0.661  1.00  0.00     0.135 A 
HETATM   14  C8  UNL     1      -2.264  -0.679   0.511  1.00  0.00     0.058 A 
HETATM   15  N7  UNL     1      -1.100  -0.901   1.172  1.00  0.00    -0.293 N 
ATOM     16  H7  UNL     1      -1.020  -1.351   2.084  1.00  0.00     0.187 HD
HETATM   17  N8  UNL     1      -0.085  -0.447   0.458  1.00  0.00    -0.220 N 
ENDROOT
BRANCH  13  18
HETATM   18  N6  UNL     1      -2.761   0.380  -1.702  1.00  0.00    -0.030 NA
BRANCH  18  19
HETATM   19  O4  UNL     1      -2.281   0.014  -2.935  1.00  0.00    -0.284 OA
ATOM     20  H4  UNL     1      -2.862   0.305  -3.628  1.00  0.00     0.240 HD
ENDBRANCH  18  19
BRANCH  18  21
HETATM   21  O5  UNL     1      -2.944   1.712  -1.635  1.00  0.00    -0.284 OA
ATOM     22  H5  UNL     1      -3.525   2.003  -2.328  1.00  0.00     0.240 HD
ENDBRANCH  18  21
ENDBRANCH  13  18
BRANCH  14  23
HETATM   23  C9  UNL     1      -3.639  -1.037   0.968  1.00  0.00     0.086 C 
BRANCH  23  24
HETATM   24  C10 UNL     1      -4.404   0.152   1.467  1.00  0.00     0.170 C 
BRANCH  24  25
HETATM   25  O6  UNL     1      -5.667  -0.301   1.866  1.00  0.00    -0.400 OA
ATOM     26  H6  UNL     1      -6.152   0.452   2.182  1.00  0.00     0.209 HD
ENDBRANCH  24  25
ENDBRANCH  23  24
ENDBRANCH  14  23
BRANCH   9  27
HETATM   27  N4  UNL     1       2.502   1.139  -2.175  1.00  0.00    -0.385 N 
ATOM     28  H42 UNL     1       3.508   1.149  -2.005  1.00  0.00     0.157 HD
ATOM     29  H41 UNL     1       2.145   1.541  -3.042  1.00  0.00     0.157 HD
ENDBRANCH   9  27
BRANCH   6  30
HETATM   30  S1  UNL     1       4.702   0.671  -0.985  1.00  0.00     0.156 S 
HETATM   31  O1  UNL     1       6.059   0.276  -0.345  1.00  0.00    -0.590 OA
HETATM   32  O2  UNL     1       4.945   2.151  -1.029  1.00  0.00    -0.590 OA
HETATM   33  O3  UNL     1       4.917  -0.131  -2.439  1.00  0.00    -0.590 OA
ENDBRANCH   6  30
BRANCH   1  34
HETATM   34  N1  UNL     1       3.400  -1.495   3.295  1.00  0.00    -0.234 N 
ATOM     35  H12 UNL     1       2.726  -1.885   3.954  1.00  0.00     0.174 HD
ATOM     36  H11 UNL     1       4.393  -1.508   3.528  1.00  0.00     0.174 HD
ENDBRANCH   1  34
TORSDOF 9
