REMARK  9 active torsions:
REMARK  status: ('A' for Active; 'I' for Inactive)
REMARK       I    between atoms: N1_1  and  C1_4 
REMARK       I    between atoms: C1_4  and  N3_6 
REMARK    1  A    between atoms: N3_6  and  C2_8 
REMARK    2  A    between atoms: C6_18  and  N7_19 
REMARK    3  A    between atoms: N7_19  and  C7_21 
REMARK    4  A    between atoms: C7_21  and  C8_22 
REMARK    5  A    between atoms: C8_22  and  O1_23 
REMARK    6  A    between atoms: C9_25  and  N8_26 
REMARK    7  A    between atoms: N8_26  and  O2_28 
REMARK    8  A    between atoms: O2_28  and  C10_29 
REMARK    9  A    between atoms: N10_34  and  N11_35 
ROOT
HETATM    1  C2  UNL     1      -2.551  -0.315   0.206  1.00  0.00     0.139 A 
HETATM    2  N4  UNL     1      -3.644  -0.036  -0.527  1.00  0.00    -0.337 N 
ATOM      3  H4  UNL     1      -4.556  -0.363  -0.208  1.00  0.00     0.168 HD
HETATM    4  C3  UNL     1      -3.558   0.667  -1.675  1.00  0.00     0.183 A 
HETATM    5  N5  UNL     1      -2.379   1.109  -2.118  1.00  0.00    -0.335 N 
ATOM      6  H5  UNL     1      -2.342   1.638  -2.989  1.00  0.00     0.168 HD
HETATM    7  C4  UNL     1      -1.245   0.875  -1.448  1.00  0.00     0.162 A 
HETATM    8  C5  UNL     1      -1.340   0.150  -0.265  1.00  0.00     0.125 A 
HETATM    9  N6  UNL     1      -0.321  -0.203   0.573  1.00  0.00    -0.335 N 
ATOM     10  H6  UNL     1      -0.570  -0.350   1.551  1.00  0.00     0.168 HD
HETATM   11  C6  UNL     1       0.973  -0.378   0.253  1.00  0.00     0.136 C 
HETATM   12  C9  UNL     1       1.638   0.422  -0.689  1.00  0.00     0.168 C 
HETATM   13  C11 UNL     1       1.107   1.250  -1.655  1.00  0.00     0.300 C 
HETATM   14  O4  UNL     1       1.938   1.982  -2.259  1.00  0.00    -0.263 OA
HETATM   15  N10 UNL     1      -0.150   1.407  -2.061  1.00  0.00    -0.206 N 
ENDROOT
BRANCH   1  16
HETATM   16  N3  UNL     1      -2.605  -0.985   1.308  1.00  0.00    -0.315 N 
HETATM   17  C1  UNL     1      -3.897  -1.443   1.749  1.00  0.00     0.187 C 
HETATM   18  N1  UNL     1      -4.319  -1.244   2.950  1.00  0.00    -0.373 N 
HETATM   19  N2  UNL     1      -4.755  -2.134   0.868  1.00  0.00    -0.064 NA
ATOM     20  H12 UNL     1      -5.234  -1.568   3.262  1.00  0.00     0.158 HD
ATOM     21  H11 UNL     1      -3.699  -0.744   3.587  1.00  0.00     0.158 HD
ATOM     22  H3  UNL     1      -1.762  -1.183   1.847  1.00  0.00     0.170 HD
ENDBRANCH   1  16
BRANCH  15  23
HETATM   23  N11 UNL     1      -0.432   2.165  -3.197  1.00  0.00    -0.334 N 
ATOM     24 2H11 UNL     1      -1.396   2.285  -3.508  1.00  0.00     0.177 HD
ATOM     25 1H11 UNL     1       0.387   2.563  -3.656  1.00  0.00     0.177 HD
ENDBRANCH  15  23
BRANCH  11  26
HETATM   26  N7  UNL     1       1.736  -1.387   0.846  1.00  0.00    -0.372 N 
ATOM     27  H7  UNL     1       2.711  -1.489   0.566  1.00  0.00     0.161 HD
BRANCH  26  28
HETATM   28  C7  UNL     1       1.207  -2.287   1.833  1.00  0.00     0.147 C 
BRANCH  28  29
HETATM   29  C8  UNL     1       0.762  -1.616   3.094  1.00  0.00     0.183 C 
BRANCH  29  30
HETATM   30  O1  UNL     1       1.822  -0.937   3.715  1.00  0.00    -0.399 OA
ATOM     31  H1  UNL     1       1.539  -0.511   4.516  1.00  0.00     0.209 HD
ENDBRANCH  29  30
ENDBRANCH  28  29
ENDBRANCH  26  28
ENDBRANCH  11  26
BRANCH  12  32
HETATM   32  N8  UNL     1       2.926   0.339  -0.600  1.00  0.00    -0.247 N 
ATOM     33  H8  UNL     1       3.359  -0.262   0.101  1.00  0.00     0.195 HD
BRANCH  32  34
HETATM   34  O2  UNL     1       3.702   1.074  -1.466  1.00  0.00    -0.183 OA
BRANCH  34  35
HETATM   35  C10 UNL     1       4.745   1.841  -0.945  1.00  0.00     0.394 C 
HETATM   36  N9  UNL     1       5.585   2.622  -1.772  1.00  0.00    -0.031 NA
HETATM   37  O3  UNL     1       4.924   1.821   0.308  1.00  0.00    -0.240 OA
ENDBRANCH  34  35
ENDBRANCH  32  34
ENDBRANCH  12  32
TORSDOF 9
