REMARK  6 active torsions:
REMARK  status: ('A' for Active; 'I' for Inactive)
REMARK       I    between atoms: N2_6  and  C4_8 
REMARK       I    between atoms: C4_8  and  N3_9 
REMARK       I    between atoms: C4_8  and  N4_13 
REMARK    1  A    between atoms: N6_19  and  O1_20 
REMARK    2  A    between atoms: C5_22  and  C6_23 
REMARK    3  A    between atoms: C6_23  and  C7_24 
REMARK    4  A    between atoms: C8_29  and  C9_30 
REMARK       I    between atoms: C9_30  and  N9_32 
REMARK    5  A    between atoms: N9_32  and  O3_33 
REMARK    6  A    between atoms: O3_33  and  C10_34 
ROOT
HETATM    1  C1  UNL     1      -1.551  -2.796   0.569  1.00  0.00     0.071 C 
HETATM    2  C2  UNL     1      -1.929  -1.431   0.042  1.00  0.00     0.050 A 
HETATM    3  N1  UNL     1      -3.225  -1.086   0.189  1.00  0.00    -0.193 N 
ATOM      4  H1  UNL     1      -3.854  -1.703   0.703  1.00  0.00     0.184 HD
HETATM    5  C3  UNL     1      -3.695   0.050  -0.328  1.00  0.00     0.698 A 
HETATM    6  N2  UNL     1      -4.848   0.411  -0.125  1.00  0.00    -0.172 N 
ATOM      7  H2  UNL     1      -4.980   1.299  -0.609  1.00  0.00     0.181 HD
HETATM    8  C4  UNL     1      -6.031   0.101   0.491  1.00  0.00     0.494 C 
HETATM    9  N3  UNL     1      -7.016  -0.709  -0.259  1.00  0.00    -0.032 N 
ATOM     10  H31 UNL     1      -7.897  -0.940   0.200  1.00  0.00     0.278 HD
ATOM     11  H32 UNL     1      -6.569  -1.570  -0.575  1.00  0.00     0.278 HD
ATOM     12  H33 UNL     1      -7.213  -0.254  -1.150  1.00  0.00     0.278 HD
HETATM   13  N4  UNL     1      -6.712   1.408   0.746  1.00  0.00    -0.032 N 
ATOM     14  H41 UNL     1      -7.593   1.177   1.205  1.00  0.00     0.278 HD
ATOM     15  H42 UNL     1      -6.825   1.979  -0.091  1.00  0.00     0.278 HD
ATOM     16  H43 UNL     1      -6.140   2.071   1.270  1.00  0.00     0.278 HD
HETATM   17  N5  UNL     1      -2.800   0.859  -1.025  1.00  0.00    -0.106 N 
ATOM     18  H5  UNL     1      -3.131   1.732  -1.435  1.00  0.00     0.208 HD
HETATM   19  N6  UNL     1      -1.555   0.525  -1.164  1.00  0.00    -0.151 N 
HETATM   20  C5  UNL     1      -1.065  -0.633  -0.633  1.00  0.00     0.089 A 
ENDROOT
BRANCH  20  21
HETATM   21  C6  UNL     1       0.377  -0.842  -0.629  1.00  0.00     0.141 C 
BRANCH  21  22
HETATM   22  C7  UNL     1       1.098   0.317  -0.022  1.00  0.00     0.103 A 
HETATM   23  N7  UNL     1       0.722   1.272   0.813  1.00  0.00    -0.287 N 
HETATM   24  N8  UNL     1       1.783   2.087   0.975  1.00  0.00    -0.279 N 
ATOM     25  H7  UNL     1      -0.194   1.372   1.250  1.00  0.00     0.188 HD
HETATM   26  C8  UNL     1       2.796   1.639   0.252  1.00  0.00     0.208 A 
ATOM     27  H8  UNL     1       1.802   2.920   1.564  1.00  0.00     0.189 HD
HETATM   28  N12 UNL     1       2.352   0.539  -0.356  1.00  0.00    -0.324 N 
ATOM     29  H12 UNL     1       2.902  -0.044  -0.987  1.00  0.00     0.169 HD
BRANCH  26  30
HETATM   30  C9  UNL     1       4.176   2.227   0.059  1.00  0.00     0.389 C 
HETATM   31  O2  UNL     1       4.310   3.402   0.443  1.00  0.00    -0.245 OA
HETATM   32  N9  UNL     1       5.097   1.429  -0.498  1.00  0.00    -0.225 NA
BRANCH  32  33
HETATM   33  O3  UNL     1       6.007   0.647  -1.046  1.00  0.00    -0.128 OA
BRANCH  33  34
HETATM   34  C10 UNL     1       7.058   0.077  -0.294  1.00  0.00     0.264 C 
HETATM   35  N10 UNL     1       7.819   0.923   0.262  1.00  0.00    -0.365 N 
ATOM     36 2H10 UNL     1       7.704   1.934   0.195  1.00  0.00     0.159 HD
ATOM     37 1H10 UNL     1       8.578   0.511   0.805  1.00  0.00     0.159 HD
HETATM   38  N11 UNL     1       7.217  -1.325  -0.201  1.00  0.00    -0.054 NA
ENDBRANCH  33  34
ENDBRANCH  32  33
ENDBRANCH  26  30
ENDBRANCH  21  22
ENDBRANCH  20  21
BRANCH  19  39
HETATM   39  O1  UNL     1      -0.718   1.375  -1.864  1.00  0.00    -0.267 OA
ATOM     40  H1  UNL     1       0.194   1.130  -1.966  1.00  0.00     0.247 HD
ENDBRANCH  19  39
TORSDOF 6
