REMARK  5 active torsions:
REMARK  status: ('A' for Active; 'I' for Inactive)
REMARK    1  A    between atoms: N1_1  and  O1_4 
REMARK    2  A    between atoms: O1_4  and  C1_5 
REMARK    3  A    between atoms: C1_5  and  C2_6 
REMARK    4  A    between atoms: C5_15  and  C6_16 
REMARK    5  A    between atoms: C7_23  and  N7_24 
ROOT
HETATM    1  C2  UNL     1       0.617  -0.511  -0.033  1.00  0.00     0.058 A 
HETATM    2  N2  UNL     1       1.364  -1.636   0.212  1.00  0.00    -0.309 N 
ATOM      3  H2  UNL     1       2.370  -1.528   0.344  1.00  0.00     0.170 HD
HETATM    4  C3  UNL     1       0.848  -2.859   0.286  1.00  0.00     0.327 A 
HETATM    5  O2  UNL     1       1.586  -3.856   0.514  1.00  0.00    -0.247 OA
HETATM    6  N3  UNL     1      -0.472  -3.011   0.112  1.00  0.00    -0.275 N 
ATOM      7  H3  UNL     1      -0.891  -3.940   0.162  1.00  0.00     0.173 HD
HETATM    8  C4  UNL     1      -1.238  -1.944  -0.127  1.00  0.00     0.264 A 
HETATM    9  O3  UNL     1      -2.468  -2.081  -0.289  1.00  0.00    -0.267 OA
HETATM   10  C5  UNL     1      -0.716  -0.624  -0.210  1.00  0.00     0.089 A 
ENDROOT
BRANCH  10  11
HETATM   11  C6  UNL     1      -1.629   0.464  -0.380  1.00  0.00     0.118 A 
HETATM   12  N4  UNL     1      -2.554   0.478  -1.410  1.00  0.00    -0.281 N 
HETATM   13  N5  UNL     1      -3.325   1.530  -1.286  1.00  0.00    -0.240 N 
ATOM     14  H4  UNL     1      -2.624  -0.221  -2.149  1.00  0.00     0.188 HD
HETATM   15  N6  UNL     1      -2.984   2.231  -0.234  1.00  0.00    -0.264 N 
ATOM     16  H5  UNL     1      -4.086   1.770  -1.921  1.00  0.00     0.208 HD
HETATM   17  C7  UNL     1      -1.916   1.561   0.344  1.00  0.00     0.218 A 
ATOM     18  H6  UNL     1      -3.416   3.095   0.094  1.00  0.00     0.190 HD
BRANCH  17  19
HETATM   19  N7  UNL     1      -1.391   2.068   1.558  1.00  0.00    -0.094 N 
HETATM   20  O4  UNL     1      -0.968   1.314   2.448  1.00  0.00    -0.530 OA
HETATM   21  O5  UNL     1      -1.379   3.415   1.791  1.00  0.00    -0.530 OA
ENDBRANCH  17  19
ENDBRANCH  10  11
BRANCH   1  22
HETATM   22  C1  UNL     1       1.405   0.725  -0.174  1.00  0.00     0.258 C 
BRANCH  22  23
HETATM   23  O1  UNL     1       2.783   0.492   0.031  1.00  0.00    -0.281 OA
BRANCH  23  24
HETATM   24  N1  UNL     1       3.370   1.706  -0.127  1.00  0.00    -0.311 N 
ATOM     25  H12 UNL     1       2.904   2.586  -0.346  1.00  0.00     0.184 HD
ATOM     26  H11 UNL     1       4.365   1.538   0.021  1.00  0.00     0.184 HD
ENDBRANCH  23  24
ENDBRANCH  22  23
ENDBRANCH   1  22
TORSDOF 5
