REMARK  5 active torsions:
REMARK  status: ('A' for Active; 'I' for Inactive)
REMARK    1  A    between atoms: N1_1  and  C1_4 
REMARK    2  A    between atoms: C2_9  and  C3_10 
REMARK    3  A    between atoms: N4_12  and  N5_13 
REMARK    4  A    between atoms: C5_21  and  C6_22 
REMARK    5  A    between atoms: N9_23  and  N10_25 
ROOT
HETATM    1  C1  UNL     1       0.922  -1.652  -1.147  1.00  0.00     0.142 A 
HETATM    2  N2  UNL     1      -0.047  -2.380  -1.731  1.00  0.00    -0.282 N 
ATOM      3  H2  UNL     1       0.207  -3.087  -2.421  1.00  0.00     0.188 HD
HETATM    4  N3  UNL     1      -1.332  -2.198  -1.427  1.00  0.00    -0.282 N 
ATOM      5  H3  UNL     1      -2.030  -2.775  -1.896  1.00  0.00     0.188 HD
HETATM    6  C2  UNL     1      -1.749  -1.287  -0.529  1.00  0.00     0.150 A 
HETATM    7  N8  UNL     1      -0.786  -0.554   0.061  1.00  0.00    -0.335 N 
ATOM      8  H8  UNL     1      -1.056   0.149   0.749  1.00  0.00     0.168 HD
HETATM    9  C5  UNL     1       0.519  -0.714  -0.224  1.00  0.00     0.096 A 
ENDROOT
BRANCH   6  10
HETATM   10  C3  UNL     1      -3.166  -1.105  -0.211  1.00  0.00     0.110 A 
HETATM   11  C4  UNL     1      -3.738  -0.222   0.678  1.00  0.00     0.168 A 
HETATM   12  N4  UNL     1      -5.083  -0.381   0.668  1.00  0.00    -0.196 N 
HETATM   13  N6  UNL     1      -5.322  -1.341  -0.210  1.00  0.00     0.000 NA
HETATM   14  N7  UNL     1      -4.185  -1.785  -0.745  1.00  0.00    -0.277 N 
ATOM     15  H7  UNL     1      -4.106  -2.522  -1.446  1.00  0.00     0.184 HD
BRANCH  12  16
HETATM   16  N5  UNL     1      -6.023   0.334   1.436  1.00  0.00    -0.326 N 
ATOM     17  H52 UNL     1      -5.839   1.074   2.113  1.00  0.00     0.178 HD
ATOM     18  H51 UNL     1      -7.036   0.214   1.428  1.00  0.00     0.178 HD
ENDBRANCH  12  16
ENDBRANCH   6  10
BRANCH   9  19
HETATM   19  C6  UNL     1       1.530   0.102   0.438  1.00  0.00     0.140 C 
HETATM   20  N9  UNL     1       2.787  -0.014   0.200  1.00  0.00    -0.307 N 
ATOM     21  H9  UNL     1       3.097  -0.706  -0.482  1.00  0.00     0.186 HD
BRANCH  20  22
HETATM   22  N10 UNL     1       3.735   0.767   0.836  1.00  0.00    -0.276 N 
HETATM   23  C7  UNL     1       4.238   1.850   0.373  1.00  0.00     0.215 C 
HETATM   24  N11 UNL     1       5.198   2.525   1.155  1.00  0.00    -0.065 NA
HETATM   25  N12 UNL     1       3.837   2.359  -0.901  1.00  0.00    -0.065 NA
ATOM     26  H10 UNL     1       4.061   0.454   1.751  1.00  0.00     0.189 HD
ENDBRANCH  20  22
ENDBRANCH   9  19
BRANCH   1  27
HETATM   27  N1  UNL     1       2.161  -1.844  -1.456  1.00  0.00    -0.383 N 
ATOM     28  H12 UNL     1       2.460  -2.539  -2.140  1.00  0.00     0.157 HD
ATOM     29  H11 UNL     1       2.896  -1.292  -1.013  1.00  0.00     0.157 HD
ENDBRANCH   1  27
TORSDOF 5
