REMARK  5 active torsions:
REMARK  status: ('A' for Active; 'I' for Inactive)
REMARK    1  A    between atoms: C2_3  and  O1_4 
REMARK    2  A    between atoms: O1_4  and  C3_5 
REMARK    3  A    between atoms: C3_5  and  N2_6 
REMARK    4  A    between atoms: C4_9  and  O2_10 
REMARK    5  A    between atoms: C8_19  and  N5_20 
ROOT
HETATM    1  N1  UNL     1       5.133  -2.301  -0.354  1.00  0.00    -0.195 NA
HETATM    2  C1  UNL     1       4.399  -1.481  -0.717  1.00  0.00     0.085 C 
HETATM    3  C2  UNL     1       3.473  -0.447  -1.189  1.00  0.00     0.293 C 
ENDROOT
BRANCH   3   4
HETATM    4  O1  UNL     1       2.457  -0.338  -0.240  1.00  0.00    -0.357 OA
BRANCH   4   5
HETATM    5  C3  UNL     1       1.583   0.645  -0.696  1.00  0.00     0.319 C 
BRANCH   5   6
HETATM    6  N2  UNL     1       0.472   0.885   0.169  1.00  0.00    -0.249 N 
HETATM    7  N3  UNL     1       0.528   1.828   1.126  1.00  0.00    -0.271 N 
HETATM    8  C4  UNL     1      -0.498   2.092   1.950  1.00  0.00     0.207 A 
ATOM      9  H3  UNL     1       1.388   2.366   1.230  1.00  0.00     0.189 HD
HETATM   10  C5  UNL     1      -1.653   1.365   1.807  1.00  0.00     0.243 A 
HETATM   11  O3  UNL     1      -2.624   1.599   2.570  1.00  0.00    -0.282 OA
HETATM   12  C6  UNL     1      -1.767   0.390   0.848  1.00  0.00     0.133 A 
HETATM   13  C7  UNL     1      -2.927  -0.354   0.695  1.00  0.00     0.277 A 
HETATM   14  C9  UNL     1      -0.661   0.170   0.026  1.00  0.00     0.159 A 
HETATM   15  O4  UNL     1      -3.901  -0.126   1.454  1.00  0.00    -0.266 OA
HETATM   16  N4  UNL     1      -2.929  -1.286  -0.271  1.00  0.00    -0.155 N 
HETATM   17  C8  UNL     1      -1.862  -1.498  -1.063  1.00  0.00     0.680 A 
ATOM     18  H4  UNL     1      -3.766  -1.852  -0.409  1.00  0.00     0.187 HD
HETATM   19  N6  UNL     1      -0.720  -0.772  -0.920  1.00  0.00    -0.174 N 
ATOM     20  H6  UNL     1       0.081  -0.945  -1.527  1.00  0.00     0.186 HD
BRANCH   8  21
HETATM   21  O2  UNL     1      -0.364   3.094   2.927  1.00  0.00    -0.342 OA
ATOM     22  H2  UNL     1      -1.090   3.281   3.510  1.00  0.00     0.219 HD
ENDBRANCH   8  21
BRANCH  17  23
HETATM   23  N5  UNL     1      -1.852  -2.395  -2.000  1.00  0.00    -0.234 N 
ATOM     24  H52 UNL     1      -2.708  -2.939  -2.107  1.00  0.00     0.174 HD
ATOM     25  H51 UNL     1      -1.043  -2.556  -2.600  1.00  0.00     0.174 HD
ENDBRANCH  17  23
ENDBRANCH   5   6
ENDBRANCH   4   5
ENDBRANCH   3   4
TORSDOF 5
