REMARK  8 active torsions:
REMARK  status: ('A' for Active; 'I' for Inactive)
REMARK    1  A    between atoms: N4_7  and  N5_8 
REMARK    2  A    between atoms: C3_11  and  N6_12 
REMARK    3  A    between atoms: N6_12  and  N7_14 
REMARK    4  A    between atoms: N7_14  and  C4_16 
REMARK    5  A    between atoms: C6_18  and  C7_19 
REMARK    6  A    between atoms: C7_19  and  N8_20 
REMARK    7  A    between atoms: C7_19  and  C8_24 
REMARK    8  A    between atoms: C8_24  and  N9_25 
ROOT
HETATM    1  N1  UNL     1       3.872   1.246  -3.404  1.00  0.00    -0.190 NA
HETATM    2  C1  UNL     1       4.010   0.726  -2.391  1.00  0.00     0.123 C 
HETATM    3  C2  UNL     1       4.202   0.057  -1.118  1.00  0.00     0.175 A 
HETATM    4  N2  UNL     1       5.281  -0.677  -0.775  1.00  0.00    -0.270 N 
ATOM      5  H2  UNL     1       6.094  -0.853  -1.366  1.00  0.00     0.185 HD
HETATM    6  N3  UNL     1       5.106  -1.136   0.473  1.00  0.00     0.003 NA
HETATM    7  N4  UNL     1       3.940  -0.710   0.929  1.00  0.00    -0.166 N 
HETATM    8  C3  UNL     1       3.356   0.031  -0.032  1.00  0.00     0.196 A 
ENDROOT
BRANCH   8   9
HETATM    9  N6  UNL     1       2.214   0.633  -0.002  1.00  0.00    -0.279 N 
ATOM     10  H6  UNL     1       1.921   1.157  -0.827  1.00  0.00     0.189 HD
BRANCH   9  11
HETATM   11  N7  UNL     1       1.364   0.603   1.096  1.00  0.00    -0.284 N 
ATOM     12  H7  UNL     1       1.785   0.690   2.021  1.00  0.00     0.188 HD
BRANCH  11  13
HETATM   13  C4  UNL     1       0.098   0.475   1.034  1.00  0.00     0.122 A 
HETATM   14  C5  UNL     1      -0.623   0.346  -0.136  1.00  0.00     0.077 A 
HETATM   15  C6  UNL     1      -2.001   0.210  -0.133  1.00  0.00     0.046 A 
HETATM   16  N10 UNL     1      -2.613   0.209   1.076  1.00  0.00    -0.354 N 
HETATM   17  C9  UNL     1      -1.919   0.334   2.220  1.00  0.00     0.182 A 
ATOM     18  H10 UNL     1      -3.627   0.111   1.119  1.00  0.00     0.166 HD
HETATM   19  N11 UNL     1      -0.575   0.466   2.216  1.00  0.00    -0.338 N 
ATOM     20  H11 UNL     1      -0.067   0.559   3.096  1.00  0.00     0.168 HD
BRANCH  15  21
HETATM   21  C7  UNL     1      -2.742   0.074  -1.407  1.00  0.00     0.258 C 
BRANCH  21  22
HETATM   22  N8  UNL     1      -2.311   1.010  -2.412  1.00  0.00    -0.068 N 
ATOM     23  H83 UNL     1      -2.360   1.967  -2.063  1.00  0.00     0.275 HD
ATOM     24  H82 UNL     1      -1.305   0.940  -2.567  1.00  0.00     0.275 HD
ATOM     25  H81 UNL     1      -2.822   0.916  -3.290  1.00  0.00     0.275 HD
ENDBRANCH  21  22
BRANCH  21  26
HETATM   26  C8  UNL     1      -4.218   0.097  -1.159  1.00  0.00     0.268 C 
BRANCH  26  27
HETATM   27  N9  UNL     1      -4.564  -1.003  -0.287  1.00  0.00    -0.077 N 
ATOM     28  H93 UNL     1      -4.244  -1.902  -0.649  1.00  0.00     0.274 HD
ATOM     29  H92 UNL     1      -4.024  -0.998   0.578  1.00  0.00     0.274 HD
ATOM     30  H91 UNL     1      -5.570  -0.987  -0.118  1.00  0.00     0.274 HD
ENDBRANCH  26  27
ENDBRANCH  21  26
ENDBRANCH  15  21
ENDBRANCH  11  13
ENDBRANCH   9  11
ENDBRANCH   8   9
BRANCH   7  31
HETATM   31  N5  UNL     1       3.407  -0.986   2.197  1.00  0.00    -0.324 N 
ATOM     32  H52 UNL     1       3.849  -1.547   2.925  1.00  0.00     0.178 HD
ATOM     33  H51 UNL     1       2.508  -0.657   2.549  1.00  0.00     0.178 HD
ENDBRANCH   7  31
TORSDOF 8
