REMARK  5 active torsions:
REMARK  status: ('A' for Active; 'I' for Inactive)
REMARK    1  A    between atoms: N1_1  and  C1_4 
REMARK    2  A    between atoms: N4_13  and  C5_15 
REMARK    3  A    between atoms: C5_15  and  C6_16 
REMARK    4  A    between atoms: C6_16  and  N5_17 
REMARK    5  A    between atoms: N7_24  and  O2_25 
ROOT
HETATM    1  C1  UNL     1       4.137   0.179  -0.172  1.00  0.00     0.695 C 
HETATM    2  N2  UNL     1       3.751  -1.071   0.153  1.00  0.00    -0.153 N 
ATOM      3  H2  UNL     1       4.501  -1.746   0.303  1.00  0.00     0.187 HD
HETATM    4  C2  UNL     1       2.492  -1.539   0.305  1.00  0.00     0.290 C 
HETATM    5  O1  UNL     1       2.394  -2.715   0.759  1.00  0.00    -0.265 OA
HETATM    6  C3  UNL     1       1.277  -0.928   0.038  1.00  0.00     0.166 A 
HETATM    7  N3  UNL     1       0.064  -1.442   0.232  1.00  0.00    -0.182 N 
ATOM      8  H3  UNL     1      -0.116  -2.372   0.610  1.00  0.00     0.184 HD
HETATM    9  C4  UNL     1      -0.901  -0.562  -0.141  1.00  0.00     0.680 A 
HETATM   10  N4  UNL     1      -2.178  -0.756  -0.079  1.00  0.00    -0.224 N 
ATOM     11  H4  UNL     1      -2.562  -1.632   0.275  1.00  0.00     0.177 HD
HETATM   12  N6  UNL     1      -0.238   0.524  -0.577  1.00  0.00    -0.170 N 
ATOM     13  H6  UNL     1      -0.682   1.372  -0.930  1.00  0.00     0.186 HD
HETATM   14  C7  UNL     1       1.104   0.336  -0.482  1.00  0.00     0.200 A 
HETATM   15  N7  UNL     1       2.035   1.232  -0.837  1.00  0.00    -0.129 N 
HETATM   16  N8  UNL     1       3.333   1.097  -0.744  1.00  0.00    -0.104 N 
ATOM     17  H8  UNL     1       3.847   1.849  -1.203  1.00  0.00     0.208 HD
ENDROOT
BRANCH  10  18
HETATM   18  C5  UNL     1      -3.037   0.307  -0.526  1.00  0.00     0.165 C 
BRANCH  18  19
HETATM   19  C6  UNL     1      -4.499  -0.012  -0.320  1.00  0.00     0.249 C 
BRANCH  19  20
HETATM   20  N5  UNL     1      -4.750  -0.229   1.075  1.00  0.00    -0.078 N 
ATOM     21  H53 UNL     1      -4.140  -0.945   1.469  1.00  0.00     0.274 HD
ATOM     22  H52 UNL     1      -4.443   0.556   1.649  1.00  0.00     0.274 HD
ATOM     23  H51 UNL     1      -5.737  -0.444   1.214  1.00  0.00     0.274 HD
ENDBRANCH  19  20
ENDBRANCH  18  19
ENDBRANCH  10  18
BRANCH  15  24
HETATM   24  O2  UNL     1       1.551   2.283  -1.295  1.00  0.00    -0.266 OA
ATOM     25  H2  UNL     1       2.211   2.918  -1.547  1.00  0.00     0.247 HD
ENDBRANCH  15  24
BRANCH   1  26
HETATM   26  N1  UNL     1       5.344   0.514   0.079  1.00  0.00    -0.233 N 
ATOM     27  H12 UNL     1       5.952  -0.181   0.512  1.00  0.00     0.174 HD
ATOM     28  H11 UNL     1       5.636   1.460  -0.167  1.00  0.00     0.174 HD
ENDBRANCH   1  26
TORSDOF 5
