REMARK  5 active torsions:
REMARK  status: ('A' for Active; 'I' for Inactive)
REMARK    1  A    between atoms: N1_1  and  C1_4 
REMARK    2  A    between atoms: C2_7  and  N3_8 
REMARK    3  A    between atoms: N3_8  and  N4_10 
REMARK    4  A    between atoms: C5_19  and  N8_20 
REMARK    5  A    between atoms: N8_20  and  C6_22 
ROOT
HETATM    1  C1  UNL     1      -1.666   1.261  -0.932  1.00  0.00     0.692 A 
HETATM    2  N2  UNL     1      -0.354   1.027  -0.971  1.00  0.00    -0.021 N 
ATOM      3  H2  UNL     1       0.160   1.653  -1.591  1.00  0.00     0.203 HD
HETATM    4  C2  UNL     1       0.428   0.111  -0.340  1.00  0.00     0.714 A 
HETATM    5  N7  UNL     1       0.025  -0.798   0.561  1.00  0.00    -0.151 N 
ATOM      6  H7  UNL     1       0.765  -1.387   0.944  1.00  0.00     0.188 HD
HETATM    7  C4  UNL     1      -1.223  -1.052   1.040  1.00  0.00     0.304 A 
HETATM    8  O1  UNL     1      -1.366  -1.956   1.900  1.00  0.00    -0.263 OA
HETATM    9  C5  UNL     1      -2.400  -0.425   0.696  1.00  0.00     0.192 A 
HETATM   10  N9  UNL     1      -2.575   0.619  -0.164  1.00  0.00    -0.171 N 
ATOM     11  H9  UNL     1      -3.531   0.966  -0.239  1.00  0.00     0.186 HD
ENDROOT
BRANCH   4  12
HETATM   12  N3  UNL     1       1.676   0.100  -0.622  1.00  0.00    -0.129 N 
ATOM     13  H3  UNL     1       2.068   0.757  -1.297  1.00  0.00     0.205 HD
BRANCH  12  14
HETATM   14  N4  UNL     1       2.483  -0.836   0.021  1.00  0.00    -0.262 N 
HETATM   15  C3  UNL     1       3.626  -0.540   0.530  1.00  0.00     0.216 C 
HETATM   16  N5  UNL     1       4.158   0.776   0.474  1.00  0.00    -0.065 NA
HETATM   17  N6  UNL     1       4.364  -1.581   1.164  1.00  0.00    -0.065 NA
ATOM     18  H4  UNL     1       2.153  -1.798   0.091  1.00  0.00     0.190 HD
ENDBRANCH  12  14
ENDBRANCH   4  12
BRANCH   1  19
HETATM   19  N1  UNL     1      -2.178   2.181  -1.679  1.00  0.00    -0.234 N 
ATOM     20  H12 UNL     1      -1.492   2.665  -2.258  1.00  0.00     0.174 HD
ATOM     21  H11 UNL     1      -3.182   2.360  -1.649  1.00  0.00     0.174 HD
ENDBRANCH   1  19
BRANCH   9  22
HETATM   22  N8  UNL     1      -3.482  -0.873   1.250  1.00  0.00    -0.315 N 
ATOM     23  H8  UNL     1      -3.405  -1.654   1.901  1.00  0.00     0.170 HD
BRANCH  22  24
HETATM   24  C6  UNL     1      -4.759  -0.337   0.999  1.00  0.00     0.354 C 
HETATM   25  O2  UNL     1      -5.454   0.087   1.939  1.00  0.00    -0.283 OA
ENDBRANCH  22  24
ENDBRANCH   9  22
TORSDOF 5
