REMARK  2 active torsions:
REMARK  status: ('A' for Active; 'I' for Inactive)
REMARK       I    between atoms: C1_4  and  N3_6 
REMARK       I    between atoms: C2_8  and  N5_10 
REMARK    1  A    between atoms: C4_16  and  C5_17 
REMARK    2  A    between atoms: C4_16  and  C6_19 
ROOT
HETATM    1  N1  UNL     1       2.799  -2.056   1.098  1.00  0.00    -0.373 N 
ATOM      2  H11 UNL     1       1.893  -2.382   1.435  1.00  0.00     0.158 HD
ATOM      3  H12 UNL     1       3.602  -2.683   1.146  1.00  0.00     0.158 HD
HETATM    4  C1  UNL     1       2.932  -0.881   0.623  1.00  0.00     0.188 C 
HETATM    5  N2  UNL     1       4.192  -0.428   0.155  1.00  0.00    -0.064 NA
HETATM    6  N3  UNL     1       1.826  -0.017   0.557  1.00  0.00    -0.304 N 
ATOM      7  H3  UNL     1       1.769   0.741   1.237  1.00  0.00     0.171 HD
HETATM    8  C2  UNL     1       0.868  -0.126  -0.321  1.00  0.00     0.212 C 
HETATM    9  N4  UNL     1       1.008  -1.198  -1.235  1.00  0.00    -0.062 NA
HETATM   10  N5  UNL     1      -0.224   0.763  -0.355  1.00  0.00    -0.212 N 
HETATM   11  N6  UNL     1      -0.195   2.101  -0.704  1.00  0.00    -0.013 NA
HETATM   12  N7  UNL     1      -1.018   2.676   0.271  1.00  0.00    -0.251 N 
ATOM     13  H7  UNL     1      -0.931   3.625   0.635  1.00  0.00     0.187 HD
HETATM   14  C3  UNL     1      -1.995   1.723   0.673  1.00  0.00     0.281 C 
HETATM   15  O1  UNL     1      -2.955   1.914   1.430  1.00  0.00    -0.268 OA
HETATM   16  C4  UNL     1      -1.585   0.451  -0.034  1.00  0.00     0.265 C 
ENDROOT
BRANCH  16  17
HETATM   17  C5  UNL     1      -2.445   0.396  -1.250  1.00  0.00     0.283 C 
HETATM   18  O2  UNL     1      -1.969   0.603  -2.336  1.00  0.00    -0.303 OA
ENDBRANCH  16  17
BRANCH  16  19
HETATM   19  C6  UNL     1      -1.767  -0.723   0.814  1.00  0.00     0.278 C 
HETATM   20  N8  UNL     1      -3.060  -1.129   1.194  1.00  0.00    -0.059 NA
HETATM   21  O3  UNL     1      -0.777  -1.381   1.211  1.00  0.00    -0.273 OA
ENDBRANCH  16  19
TORSDOF 2
