REMARK  1 active torsions:
REMARK  status: ('A' for Active; 'I' for Inactive)
REMARK    1  A    between atoms: N2_4  and  N3_6 
ROOT
HETATM    1  N3  UNL     1       2.756  -0.690   0.714  1.00  0.00    -0.257 N 
ATOM      2  H3  UNL     1       3.320  -1.539   0.672  1.00  0.00     0.191 HD
HETATM    3  C1  UNL     1       1.579  -0.705   0.197  1.00  0.00     0.201 C 
HETATM    4  N4  UNL     1       0.942  -1.796  -0.449  1.00  0.00    -0.293 N 
ATOM      5  H4  UNL     1       1.351  -2.720  -0.584  1.00  0.00     0.172 HD
HETATM    6  C2  UNL     1      -0.356  -1.402  -0.880  1.00  0.00     0.284 C 
HETATM    7  O1  UNL     1      -1.097  -2.044  -1.657  1.00  0.00    -0.268 OA
HETATM    8  C3  UNL     1      -0.650  -0.117  -0.246  1.00  0.00     0.276 C 
HETATM    9  N5  UNL     1      -1.510  -0.354   0.899  1.00  0.00    -0.300 N 
ATOM     10  H5  UNL     1      -1.456  -1.148   1.537  1.00  0.00     0.167 HD
HETATM   11  C4  UNL     1      -2.429   0.703   0.971  1.00  0.00     0.325 C 
HETATM   12  O2  UNL     1      -3.174   0.932   1.985  1.00  0.00    -0.247 OA
HETATM   13  N6  UNL     1      -2.375   1.434  -0.239  1.00  0.00    -0.275 N 
ATOM     14  H6  UNL     1      -2.931   2.257  -0.472  1.00  0.00     0.173 HD
HETATM   15  C5  UNL     1      -1.407   0.815  -1.068  1.00  0.00     0.285 C 
HETATM   16  O3  UNL     1      -1.274   1.066  -2.282  1.00  0.00    -0.268 OA
HETATM   17  N7  UNL     1       0.653   0.367   0.157  1.00  0.00    -0.318 N 
ATOM     18  H7  UNL     1       0.873   1.338   0.380  1.00  0.00     0.166 HD
ENDROOT
BRANCH   1  19
HETATM   19  N2  UNL     1       3.293   0.444   1.332  1.00  0.00    -0.247 N 
HETATM   20  N1  UNL     1       4.147   0.229   2.252  1.00  0.00    -0.331 N 
ATOM     21  H12 UNL     1       4.413  -0.721   2.511  1.00  0.00     0.178 HD
ATOM     22  H11 UNL     1       4.539   1.056   2.703  1.00  0.00     0.178 HD
ATOM     23  H2  UNL     1       3.017   1.388   1.062  1.00  0.00     0.207 HD
ENDBRANCH   1  19
TORSDOF 1
