REMARK  3 active torsions:
REMARK  status: ('A' for Active; 'I' for Inactive)
REMARK    1  A    between atoms: N1_1  and  C1_4 
REMARK    2  A    between atoms: C6_16  and  C7_17 
REMARK    3  A    between atoms: N6_19  and  N7_21 
ROOT
HETATM    1  C1  UNL     1      -3.200   0.134   0.174  1.00  0.00     0.116 A 
HETATM    2  C2  UNL     1      -2.345   1.198   0.038  1.00  0.00     0.136 A 
HETATM    3  N2  UNL     1      -1.019   0.987  -0.020  1.00  0.00    -0.358 N 
ATOM      4  H2  UNL     1      -0.397   1.789  -0.122  1.00  0.00     0.165 HD
HETATM    5  C3  UNL     1      -0.477  -0.259   0.053  1.00  0.00     0.096 A 
HETATM    6  C4  UNL     1      -1.352  -1.317   0.190  1.00  0.00     0.138 A 
HETATM    7  N3  UNL     1      -2.693  -1.108   0.249  1.00  0.00    -0.326 N 
ATOM      8  H3  UNL     1      -3.323  -1.904   0.352  1.00  0.00     0.169 HD
HETATM    9  N4  UNL     1      -0.695  -2.437   0.246  1.00  0.00    -0.307 N 
ATOM     10  H4  UNL     1      -1.103  -3.367   0.346  1.00  0.00     0.170 HD
HETATM   11  C5  UNL     1       0.690  -2.140   0.143  1.00  0.00     0.263 A 
HETATM   12  O1  UNL     1       1.648  -2.975   0.157  1.00  0.00    -0.267 OA
HETATM   13  C6  UNL     1       0.775  -0.680   0.017  1.00  0.00     0.105 A 
ENDROOT
BRANCH  13  14
HETATM   14  C7  UNL     1       1.987   0.103  -0.117  1.00  0.00     0.148 C 
HETATM   15  N5  UNL     1       3.248  -0.541  -0.135  1.00  0.00    -0.080 NA
HETATM   16  N6  UNL     1       1.874   1.385  -0.217  1.00  0.00    -0.293 N 
ATOM     17  H6  UNL     1       0.937   1.788  -0.197  1.00  0.00     0.187 HD
BRANCH  16  18
HETATM   18  N7  UNL     1       2.950   2.245  -0.350  1.00  0.00    -0.344 N 
ATOM     19  H72 UNL     1       3.879   1.825  -0.368  1.00  0.00     0.176 HD
ATOM     20  H71 UNL     1       2.861   3.258  -0.429  1.00  0.00     0.176 HD
ENDBRANCH  16  18
ENDBRANCH  13  14
BRANCH   1  21
HETATM   21  N1  UNL     1      -4.495   0.282   0.235  1.00  0.00    -0.384 N 
ATOM     22  H12 UNL     1      -4.880   1.225   0.178  1.00  0.00     0.157 HD
ATOM     23  H11 UNL     1      -5.131  -0.509   0.336  1.00  0.00     0.157 HD
ENDBRANCH   1  21
TORSDOF 3
