REMARK  3 active torsions:
REMARK  status: ('A' for Active; 'I' for Inactive)
REMARK    1  A    between atoms: N1_1  and  C1_5 
REMARK    2  A    between atoms: C1_5  and  C2_6 
REMARK    3  A    between atoms: C2_6  and  N2_7 
ROOT
HETATM    1  N2  UNL     1      -0.906   0.711  -0.030  1.00  0.00    -0.221 N 
ATOM      2  H2  UNL     1      -1.343   1.626   0.083  1.00  0.00     0.177 HD
HETATM    3  C3  UNL     1       0.321   0.803   0.050  1.00  0.00     0.716 A 
HETATM    4  N3  UNL     1       0.863   2.044   0.263  1.00  0.00    -0.128 N 
ATOM      5  H3  UNL     1       0.245   2.851   0.348  1.00  0.00     0.205 HD
HETATM    6  N4  UNL     1       2.170   2.217   0.360  1.00  0.00    -0.250 N 
ATOM      7  H4  UNL     1       2.545   3.152   0.519  1.00  0.00     0.191 HD
HETATM    8  C4  UNL     1       3.012   1.171   0.251  1.00  0.00     0.295 A 
HETATM    9  O1  UNL     1       4.248   1.320   0.341  1.00  0.00    -0.264 OA
HETATM   10  C5  UNL     1       2.509  -0.086   0.038  1.00  0.00     0.214 A 
HETATM   11  C6  UNL     1       3.101  -1.312  -0.111  1.00  0.00     0.296 A 
HETATM   12  O2  UNL     1       4.334  -1.516  -0.074  1.00  0.00    -0.264 OA
HETATM   13  N5  UNL     1       2.131  -2.207  -0.297  1.00  0.00    -0.249 N 
ATOM     14  H5  UNL     1       2.246  -3.210  -0.440  1.00  0.00     0.192 HD
HETATM   15  N6  UNL     1       0.992  -1.541  -0.260  1.00  0.00    -0.218 N 
ATOM     16  H6  UNL     1       0.076  -1.975  -0.374  1.00  0.00     0.209 HD
HETATM   17  N7  UNL     1       1.174  -0.254  -0.060  1.00  0.00    -0.059 N 
ENDROOT
BRANCH   1  18
HETATM   18  C2  UNL     1      -1.873  -0.274  -0.229  1.00  0.00     0.165 C 
BRANCH  18  19
HETATM   19  C1  UNL     1      -3.258   0.394  -0.181  1.00  0.00     0.249 C 
BRANCH  19  20
HETATM   20  N1  UNL     1      -4.249  -0.640  -0.388  1.00  0.00    -0.078 N 
ATOM     21  H13 UNL     1      -4.094  -1.173  -1.244  1.00  0.00     0.274 HD
ATOM     22  H12 UNL     1      -4.158  -1.414   0.270  1.00  0.00     0.274 HD
ATOM     23  H11 UNL     1      -5.167  -0.197  -0.356  1.00  0.00     0.274 HD
ENDBRANCH  19  20
ENDBRANCH  18  19
ENDBRANCH   1  18
TORSDOF 3
