REMARK  3 active torsions:
REMARK  status: ('A' for Active; 'I' for Inactive)
REMARK       I    between atoms: C2_5  and  N4_7 
REMARK    1  A    between atoms: N4_7  and  C3_9 
REMARK    2  A    between atoms: C4_12  and  N6_13 
REMARK    3  A    between atoms: N6_13  and  N7_15 
ROOT
HETATM    1  N1  UNL     1      -2.866   3.194   0.045  1.00  0.00    -0.172 NA
HETATM    2  C1  UNL     1      -3.169   2.076   0.099  1.00  0.00     0.184 C 
HETATM    3  N2  UNL     1      -3.551   0.742   0.160  1.00  0.00    -0.267 N 
ATOM      4  H2  UNL     1      -4.491   0.502  -0.155  1.00  0.00     0.180 HD
HETATM    5  C2  UNL     1      -2.803  -0.209   0.585  1.00  0.00     0.203 C 
HETATM    6  N3  UNL     1      -3.322  -1.527   0.594  1.00  0.00    -0.062 NA
HETATM    7  N4  UNL     1      -1.492   0.027   1.040  1.00  0.00    -0.311 N 
ATOM      8  H4  UNL     1      -1.395   0.290   2.021  1.00  0.00     0.170 HD
ENDROOT
BRANCH   7   9
HETATM    9  C3  UNL     1      -0.419  -0.050   0.371  1.00  0.00     0.193 A 
HETATM   10  N5  UNL     1       0.746   0.214   0.982  1.00  0.00    -0.168 N 
HETATM   11  C4  UNL     1       1.930   0.151   0.328  1.00  0.00     0.712 A 
ATOM     12  H5  UNL     1       0.740   0.470   1.969  1.00  0.00     0.186 HD
HETATM   13  N8  UNL     1       1.932  -0.187  -0.974  1.00  0.00    -0.128 N 
HETATM   14  N9  UNL     1       0.780  -0.452  -1.593  1.00  0.00    -0.249 N 
ATOM     15  H8  UNL     1       2.812  -0.241  -1.487  1.00  0.00     0.205 HD
HETATM   16  C5  UNL     1      -0.409  -0.396  -0.967  1.00  0.00     0.305 A 
ATOM     17  H9  UNL     1       0.802  -0.707  -2.580  1.00  0.00     0.191 HD
HETATM   18  O1  UNL     1      -1.460  -0.656  -1.603  1.00  0.00    -0.263 OA
BRANCH  11  19
HETATM   19  N6  UNL     1       2.990   0.421   1.001  1.00  0.00    -0.137 N 
ATOM     20  H6  UNL     1       2.883   0.667   1.985  1.00  0.00     0.205 HD
BRANCH  19  21
HETATM   21  N7  UNL     1       4.273   0.398   0.470  1.00  0.00    -0.331 N 
ATOM     22  H72 UNL     1       4.361   0.150  -0.515  1.00  0.00     0.177 HD
ATOM     23  H71 UNL     1       5.115   0.612   1.005  1.00  0.00     0.177 HD
ENDBRANCH  19  21
ENDBRANCH  11  19
ENDBRANCH   7   9
TORSDOF 3
