REMARK  4 active torsions:
REMARK  status: ('A' for Active; 'I' for Inactive)
REMARK    1  A    between atoms: N1_1  and  C1_5 
REMARK    2  A    between atoms: C1_5  and  C2_6 
REMARK    3  A    between atoms: C2_6  and  C3_7 
REMARK    4  A    between atoms: C5_12  and  C6_13 
ROOT
HETATM    1  C3  UNL     1      -1.248  -0.091   0.014  1.00  0.00     0.106 A 
HETATM    2  N2  UNL     1      -1.060   1.031  -0.692  1.00  0.00    -0.308 N 
ATOM      3  H2  UNL     1      -1.790   1.616  -1.097  1.00  0.00     0.170 HD
HETATM    4  C4  UNL     1       0.263   1.247  -0.771  1.00  0.00     0.276 A 
HETATM    5  O1  UNL     1       0.830   2.211  -1.360  1.00  0.00    -0.266 OA
HETATM    6  C5  UNL     1       0.912   0.240  -0.101  1.00  0.00     0.135 A 
HETATM    7  N5  UNL     1      -0.044  -0.571   0.373  1.00  0.00    -0.336 N 
ATOM      8  H5  UNL     1       0.116  -1.418   0.919  1.00  0.00     0.168 HD
ENDROOT
BRANCH   6   9
HETATM    9  C6  UNL     1       2.242   0.100   0.046  1.00  0.00     0.137 A 
HETATM   10  N3  UNL     1       3.285   0.923  -0.433  1.00  0.00    -0.302 N 
HETATM   11  C7  UNL     1       4.552   0.412  -0.052  1.00  0.00     0.327 A 
ATOM     12  H3  UNL     1       3.146   1.772  -0.980  1.00  0.00     0.171 HD
HETATM   13  O2  UNL     1       5.676   0.928  -0.331  1.00  0.00    -0.247 OA
HETATM   14  N4  UNL     1       4.333  -0.765   0.688  1.00  0.00    -0.274 N 
HETATM   15  C8  UNL     1       2.920  -0.984   0.766  1.00  0.00     0.278 A 
ATOM     16  H4  UNL     1       5.055  -1.358   1.097  1.00  0.00     0.173 HD
HETATM   17  O3  UNL     1       2.410  -1.953   1.361  1.00  0.00    -0.265 OA
ENDBRANCH   6   9
BRANCH   1  18
HETATM   18  C2  UNL     1      -2.446  -0.587   0.278  1.00  0.00     0.048 C 
BRANCH  18  19
HETATM   19  C1  UNL     1      -3.695   0.051  -0.183  1.00  0.00     0.260 C 
BRANCH  19  20
HETATM   20  N1  UNL     1      -4.750  -0.949  -0.404  1.00  0.00    -0.076 N 
ATOM     21  H13 UNL     1      -4.444  -1.682  -1.044  1.00  0.00     0.274 HD
ATOM     22  H12 UNL     1      -4.905  -1.521   0.426  1.00  0.00     0.274 HD
ATOM     23  H11 UNL     1      -5.613  -0.508  -0.723  1.00  0.00     0.274 HD
ENDBRANCH  19  20
ENDBRANCH  18  19
ENDBRANCH   1  18
TORSDOF 4
