REMARK  7 active torsions:
REMARK  status: ('A' for Active; 'I' for Inactive)
REMARK    1  A    between atoms: O1_2  and  N1_3 
REMARK       I    between atoms: C2_5  and  N3_7 
REMARK       I    between atoms: N3_7  and  C3_9 
REMARK       I    between atoms: C3_9  and  N5_13 
REMARK    2  A    between atoms: N5_13  and  C4_15 
REMARK    3  A    between atoms: C4_15  and  C5_16 
REMARK    4  A    between atoms: C5_16  and  C6_17 
REMARK    5  A    between atoms: C6_17  and  C7_18 
REMARK    6  A    between atoms: C7_18  and  O2_19 
REMARK    7  A    between atoms: O2_19  and  C8_20 
ROOT
HETATM    1  C4  UNL     1       1.119  -1.384  -0.475  1.00  0.00     0.138 C 
ENDROOT
BRANCH   1   2
HETATM    2  N5  UNL     1       2.186  -0.730   0.243  1.00  0.00    -0.226 N 
HETATM    3  C3  UNL     1       2.866   0.335  -0.408  1.00  0.00     0.674 C 
HETATM    4  N3  UNL     1       4.077   0.025  -1.085  1.00  0.00    -0.162 N 
HETATM    5  N4  UNL     1       2.350   1.506  -0.348  1.00  0.00    -0.235 N 
HETATM    6  C2  UNL     1       5.161  -0.458  -0.310  1.00  0.00     0.226 C 
ATOM      7  H3  UNL     1       4.163   0.146  -2.094  1.00  0.00     0.187 HD
HETATM    8  N1  UNL     1       6.146   0.323  -0.061  1.00  0.00    -0.238 N 
HETATM    9  N2  UNL     1       5.135  -1.801   0.176  1.00  0.00    -0.061 NA
ATOM     10  H1  UNL     1       6.936  -0.006   0.495  1.00  0.00     0.197 HD
ATOM     11  H42 UNL     1       2.838   2.270  -0.815  1.00  0.00     0.174 HD
ATOM     12  H41 UNL     1       1.481   1.728   0.138  1.00  0.00     0.174 HD
ATOM     13  H5  UNL     1       2.444  -1.022   1.186  1.00  0.00     0.177 HD
BRANCH   8  14
HETATM   14  O1  UNL     1       6.129   1.600  -0.547  1.00  0.00    -0.283 OA
HETATM   15  C1  UNL     1       6.873   2.654   0.008  1.00  0.00     0.237 C 
ENDBRANCH   8  14
ENDBRANCH   1   2
BRANCH   1  16
HETATM   16  C5  UNL     1       0.513  -2.448   0.371  1.00  0.00     0.022 C 
BRANCH  16  17
HETATM   17  C6  UNL     1      -0.058  -1.860   1.631  1.00  0.00     0.028 C 
BRANCH  17  18
HETATM   18  C7  UNL     1      -1.117  -0.863   1.279  1.00  0.00     0.179 C 
BRANCH  18  19
HETATM   19  O2  UNL     1      -2.148  -1.510   0.533  1.00  0.00    -0.321 OA
BRANCH  19  20
HETATM   20  C8  UNL     1      -3.249  -0.787   0.088  1.00  0.00     0.232 C 
HETATM   21  N6  UNL     1      -3.134   0.502  -0.113  1.00  0.00    -0.340 N 
HETATM   22  C9  UNL     1      -4.276   1.282  -0.579  1.00  0.00     0.179 C 
ATOM     23  H6  UNL     1      -2.241   0.964   0.057  1.00  0.00     0.164 HD
HETATM   24  S1  UNL     1      -4.058   2.973  -0.006  1.00  0.00    -0.068 SA
HETATM   25  C10 UNL     1      -5.494   0.707   0.142  1.00  0.00     0.129 C 
HETATM   26  C11 UNL     1      -6.708   1.576  -0.053  1.00  0.00     0.033 C 
HETATM   27  N7  UNL     1      -5.687  -0.636  -0.367  1.00  0.00    -0.131 NA
HETATM   28  N8  UNL     1      -4.523  -1.362  -0.169  1.00  0.00    -0.269 N 
ATOM     29  H8  UNL     1      -4.585  -2.379  -0.211  1.00  0.00     0.186 HD
ENDBRANCH  19  20
ENDBRANCH  18  19
ENDBRANCH  17  18
ENDBRANCH  16  17
ENDBRANCH   1  16
TORSDOF 7
