REMARK  14 active torsions:
REMARK  status: ('A' for Active; 'I' for Inactive)
REMARK    1  A    between atoms: N1_1  and  C1_5 
REMARK    2  A    between atoms: C2_6  and  O1_7 
REMARK    3  A    between atoms: C3_9  and  O2_10 
REMARK    4  A    between atoms: C4_12  and  O3_13 
REMARK    5  A    between atoms: C5_15  and  N2_16 
REMARK    6  A    between atoms: C6_20  and  S1_21 
REMARK    7  A    between atoms: S1_21  and  S2_22 
REMARK    8  A    between atoms: S2_22  and  C7_23 
REMARK    9  A    between atoms: C7_23  and  C8_24 
REMARK   10  A    between atoms: C8_24  and  C9_25 
REMARK   11  A    between atoms: C9_25  and  S3_26 
REMARK   12  A    between atoms: S3_26  and  C10_27 
REMARK   13  A    between atoms: C10_27  and  C11_28 
REMARK   14  A    between atoms: C11_28  and  O4_29 
ROOT
HETATM    1  C1  UNL     1      -2.819  -0.799  -0.533  1.00  0.00     0.231 C 
HETATM    2  C2  UNL     1      -3.983   0.095  -0.835  1.00  0.00     0.181 C 
HETATM    3  C3  UNL     1      -4.580   0.758   0.369  1.00  0.00     0.179 C 
HETATM    4  C4  UNL     1      -3.553   1.406   1.267  1.00  0.00     0.181 C 
HETATM    5  C5  UNL     1      -2.613   0.294   1.715  1.00  0.00     0.231 C 
HETATM    6  C6  UNL     1      -1.894  -0.164   0.467  1.00  0.00     0.124 C 
ENDROOT
BRANCH   6   7
HETATM    7  S1  UNL     1      -0.567  -1.273   0.966  1.00  0.00    -0.088 SA
BRANCH   7   8
HETATM    8  S2  UNL     1       0.602  -1.944  -0.657  1.00  0.00    -0.097 SA
BRANCH   8   9
HETATM    9  C7  UNL     1       1.672  -0.665  -1.335  1.00  0.00     0.087 C 
BRANCH   9  10
HETATM   10  C8  UNL     1       2.301   0.205  -0.275  1.00  0.00     0.021 C 
BRANCH  10  11
HETATM   11  C9  UNL     1       3.589   0.751  -0.878  1.00  0.00     0.075 C 
BRANCH  11  12
HETATM   12  S3  UNL     1       4.837  -0.535  -1.087  1.00  0.00    -0.167 SA
BRANCH  12  13
HETATM   13  C10 UNL     1       5.956  -0.654   0.322  1.00  0.00     0.099 C 
BRANCH  13  14
HETATM   14  C11 UNL     1       7.323  -0.070   0.025  1.00  0.00     0.174 C 
BRANCH  14  15
HETATM   15  O4  UNL     1       7.933   0.203   1.256  1.00  0.00    -0.400 OA
ATOM     16  H4  UNL     1       8.790   0.569   1.070  1.00  0.00     0.209 HD
ENDBRANCH  14  15
ENDBRANCH  13  14
ENDBRANCH  12  13
ENDBRANCH  11  12
ENDBRANCH  10  11
ENDBRANCH   9  10
ENDBRANCH   8   9
ENDBRANCH   7   8
ENDBRANCH   6   7
BRANCH   1  17
HETATM   17  N1  UNL     1      -3.225  -2.139  -0.151  1.00  0.00    -0.071 N 
ATOM     18  H13 UNL     1      -3.879  -2.114   0.631  1.00  0.00     0.274 HD
ATOM     19  H12 UNL     1      -3.830  -2.554  -0.860  1.00  0.00     0.274 HD
ATOM     20  H11 UNL     1      -2.433  -2.748   0.055  1.00  0.00     0.274 HD
ENDBRANCH   1  17
BRANCH   5  21
HETATM   21  N2  UNL     1      -3.444  -0.778   2.206  1.00  0.00    -0.071 N 
ATOM     22  H23 UNL     1      -4.094  -0.482   2.934  1.00  0.00     0.274 HD
ATOM     23  H22 UNL     1      -4.142  -1.089   1.530  1.00  0.00     0.274 HD
ATOM     24  H21 UNL     1      -2.815  -1.523   2.506  1.00  0.00     0.274 HD
ENDBRANCH   5  21
BRANCH   2  25
HETATM   25  O1  UNL     1      -5.005  -0.646  -1.449  1.00  0.00    -0.391 OA
ATOM     26  H1  UNL     1      -5.743  -0.079  -1.640  1.00  0.00     0.210 HD
ENDBRANCH   2  25
BRANCH   4  27
HETATM   27  O3  UNL     1      -2.884   2.448   0.655  1.00  0.00    -0.391 OA
ATOM     28  H3  UNL     1      -2.238   2.856   1.220  1.00  0.00     0.210 HD
ENDBRANCH   4  27
BRANCH   3  29
HETATM   29  O2  UNL     1      -5.430   1.780  -0.069  1.00  0.00    -0.390 OA
ATOM     30  H2  UNL     1      -5.808   2.200   0.694  1.00  0.00     0.210 HD
ENDBRANCH   3  29
TORSDOF 14
