REMARK  10 active torsions:
REMARK  status: ('A' for Active; 'I' for Inactive)
REMARK    1  A    between atoms: C1_4  and  C2_6 
REMARK    2  A    between atoms: C3_10  and  C4_11 
REMARK    3  A    between atoms: N5_14  and  C5_15 
REMARK    4  A    between atoms: C5_15  and  C6_16 
REMARK    5  A    between atoms: C6_16  and  C7_17 
REMARK    6  A    between atoms: C8_21  and  N7_22 
REMARK    7  A    between atoms: N7_22  and  C9_24 
REMARK    8  A    between atoms: C9_24  and  C10_25 
REMARK    9  A    between atoms: C10_25  and  C11_26 
REMARK   10  A    between atoms: C11_26  and  N8_27 
ROOT
HETATM    1  C4  UNL     1       0.527   0.562  -0.928  1.00  0.00     0.125 A 
HETATM    2  N4  UNL     1       1.895   0.487  -1.029  1.00  0.00    -0.278 N 
ATOM      3  H4  UNL     1       2.452   1.048  -1.674  1.00  0.00     0.189 HD
HETATM    4  N5  UNL     1       2.398  -0.391  -0.198  1.00  0.00    -0.232 N 
HETATM    5  N6  UNL     1       1.409  -0.910   0.460  1.00  0.00    -0.267 N 
ATOM      6  H6  UNL     1       1.497  -1.627   1.180  1.00  0.00     0.190 HD
HETATM    7  C8  UNL     1       0.240  -0.359   0.049  1.00  0.00     0.148 A 
ENDROOT
BRANCH   1   8
HETATM    8  C3  UNL     1      -0.316   1.439  -1.714  1.00  0.00     0.114 A 
HETATM    9  N3  UNL     1       0.190   2.294  -2.652  1.00  0.00    -0.256 N 
HETATM   10  O1  UNL     1      -0.744   2.962  -3.211  1.00  0.00    -0.232 OA
ATOM     11  H3  UNL     1       1.181   2.386  -2.876  1.00  0.00     0.195 HD
HETATM   12  C2  UNL     1      -1.919   2.652  -2.741  1.00  0.00     0.166 A 
HETATM   13  C12 UNL     1      -1.649   1.662  -1.767  1.00  0.00     0.116 A 
HETATM   14  N9  UNL     1      -2.660   1.048  -1.008  1.00  0.00    -0.097 NA
BRANCH  12  15
HETATM   15  C1  UNL     1      -3.230   3.156  -3.083  1.00  0.00     0.148 C 
HETATM   16  N1  UNL     1      -3.346   4.053  -3.984  1.00  0.00    -0.385 N 
ATOM     17  H12 UNL     1      -4.271   4.409  -4.225  1.00  0.00     0.157 HD
ATOM     18  H11 UNL     1      -2.514   4.407  -4.456  1.00  0.00     0.157 HD
HETATM   19  N2  UNL     1      -4.380   2.666  -2.430  1.00  0.00    -0.080 NA
ENDBRANCH  12  15
ENDBRANCH   1   8
BRANCH   7  20
HETATM   20  N7  UNL     1      -0.883  -0.691   0.529  1.00  0.00    -0.373 N 
ATOM     21  H7  UNL     1      -1.726  -0.240   0.173  1.00  0.00     0.161 HD
BRANCH  20  22
HETATM   22  C9  UNL     1      -1.005  -1.677   1.553  1.00  0.00     0.123 C 
BRANCH  22  23
HETATM   23  C10 UNL     1      -0.744  -1.129   2.939  1.00  0.00     0.047 C 
BRANCH  23  24
HETATM   24  C11 UNL     1      -1.747  -0.018   3.246  1.00  0.00     0.231 C 
BRANCH  24  25
HETATM   25  N8  UNL     1      -1.522   0.520   4.559  1.00  0.00    -0.079 N 
ATOM     26  H83 UNL     1      -1.534  -0.208   5.273  1.00  0.00     0.274 HD
ATOM     27  H82 UNL     1      -0.560   0.836   4.678  1.00  0.00     0.274 HD
ATOM     28  H81 UNL     1      -2.192   1.262   4.764  1.00  0.00     0.274 HD
ENDBRANCH  24  25
ENDBRANCH  23  24
ENDBRANCH  22  23
ENDBRANCH  20  22
ENDBRANCH   7  20
BRANCH   4  29
HETATM   29  C5  UNL     1       3.837  -0.678  -0.088  1.00  0.00     0.170 C 
BRANCH  29  30
HETATM   30  C6  UNL     1       4.231  -1.764  -1.025  1.00  0.00     0.034 C 
BRANCH  30  31
HETATM   31  C7  UNL     1       3.542  -3.073  -0.801  1.00  0.00     0.088 C 
HETATM   32  S1  UNL     1       3.850  -3.768   0.827  1.00  0.00    -0.098 SA
ENDBRANCH  30  31
ENDBRANCH  29  30
ENDBRANCH   4  29
TORSDOF 10
