REMARK  9 active torsions:
REMARK  status: ('A' for Active; 'I' for Inactive)
REMARK    1  A    between atoms: N4_10  and  C3_12 
REMARK    2  A    between atoms: C4_16  and  N6_17 
REMARK    3  A    between atoms: C5_21  and  C6_22 
REMARK    4  A    between atoms: C6_22  and  C7_23 
REMARK    5  A    between atoms: C7_23  and  C8_24 
REMARK    6  A    between atoms: C8_24  and  C9_25 
REMARK    7  A    between atoms: C9_25  and  C10_26 
REMARK    8  A    between atoms: C10_26  and  C11_27 
REMARK    9  A    between atoms: C11_27  and  N7_28 
ROOT
HETATM    1  C3  UNL     1       2.973  -0.060  -0.375  1.00  0.00     0.491 C 
HETATM    2  N5  UNL     1       2.110  -0.503   0.693  1.00  0.00     0.003 N 
ATOM      3  H51 UNL     1       2.164   0.084   1.525  1.00  0.00     0.284 HD
ATOM      4  H52 UNL     1       2.421  -1.371   1.130  1.00  0.00     0.284 HD
HETATM    5  C4  UNL     1       0.751  -0.589   0.126  1.00  0.00     0.418 C 
HETATM    6  C5  UNL     1       1.021  -0.620  -1.308  1.00  0.00     0.271 C 
HETATM    7  N10 UNL     1       2.129   0.315  -1.466  1.00  0.00    -0.017 N 
ATOM      8 1H10 UNL     1       2.575   0.311  -2.383  1.00  0.00     0.282 HD
ATOM      9 2H10 UNL     1       1.867   1.300  -1.496  1.00  0.00     0.282 HD
ENDROOT
BRANCH   6  10
HETATM   10  C6  UNL     1      -0.030  -0.447  -2.317  1.00  0.00     0.009 C 
BRANCH  10  11
HETATM   11  C7  UNL     1      -0.820   0.751  -2.441  1.00  0.00    -0.006 C 
BRANCH  11  12
HETATM   12  C8  UNL     1      -1.758   1.327  -1.501  1.00  0.00    -0.027 C 
BRANCH  12  13
HETATM   13  C9  UNL     1      -3.036   0.673  -1.138  1.00  0.00     0.029 C 
BRANCH  13  14
HETATM   14  C10 UNL     1      -3.048  -0.648  -0.486  1.00  0.00     0.025 C 
BRANCH  14  15
HETATM   15  C11 UNL     1      -4.470  -1.140  -0.191  1.00  0.00     0.150 C 
BRANCH  15  16
HETATM   16  N7  UNL     1      -5.162  -0.240   0.684  1.00  0.00    -0.287 N 
HETATM   17  C12 UNL     1      -5.145  -0.307   2.021  1.00  0.00     0.201 A 
HETATM   18  N8  UNL     1      -5.913   0.684   2.516  1.00  0.00    -0.346 N 
HETATM   19  C13 UNL     1      -6.399   1.356   1.463  1.00  0.00     0.198 A 
ATOM     20  H8  UNL     1      -6.090   0.884   3.500  1.00  0.00     0.167 HD
HETATM   21  N9  UNL     1      -5.928   0.775   0.373  1.00  0.00    -0.293 N 
ATOM     22  H9  UNL     1      -6.133   1.076  -0.580  1.00  0.00     0.188 HD
ENDBRANCH  15  16
ENDBRANCH  14  15
ENDBRANCH  13  14
ENDBRANCH  12  13
ENDBRANCH  11  12
ENDBRANCH  10  11
ENDBRANCH   6  10
BRANCH   5  23
HETATM   23  N6  UNL     1       0.240  -1.882   0.629  1.00  0.00    -0.048 N 
ATOM     24  H63 UNL     1       0.836  -2.682   0.416  1.00  0.00     0.276 HD
ATOM     25  H62 UNL     1       0.280  -1.984   1.643  1.00  0.00     0.276 HD
ATOM     26  H61 UNL     1      -0.700  -1.941   0.237  1.00  0.00     0.276 HD
ENDBRANCH   5  23
BRANCH   1  27
HETATM   27  N4  UNL     1       3.768   1.028   0.143  1.00  0.00    -0.305 N 
HETATM   28  C2  UNL     1       4.808   0.725   0.840  1.00  0.00     0.245 A 
HETATM   29  N3  UNL     1       5.684   1.594   1.415  1.00  0.00    -0.262 N 
HETATM   30  O1  UNL     1       5.256  -0.454   1.153  1.00  0.00    -0.244 OA
HETATM   31  N2  UNL     1       6.618   0.917   2.046  1.00  0.00    -0.262 N 
ATOM     32  H3  UNL     1       5.625   2.611   1.364  1.00  0.00     0.190 HD
HETATM   33  C1  UNL     1       6.340  -0.386   1.876  1.00  0.00     0.239 A 
ATOM     34  H2  UNL     1       7.404   1.307   2.566  1.00  0.00     0.190 HD
HETATM   35  N1  UNL     1       6.988  -1.416   2.321  1.00  0.00    -0.364 N 
ATOM     36  H12 UNL     1       7.835  -1.363   2.886  1.00  0.00     0.159 HD
ATOM     37  H11 UNL     1       6.777  -2.406   2.192  1.00  0.00     0.159 HD
ATOM     38  H4  UNL     1       3.516   2.000  -0.036  1.00  0.00     0.166 HD
ENDBRANCH   1  27
TORSDOF 9
