REMARK  9 active torsions:
REMARK  status: ('A' for Active; 'I' for Inactive)
REMARK    1  A    between atoms: N5_15  and  C6_16 
REMARK    2  A    between atoms: C7_18  and  C8_19 
REMARK    3  A    between atoms: C8_19  and  S1_20 
REMARK    4  A    between atoms: S1_20  and  C9_21 
REMARK    5  A    between atoms: C9_21  and  C10_22 
REMARK    6  A    between atoms: C10_22  and  N6_23 
REMARK    7  A    between atoms: N6_23  and  C11_26 
REMARK    8  A    between atoms: C11_26  and  N7_27 
REMARK    9  A    between atoms: C13_32  and  N8_33 
ROOT
HETATM    1  C6  UNL     1      -1.907  -0.262  -0.300  1.00  0.00     0.261 C 
HETATM    2  O1  UNL     1      -1.352   0.226   0.888  1.00  0.00    -0.358 OA
HETATM    3  C7  UNL     1      -0.064  -0.289   0.991  1.00  0.00     0.135 C 
HETATM    4  C12 UNL     1       0.264  -0.927  -0.319  1.00  0.00     0.070 C 
HETATM    5  C13 UNL     1      -1.146  -1.531  -0.576  1.00  0.00     0.234 C 
ENDROOT
BRANCH   1   6
HETATM    6  N5  UNL     1      -3.327  -0.382  -0.202  1.00  0.00    -0.298 N 
HETATM    7  C3  UNL     1      -4.141   0.599   0.103  1.00  0.00     0.142 A 
HETATM    8  N3  UNL     1      -3.964   1.921   0.385  1.00  0.00    -0.336 N 
HETATM    9  C4  UNL     1      -5.451   0.143   0.153  1.00  0.00     0.122 A 
HETATM   10  C2  UNL     1      -5.035   2.672   0.683  1.00  0.00     0.183 A 
ATOM     11  H3  UNL     1      -3.031   2.333   0.370  1.00  0.00     0.168 HD
HETATM   12  N2  UNL     1      -6.289   2.226   0.726  1.00  0.00    -0.337 N 
HETATM   13  C1  UNL     1      -6.516   0.927   0.456  1.00  0.00     0.131 A 
ATOM     14  H2  UNL     1      -7.059   2.854   0.958  1.00  0.00     0.168 HD
HETATM   15  N1  UNL     1      -7.732   0.556   0.549  1.00  0.00    -0.383 N 
ATOM     16  H12 UNL     1      -8.533   1.145   0.777  1.00  0.00     0.157 HD
ATOM     17  H11 UNL     1      -7.904  -0.428   0.344  1.00  0.00     0.157 HD
HETATM   18  N4  UNL     1      -5.362  -1.191  -0.145  1.00  0.00    -0.346 N 
HETATM   19  C5  UNL     1      -4.083  -1.487  -0.351  1.00  0.00     0.188 A 
ATOM     20  H4  UNL     1      -6.143  -1.845  -0.199  1.00  0.00     0.167 HD
ENDBRANCH   1   6
BRANCH   5  21
HETATM   21  N8  UNL     1      -1.307  -2.051  -1.876  1.00  0.00    -0.071 N 
ATOM     22  H83 UNL     1      -2.297  -2.182  -2.083  1.00  0.00     0.274 HD
ATOM     23  H82 UNL     1      -1.073  -1.342  -2.571  1.00  0.00     0.274 HD
ATOM     24  H81 UNL     1      -0.791  -2.911  -2.063  1.00  0.00     0.274 HD
ENDBRANCH   5  21
BRANCH   3  25
HETATM   25  C8  UNL     1       0.854   0.783   1.484  1.00  0.00     0.106 C 
BRANCH  25  26
HETATM   26  S1  UNL     1       2.555   0.283   1.624  1.00  0.00    -0.165 SA
BRANCH  26  27
HETATM   27  C9  UNL     1       3.385   0.334   0.006  1.00  0.00     0.101 C 
BRANCH  27  28
HETATM   28  C10 UNL     1       4.769  -0.213   0.253  1.00  0.00     0.244 C 
BRANCH  28  29
HETATM   29  N6  UNL     1       5.617  -0.026  -0.867  1.00  0.00    -0.051 N 
ATOM     30  H62 UNL     1       5.217  -0.379  -1.736  1.00  0.00     0.279 HD
ATOM     31  H61 UNL     1       5.699   0.951  -1.150  1.00  0.00     0.279 HD
BRANCH  29  32
HETATM   32  C11 UNL     1       6.915  -0.644  -0.531  1.00  0.00     0.460 C 
BRANCH  32  33
HETATM   33  N7  UNL     1       7.972   0.382  -0.563  1.00  0.00    -0.056 N 
ATOM     34  H73 UNL     1       8.001   0.878  -1.454  1.00  0.00     0.276 HD
ATOM     35  H72 UNL     1       7.756   1.176   0.039  1.00  0.00     0.276 HD
ATOM     36  H71 UNL     1       8.869  -0.045  -0.331  1.00  0.00     0.276 HD
ENDBRANCH  32  33
ENDBRANCH  29  32
ENDBRANCH  28  29
ENDBRANCH  27  28
ENDBRANCH  26  27
ENDBRANCH  25  26
ENDBRANCH   3  25
TORSDOF 9
