REMARK  10 active torsions:
REMARK  status: ('A' for Active; 'I' for Inactive)
REMARK    1  A    between atoms: C3_3  and  C4_4 
REMARK    2  A    between atoms: C4_4  and  C5_5 
REMARK    3  A    between atoms: C5_5  and  C6_6 
REMARK    4  A    between atoms: C6_6  and  N1_7 
REMARK    5  A    between atoms: N1_7  and  C7_9 
REMARK    6  A    between atoms: C9_13  and  N3_14 
REMARK    7  A    between atoms: C10_19  and  N5_20 
REMARK    8  A    between atoms: N7_26  and  C12_27 
REMARK    9  A    between atoms: C13_30  and  C14_31 
REMARK   10  A    between atoms: C14_31  and  O3_32 
ROOT
HETATM    1  C1  UNL     1       7.408  -0.914  -1.147  1.00  0.00     0.012 C 
HETATM    2  C2  UNL     1       6.231  -0.741  -0.964  1.00  0.00    -0.117 C 
HETATM    3  C3  UNL     1       4.777  -0.519  -0.712  1.00  0.00     0.093 C 
ENDROOT
BRANCH   3   4
HETATM    4  C4  UNL     1       4.367  -1.384   0.444  1.00  0.00     0.014 C 
BRANCH   4   5
HETATM    5  C5  UNL     1       2.910  -1.189   0.764  1.00  0.00     0.021 C 
BRANCH   5   6
HETATM    6  C6  UNL     1       2.072  -1.559  -0.422  1.00  0.00     0.138 C 
BRANCH   6   7
HETATM    7  N1  UNL     1       0.643  -1.428  -0.201  1.00  0.00    -0.226 N 
ATOM      8  H1  UNL     1       0.044  -2.253  -0.229  1.00  0.00     0.177 HD
BRANCH   7   9
HETATM    9  C7  UNL     1       0.083  -0.151   0.054  1.00  0.00     0.686 A 
HETATM   10  N2  UNL     1       0.738   1.018   0.107  1.00  0.00    -0.184 N 
HETATM   11  C8  UNL     1      -0.114   1.994   0.366  1.00  0.00     0.138 A 
ATOM     12  H2  UNL     1       1.742   1.136  -0.032  1.00  0.00     0.184 HD
HETATM   13  C9  UNL     1      -0.003   3.345   0.526  1.00  0.00     0.146 A 
HETATM   14  C11 UNL     1      -1.372   1.417   0.483  1.00  0.00     0.175 A 
HETATM   15  N4  UNL     1      -1.113   4.061   0.790  1.00  0.00    -0.175 N 
HETATM   16  C10 UNL     1      -2.303   3.462   0.893  1.00  0.00     0.679 A 
ATOM     17  H4  UNL     1      -1.044   5.071   0.913  1.00  0.00     0.186 HD
HETATM   18  N6  UNL     1      -2.456   2.149   0.744  1.00  0.00    -0.173 N 
ATOM     19  H6  UNL     1      -3.375   1.715   0.827  1.00  0.00     0.186 HD
HETATM   20  N7  UNL     1      -1.220   0.093   0.286  1.00  0.00    -0.112 N 
BRANCH  13  21
HETATM   21  N3  UNL     1       1.155   3.895   0.421  1.00  0.00    -0.383 N 
ATOM     22  H32 UNL     1       1.996   3.353   0.221  1.00  0.00     0.157 HD
ATOM     23  H31 UNL     1       1.238   4.905   0.541  1.00  0.00     0.157 HD
ENDBRANCH  13  21
BRANCH  16  24
HETATM   24  N5  UNL     1      -3.357   4.191   1.150  1.00  0.00    -0.234 N 
ATOM     25  H52 UNL     1      -3.240   5.198   1.264  1.00  0.00     0.174 HD
ATOM     26  H51 UNL     1      -4.265   3.734   1.229  1.00  0.00     0.174 HD
ENDBRANCH  16  24
BRANCH  20  27
HETATM   27  C12 UNL     1      -2.219  -0.906   0.309  1.00  0.00     0.431 C 
HETATM   28  O1  UNL     1      -3.249  -0.725   1.198  1.00  0.00    -0.182 OA
HETATM   29  O2  UNL     1      -4.175  -1.554   0.810  1.00  0.00    -0.201 OA
HETATM   30  C13 UNL     1      -3.946  -1.873  -0.511  1.00  0.00     0.325 C 
HETATM   31  O4  UNL     1      -2.919  -0.996  -0.917  1.00  0.00    -0.306 OA
BRANCH  30  32
HETATM   32  C14 UNL     1      -5.168  -1.715  -1.386  1.00  0.00     0.228 C 
BRANCH  32  33
HETATM   33  O3  UNL     1      -6.159  -2.541  -0.922  1.00  0.00    -0.396 OA
ATOM     34  H3  UNL     1      -6.927  -2.442  -1.472  1.00  0.00     0.209 HD
ENDBRANCH  32  33
ENDBRANCH  30  32
ENDBRANCH  20  27
ENDBRANCH   7   9
ENDBRANCH   6   7
ENDBRANCH   5   6
ENDBRANCH   4   5
ENDBRANCH   3   4
TORSDOF 10
