REMARK  4 active torsions:
REMARK  status: ('A' for Active; 'I' for Inactive)
REMARK    1  A    between atoms: N1_10  and  N2_12 
REMARK    2  A    between atoms: N2_12  and  C9_14 
REMARK    3  A    between atoms: C9_14  and  O2_15 
REMARK    4  A    between atoms: C9_14  and  C10_17 
ROOT
HETATM    1  O1  UNL     1      -5.187   2.328   1.048  1.00  0.00    -0.287 OA
HETATM    2  C1  UNL     1      -4.120   1.759   0.709  1.00  0.00     0.194 A 
HETATM    3  C2  UNL     1      -2.895   2.522   0.590  1.00  0.00     0.027 A 
HETATM    4  C3  UNL     1      -2.900   3.880   0.840  1.00  0.00     0.016 A 
HETATM    5  C4  UNL     1      -1.739   4.613   0.720  1.00  0.00     0.001 A 
HETATM    6  C5  UNL     1      -0.560   4.017   0.353  1.00  0.00     0.001 A 
HETATM    7  C6  UNL     1      -0.551   2.625   0.095  1.00  0.00     0.015 A 
HETATM    8  C7  UNL     1      -1.721   1.914   0.221  1.00  0.00     0.007 A 
HETATM    9  C8  UNL     1      -1.677   0.445  -0.067  1.00  0.00     0.071 A 
HETATM   10  N1  UNL     1      -0.634  -0.087  -0.313  1.00  0.00    -0.297 N 
ATOM     11  H1  UNL     1      -0.887  -1.063  -0.468  1.00  0.00     0.187 HD
HETATM   12  C20 UNL     1      -2.956  -0.312   0.061  1.00  0.00     0.018 A 
HETATM   13  C21 UNL     1      -4.127   0.350   0.442  1.00  0.00     0.028 A 
HETATM   14  C22 UNL     1      -5.315  -0.368   0.582  1.00  0.00     0.017 A 
HETATM   15  C23 UNL     1      -5.365  -1.705   0.357  1.00  0.00     0.013 A 
HETATM   16  C24 UNL     1      -4.205  -2.335  -0.019  1.00  0.00    -0.025 A 
HETATM   17  C25 UNL     1      -4.283  -3.687  -0.252  1.00  0.00     0.012 A 
HETATM   18  C26 UNL     1      -3.186  -4.408  -0.644  1.00  0.00     0.001 A 
HETATM   19  C27 UNL     1      -1.985  -3.746  -0.804  1.00  0.00     0.001 A 
HETATM   20  C28 UNL     1      -1.883  -2.380  -0.572  1.00  0.00     0.013 A 
HETATM   21  C29 UNL     1      -2.980  -1.675  -0.180  1.00  0.00    -0.012 A 
ENDROOT
BRANCH  10  22
HETATM   22  N2  UNL     1       0.707  -0.066  -0.492  1.00  0.00    -0.279 N 
ATOM     23  H2  UNL     1       1.098   0.434  -1.290  1.00  0.00     0.189 HD
BRANCH  22  24
HETATM   24  C9  UNL     1       1.582  -0.729   0.413  1.00  0.00     0.166 C 
BRANCH  24  25
HETATM   25  O2  UNL     1       0.964  -1.332   1.408  1.00  0.00    -0.344 OA
ATOM     26  H2  UNL     1       1.548  -1.775   2.012  1.00  0.00     0.219 HD
ENDBRANCH  24  25
BRANCH  24  27
HETATM   27  C10 UNL     1       2.991  -0.890   0.461  1.00  0.00     0.027 A 
HETATM   28  C11 UNL     1       3.475  -2.201   0.734  1.00  0.00     0.017 A 
HETATM   29  C12 UNL     1       4.814  -2.493   0.733  1.00  0.00     0.002 A 
HETATM   30  C13 UNL     1       5.724  -1.507   0.462  1.00  0.00     0.012 A 
HETATM   31  C14 UNL     1       5.307  -0.219   0.193  1.00  0.00    -0.025 A 
HETATM   32  C15 UNL     1       6.262   0.748  -0.048  1.00  0.00     0.012 A 
HETATM   33  C19 UNL     1       3.929   0.045   0.202  1.00  0.00    -0.011 A 
HETATM   34  C16 UNL     1       5.867   2.044  -0.291  1.00  0.00     0.001 A 
HETATM   35  C17 UNL     1       4.521   2.343  -0.287  1.00  0.00     0.001 A 
HETATM   36  C18 UNL     1       3.586   1.343  -0.041  1.00  0.00     0.013 A 
ENDBRANCH  24  27
ENDBRANCH  22  24
ENDBRANCH  10  22
TORSDOF 4
