REMARK  6 active torsions:
REMARK  status: ('A' for Active; 'I' for Inactive)
REMARK    1  A    between atoms: C7_7  and  C8_8 
REMARK    2  A    between atoms: C10_10  and  C11_11 
REMARK    3  A    between atoms: C18_22  and  C19_23 
REMARK    4  A    between atoms: C20_24  and  C21_25 
REMARK    5  A    between atoms: C22_26  and  C23_27 
REMARK    6  A    between atoms: N3_30  and  O1_31 
ROOT
HETATM    1  C8  UNL     1      -3.030  -1.912  -0.030  1.00  0.00     0.018 A 
HETATM    2  C9  UNL     1      -2.767  -0.582   0.033  1.00  0.00     0.037 A 
HETATM    3  C10 UNL     1      -1.475  -0.172  -0.031  1.00  0.00     0.035 A 
HETATM    4  C18 UNL     1      -0.522  -1.144  -0.156  1.00  0.00     0.073 A 
HETATM    5  S1  UNL     1      -1.424  -2.574  -0.182  1.00  0.00    -0.079 SA
ENDROOT
BRANCH   4   6
HETATM    6  C19 UNL     1       0.929  -0.959  -0.245  1.00  0.00    -0.044 C 
HETATM    7  C20 UNL     1       2.122  -0.820  -0.315  1.00  0.00    -0.009 C 
BRANCH   7   8
HETATM    8  C21 UNL     1       3.527  -0.681  -0.393  1.00  0.00    -0.009 C 
HETATM    9  C22 UNL     1       4.730  -0.582  -0.454  1.00  0.00    -0.053 C 
BRANCH   9  10
HETATM   10  C23 UNL     1       6.163  -0.488  -0.517  1.00  0.00     0.021 A 
HETATM   11  C24 UNL     1       6.824   0.682  -0.844  1.00  0.00     0.040 A 
HETATM   12  C25 UNL     1       8.197   0.746  -0.897  1.00  0.00     0.124 A 
HETATM   13  N3  UNL     1       8.953  -0.335  -0.630  1.00  0.00    -0.247 N 
HETATM   14  C26 UNL     1       8.342  -1.489  -0.309  1.00  0.00     0.124 A 
HETATM   15  C27 UNL     1       6.966  -1.586  -0.247  1.00  0.00     0.040 A 
BRANCH  13  16
HETATM   16  O1  UNL     1      10.343  -0.264  -0.685  1.00  0.00    -0.284 OA
ATOM     17  H1  UNL     1      10.877  -1.027  -0.497  1.00  0.00     0.245 HD
ENDBRANCH  13  16
ENDBRANCH   9  10
ENDBRANCH   7   8
ENDBRANCH   4   6
BRANCH   3  18
HETATM   18  C11 UNL     1      -1.074   1.273   0.031  1.00  0.00     0.118 A 
HETATM   19  N1  UNL     1       0.173   1.753  -0.026  1.00  0.00    -0.340 N 
HETATM   20  C12 UNL     1       0.164   3.092   0.058  1.00  0.00     0.060 A 
ATOM     21  H1  UNL     1       1.013   1.182  -0.120  1.00  0.00     0.167 HD
HETATM   22  C13 UNL     1       1.175   4.045   0.046  1.00  0.00     0.032 A 
HETATM   23  C17 UNL     1      -1.152   3.475   0.174  1.00  0.00     0.060 A 
HETATM   24  C14 UNL     1       0.848   5.379   0.152  1.00  0.00     0.002 A 
HETATM   25  C15 UNL     1      -0.478   5.767   0.269  1.00  0.00     0.002 A 
HETATM   26  C16 UNL     1      -1.487   4.809   0.281  1.00  0.00     0.032 A 
HETATM   27  N2  UNL     1      -1.865   2.347   0.154  1.00  0.00    -0.340 N 
ATOM     28  H2  UNL     1      -2.882   2.308   0.223  1.00  0.00     0.167 HD
ENDBRANCH   3  18
BRANCH   1  29
HETATM   29  C7  UNL     1      -4.244  -2.713  -0.029  1.00  0.00    -0.013 A 
HETATM   30  C2  UNL     1      -5.482  -2.294   0.267  1.00  0.00    -0.050 A 
HETATM   31  C1  UNL     1      -5.749  -0.935   0.745  1.00  0.00     0.049 C 
HETATM   32  C3  UNL     1      -6.605  -3.126   0.187  1.00  0.00     0.007 A 
HETATM   33  C4  UNL     1      -6.454  -4.422  -0.206  1.00  0.00     0.001 A 
HETATM   34  C5  UNL     1      -5.201  -4.892  -0.518  1.00  0.00     0.001 A 
HETATM   35  C6  UNL     1      -4.118  -4.052  -0.430  1.00  0.00     0.013 A 
ENDBRANCH   1  29
TORSDOF 6
