REMARK  3 active torsions:
REMARK  status: ('A' for Active; 'I' for Inactive)
REMARK       I    between atoms: C2_2  and  N1_4 
REMARK    1  A    between atoms: N1_4  and  C3_6 
REMARK    2  A    between atoms: C6_9  and  C7_10 
REMARK    3  A    between atoms: C22_29  and  C23_30 
ROOT
HETATM    1  C3  UNL     1       1.697  -0.712  -0.648  1.00  0.00     0.144 A 
HETATM    2  C4  UNL     1       0.396  -1.227  -0.730  1.00  0.00     0.037 A 
HETATM    3  C5  UNL     1      -0.692  -0.483  -0.340  1.00  0.00     0.030 A 
HETATM    4  C6  UNL     1      -1.984  -0.996  -0.433  1.00  0.00    -0.025 A 
HETATM    5  C17 UNL     1      -2.135  -2.264  -0.925  1.00  0.00     0.014 A 
HETATM    6  C18 UNL     1      -1.070  -3.036  -1.325  1.00  0.00     0.032 A 
HETATM    7  C19 UNL     1       0.215  -2.500  -1.223  1.00  0.00     0.063 A 
HETATM    8  N2  UNL     1       1.267  -3.226  -1.614  1.00  0.00    -0.190 N 
ATOM      9  H2  UNL     1       1.115  -4.168  -1.974  1.00  0.00     0.184 HD
HETATM   10  C20 UNL     1       2.508  -2.750  -1.545  1.00  0.00     0.691 A 
HETATM   11  N3  UNL     1       3.665  -3.384  -1.865  1.00  0.00    -0.199 N 
ATOM     12  H3  UNL     1       3.771  -4.328  -2.237  1.00  0.00     0.183 HD
HETATM   13  C21 UNL     1       4.621  -2.522  -1.594  1.00  0.00     0.137 A 
HETATM   14  C22 UNL     1       4.060  -1.300  -1.087  1.00  0.00     0.085 A 
HETATM   15  N4  UNL     1       2.754  -1.515  -1.078  1.00  0.00    -0.129 N 
ENDROOT
BRANCH   4  16
HETATM   16  C7  UNL     1      -3.118  -0.154   0.003  1.00  0.00    -0.025 A 
HETATM   17  C8  UNL     1      -2.995   0.758   1.035  1.00  0.00     0.013 A 
HETATM   18  C9  UNL     1      -4.063   1.539   1.420  1.00  0.00     0.013 A 
HETATM   19  C10 UNL     1      -5.290   1.433   0.784  1.00  0.00    -0.026 A 
HETATM   20  C11 UNL     1      -6.363   2.221   1.172  1.00  0.00     0.012 A 
HETATM   21  C15 UNL     1      -5.438   0.539  -0.239  1.00  0.00    -0.025 A 
HETATM   22  C12 UNL     1      -7.569   2.094   0.520  1.00  0.00     0.001 A 
HETATM   23  C13 UNL     1      -7.749   1.201  -0.516  1.00  0.00     0.001 A 
HETATM   24  C14 UNL     1      -6.659   0.433  -0.874  1.00  0.00     0.012 A 
HETATM   25  C16 UNL     1      -4.348  -0.244  -0.616  1.00  0.00     0.024 A 
ENDBRANCH   4  16
BRANCH   1  26
HETATM   26  N1  UNL     1       1.887   0.354  -0.112  1.00  0.00    -0.312 N 
HETATM   27  C2  UNL     1       1.545   1.462   0.527  1.00  0.00     0.219 C 
HETATM   28  C1  UNL     1       1.433   1.600   2.044  1.00  0.00     0.117 C 
HETATM   29  O1  UNL     1       1.267   2.566  -0.065  1.00  0.00    -0.274 OA
ATOM     30  H1  UNL     1       2.897   0.464  -0.207  1.00  0.00     0.170 HD
ENDBRANCH   1  26
BRANCH  14  31
HETATM   31  C23 UNL     1       4.910  -0.212  -0.670  1.00  0.00    -0.007 A 
HETATM   32  C24 UNL     1       6.094  -0.588   0.011  1.00  0.00     0.014 A 
HETATM   33  C25 UNL     1       7.048   0.342   0.313  1.00  0.00     0.001 A 
HETATM   34  C26 UNL     1       6.866   1.669  -0.046  1.00  0.00     0.000 A 
HETATM   35  C27 UNL     1       5.724   2.057  -0.709  1.00  0.00     0.001 A 
HETATM   36  C28 UNL     1       4.761   1.100  -1.011  1.00  0.00     0.014 A 
ENDBRANCH  14  31
TORSDOF 3
