REMARK  7 active torsions:
REMARK  status: ('A' for Active; 'I' for Inactive)
REMARK    1  A    between atoms: C1_2  and  C2_4 
REMARK    2  A    between atoms: C2_4  and  C3_5 
REMARK    3  A    between atoms: N1_6  and  N2_8 
REMARK    4  A    between atoms: N2_8  and  C4_10 
REMARK    5  A    between atoms: C6_13  and  O3_14 
REMARK    6  A    between atoms: N3_16  and  C7_17 
REMARK    7  A    between atoms: C7_17  and  C8_18 
ROOT
HETATM    1  C4  UNL     1       0.303   0.686   0.073  1.00  0.00     0.167 A 
HETATM    2  S1  UNL     1       0.705   2.032   1.030  1.00  0.00    -0.060 SA
HETATM    3  C5  UNL     1      -0.361   1.747   2.329  1.00  0.00     0.109 A 
HETATM    4  C6  UNL     1      -0.987   0.593   1.942  1.00  0.00     0.151 A 
HETATM    5  N3  UNL     1      -0.637   0.066   0.790  1.00  0.00    -0.302 N 
ENDROOT
BRANCH   1   6
HETATM    6  N2  UNL     1       0.785   0.302  -1.095  1.00  0.00    -0.280 N 
ATOM      7  H2  UNL     1       0.466  -0.534  -1.585  1.00  0.00     0.189 HD
BRANCH   6   8
HETATM    8  N1  UNL     1       1.794   1.170  -1.603  1.00  0.00    -0.313 N 
HETATM    9  C3  UNL     1       3.014   1.025  -1.262  1.00  0.00     0.090 C 
ATOM     10  H1  UNL     1       1.537   1.917  -2.248  1.00  0.00     0.185 HD
BRANCH   9  11
HETATM   11  C2  UNL     1       3.497  -0.024  -0.335  1.00  0.00     0.159 C 
BRANCH  11  12
HETATM   12  C1  UNL     1       4.839  -0.548  -0.702  1.00  0.00     0.177 C 
HETATM   13  O1  UNL     1       5.106  -1.016  -1.828  1.00  0.00    -0.648 OA
HETATM   14  O2  UNL     1       5.830  -0.499   0.277  1.00  0.00    -0.648 OA
ENDBRANCH  11  12
ENDBRANCH   9  11
ENDBRANCH   6   8
ENDBRANCH   1   6
BRANCH   5  15
HETATM   15  C7  UNL     1      -1.268  -1.195   0.302  1.00  0.00     0.179 C 
BRANCH  15  16
HETATM   16  C8  UNL     1      -2.471  -0.859  -0.524  1.00  0.00     0.001 A 
HETATM   17  C9  UNL     1      -3.753  -0.622  -0.129  1.00  0.00     0.017 A 
HETATM   18  C10 UNL     1      -4.661  -0.346  -1.092  1.00  0.00     0.008 A 
HETATM   19  C11 UNL     1      -4.209  -0.328  -2.383  1.00  0.00     0.050 A 
HETATM   20  S2  UNL     1      -2.553  -0.693  -2.219  1.00  0.00    -0.105 SA
ENDBRANCH  15  16
ENDBRANCH   5  15
BRANCH   4  21
HETATM   21  O3  UNL     1      -1.979   0.040   2.816  1.00  0.00    -0.346 OA
ATOM     22  H3  UNL     1      -2.413  -0.761   2.547  1.00  0.00     0.219 HD
ENDBRANCH   4  21
TORSDOF 7
