REMARK  6 active torsions:
REMARK  status: ('A' for Active; 'I' for Inactive)
REMARK    1  A    between atoms: C2_3  and  S1_4 
REMARK    2  A    between atoms: S1_4  and  C3_5 
REMARK    3  A    between atoms: C3_5  and  C4_6 
REMARK    4  A    between atoms: C4_6  and  C5_7 
REMARK    5  A    between atoms: C5_7  and  O1_8 
REMARK    6  A    between atoms: C10_18  and  N3_19 
ROOT
HETATM    1  C3  UNL     1       0.559  -0.519   1.437  1.00  0.00     0.086 C 
ENDROOT
BRANCH   1   2
HETATM    2  S1  UNL     1      -0.992   0.151   2.014  1.00  0.00    -0.112 SA
BRANCH   2   3
HETATM    3  C2  UNL     1      -2.097   0.614   0.723  1.00  0.00     0.073 A 
HETATM    4  N1  UNL     1      -3.021  -0.157   0.148  1.00  0.00    -0.327 N 
HETATM    5  C1  UNL     1      -3.256  -1.531   0.513  1.00  0.00     0.159 C 
HETATM    6  C10 UNL     1      -3.689   0.515  -0.802  1.00  0.00     0.176 A 
HETATM    7  C9  UNL     1      -3.157   1.811  -0.841  1.00  0.00     0.058 A 
HETATM    8  C8  UNL     1      -2.165   1.848   0.119  1.00  0.00     0.041 A 
BRANCH   6   9
HETATM    9  N3  UNL     1      -4.744   0.062  -1.642  1.00  0.00    -0.098 N 
HETATM   10  O2  UNL     1      -5.260   0.812  -2.478  1.00  0.00    -0.531 OA
HETATM   11  O3  UNL     1      -5.218  -1.215  -1.550  1.00  0.00    -0.531 OA
ENDBRANCH   6   9
ENDBRANCH   2   3
ENDBRANCH   1   2
BRANCH   1  12
HETATM   12  C4  UNL     1       1.407   0.505   0.707  1.00  0.00     0.080 C 
BRANCH  12  13
HETATM   13  C5  UNL     1       2.691  -0.083   0.240  1.00  0.00     0.234 C 
HETATM   14  C6  UNL     1       2.476  -1.269  -0.708  1.00  0.00     0.144 C 
HETATM   15  S2  UNL     1       4.185  -1.371  -1.388  1.00  0.00    -0.137 SA
HETATM   16  C7  UNL     1       4.744   0.278  -0.787  1.00  0.00     0.309 C 
HETATM   17  N2  UNL     1       3.426   0.873  -0.543  1.00  0.00    -0.034 N 
ATOM     18  H22 UNL     1       2.944   1.154  -1.397  1.00  0.00     0.281 HD
ATOM     19  H21 UNL     1       3.472   1.798  -0.115  1.00  0.00     0.281 HD
BRANCH  13  20
HETATM   20  O1  UNL     1       3.408  -0.551   1.333  1.00  0.00    -0.364 OA
ATOM     21  H1  UNL     1       4.228  -0.927   1.035  1.00  0.00     0.212 HD
ENDBRANCH  13  20
ENDBRANCH  12  13
ENDBRANCH   1  12
TORSDOF 6
