REMARK  7 active torsions:
REMARK  status: ('A' for Active; 'I' for Inactive)
REMARK    1  A    between atoms: C2_3  and  O1_4 
REMARK    2  A    between atoms: O1_4  and  C3_5 
REMARK    3  A    between atoms: C3_5  and  C4_7 
REMARK    4  A    between atoms: C4_7  and  O3_8 
REMARK    5  A    between atoms: C5_10  and  C6_11 
REMARK    6  A    between atoms: N2_13  and  N3_14 
REMARK    7  A    between atoms: N3_14  and  C8_16 
ROOT
HETATM    1  N1  UNL     1       8.359   1.955   0.154  1.00  0.00    -0.195 NA
HETATM    2  C1  UNL     1       7.694   1.145  -0.364  1.00  0.00     0.085 C 
HETATM    3  C2  UNL     1       6.875   0.154  -1.030  1.00  0.00     0.302 C 
ENDROOT
BRANCH   3   4
HETATM    4  O1  UNL     1       5.534   0.264  -0.567  1.00  0.00    -0.302 OA
BRANCH   4   5
HETATM    5  C3  UNL     1       4.576  -0.596  -1.115  1.00  0.00     0.317 C 
HETATM    6  O2  UNL     1       4.957  -1.420  -1.989  1.00  0.00    -0.257 OA
BRANCH   5   7
HETATM    7  C4  UNL     1       3.212  -0.505  -0.666  1.00  0.00     0.144 C 
HETATM    8  C5  UNL     1       2.855   0.345   0.258  1.00  0.00     0.081 C 
BRANCH   7   9
HETATM    9  O3  UNL     1       2.277  -1.373  -1.262  1.00  0.00    -0.355 OA
ATOM     10  H3  UNL     1       1.376  -1.313  -0.966  1.00  0.00     0.218 HD
ENDBRANCH   7   9
BRANCH   8  11
HETATM   11  C6  UNL     1       1.434   0.376   0.656  1.00  0.00     0.101 A 
HETATM   12  C7  UNL     1       0.440   0.438  -0.292  1.00  0.00     0.159 A 
HETATM   13  N2  UNL     1      -0.744   0.450   0.381  1.00  0.00    -0.212 N 
HETATM   14  C13 UNL     1      -0.460   0.398   1.677  1.00  0.00     0.391 A 
HETATM   15  O4  UNL     1      -1.270   0.391   2.672  1.00  0.00    -0.236 OA
HETATM   16  O5  UNL     1       0.868   0.355   1.804  1.00  0.00    -0.258 OA
BRANCH  13  17
HETATM   17  N3  UNL     1      -1.975   0.555  -0.235  1.00  0.00    -0.321 N 
ATOM     18  H3  UNL     1      -2.004   0.730  -1.239  1.00  0.00     0.181 HD
BRANCH  17  19
HETATM   19  C8  UNL     1      -3.207   0.429   0.471  1.00  0.00     0.100 C 
HETATM   20  C9  UNL     1      -3.559  -1.000   0.800  1.00  0.00     0.026 C 
HETATM   21  C10 UNL     1      -5.069  -1.137   0.587  1.00  0.00     0.002 C 
HETATM   22  C11 UNL     1      -5.549   0.308   0.398  1.00  0.00     0.002 C 
HETATM   23  C12 UNL     1      -4.379   0.839  -0.433  1.00  0.00     0.026 C 
ENDBRANCH  17  19
ENDBRANCH  13  17
ENDBRANCH   8  11
ENDBRANCH   5   7
ENDBRANCH   4   5
ENDBRANCH   3   4
TORSDOF 7
