REMARK  6 active torsions:
REMARK  status: ('A' for Active; 'I' for Inactive)
REMARK    1  A    between atoms: C2_2  and  O1_3 
REMARK    2  A    between atoms: C3_5  and  C4_6 
REMARK    3  A    between atoms: C4_6  and  C5_7 
REMARK    4  A    between atoms: N1_8  and  N2_10 
REMARK       I    between atoms: N2_10  and  C6_12 
REMARK       I    between atoms: C6_12  and  N5_17 
REMARK    5  A    between atoms: N5_17  and  N6_19 
REMARK    6  A    between atoms: C8_21  and  C9_22 
ROOT
HETATM    1  N2  UNL     1       0.563  -1.931  -0.345  1.00  0.00    -0.131 N 
ATOM      2  H2  UNL     1       0.436  -2.853  -0.763  1.00  0.00     0.205 HD
HETATM    3  C6  UNL     1      -0.467  -0.967  -0.458  1.00  0.00     0.720 C 
HETATM    4  N3  UNL     1      -0.327   0.054  -1.198  1.00  0.00    -0.123 N 
ATOM      5  H3  UNL     1       0.562   0.125  -1.693  1.00  0.00     0.197 HD
HETATM    6  C7  UNL     1      -1.218   1.075  -1.418  1.00  0.00     0.196 C 
HETATM    7  N4  UNL     1      -1.950   1.930  -1.620  1.00  0.00    -0.171 NA
HETATM    8  N5  UNL     1      -1.661  -1.166   0.275  1.00  0.00    -0.130 N 
ATOM      9  H5  UNL     1      -2.308  -1.917   0.035  1.00  0.00     0.205 HD
ENDROOT
BRANCH   1  10
HETATM   10  N1  UNL     1       1.746  -1.642   0.327  1.00  0.00    -0.301 N 
HETATM   11  C5  UNL     1       2.638  -0.915  -0.234  1.00  0.00     0.084 C 
ATOM     12  H1  UNL     1       1.903  -2.009   1.266  1.00  0.00     0.186 HD
BRANCH  11  13
HETATM   13  C4  UNL     1       3.910  -0.583   0.445  1.00  0.00     0.075 C 
BRANCH  13  14
HETATM   14  C3  UNL     1       4.945  -0.432  -0.599  1.00  0.00     0.010 C 
HETATM   15  C2  UNL     1       5.574   0.712  -0.729  1.00  0.00     0.036 C 
HETATM   16  C1  UNL     1       5.238   1.835   0.174  1.00  0.00     0.075 C 
BRANCH  15  17
HETATM   17  O1  UNL     1       6.561   0.925  -1.691  1.00  0.00    -0.366 OA
ATOM     18  H1  UNL     1       6.777   0.204  -2.271  1.00  0.00     0.217 HD
ENDBRANCH  15  17
ENDBRANCH  13  14
ENDBRANCH  11  13
ENDBRANCH   1  10
BRANCH   8  19
HETATM   19  N6  UNL     1      -1.919  -0.314   1.320  1.00  0.00    -0.296 N 
HETATM   20  C8  UNL     1      -3.001   0.264   1.615  1.00  0.00     0.126 C 
ATOM     21  H6  UNL     1      -1.132  -0.123   1.940  1.00  0.00     0.186 HD
BRANCH  20  22
HETATM   22  C9  UNL     1      -4.242   0.113   0.842  1.00  0.00     0.021 A 
HETATM   23  C10 UNL     1      -5.448   0.712   1.117  1.00  0.00     0.021 A 
HETATM   24  C11 UNL     1      -6.466   0.446   0.283  1.00  0.00     0.008 A 
HETATM   25  C12 UNL     1      -6.219  -0.396  -0.766  1.00  0.00     0.050 A 
HETATM   26  S1  UNL     1      -4.575  -0.788  -0.555  1.00  0.00    -0.101 SA
ENDBRANCH  20  22
ENDBRANCH   8  19
TORSDOF 6
