REMARK  5 active torsions:
REMARK  status: ('A' for Active; 'I' for Inactive)
REMARK    1  A    between atoms: C2_2  and  N1_3 
REMARK    2  A    between atoms: C3_4  and  S1_5 
REMARK    3  A    between atoms: S1_5  and  C4_6 
REMARK    4  A    between atoms: C4_6  and  C5_7 
REMARK       I    between atoms: C5_7  and  N2_9 
REMARK    5  A    between atoms: N2_9  and  N3_11 
ROOT
HETATM    1  N3  UNL     1       3.663   0.592  -0.234  1.00  0.00    -0.292 N 
ATOM      2  H3  UNL     1       3.577   1.104  -1.112  1.00  0.00     0.187 HD
HETATM    3  C6  UNL     1       4.705  -0.027  -0.345  1.00  0.00     0.101 C 
HETATM    4  C7  UNL     1       5.226  -0.923   0.737  1.00  0.00     0.082 C 
HETATM    5  C8  UNL     1       5.519   0.058  -1.542  1.00  0.00     0.114 C 
HETATM    6  N4  UNL     1       6.170   0.149  -2.505  1.00  0.00    -0.190 NA
ENDROOT
BRANCH   1   7
HETATM    7  N2  UNL     1       2.594   0.931   0.449  1.00  0.00    -0.269 N 
HETATM    8  C5  UNL     1       1.247   0.962  -0.073  1.00  0.00     0.245 C 
HETATM    9  O1  UNL     1       1.088   0.630  -1.274  1.00  0.00    -0.271 OA
ATOM     10  H2  UNL     1       2.725   1.193   1.426  1.00  0.00     0.190 HD
BRANCH   8  11
HETATM   11  C4  UNL     1       0.126   1.368   0.776  1.00  0.00     0.186 C 
BRANCH  11  12
HETATM   12  S1  UNL     1      -0.876   0.036   1.425  1.00  0.00    -0.083 SA
BRANCH  12  13
HETATM   13  C3  UNL     1      -1.722  -0.804   0.100  1.00  0.00     0.164 A 
HETATM   14  N1  UNL     1      -2.922  -0.445  -0.443  1.00  0.00    -0.302 N 
HETATM   15  C9  UNL     1      -3.183  -1.349  -1.371  1.00  0.00     0.195 A 
HETATM   16  N6  UNL     1      -2.193  -2.264  -1.435  1.00  0.00    -0.274 N 
HETATM   17  S2  UNL     1      -4.552  -1.304  -2.298  1.00  0.00    -0.039 SA
HETATM   18  N5  UNL     1      -1.311  -1.919  -0.534  1.00  0.00    -0.277 N 
ATOM     19  H6  UNL     1      -2.143  -3.066  -2.063  1.00  0.00     0.189 HD
ATOM     20  H5  UNL     1      -0.443  -2.419  -0.340  1.00  0.00     0.189 HD
BRANCH  14  21
HETATM   21  C2  UNL     1      -3.652   0.718  -0.028  1.00  0.00     0.129 C 
HETATM   22  C1  UNL     1      -4.611   0.508   1.087  1.00  0.00     0.027 C 
ENDBRANCH  14  21
ENDBRANCH  12  13
ENDBRANCH  11  12
ENDBRANCH   8  11
ENDBRANCH   1   7
TORSDOF 5
