REMARK  7 active torsions:
REMARK  status: ('A' for Active; 'I' for Inactive)
REMARK    1  A    between atoms: C3_4  and  N2_6 
REMARK    2  A    between atoms: N2_6  and  S1_8 
REMARK    3  A    between atoms: S1_8  and  C5_11 
REMARK    4  A    between atoms: C10_18  and  C11_19 
REMARK    5  A    between atoms: C11_19  and  C12_21 
REMARK    6  A    between atoms: C12_21  and  O4_22 
REMARK    7  A    between atoms: O4_22  and  C13_23 
ROOT
HETATM    1  C5  UNL     1       0.038  -0.801   0.892  1.00  0.00     0.117 A 
HETATM    2  C6  UNL     1      -0.321  -2.083   0.458  1.00  0.00     0.030 A 
HETATM    3  C7  UNL     1      -1.621  -2.791   0.721  1.00  0.00     0.070 C 
HETATM    4  N3  UNL     1       0.708  -2.564  -0.234  1.00  0.00    -0.361 N 
ATOM      5  H3  UNL     1       0.731  -3.485  -0.673  1.00  0.00     0.165 HD
HETATM    6  C8  UNL     1       1.725  -1.664  -0.278  1.00  0.00     0.021 A 
HETATM    7  C9  UNL     1       2.979  -1.928  -0.981  1.00  0.00     0.069 C 
HETATM    8  C10 UNL     1       1.301  -0.537   0.438  1.00  0.00     0.059 A 
ENDROOT
BRANCH   1   9
HETATM    9  S1  UNL     1      -1.049   0.177   1.830  1.00  0.00     0.266 S 
HETATM   10  O1  UNL     1      -0.391   0.886   2.955  1.00  0.00    -0.200 OA
HETATM   11  O2  UNL     1      -2.113  -0.707   2.489  1.00  0.00    -0.200 OA
BRANCH   9  12
HETATM   12  N2  UNL     1      -1.932   1.298   0.881  1.00  0.00    -0.283 N 
ATOM     13  H2  UNL     1      -1.806   2.292   1.070  1.00  0.00     0.178 HD
BRANCH  12  14
HETATM   14  C3  UNL     1      -2.826   0.923  -0.149  1.00  0.00     0.036 C 
HETATM   15  C2  UNL     1      -4.111   1.006   0.069  1.00  0.00     0.043 C 
HETATM   16  C1  UNL     1      -5.044   0.611  -1.016  1.00  0.00     0.067 C 
HETATM   17  N1  UNL     1      -4.654   1.459   1.301  1.00  0.00    -0.105 NA
HETATM   18  C4  UNL     1      -2.303   0.449  -1.437  1.00  0.00     0.070 C 
ENDBRANCH  12  14
ENDBRANCH   9  12
ENDBRANCH   1   9
BRANCH   8  19
HETATM   19  C11 UNL     1       2.061   0.686   0.609  1.00  0.00     0.187 C 
HETATM   20  O3  UNL     1       1.563   1.689   1.213  1.00  0.00    -0.290 OA
BRANCH  19  21
HETATM   21  C12 UNL     1       3.442   0.902   0.123  1.00  0.00     0.261 C 
BRANCH  21  22
HETATM   22  O4  UNL     1       3.905   2.217   0.377  1.00  0.00    -0.322 OA
BRANCH  22  23
HETATM   23  C13 UNL     1       5.194   2.514  -0.045  1.00  0.00     0.223 C 
HETATM   24  N4  UNL     1       6.136   1.499  -0.390  1.00  0.00    -0.063 NA
HETATM   25  S2  UNL     1       5.688   4.058  -0.163  1.00  0.00    -0.037 SA
ENDBRANCH  22  23
ENDBRANCH  21  22
ENDBRANCH  19  21
ENDBRANCH   8  19
TORSDOF 7
