REMARK  10 active torsions:
REMARK  status: ('A' for Active; 'I' for Inactive)
REMARK       I    between atoms: N2_3  and  C2_5 
REMARK       I    between atoms: C2_5  and  N3_7 
REMARK    1  A    between atoms: N3_7  and  C3_9 
REMARK    2  A    between atoms: C3_9  and  C4_10 
REMARK    3  A    between atoms: C6_12  and  N4_13 
REMARK    4  A    between atoms: N4_13  and  N5_15 
REMARK    5  A    between atoms: N5_15  and  C7_17 
REMARK    6  A    between atoms: C7_17  and  C8_18 
REMARK    7  A    between atoms: C8_18  and  C9_19 
REMARK    8  A    between atoms: C9_19  and  C10_20 
REMARK    9  A    between atoms: C10_20  and  C11_21 
REMARK   10  A    between atoms: C11_21  and  C12_22 
ROOT
HETATM    1  N1  UNL     1       7.717   3.891   0.986  1.00  0.00    -0.172 NA
HETATM    2  C1  UNL     1       6.804   3.211   0.997  1.00  0.00     0.185 C 
HETATM    3  N2  UNL     1       5.706   2.350   1.063  1.00  0.00    -0.245 N 
ATOM      4  H2  UNL     1       5.390   2.031   1.979  1.00  0.00     0.183 HD
HETATM    5  C2  UNL     1       4.998   1.891  -0.111  1.00  0.00     0.329 C 
HETATM    6  O1  UNL     1       5.361   2.293  -1.228  1.00  0.00    -0.246 OA
HETATM    7  N3  UNL     1       3.935   0.972   0.086  1.00  0.00    -0.338 N 
ATOM      8  H3  UNL     1       3.658   0.775   1.048  1.00  0.00     0.164 HD
ENDROOT
BRANCH   7   9
HETATM    9  C3  UNL     1       3.208   0.288  -0.972  1.00  0.00     0.163 C 
BRANCH   9  10
HETATM   10  C4  UNL     1       2.120  -0.542  -0.329  1.00  0.00    -0.026 A 
HETATM   11  C5  UNL     1       0.953   0.005   0.153  1.00  0.00     0.059 A 
HETATM   12  C6  UNL     1      -0.069  -0.837   0.652  1.00  0.00     0.122 A 
HETATM   13  N6  UNL     1       0.199  -2.179   0.622  1.00  0.00    -0.322 N 
HETATM   14  C13 UNL     1       1.312  -2.746   0.169  1.00  0.00     0.150 A 
ATOM     15  H6  UNL     1      -0.524  -2.803   0.981  1.00  0.00     0.169 HD
HETATM   16  C14 UNL     1       2.276  -1.910  -0.313  1.00  0.00     0.003 A 
HETATM   17  O4  UNL     1       1.804  -4.078   0.047  1.00  0.00    -0.335 OA
HETATM   18  C15 UNL     1       3.445  -2.738  -0.767  1.00  0.00     0.070 C 
HETATM   19  C16 UNL     1       3.253  -3.964   0.135  1.00  0.00     0.182 C 
BRANCH  12  20
HETATM   20  N4  UNL     1      -1.196  -0.401   0.953  1.00  0.00    -0.286 N 
ATOM     21  H4  UNL     1      -1.889  -1.058   1.312  1.00  0.00     0.188 HD
BRANCH  20  22
HETATM   22  N5  UNL     1      -1.556   0.928   0.826  1.00  0.00    -0.310 N 
ATOM     23  H5  UNL     1      -0.853   1.657   0.948  1.00  0.00     0.186 HD
BRANCH  22  24
HETATM   24  C7  UNL     1      -2.760   1.250   0.558  1.00  0.00     0.107 C 
BRANCH  24  25
HETATM   25  C8  UNL     1      -3.785   0.219   0.387  1.00  0.00     0.019 C 
BRANCH  25  26
HETATM   26  C9  UNL     1      -5.025   0.506   0.079  1.00  0.00     0.002 C 
BRANCH  26  27
HETATM   27  C10 UNL     1      -5.563   1.825  -0.145  1.00  0.00     0.007 C 
BRANCH  27  28
HETATM   28  C11 UNL     1      -6.782   2.099  -0.416  1.00  0.00     0.084 C 
BRANCH  28  29
HETATM   29  C12 UNL     1      -7.943   1.282  -0.575  1.00  0.00     0.198 C 
HETATM   30  O2  UNL     1      -9.090   1.823  -0.875  1.00  0.00    -0.645 OA
HETATM   31  O3  UNL     1      -8.036  -0.086  -0.439  1.00  0.00    -0.645 OA
ENDBRANCH  28  29
ENDBRANCH  27  28
ENDBRANCH  26  27
ENDBRANCH  25  26
ENDBRANCH  24  25
ENDBRANCH  22  24
ENDBRANCH  20  22
ENDBRANCH  12  20
ENDBRANCH   9  10
ENDBRANCH   7   9
TORSDOF 10
