REMARK  9 active torsions:
REMARK  status: ('A' for Active; 'I' for Inactive)
REMARK       I    between atoms: C1_2  and  N2_4 
REMARK    1  A    between atoms: N2_4  and  C2_6 
REMARK    2  A    between atoms: C2_6  and  O2_7 
REMARK    3  A    between atoms: C2_6  and  C3_9 
REMARK    4  A    between atoms: C3_9  and  C4_10 
REMARK    5  A    between atoms: C3_9  and  C9_17 
REMARK    6  A    between atoms: C9_17  and  O3_18 
REMARK    7  A    between atoms: C9_17  and  N4_20 
REMARK    8  A    between atoms: N4_20  and  C10_22 
REMARK    9  A    between atoms: C10_22  and  C11_23 
ROOT
HETATM    1  C3  UNL     1      -1.049  -0.470  -0.547  1.00  0.00     0.169 C 
ENDROOT
BRANCH   1   2
HETATM    2  C2  UNL     1      -1.754   0.793  -0.681  1.00  0.00     0.135 C 
BRANCH   2   3
HETATM    3  N2  UNL     1      -1.345   2.087  -0.935  1.00  0.00    -0.294 N 
HETATM    4  C1  UNL     1      -2.251   3.176  -1.001  1.00  0.00     0.334 C 
HETATM    5  N1  UNL     1      -3.628   2.962  -0.806  1.00  0.00    -0.040 NA
HETATM    6  O1  UNL     1      -1.880   4.360  -1.233  1.00  0.00    -0.251 OA
ATOM      7  H2  UNL     1      -0.352   2.267  -1.081  1.00  0.00     0.172 HD
ENDBRANCH   2   3
BRANCH   2   8
HETATM    8  O2  UNL     1      -3.050   0.668  -0.530  1.00  0.00    -0.348 OA
ATOM      9  H2  UNL     1      -3.331  -0.222  -0.355  1.00  0.00     0.219 HD
ENDBRANCH   2   8
ENDBRANCH   1   2
BRANCH   1  10
HETATM   10  C4  UNL     1      -2.061  -1.580  -0.550  1.00  0.00    -0.023 A 
HETATM   11  C5  UNL     1      -2.962  -1.675   0.480  1.00  0.00     0.011 A 
HETATM   12  C6  UNL     1      -3.912  -2.692   0.510  1.00  0.00     0.018 A 
HETATM   13  C7  UNL     1      -3.938  -3.612  -0.517  1.00  0.00     0.087 A 
HETATM   14  N3  UNL     1      -3.054  -3.508  -1.515  1.00  0.00    -0.375 N 
HETATM   15  C8  UNL     1      -2.119  -2.513  -1.550  1.00  0.00     0.096 A 
ATOM     16  H3  UNL     1      -3.079  -4.191  -2.272  1.00  0.00     0.164 HD
ENDBRANCH   1  10
BRANCH   1  17
HETATM   17  C9  UNL     1      -0.085  -0.655   0.563  1.00  0.00     0.132 C 
BRANCH  17  18
HETATM   18  O3  UNL     1      -0.638  -0.444   1.848  1.00  0.00    -0.348 OA
ATOM     19  H3  UNL     1      -0.020  -0.563   2.560  1.00  0.00     0.219 HD
ENDBRANCH  17  18
BRANCH  17  20
HETATM   20  N4  UNL     1       1.277  -0.458   0.419  1.00  0.00    -0.349 N 
ATOM     21  H4  UNL     1       1.887  -1.262   0.563  1.00  0.00     0.167 HD
BRANCH  20  22
HETATM   22  C10 UNL     1       1.876   0.752   0.093  1.00  0.00     0.102 C 
BRANCH  22  23
HETATM   23  C11 UNL     1       3.358   0.693   0.036  1.00  0.00    -0.005 A 
HETATM   24  C12 UNL     1       4.111  -0.447   0.045  1.00  0.00     0.015 A 
HETATM   25  C13 UNL     1       5.482  -0.320  -0.011  1.00  0.00     0.018 A 
HETATM   26  C14 UNL     1       6.109   0.903  -0.076  1.00  0.00     0.087 A 
HETATM   27  N5  UNL     1       5.347   2.010  -0.084  1.00  0.00    -0.374 N 
HETATM   28  C15 UNL     1       4.006   1.932  -0.030  1.00  0.00     0.100 A 
ATOM     29  H5  UNL     1       5.794   2.926  -0.132  1.00  0.00     0.164 HD
ENDBRANCH  22  23
ENDBRANCH  20  22
ENDBRANCH  17  20
ENDBRANCH   1  17
TORSDOF 9
