REMARK  9 active torsions:
REMARK  status: ('A' for Active; 'I' for Inactive)
REMARK    1  A    between atoms: O1_2  and  C2_3 
REMARK    2  A    between atoms: C5_6  and  C6_7 
REMARK    3  A    between atoms: C6_7  and  N1_8 
REMARK       I    between atoms: N1_8  and  C7_10 
REMARK    4  A    between atoms: C7_10  and  C8_12 
REMARK    5  A    between atoms: C8_12  and  N2_13 
REMARK    6  A    between atoms: C8_12  and  C9_17 
REMARK    7  A    between atoms: C14_26  and  N5_27 
REMARK    8  A    between atoms: N5_27  and  C15_29 
REMARK    9  A    between atoms: C15_29  and  O3_30 
ROOT
HETATM    1  N1  UNL     1       1.526  -1.012  -0.503  1.00  0.00    -0.290 N 
ATOM      2  H1  UNL     1       1.760  -1.900  -0.947  1.00  0.00     0.178 HD
HETATM    3  C7  UNL     1       2.608  -0.211   0.093  1.00  0.00     0.267 C 
HETATM    4  O2  UNL     1       2.233   0.873   0.610  1.00  0.00    -0.270 OA
ENDROOT
BRANCH   1   5
HETATM    5  C6  UNL     1       0.255  -0.620  -0.484  1.00  0.00    -0.027 C 
BRANCH   5   6
HETATM    6  C5  UNL     1      -1.076  -0.206  -0.466  1.00  0.00     0.035 A 
HETATM    7  C4  UNL     1      -1.470   1.119  -0.785  1.00  0.00     0.025 A 
HETATM    8  C3  UNL     1      -2.764   1.556  -0.650  1.00  0.00     0.040 A 
HETATM    9  C2  UNL     1      -3.718   0.694  -0.198  1.00  0.00     0.095 A 
HETATM   10  C14 UNL     1      -3.371  -0.629   0.123  1.00  0.00     0.074 A 
HETATM   11  C12 UNL     1      -2.098  -1.068  -0.003  1.00  0.00    -0.013 A 
HETATM   12  C13 UNL     1      -1.741  -2.452   0.373  1.00  0.00     0.052 C 
BRANCH   9  13
HETATM   13  O1  UNL     1      -5.029   1.053  -0.031  1.00  0.00    -0.354 OA
HETATM   14  C1  UNL     1      -5.507   2.337  -0.333  1.00  0.00     0.210 C 
ENDBRANCH   9  13
BRANCH  10  15
HETATM   15  N5  UNL     1      -4.410  -1.476   0.540  1.00  0.00    -0.345 N 
ATOM     16  H5  UNL     1      -5.060  -1.808  -0.172  1.00  0.00     0.167 HD
BRANCH  15  17
HETATM   17  C15 UNL     1      -4.620  -1.895   1.843  1.00  0.00     0.223 C 
BRANCH  17  18
HETATM   18  O3  UNL     1      -3.713  -1.456   2.695  1.00  0.00    -0.356 OA
ATOM     19  H3  UNL     1      -3.857  -1.743   3.589  1.00  0.00     0.218 HD
ENDBRANCH  17  18
ENDBRANCH  15  17
ENDBRANCH  10  15
ENDBRANCH   5   6
ENDBRANCH   1   5
BRANCH   3  20
HETATM   20  C8  UNL     1       4.000  -0.637   0.085  1.00  0.00     0.342 C 
BRANCH  20  21
HETATM   21  N2  UNL     1       4.309  -1.556   1.145  1.00  0.00    -0.059 N 
ATOM     22  H23 UNL     1       4.052  -1.167   2.052  1.00  0.00     0.275 HD
ATOM     23  H22 UNL     1       3.681  -2.360   1.125  1.00  0.00     0.275 HD
ATOM     24  H21 UNL     1       5.284  -1.854   1.139  1.00  0.00     0.275 HD
ENDBRANCH  20  21
BRANCH  20  25
HETATM   25  C9  UNL     1       4.861   0.584   0.167  1.00  0.00     0.121 A 
HETATM   26  N3  UNL     1       5.307   1.146   1.308  1.00  0.00    -0.352 N 
HETATM   27  C10 UNL     1       6.035   2.224   1.043  1.00  0.00     0.106 A 
ATOM     28  H3  UNL     1       5.112   0.792   2.245  1.00  0.00     0.166 HD
HETATM   29  C11 UNL     1       6.066   2.369  -0.345  1.00  0.00     0.106 A 
HETATM   30  N4  UNL     1       5.333   1.342  -0.844  1.00  0.00    -0.352 N 
ATOM     31  H4  UNL     1       5.164   1.169  -1.835  1.00  0.00     0.166 HD
ENDBRANCH  20  25
ENDBRANCH   3  20
TORSDOF 9
