REMARK  9 active torsions:
REMARK  status: ('A' for Active; 'I' for Inactive)
REMARK    1  A    between atoms: C2_2  and  N1_3 
REMARK    2  A    between atoms: N1_3  and  C3_5 
REMARK    3  A    between atoms: C3_5  and  C4_9 
REMARK    4  A    between atoms: C4_9  and  N3_10 
REMARK    5  A    between atoms: C4_9  and  C5_14 
REMARK    6  A    between atoms: C5_14  and  C6_15 
REMARK    7  A    between atoms: C9_22  and  O1_23 
REMARK    8  A    between atoms: C9_22  and  C10_25 
REMARK    9  A    between atoms: C14_29  and  N6_30 
ROOT
HETATM    1  C3  UNL     1       1.560  -0.164   2.010  1.00  0.00     0.106 C 
HETATM    2  N2  UNL     1       2.443   0.727   2.285  1.00  0.00    -0.387 N 
ATOM      3  H21 UNL     1       3.405   0.560   1.990  1.00  0.00     0.157 HD
ATOM      4  H22 UNL     1       2.153   1.576   2.770  1.00  0.00     0.157 HD
ENDROOT
BRANCH   1   5
HETATM    5  N1  UNL     1       0.238   0.065   2.415  1.00  0.00    -0.343 N 
ATOM      6  H1  UNL     1      -0.048  -0.111   3.378  1.00  0.00     0.167 HD
BRANCH   5   7
HETATM    7  C2  UNL     1      -0.746   0.573   1.408  1.00  0.00     0.058 C 
HETATM    8  C1  UNL     1      -0.391   1.715   0.881  1.00  0.00     0.046 C 
HETATM    9  C9  UNL     1      -1.869  -0.277   1.196  1.00  0.00     0.101 C 
BRANCH   9  10
HETATM   10  O1  UNL     1      -1.850  -1.348   1.980  1.00  0.00    -0.358 OA
ATOM     11  H1  UNL     1      -2.599  -1.915   1.839  1.00  0.00     0.217 HD
ENDBRANCH   9  10
BRANCH   9  12
HETATM   12  C10 UNL     1      -2.995  -0.206   0.322  1.00  0.00     0.002 A 
HETATM   13  C11 UNL     1      -3.994  -1.209   0.450  1.00  0.00     0.014 A 
HETATM   14  C12 UNL     1      -5.073  -1.177  -0.391  1.00  0.00     0.003 A 
HETATM   15  C13 UNL     1      -5.250  -0.234  -1.353  1.00  0.00     0.036 A 
HETATM   16  C14 UNL     1      -4.300   0.738  -1.493  1.00  0.00     0.103 A 
HETATM   17  C15 UNL     1      -3.178   0.739  -0.648  1.00  0.00     0.050 A 
BRANCH  16  18
HETATM   18  N6  UNL     1      -4.456   1.738  -2.489  1.00  0.00    -0.116 N 
HETATM   19  O2  UNL     1      -3.607   2.640  -2.642  1.00  0.00    -0.532 OA
HETATM   20  O3  UNL     1      -5.540   1.741  -3.309  1.00  0.00    -0.532 OA
ENDBRANCH  16  18
ENDBRANCH   9  12
ENDBRANCH   5   7
ENDBRANCH   1   5
BRANCH   1  21
HETATM   21  C4  UNL     1       1.980  -1.394   1.308  1.00  0.00     0.255 C 
BRANCH  21  22
HETATM   22  N3  UNL     1       1.156  -1.562   0.125  1.00  0.00    -0.068 N 
ATOM     23  H33 UNL     1       0.159  -1.558   0.341  1.00  0.00     0.275 HD
ATOM     24  H32 UNL     1       1.173  -0.742  -0.481  1.00  0.00     0.275 HD
ATOM     25  H31 UNL     1       1.446  -2.411  -0.360  1.00  0.00     0.275 HD
ENDBRANCH  21  22
BRANCH  21  26
HETATM   26  C5  UNL     1       3.399  -1.415   0.886  1.00  0.00     0.099 C 
BRANCH  26  27
HETATM   27  C6  UNL     1       3.831  -0.378  -0.053  1.00  0.00     0.028 A 
HETATM   28  C7  UNL     1       5.168  -0.300  -0.477  1.00  0.00     0.114 A 
HETATM   29  N4  UNL     1       5.237   0.729  -1.326  1.00  0.00    -0.360 N 
HETATM   30  C8  UNL     1       4.032   1.304  -1.465  1.00  0.00     0.180 A 
ATOM     31  H4  UNL     1       6.086   1.035  -1.802  1.00  0.00     0.166 HD
HETATM   32  N5  UNL     1       3.210   0.616  -0.687  1.00  0.00    -0.355 N 
ATOM     33  H5  UNL     1       2.216   0.823  -0.585  1.00  0.00     0.166 HD
ENDBRANCH  26  27
ENDBRANCH  21  26
ENDBRANCH   1  21
TORSDOF 9
