REMARK  10 active torsions:
REMARK  status: ('A' for Active; 'I' for Inactive)
REMARK    1  A    between atoms: N1_1  and  N2_4 
REMARK       I    between atoms: N2_4  and  C1_6 
REMARK    2  A    between atoms: C1_6  and  C2_8 
REMARK    3  A    between atoms: C2_8  and  N3_9 
REMARK    4  A    between atoms: N3_9  and  C3_10 
REMARK    5  A    between atoms: C3_10  and  O2_11 
REMARK    6  A    between atoms: C3_10  and  C4_13 
REMARK    7  A    between atoms: C9_18  and  O3_19 
REMARK    8  A    between atoms: O3_19  and  C10_20 
REMARK    9  A    between atoms: C10_20  and  C11_21 
REMARK   10  A    between atoms: C11_21  and  C12_23 
ROOT
HETATM    1  C4  UNL     1       0.179  -2.330  -1.209  1.00  0.00     0.062 A 
HETATM    2  C5  UNL     1       0.594  -3.503  -1.814  1.00  0.00     0.020 A 
HETATM    3  C6  UNL     1       1.093  -4.577  -1.126  1.00  0.00     0.001 A 
HETATM    4  C7  UNL     1       1.190  -4.488   0.245  1.00  0.00     0.003 A 
HETATM    5  C8  UNL     1       0.781  -3.316   0.876  1.00  0.00     0.038 A 
HETATM    6  C9  UNL     1       0.277  -2.238   0.133  1.00  0.00     0.085 A 
ENDROOT
BRANCH   1   7
HETATM    7  C3  UNL     1      -0.474  -1.301  -2.047  1.00  0.00     0.227 C 
BRANCH   7   8
HETATM    8  N3  UNL     1      -1.068  -0.198  -1.629  1.00  0.00    -0.387 NA
BRANCH   8   9
HETATM    9  C2  UNL     1      -1.689   0.954  -1.196  1.00  0.00     0.261 C 
BRANCH   9  10
HETATM   10  C1  UNL     1      -1.224   2.252  -1.752  1.00  0.00     0.288 C 
HETATM   11  N2  UNL     1      -0.159   2.233  -2.684  1.00  0.00    -0.271 N 
ATOM     12  H2  UNL     1       0.279   1.355  -2.962  1.00  0.00     0.189 HD
HETATM   13  O1  UNL     1      -1.783   3.325  -1.382  1.00  0.00    -0.264 OA
BRANCH  11  14
HETATM   14  N1  UNL     1       0.269   3.430  -3.204  1.00  0.00    -0.342 N 
ATOM     15  H12 UNL     1      -0.179   4.300  -2.916  1.00  0.00     0.176 HD
ATOM     16  H11 UNL     1       1.037   3.416  -3.876  1.00  0.00     0.176 HD
ENDBRANCH  11  14
ENDBRANCH   9  10
ENDBRANCH   8   9
ENDBRANCH   7   8
BRANCH   7  17
HETATM   17  O2  UNL     1      -0.425  -1.577  -3.322  1.00  0.00    -0.335 OA
ATOM     18  H2  UNL     1       0.002  -2.370  -3.623  1.00  0.00     0.220 HD
ENDBRANCH   7  17
ENDBRANCH   1   7
BRANCH   6  19
HETATM   19  O3  UNL     1      -0.100  -1.072   0.831  1.00  0.00    -0.342 OA
BRANCH  19  20
HETATM   20  C10 UNL     1      -0.004  -1.118   2.250  1.00  0.00     0.261 C 
BRANCH  20  21
HETATM   21  C11 UNL     1      -0.282   0.153   2.905  1.00  0.00     0.206 C 
HETATM   22  O4  UNL     1      -0.948   0.112   3.994  1.00  0.00    -0.288 OA
BRANCH  21  23
HETATM   23  C12 UNL     1       0.185   1.423   2.363  1.00  0.00     0.122 A 
HETATM   24  C13 UNL     1      -0.056   2.680   2.935  1.00  0.00     0.043 A 
HETATM   25  C14 UNL     1       0.553   3.627   2.145  1.00  0.00     0.027 A 
HETATM   26  C15 UNL     1       1.154   2.908   1.103  1.00  0.00     0.142 A 
HETATM   27  O5  UNL     1       0.896   1.655   1.300  1.00  0.00    -0.319 OA
ENDBRANCH  21  23
ENDBRANCH  20  21
ENDBRANCH  19  20
ENDBRANCH   6  19
TORSDOF 10
