REMARK  9 active torsions:
REMARK  status: ('A' for Active; 'I' for Inactive)
REMARK    1  A    between atoms: N1_2  and  C2_4 
REMARK    2  A    between atoms: C2_4  and  C3_8 
REMARK    3  A    between atoms: C3_8  and  N3_9 
REMARK    4  A    between atoms: C3_8  and  C13_28 
REMARK       I    between atoms: N3_9  and  C4_11 
REMARK    5  A    between atoms: C4_11  and  C5_13 
REMARK    6  A    between atoms: C5_13  and  N4_14 
REMARK    7  A    between atoms: C5_13  and  C6_18 
REMARK    8  A    between atoms: C6_18  and  C7_19 
REMARK    9  A    between atoms: C11_23  and  N5_24 
ROOT
HETATM    1  N3  UNL     1      -1.240   0.651  -0.125  1.00  0.00    -0.347 N 
ATOM      2  H3  UNL     1      -1.184  -0.175  -0.722  1.00  0.00     0.163 HD
HETATM    3  C4  UNL     1      -0.073   1.390   0.193  1.00  0.00     0.249 C 
HETATM    4  O1  UNL     1      -0.140   2.418   0.935  1.00  0.00    -0.271 OA
ENDROOT
BRANCH   3   5
HETATM    5  C5  UNL     1       1.275   1.011  -0.316  1.00  0.00     0.278 C 
BRANCH   5   6
HETATM    6  N4  UNL     1       2.278   1.937   0.164  1.00  0.00    -0.066 N 
ATOM      7  H43 UNL     1       2.044   2.903  -0.067  1.00  0.00     0.275 HD
ATOM      8  H42 UNL     1       2.265   2.016   1.181  1.00  0.00     0.275 HD
ATOM      9  H41 UNL     1       3.201   1.678  -0.184  1.00  0.00     0.275 HD
ENDBRANCH   5   6
BRANCH   5  10
HETATM   10  C6  UNL     1       1.598  -0.350   0.286  1.00  0.00     0.081 C 
BRANCH  10  11
HETATM   11  C7  UNL     1       2.907  -0.850  -0.134  1.00  0.00    -0.053 A 
HETATM   12  C8  UNL     1       3.014  -1.618  -1.269  1.00  0.00     0.007 A 
HETATM   13  C9  UNL     1       4.240  -2.111  -1.700  1.00  0.00     0.003 A 
HETATM   14  C10 UNL     1       5.390  -1.828  -0.978  1.00  0.00     0.036 A 
HETATM   15  C11 UNL     1       5.280  -1.061   0.153  1.00  0.00     0.103 A 
HETATM   16  C12 UNL     1       4.053  -0.573   0.577  1.00  0.00     0.043 A 
BRANCH  15  17
HETATM   17  N5  UNL     1       6.453  -0.762   0.906  1.00  0.00    -0.116 N 
HETATM   18  O2  UNL     1       6.388  -0.065   1.943  1.00  0.00    -0.532 OA
HETATM   19  O3  UNL     1       7.672  -1.219   0.526  1.00  0.00    -0.532 OA
ENDBRANCH  15  17
ENDBRANCH  10  11
ENDBRANCH   5  10
ENDBRANCH   3   5
BRANCH   1  20
HETATM   20  C3  UNL     1      -2.505   1.085   0.408  1.00  0.00     0.154 C 
BRANCH  20  21
HETATM   21  C2  UNL     1      -3.140   0.060   1.269  1.00  0.00     0.093 C 
HETATM   22  N2  UNL     1      -3.407   0.322   2.508  1.00  0.00    -0.387 N 
ATOM     23  H22 UNL     1      -3.844  -0.384   3.101  1.00  0.00     0.157 HD
ATOM     24  H21 UNL     1      -3.157   1.255   2.836  1.00  0.00     0.157 HD
BRANCH  21  25
HETATM   25  N1  UNL     1      -3.486  -1.232   0.815  1.00  0.00    -0.383 N 
HETATM   26  C1  UNL     1      -2.530  -2.301   0.939  1.00  0.00     0.147 C 
ATOM     27  H1  UNL     1      -4.403  -1.406   0.404  1.00  0.00     0.160 HD
ENDBRANCH  21  25
ENDBRANCH  20  21
BRANCH  20  28
HETATM   28  C13 UNL     1      -3.410   1.504  -0.731  1.00  0.00     0.007 C 
HETATM   29  C14 UNL     1      -4.691   2.083  -0.169  1.00  0.00     0.012 C 
HETATM   30  C15 UNL     1      -3.734   0.377  -1.672  1.00  0.00     0.012 C 
ENDBRANCH  20  28
ENDBRANCH   1  20
TORSDOF 9
