REMARK  9 active torsions:
REMARK  status: ('A' for Active; 'I' for Inactive)
REMARK    1  A    between atoms: N1_1  and  C1_4 
REMARK    2  A    between atoms: C3_8  and  S1_9 
REMARK    3  A    between atoms: S1_9  and  C4_10 
REMARK    4  A    between atoms: C4_10  and  C5_11 
REMARK    5  A    between atoms: C5_11  and  N3_12 
REMARK       I    between atoms: N3_12  and  C6_14 
REMARK    6  A    between atoms: C6_14  and  C7_16 
REMARK    7  A    between atoms: C7_16  and  N4_17 
REMARK    8  A    between atoms: C7_16  and  C8_21 
REMARK    9  A    between atoms: C8_21  and  C9_22 
ROOT
HETATM    1  N3  UNL     1       0.371  -1.661  -1.231  1.00  0.00    -0.359 N 
ATOM      2  H3  UNL     1       0.069  -1.082  -2.014  1.00  0.00     0.162 HD
HETATM    3  C6  UNL     1      -0.503  -1.902  -0.151  1.00  0.00     0.248 C 
HETATM    4  O1  UNL     1      -0.105  -2.619   0.797  1.00  0.00    -0.271 OA
ENDROOT
BRANCH   1   5
HETATM    5  C5  UNL     1       1.703  -2.240  -1.225  1.00  0.00     0.133 C 
BRANCH   5   6
HETATM    6  C4  UNL     1       2.468  -1.868  -2.453  1.00  0.00     0.100 C 
BRANCH   6   7
HETATM    7  S1  UNL     1       2.704  -0.118  -2.664  1.00  0.00    -0.108 SA
BRANCH   7   8
HETATM    8  C3  UNL     1       3.795   0.653  -1.513  1.00  0.00     0.101 A 
HETATM    9  C2  UNL     1       4.475  -0.072  -0.588  1.00  0.00     0.144 A 
HETATM   10  N2  UNL     1       5.289   0.539   0.286  1.00  0.00    -0.198 N 
HETATM   11  C1  UNL     1       5.447   1.868   0.262  1.00  0.00     0.690 A 
ATOM     12  H2  UNL     1       5.794  -0.016   0.977  1.00  0.00     0.183 HD
HETATM   13  N6  UNL     1       4.776   2.591  -0.652  1.00  0.00    -0.132 N 
HETATM   14  N5  UNL     1       3.961   1.985  -1.526  1.00  0.00    -0.279 N 
ATOM     15  H6  UNL     1       4.888   3.604  -0.680  1.00  0.00     0.205 HD
ATOM     16  H5  UNL     1       3.458   2.546  -2.213  1.00  0.00     0.188 HD
BRANCH  11  17
HETATM   17  N1  UNL     1       6.232   2.421   1.111  1.00  0.00    -0.233 N 
ATOM     18  H12 UNL     1       6.741   1.873   1.804  1.00  0.00     0.174 HD
ATOM     19  H11 UNL     1       6.352   3.434   1.093  1.00  0.00     0.174 HD
ENDBRANCH  11  17
ENDBRANCH   7   8
ENDBRANCH   6   7
ENDBRANCH   5   6
ENDBRANCH   1   5
BRANCH   3  20
HETATM   20  C7  UNL     1      -1.860  -1.301  -0.175  1.00  0.00     0.278 C 
BRANCH  20  21
HETATM   21  N4  UNL     1      -2.054  -0.528  -1.368  1.00  0.00    -0.066 N 
ATOM     22  H43 UNL     1      -1.327   0.178  -1.483  1.00  0.00     0.275 HD
ATOM     23  H42 UNL     1      -1.870  -1.077  -2.208  1.00  0.00     0.275 HD
ATOM     24  H41 UNL     1      -2.987  -0.115  -1.384  1.00  0.00     0.275 HD
ENDBRANCH  20  21
BRANCH  20  25
HETATM   25  C8  UNL     1      -1.963  -0.374   1.001  1.00  0.00     0.081 C 
BRANCH  25  26
HETATM   26  C9  UNL     1      -3.245   0.308   1.130  1.00  0.00    -0.056 A 
HETATM   27  C10 UNL     1      -3.384   1.532   0.492  1.00  0.00     0.007 A 
HETATM   28  C11 UNL     1      -4.534   2.281   0.531  1.00  0.00     0.001 A 
HETATM   29  C12 UNL     1      -5.603   1.776   1.248  1.00  0.00     0.000 A 
HETATM   30  C13 UNL     1      -5.477   0.552   1.892  1.00  0.00     0.001 A 
HETATM   31  C14 UNL     1      -4.316  -0.184   1.841  1.00  0.00     0.007 A 
ENDBRANCH  25  26
ENDBRANCH  20  25
ENDBRANCH   3  20
TORSDOF 9
