REMARK  9 active torsions:
REMARK  status: ('A' for Active; 'I' for Inactive)
REMARK    1  A    between atoms: N1_1  and  C1_4 
REMARK    2  A    between atoms: C4_7  and  O1_8 
REMARK    3  A    between atoms: O1_8  and  C5_9 
REMARK    4  A    between atoms: C9_13  and  C10_14 
REMARK    5  A    between atoms: C10_14  and  N2_15 
REMARK       I    between atoms: N2_15  and  C11_17 
REMARK    6  A    between atoms: C11_17  and  C12_19 
REMARK    7  A    between atoms: C12_19  and  N3_20 
REMARK    8  A    between atoms: C12_19  and  C13_24 
REMARK    9  A    between atoms: C13_24  and  C14_25 
ROOT
HETATM    1  C5  UNL     1      -1.940   0.387  -0.158  1.00  0.00     0.078 A 
HETATM    2  C6  UNL     1      -1.737   0.468   1.199  1.00  0.00     0.037 A 
HETATM    3  C7  UNL     1      -0.469   0.660   1.765  1.00  0.00     0.003 A 
HETATM    4  C8  UNL     1       0.643   0.779   0.963  1.00  0.00     0.009 A 
HETATM    5  C9  UNL     1       0.464   0.701  -0.402  1.00  0.00    -0.038 A 
HETATM    6  C15 UNL     1      -0.786   0.512  -0.952  1.00  0.00     0.046 A 
ENDROOT
BRANCH   5   7
HETATM    7  C10 UNL     1       1.649   0.822  -1.293  1.00  0.00     0.161 C 
BRANCH   7   8
HETATM    8  N2  UNL     1       2.873   0.757  -0.559  1.00  0.00    -0.355 N 
HETATM    9  C11 UNL     1       3.401  -0.450  -0.072  1.00  0.00     0.249 C 
HETATM   10  O2  UNL     1       2.781  -1.516  -0.283  1.00  0.00    -0.271 OA
ATOM     11  H2  UNL     1       3.384   1.622  -0.382  1.00  0.00     0.162 HD
BRANCH   9  12
HETATM   12  C12 UNL     1       4.664  -0.471   0.678  1.00  0.00     0.284 C 
BRANCH  12  13
HETATM   13  N3  UNL     1       5.174   0.874   0.784  1.00  0.00    -0.066 N 
ATOM     14  H33 UNL     1       5.271   1.324  -0.126  1.00  0.00     0.275 HD
ATOM     15  H32 UNL     1       4.493   1.516   1.190  1.00  0.00     0.275 HD
ATOM     16  H31 UNL     1       6.051   0.859   1.305  1.00  0.00     0.275 HD
ENDBRANCH  12  13
BRANCH  12  17
HETATM   17  C13 UNL     1       5.678  -1.423   0.093  1.00  0.00     0.155 C 
BRANCH  17  18
HETATM   18  C14 UNL     1       6.910  -1.372   0.916  1.00  0.00     0.175 C 
HETATM   19  O3  UNL     1       6.964  -0.620   1.905  1.00  0.00    -0.648 OA
HETATM   20  O4  UNL     1       8.008  -2.176   0.569  1.00  0.00    -0.648 OA
ENDBRANCH  17  18
ENDBRANCH  12  17
ENDBRANCH   9  12
ENDBRANCH   7   8
ENDBRANCH   5   7
BRANCH   1  21
HETATM   21  O1  UNL     1      -3.151   0.201  -0.761  1.00  0.00    -0.293 OA
BRANCH  21  22
HETATM   22  C4  UNL     1      -4.398   0.053  -0.311  1.00  0.00     0.162 A 
HETATM   23  C3  UNL     1      -5.401  -0.122  -1.278  1.00  0.00     0.061 A 
HETATM   24  C2  UNL     1      -6.719  -0.285  -0.965  1.00  0.00     0.053 A 
HETATM   25  C1  UNL     1      -7.089  -0.278   0.360  1.00  0.00     0.113 A 
HETATM   26  N5  UNL     1      -6.128  -0.111   1.287  1.00  0.00    -0.284 N 
HETATM   27  N4  UNL     1      -4.854   0.046   0.952  1.00  0.00    -0.278 N 
ATOM     28  H5  UNL     1      -6.386  -0.105   2.274  1.00  0.00     0.188 HD
ATOM     29  H4  UNL     1      -4.176   0.170   1.704  1.00  0.00     0.189 HD
BRANCH  25  30
HETATM   30  N1  UNL     1      -8.329  -0.431   0.670  1.00  0.00    -0.384 N 
ATOM     31  H12 UNL     1      -9.057  -0.558  -0.033  1.00  0.00     0.157 HD
ATOM     32  H11 UNL     1      -8.603  -0.426   1.652  1.00  0.00     0.157 HD
ENDBRANCH  25  30
ENDBRANCH  21  22
ENDBRANCH   1  21
TORSDOF 9
