REMARK  8 active torsions:
REMARK  status: ('A' for Active; 'I' for Inactive)
REMARK    1  A    between atoms: C1_2  and  C2_4 
REMARK    2  A    between atoms: C2_4  and  N2_5 
REMARK    3  A    between atoms: C2_4  and  C7_17 
REMARK       I    between atoms: N2_5  and  C3_7 
REMARK    4  A    between atoms: C3_7  and  C4_9 
REMARK    5  A    between atoms: C4_9  and  N3_10 
REMARK    6  A    between atoms: C4_9  and  C5_14 
REMARK    7  A    between atoms: C5_14  and  C6_15 
REMARK    8  A    between atoms: C10_20  and  N4_21 
ROOT
HETATM    1  C2  UNL     1      -0.380  -0.927   0.616  1.00  0.00     0.207 C 
ENDROOT
BRANCH   1   2
HETATM    2  C1  UNL     1      -0.035  -1.389   1.954  1.00  0.00     0.258 C 
HETATM    3  N1  UNL     1      -0.838  -2.280   2.721  1.00  0.00    -0.060 NA
HETATM    4  O1  UNL     1       1.039  -1.025   2.553  1.00  0.00    -0.274 OA
ENDBRANCH   1   2
BRANCH   1   5
HETATM    5  N2  UNL     1       0.642  -0.095  -0.006  1.00  0.00    -0.342 N 
HETATM    6  C3  UNL     1       1.348  -0.477  -1.162  1.00  0.00     0.249 C 
HETATM    7  O2  UNL     1       1.084  -1.583  -1.680  1.00  0.00    -0.271 OA
ATOM      8  H2  UNL     1       0.856   0.808   0.417  1.00  0.00     0.163 HD
BRANCH   6   9
HETATM    9  C4  UNL     1       2.364   0.385  -1.755  1.00  0.00     0.275 C 
BRANCH   9  10
HETATM   10  N3  UNL     1       2.692  -0.170  -3.095  1.00  0.00    -0.066 N 
ATOM     11  H33 UNL     1       2.971  -1.150  -3.062  1.00  0.00     0.275 HD
ATOM     12  H32 UNL     1       1.871  -0.286  -3.690  1.00  0.00     0.275 HD
ATOM     13  H31 UNL     1       3.403   0.433  -3.510  1.00  0.00     0.275 HD
ENDBRANCH   9  10
BRANCH   9  14
HETATM   14  C5  UNL     1       3.674   0.464  -1.060  1.00  0.00     0.053 C 
BRANCH  14  15
HETATM   15  C6  UNL     1       3.687   0.952   0.338  1.00  0.00     0.088 C 
HETATM   16  S1  UNL     1       5.425   0.972   0.947  1.00  0.00    -0.098 SA
ENDBRANCH  14  15
ENDBRANCH   9  14
ENDBRANCH   6   9
ENDBRANCH   1   5
BRANCH   1  17
HETATM   17  C7  UNL     1      -1.722  -0.330   0.458  1.00  0.00    -0.027 A 
HETATM   18  C8  UNL     1      -2.609  -0.084   1.462  1.00  0.00     0.012 A 
HETATM   19  C9  UNL     1      -3.861   0.465   1.256  1.00  0.00     0.037 A 
HETATM   20  C10 UNL     1      -4.241   0.784  -0.034  1.00  0.00     0.102 A 
HETATM   21  C11 UNL     1      -3.380   0.553  -1.072  1.00  0.00     0.037 A 
HETATM   22  C12 UNL     1      -2.132   0.002  -0.832  1.00  0.00     0.012 A 
BRANCH  20  23
HETATM   23  N4  UNL     1      -5.525   1.349  -0.268  1.00  0.00    -0.116 N 
HETATM   24  O3  UNL     1      -6.304   1.558   0.672  1.00  0.00    -0.532 OA
HETATM   25  O4  UNL     1      -5.904   1.666  -1.550  1.00  0.00    -0.532 OA
ENDBRANCH  20  23
ENDBRANCH   1  17
TORSDOF 8
