REMARK  8 active torsions:
REMARK  status: ('A' for Active; 'I' for Inactive)
REMARK    1  A    between atoms: C2_2  and  C3_3 
REMARK    2  A    between atoms: C3_3  and  O1_4 
REMARK    3  A    between atoms: O1_4  and  C4_5 
REMARK    4  A    between atoms: C5_8  and  N2_9 
REMARK    5  A    between atoms: C7_16  and  N4_17 
REMARK       I    between atoms: N4_17  and  C8_19 
REMARK    6  A    between atoms: C8_19  and  C9_21 
REMARK    7  A    between atoms: C9_21  and  O4_22 
REMARK    8  A    between atoms: O4_22  and  C10_23 
ROOT
HETATM    1  C10 UNL     1       3.161   0.983  -0.143  1.00  0.00     0.069 A 
HETATM    2  C11 UNL     1       4.105   1.612   0.683  1.00  0.00     0.038 A 
HETATM    3  C12 UNL     1       5.216   0.975   1.178  1.00  0.00     0.025 A 
HETATM    4  C13 UNL     1       5.402  -0.351   0.840  1.00  0.00     0.044 A 
HETATM    5  C14 UNL     1       6.568  -1.034   1.356  1.00  0.00     0.099 C 
HETATM    6  N5  UNL     1       7.501  -1.598   1.764  1.00  0.00    -0.191 NA
HETATM    7  C15 UNL     1       4.491  -0.990   0.032  1.00  0.00     0.025 A 
HETATM    8  C16 UNL     1       3.366  -0.327  -0.464  1.00  0.00     0.038 A 
ENDROOT
BRANCH   1   9
HETATM    9  O4  UNL     1       2.113   1.751  -0.555  1.00  0.00    -0.342 OA
BRANCH   9  10
HETATM   10  C9  UNL     1       1.027   1.438  -1.344  1.00  0.00     0.278 C 
BRANCH  10  11
HETATM   11  C8  UNL     1       0.137   0.396  -0.784  1.00  0.00     0.246 C 
HETATM   12  N4  UNL     1      -0.975  -0.067  -1.523  1.00  0.00    -0.317 N 
ATOM     13  H4  UNL     1      -1.149   0.330  -2.446  1.00  0.00     0.169 HD
HETATM   14  O3  UNL     1       0.365  -0.084   0.351  1.00  0.00    -0.271 OA
BRANCH  12  15
HETATM   15  C7  UNL     1      -1.849  -1.051  -1.036  1.00  0.00     0.156 A 
HETATM   16  C4  UNL     1      -3.001  -0.747  -0.351  1.00  0.00     0.190 A 
HETATM   17  N1  UNL     1      -3.802  -1.760   0.095  1.00  0.00    -0.168 N 
HETATM   18  C5  UNL     1      -3.456  -3.033  -0.139  1.00  0.00     0.680 A 
ATOM     19  H1  UNL     1      -4.660  -1.548   0.604  1.00  0.00     0.186 HD
HETATM   20  N3  UNL     1      -2.330  -3.353  -0.809  1.00  0.00    -0.154 N 
HETATM   21  C6  UNL     1      -1.533  -2.387  -1.254  1.00  0.00     0.290 A 
ATOM     22  H3  UNL     1      -2.091  -4.331  -0.973  1.00  0.00     0.187 HD
HETATM   23  O2  UNL     1      -0.476  -2.687  -1.883  1.00  0.00    -0.265 OA
BRANCH  16  24
HETATM   24  O1  UNL     1      -3.354   0.567  -0.111  1.00  0.00    -0.330 OA
BRANCH  24  25
HETATM   25  C3  UNL     1      -3.046   1.205   1.111  1.00  0.00     0.204 C 
BRANCH  25  26
HETATM   26  C2  UNL     1      -3.574   2.590   1.005  1.00  0.00    -0.011 C 
HETATM   27  C1  UNL     1      -2.770   3.630   1.108  1.00  0.00     0.009 C 
ENDBRANCH  25  26
ENDBRANCH  24  25
ENDBRANCH  16  24
BRANCH  18  28
HETATM   28  N2  UNL     1      -4.200  -4.010   0.274  1.00  0.00    -0.234 N 
ATOM     29  H22 UNL     1      -5.052  -3.768   0.781  1.00  0.00     0.174 HD
ATOM     30  H21 UNL     1      -3.937  -4.979   0.096  1.00  0.00     0.174 HD
ENDBRANCH  18  28
ENDBRANCH  12  15
ENDBRANCH  10  11
ENDBRANCH   9  10
ENDBRANCH   1   9
TORSDOF 8
