REMARK  7 active torsions:
REMARK  status: ('A' for Active; 'I' for Inactive)
REMARK    1  A    between atoms: O1_2  and  C2_3 
REMARK    2  A    between atoms: C2_3  and  C3_4 
REMARK    3  A    between atoms: C3_4  and  S1_5 
REMARK    4  A    between atoms: S1_5  and  C4_6 
REMARK    5  A    between atoms: C5_9  and  N2_10 
REMARK    6  A    between atoms: C7_16  and  C8_17 
REMARK    7  A    between atoms: C9_22  and  N6_23 
ROOT
HETATM    1  C4  UNL     1       2.059  -0.835  -0.758  1.00  0.00     0.100 A 
HETATM    2  N1  UNL     1       2.367  -2.001  -0.115  1.00  0.00    -0.185 N 
ATOM      3  H1  UNL     1       3.324  -2.350  -0.168  1.00  0.00     0.185 HD
HETATM    4  C5  UNL     1       1.463  -2.707   0.583  1.00  0.00     0.677 A 
HETATM    5  N3  UNL     1       0.212  -2.224   0.633  1.00  0.00    -0.190 N 
ATOM      6  H3  UNL     1      -0.493  -2.743   1.157  1.00  0.00     0.184 HD
HETATM    7  C6  UNL     1      -0.149  -1.085   0.021  1.00  0.00     0.081 A 
HETATM    8  C7  UNL     1      -1.477  -0.650   0.121  1.00  0.00     0.077 A 
HETATM    9  C9  UNL     1      -1.777   0.491  -0.507  1.00  0.00     0.119 A 
HETATM   10  N8  UNL     1      -0.848   1.197  -1.212  1.00  0.00    -0.345 N 
ATOM     11  H8  UNL     1      -1.146   2.059  -1.669  1.00  0.00     0.167 HD
HETATM   12  C14 UNL     1       0.450   0.822  -1.343  1.00  0.00     0.022 A 
HETATM   13  C15 UNL     1       1.414   1.609  -2.112  1.00  0.00     0.069 C 
HETATM   14  C16 UNL     1       0.771  -0.345  -0.702  1.00  0.00     0.049 A 
ENDROOT
BRANCH   9  15
HETATM   15  N6  UNL     1      -3.104   1.074  -0.410  1.00  0.00    -0.363 N 
HETATM   16  C10 UNL     1      -3.376   1.901   0.705  1.00  0.00     0.152 C 
HETATM   17  C11 UNL     1      -4.807   2.158   0.966  1.00  0.00     0.252 C 
HETATM   18  N7  UNL     1      -5.746   1.597   0.054  1.00  0.00    -0.072 N 
HETATM   19  C12 UNL     1      -5.276   1.596  -1.309  1.00  0.00     0.252 C 
ATOM     20  H72 UNL     1      -6.020   0.659   0.345  1.00  0.00     0.277 HD
ATOM     21  H71 UNL     1      -6.649   2.065   0.127  1.00  0.00     0.277 HD
HETATM   22  C13 UNL     1      -4.023   0.810  -1.474  1.00  0.00     0.152 C 
ENDBRANCH   9  15
BRANCH   8  23
HETATM   23  C8  UNL     1      -2.376  -1.521   0.874  1.00  0.00     0.126 C 
HETATM   24  N4  UNL     1      -3.560  -1.303   1.051  1.00  0.00    -0.387 N 
ATOM     25  H42 UNL     1      -3.912  -0.443   0.631  1.00  0.00     0.157 HD
ATOM     26  H41 UNL     1      -4.188  -1.911   1.577  1.00  0.00     0.157 HD
HETATM   27  N5  UNL     1      -1.875  -2.745   1.472  1.00  0.00    -0.082 NA
ENDBRANCH   8  23
BRANCH   4  28
HETATM   28  N2  UNL     1       1.817  -3.799   1.167  1.00  0.00    -0.234 N 
ATOM     29  H22 UNL     1       2.768  -4.166   1.129  1.00  0.00     0.174 HD
ATOM     30  H21 UNL     1       1.130  -4.335   1.697  1.00  0.00     0.174 HD
ENDBRANCH   4  28
BRANCH   1  31
HETATM   31  S1  UNL     1       3.308   0.018  -1.614  1.00  0.00    -0.109 SA
BRANCH  31  32
HETATM   32  C3  UNL     1       4.912  -0.748  -1.325  1.00  0.00     0.107 C 
BRANCH  32  33
HETATM   33  C2  UNL     1       5.460  -0.572   0.047  1.00  0.00     0.177 C 
BRANCH  33  34
HETATM   34  O1  UNL     1       5.622   0.790   0.317  1.00  0.00    -0.395 OA
HETATM   35  C1  UNL     1       6.137   0.918   1.606  1.00  0.00     0.201 C 
ENDBRANCH  33  34
ENDBRANCH  32  33
ENDBRANCH  31  32
ENDBRANCH   1  31
TORSDOF 7
