REMARK  10 active torsions:
REMARK  status: ('A' for Active; 'I' for Inactive)
REMARK    1  A    between atoms: N3_10  and  C6_11 
REMARK    2  A    between atoms: C7_15  and  C9_17 
REMARK    3  A    between atoms: C9_17  and  O1_18 
REMARK    4  A    between atoms: C9_17  and  C10_20 
REMARK    5  A    between atoms: C10_20  and  N5_21 
REMARK    6  A    between atoms: C15_30  and  N7_31 
REMARK    7  A    between atoms: N7_31  and  C16_33 
REMARK    8  A    between atoms: C16_33  and  C17_34 
REMARK    9  A    between atoms: C17_34  and  C18_35 
REMARK   10  A    between atoms: C18_35  and  N8_36 
ROOT
HETATM    1  C1  UNL     1       2.512  -0.101   3.422  1.00  0.00     0.089 C 
HETATM    2  C2  UNL     1       2.370  -0.270   1.944  1.00  0.00     0.080 A 
HETATM    3  N1  UNL     1       1.192  -0.142   1.307  1.00  0.00    -0.330 N 
ATOM      4  H1  UNL     1       0.376   0.080   1.877  1.00  0.00     0.168 HD
HETATM    5  C3  UNL     1       1.000  -0.279   0.002  1.00  0.00     0.142 A 
HETATM    6  C4  UNL     1       2.122  -0.581  -0.762  1.00  0.00     0.122 A 
HETATM    7  N2  UNL     1       1.698  -0.671  -2.024  1.00  0.00    -0.346 N 
ATOM      8  H2  UNL     1       2.281  -0.882  -2.834  1.00  0.00     0.167 HD
HETATM    9  C5  UNL     1       0.396  -0.441  -2.050  1.00  0.00     0.187 A 
HETATM   10  N3  UNL     1      -0.080  -0.190  -0.792  1.00  0.00    -0.295 N 
HETATM   11  C15 UNL     1       3.346  -0.720  -0.146  1.00  0.00     0.133 A 
HETATM   12  N9  UNL     1       3.439  -0.561   1.189  1.00  0.00    -0.331 N 
ATOM     13  H9  UNL     1       4.349  -0.665   1.638  1.00  0.00     0.168 HD
ENDROOT
BRANCH  10  14
HETATM   14  C6  UNL     1      -1.431   0.092  -0.492  1.00  0.00     0.334 C 
HETATM   15  N4  UNL     1      -1.709   0.921   0.618  1.00  0.00    -0.011 N 
HETATM   16  C7  UNL     1      -3.157   0.741   0.854  1.00  0.00     0.346 C 
ATOM     17  H42 UNL     1      -1.127   0.735   1.434  1.00  0.00     0.283 HD
ATOM     18  H41 UNL     1      -1.423   1.893   0.496  1.00  0.00     0.283 HD
HETATM   19  C8  UNL     1      -3.331   0.746   2.349  1.00  0.00     0.085 C 
HETATM   20  N6  UNL     1      -3.511  -0.438   0.198  1.00  0.00     0.136 N 
HETATM   21  C11 UNL     1      -4.440  -1.311   0.810  1.00  0.00     0.314 C 
HETATM   22  C12 UNL     1      -2.320  -1.092  -0.306  1.00  0.00     0.201 C 
HETATM   23  C13 UNL     1      -1.777  -2.141   0.602  1.00  0.00     0.053 C 
HETATM   24  C14 UNL     1      -2.614  -1.777  -1.650  1.00  0.00     0.053 C 
BRANCH  16  25
HETATM   25  C9  UNL     1      -3.786   2.017   0.353  1.00  0.00     0.210 C 
BRANCH  25  26
HETATM   26  O1  UNL     1      -3.573   2.290  -0.974  1.00  0.00    -0.389 OA
ATOM     27  H1  UNL     1      -3.969   3.094  -1.290  1.00  0.00     0.210 HD
ENDBRANCH  25  26
BRANCH  25  28
HETATM   28  C10 UNL     1      -5.244   2.159   0.661  1.00  0.00     0.265 C 
BRANCH  28  29
HETATM   29  N5  UNL     1      -6.073   1.275  -0.125  1.00  0.00    -0.077 N 
ATOM     30  H53 UNL     1      -5.897   1.400  -1.122  1.00  0.00     0.274 HD
ATOM     31  H52 UNL     1      -5.771   0.306  -0.023  1.00  0.00     0.274 HD
ATOM     32  H51 UNL     1      -7.066   1.372   0.085  1.00  0.00     0.274 HD
ENDBRANCH  28  29
ENDBRANCH  25  28
ENDBRANCH  16  25
ENDBRANCH  10  14
BRANCH  11  33
HETATM   33  N7  UNL     1       4.351  -0.995  -0.874  1.00  0.00    -0.374 N 
ATOM     34  H7  UNL     1       4.175  -1.093  -1.874  1.00  0.00     0.161 HD
BRANCH  33  35
HETATM   35  C16 UNL     1       5.699  -1.181  -0.444  1.00  0.00     0.123 C 
BRANCH  35  36
HETATM   36  C17 UNL     1       6.514   0.090  -0.473  1.00  0.00     0.047 C 
BRANCH  36  37
HETATM   37  C18 UNL     1       6.588   0.673  -1.868  1.00  0.00     0.231 C 
BRANCH  37  38
HETATM   38  N8  UNL     1       7.380   1.884  -1.836  1.00  0.00    -0.079 N 
ATOM     39  H83 UNL     1       7.031   2.557  -1.153  1.00  0.00     0.274 HD
ATOM     40  H82 UNL     1       8.303   1.732  -1.430  1.00  0.00     0.274 HD
ATOM     41  H81 UNL     1       7.430   2.277  -2.776  1.00  0.00     0.274 HD
ENDBRANCH  37  38
ENDBRANCH  36  37
ENDBRANCH  35  36
ENDBRANCH  33  35
ENDBRANCH  11  33
TORSDOF 10
