REMARK  8 active torsions:
REMARK  status: ('A' for Active; 'I' for Inactive)
REMARK    1  A    between atoms: C4_4  and  C5_5 
REMARK    2  A    between atoms: C5_5  and  N1_6 
REMARK    3  A    between atoms: C6_9  and  N3_10 
REMARK    4  A    between atoms: C9_18  and  N5_19 
REMARK    5  A    between atoms: C10_22  and  N6_23 
REMARK    6  A    between atoms: N6_23  and  C11_25 
REMARK    7  A    between atoms: C11_25  and  C12_26 
REMARK    8  A    between atoms: C12_26  and  N7_27 
ROOT
HETATM    1  C1  UNL     1      -1.642   1.325   1.719  1.00  0.00     0.048 C 
HETATM    2  C2  UNL     1      -1.365   1.698   0.300  1.00  0.00     0.252 C 
HETATM    3  C3  UNL     1      -0.391   0.827  -0.399  1.00  0.00    -0.009 A 
HETATM    4  C4  UNL     1      -0.747   0.021  -1.422  1.00  0.00    -0.027 A 
HETATM    5  C8  UNL     1       0.290  -0.726  -2.059  1.00  0.00     0.048 A 
HETATM    6  C9  UNL     1       1.587  -0.619  -1.640  1.00  0.00     0.130 A 
HETATM    7  C10 UNL     1       1.935   0.196  -0.605  1.00  0.00     0.068 A 
HETATM    8  C13 UNL     1       0.949   0.921   0.017  1.00  0.00    -0.018 A 
HETATM    9  C14 UNL     1       1.329   1.808   1.127  1.00  0.00     0.072 C 
HETATM   10  C15 UNL     1       0.361   2.908   1.349  1.00  0.00     0.277 C 
HETATM   11  N8  UNL     1      -0.658   2.991   0.358  1.00  0.00     0.093 N 
HETATM   12  C16 UNL     1      -1.590   4.069   0.609  1.00  0.00     0.310 C 
ENDROOT
BRANCH   4  13
HETATM   13  C5  UNL     1      -2.064  -0.214  -2.013  1.00  0.00     0.194 C 
BRANCH  13  14
HETATM   14  N1  UNL     1      -2.901  -1.171  -1.336  1.00  0.00    -0.224 N 
HETATM   15  N2  UNL     1      -2.700  -2.514  -1.410  1.00  0.00    -0.126 N 
HETATM   16  C6  UNL     1      -3.592  -3.124  -0.645  1.00  0.00     0.694 A 
ATOM     17  H2  UNL     1      -1.979  -2.976  -1.965  1.00  0.00     0.206 HD
HETATM   18  N4  UNL     1      -4.390  -2.224  -0.056  1.00  0.00    -0.139 N 
HETATM   19  C7  UNL     1      -3.920  -1.025  -0.520  1.00  0.00     0.356 A 
ATOM     20  H4  UNL     1      -5.164  -2.392   0.586  1.00  0.00     0.189 HD
HETATM   21  O1  UNL     1      -4.481   0.058  -0.147  1.00  0.00    -0.244 OA
BRANCH  16  22
HETATM   22  N3  UNL     1      -3.677  -4.413  -0.489  1.00  0.00    -0.233 N 
ATOM     23  H32 UNL     1      -3.069  -5.098  -0.938  1.00  0.00     0.174 HD
ATOM     24  H31 UNL     1      -4.364  -4.883   0.100  1.00  0.00     0.174 HD
ENDBRANCH  16  22
ENDBRANCH  13  14
ENDBRANCH   4  13
BRANCH   6  25
HETATM   25  N5  UNL     1       2.563  -1.381  -2.395  1.00  0.00    -0.113 N 
HETATM   26  O2  UNL     1       3.723  -0.967  -2.563  1.00  0.00    -0.532 OA
HETATM   27  O3  UNL     1       2.136  -2.569  -2.924  1.00  0.00    -0.532 OA
ENDBRANCH   6  25
BRANCH   7  28
HETATM   28  N6  UNL     1       3.269   0.263  -0.157  1.00  0.00    -0.386 N 
ATOM     29  H6  UNL     1       3.912   0.758  -0.775  1.00  0.00     0.159 HD
BRANCH  28  30
HETATM   30  C11 UNL     1       3.846  -0.256   1.025  1.00  0.00     0.147 C 
BRANCH  30  31
HETATM   31  C12 UNL     1       3.703  -1.688   1.362  1.00  0.00     0.249 C 
BRANCH  31  32
HETATM   32  N7  UNL     1       4.287  -2.619   0.462  1.00  0.00    -0.078 N 
ATOM     33  H73 UNL     1       3.932  -2.453  -0.480  1.00  0.00     0.274 HD
ATOM     34  H72 UNL     1       5.274  -2.396   0.332  1.00  0.00     0.274 HD
ATOM     35  H71 UNL     1       4.188  -3.607   0.695  1.00  0.00     0.274 HD
ENDBRANCH  31  32
ENDBRANCH  30  31
ENDBRANCH  28  30
ENDBRANCH   7  28
TORSDOF 8
