REMARK  1 active torsions:
REMARK  status: ('A' for Active; 'I' for Inactive)
REMARK    1  A    between atoms: N1_1  and  C1_4 
ROOT
HETATM    1  C1  UNL     1      -1.354  -0.621  -0.012  1.00  0.00     0.680 A 
HETATM    2  N2  UNL     1      -1.490   0.690   0.254  1.00  0.00    -0.154 N 
ATOM      3  H2  UNL     1      -2.414   1.094   0.407  1.00  0.00     0.187 HD
HETATM    4  C2  UNL     1      -0.390   1.461   0.315  1.00  0.00     0.291 A 
HETATM    5  O1  UNL     1      -0.540   2.686   0.566  1.00  0.00    -0.265 OA
HETATM    6  C3  UNL     1       0.872   0.970   0.119  1.00  0.00     0.164 A 
HETATM    7  N3  UNL     1       2.122   1.471   0.116  1.00  0.00    -0.278 N 
ATOM      8  H3  UNL     1       2.363   2.447   0.286  1.00  0.00     0.189 HD
HETATM    9  N4  UNL     1       2.991   0.507  -0.141  1.00  0.00    -0.240 N 
ATOM     10  H4  UNL     1       4.004   0.611  -0.202  1.00  0.00     0.208 HD
HETATM   11  N5  UNL     1       2.313  -0.611  -0.304  1.00  0.00    -0.268 N 
ATOM     12  H5  UNL     1       2.725  -1.520  -0.513  1.00  0.00     0.190 HD
HETATM   13  C4  UNL     1       1.002  -0.377  -0.154  1.00  0.00     0.170 A 
HETATM   14  N6  UNL     1      -0.121  -1.120  -0.208  1.00  0.00    -0.173 N 
ATOM     15  H6  UNL     1      -0.031  -2.116  -0.409  1.00  0.00     0.186 HD
ENDROOT
BRANCH   1  16
HETATM   16  N1  UNL     1      -2.363  -1.433  -0.089  1.00  0.00    -0.234 N 
ATOM     17  H12 UNL     1      -3.298  -1.054   0.060  1.00  0.00     0.174 HD
ATOM     18  H11 UNL     1      -2.260  -2.428  -0.291  1.00  0.00     0.174 HD
ENDBRANCH   1  16
TORSDOF 1
