REMARK  0 active torsions:
REMARK  status: ('A' for Active; 'I' for Inactive)
ROOT
HETATM    1  N1  UNL     1      -0.167   2.587  -0.458  1.00  0.00    -0.233 N 
ATOM      2  H11 UNL     1       0.804   2.849  -0.626  1.00  0.00     0.174 HD
ATOM      3  H12 UNL     1      -0.984   3.192  -0.543  1.00  0.00     0.174 HD
HETATM    4  C1  UNL     1      -0.368   1.366  -0.102  1.00  0.00     0.697 C 
HETATM    5  N2  UNL     1      -1.731   0.998   0.134  1.00  0.00    -0.116 N 
ATOM      6  H2  UNL     1      -2.403   1.758   0.025  1.00  0.00     0.203 HD
HETATM    7  N3  UNL     1      -2.292  -0.231   0.489  1.00  0.00    -0.005 NA
HETATM    8  N4  UNL     1      -1.762  -1.312  -0.224  1.00  0.00    -0.248 N 
ATOM      9  H4  UNL     1      -2.431  -1.880  -0.745  1.00  0.00     0.187 HD
HETATM   10  C2  UNL     1      -0.390  -1.714  -0.308  1.00  0.00     0.287 C 
HETATM   11  O1  UNL     1      -0.157  -2.904  -0.603  1.00  0.00    -0.264 OA
HETATM   12  C3  UNL     1       0.767  -0.835  -0.075  1.00  0.00     0.142 A 
HETATM   13  C4  UNL     1       2.049  -1.271   0.092  1.00  0.00     0.125 A 
HETATM   14  N5  UNL     1       2.793  -0.163   0.280  1.00  0.00    -0.359 N 
ATOM     15  H5  UNL     1       3.801  -0.157   0.434  1.00  0.00     0.166 HD
HETATM   16  C5  UNL     1       2.009   0.945   0.235  1.00  0.00     0.207 A 
HETATM   17  N6  UNL     1       0.775   0.520   0.017  1.00  0.00    -0.136 N 
ENDROOT
TORSDOF 0
