REMARK  1 active torsions:
REMARK  status: ('A' for Active; 'I' for Inactive)
REMARK    1  A    between atoms: N5_13  and  N6_15 
ROOT
HETATM    1  N1  UNL     1      -0.585   3.269   0.783  1.00  0.00    -0.191 NA
HETATM    2  C1  UNL     1      -0.483   2.150   0.537  1.00  0.00     0.105 C 
HETATM    3  C2  UNL     1      -0.366   0.746   0.230  1.00  0.00     0.120 A 
HETATM    4  C3  UNL     1      -1.503  -0.062   0.300  1.00  0.00     0.140 A 
HETATM    5  N2  UNL     1      -2.759   0.493   0.669  1.00  0.00    -0.095 NA
HETATM    6  C4  UNL     1      -1.325  -1.389  -0.004  1.00  0.00     0.285 A 
HETATM    7  O1  UNL     1      -2.332  -2.140   0.051  1.00  0.00    -0.265 OA
HETATM    8  N3  UNL     1      -0.114  -1.851  -0.345  1.00  0.00    -0.263 N 
ATOM      9  H3  UNL     1      -0.012  -2.842  -0.566  1.00  0.00     0.190 HD
HETATM   10  N4  UNL     1       0.961  -1.069  -0.407  1.00  0.00    -0.280 N 
ATOM     11  H4  UNL     1       1.864  -1.464  -0.671  1.00  0.00     0.188 HD
HETATM   12  C5  UNL     1       0.859   0.235  -0.123  1.00  0.00     0.157 A 
HETATM   13  N5  UNL     1       1.874   1.013  -0.174  1.00  0.00    -0.290 N 
ATOM     14  H5  UNL     1       1.729   1.996   0.054  1.00  0.00     0.188 HD
ENDROOT
BRANCH  13  15
HETATM   15  N6  UNL     1       3.153   0.616  -0.516  1.00  0.00    -0.344 N 
ATOM     16  H62 UNL     1       3.280  -0.371  -0.741  1.00  0.00     0.176 HD
ATOM     17  H61 UNL     1       3.962   1.236  -0.557  1.00  0.00     0.176 HD
ENDBRANCH  13  15
TORSDOF 1
