REMARK  0 active torsions:
REMARK  status: ('A' for Active; 'I' for Inactive)
ROOT
HETATM    1  N1  UNL     1      -0.283  -0.540  -2.266  1.00  0.00    -0.386 N 
ATOM      2  H11 UNL     1      -1.185  -0.135  -2.517  1.00  0.00     0.157 HD
ATOM      3  H12 UNL     1       0.096  -0.958  -3.116  1.00  0.00     0.157 HD
HETATM    4  C1  UNL     1       0.312  -0.557  -1.134  1.00  0.00     0.113 C 
HETATM    5  N2  UNL     1       1.560  -1.118  -0.787  1.00  0.00    -0.318 N 
ATOM      6  H2  UNL     1       2.097  -1.758  -1.372  1.00  0.00     0.169 HD
HETATM    7  C2  UNL     1       1.925  -0.696   0.396  1.00  0.00     0.190 C 
HETATM    8  N3  UNL     1       3.156  -1.118   0.979  1.00  0.00    -0.063 NA
HETATM    9  N4  UNL     1       0.937   0.182   0.925  1.00  0.00    -0.342 N 
ATOM     10  H4  UNL     1       1.041   0.791   1.736  1.00  0.00     0.163 HD
HETATM   11  C3  UNL     1      -0.239   0.050   0.100  1.00  0.00     0.148 C 
HETATM   12  C4  UNL     1      -1.305  -0.793   0.719  1.00  0.00     0.067 C 
HETATM   13  C5  UNL     1      -2.502  -0.296  -0.116  1.00  0.00     0.124 C 
HETATM   14  N5  UNL     1      -2.166   1.114  -0.310  1.00  0.00    -0.379 N 
ATOM     15  H5  UNL     1      -2.849   1.843  -0.515  1.00  0.00     0.160 HD
HETATM   16  C6  UNL     1      -0.899   1.322  -0.190  1.00  0.00     0.125 C 
HETATM   17  N6  UNL     1      -0.261   2.603  -0.324  1.00  0.00    -0.085 NA
ENDROOT
TORSDOF 0
