REMARK  1 active torsions:
REMARK  status: ('A' for Active; 'I' for Inactive)
REMARK    1  A    between atoms: C4_11  and  N4_12 
ROOT
HETATM    1  N1  UNL     1      -1.441  -1.613   0.007  1.00  0.00    -0.080 NA
HETATM    2  C1  UNL     1      -0.326  -0.730  -0.025  1.00  0.00     0.159 A 
HETATM    3  N2  UNL     1       0.928  -1.233  -0.119  1.00  0.00    -0.294 N 
ATOM      4  H2  UNL     1       1.061  -2.243  -0.166  1.00  0.00     0.172 HD
HETATM    5  C2  UNL     1       1.999  -0.424  -0.151  1.00  0.00     0.328 A 
HETATM    6  O1  UNL     1       3.148  -0.943  -0.238  1.00  0.00    -0.247 OA
HETATM    7  N3  UNL     1       1.841   0.921  -0.090  1.00  0.00    -0.273 N 
ATOM      8  H3  UNL     1       2.656   1.534  -0.115  1.00  0.00     0.173 HD
HETATM    9  C3  UNL     1       0.599   1.447   0.004  1.00  0.00     0.285 A 
HETATM   10  O2  UNL     1       0.413   2.692   0.064  1.00  0.00    -0.265 OA
HETATM   11  C4  UNL     1      -0.501   0.634   0.038  1.00  0.00     0.211 A 
ENDROOT
BRANCH  11  12
HETATM   12  N4  UNL     1      -1.836   1.123   0.149  1.00  0.00    -0.106 N 
HETATM   13  O3  UNL     1      -2.632   1.160  -0.792  1.00  0.00    -0.531 OA
HETATM   14  O4  UNL     1      -2.212   1.576   1.402  1.00  0.00    -0.531 OA
ENDBRANCH  11  12
TORSDOF 1
