REMARK  1 active torsions:
REMARK  status: ('A' for Active; 'I' for Inactive)
REMARK    1  A    between atoms: N1_1  and  C1_4 
ROOT
HETATM    1  C1  UNL     1       2.085   0.530   0.188  1.00  0.00     0.691 A 
HETATM    2  N2  UNL     1       0.930   1.201   0.355  1.00  0.00    -0.181 N 
ATOM      3  H2  UNL     1       0.949   2.183   0.631  1.00  0.00     0.184 HD
HETATM    4  C2  UNL     1      -0.253   0.583   0.159  1.00  0.00     0.162 A 
HETATM    5  C3  UNL     1      -1.465   1.235   0.319  1.00  0.00     0.277 A 
HETATM    6  O1  UNL     1      -1.392   2.458   0.664  1.00  0.00    -0.266 OA
HETATM    7  N3  UNL     1      -2.648   0.620   0.124  1.00  0.00    -0.318 N 
ATOM      8  H3  UNL     1      -3.521   1.133   0.251  1.00  0.00     0.169 HD
HETATM    9  C4  UNL     1      -2.670  -0.688  -0.243  1.00  0.00     0.185 A 
HETATM   10  N4  UNL     1      -1.515  -1.358  -0.410  1.00  0.00    -0.335 N 
ATOM     11  H4  UNL     1      -1.538  -2.340  -0.687  1.00  0.00     0.168 HD
HETATM   12  C5  UNL     1      -0.318  -0.744  -0.215  1.00  0.00     0.154 A 
HETATM   13  N5  UNL     1       0.855  -1.387  -0.373  1.00  0.00    -0.269 N 
ATOM     14  H5  UNL     1       0.853  -2.369  -0.648  1.00  0.00     0.189 HD
HETATM   15  N6  UNL     1       2.023  -0.764  -0.177  1.00  0.00    -0.131 N 
ATOM     16  H6  UNL     1       2.890  -1.284  -0.308  1.00  0.00     0.205 HD
ENDROOT
BRANCH   1  17
HETATM   17  N1  UNL     1       3.249   1.066   0.360  1.00  0.00    -0.233 N 
ATOM     18  H12 UNL     1       3.296   2.047   0.637  1.00  0.00     0.174 HD
ATOM     19  H11 UNL     1       4.124   0.558   0.233  1.00  0.00     0.174 HD
ENDBRANCH   1  17
TORSDOF 1
