REMARK  7 active torsions:
REMARK  status: ('A' for Active; 'I' for Inactive)
REMARK    1  A    between atoms: N1_2  and  C3_4 
REMARK    2  A    between atoms: C3_4  and  C4_5 
REMARK    3  A    between atoms: C6_7  and  N2_8 
REMARK       I    between atoms: N2_8  and  C7_10 
REMARK    4  A    between atoms: C7_10  and  C8_12 
REMARK    5  A    between atoms: C8_12  and  S1_13 
REMARK    6  A    between atoms: S1_13  and  C9_14 
REMARK    7  A    between atoms: C10_17  and  N4_18 
ROOT
HETATM    1  N2  UNL     1      -0.972  -0.285   0.851  1.00  0.00    -0.305 N 
ATOM      2  H2  UNL     1      -1.634  -0.698   1.508  1.00  0.00     0.171 HD
HETATM    3  C7  UNL     1      -1.395   0.283  -0.367  1.00  0.00     0.233 C 
HETATM    4  O1  UNL     1      -1.203  -0.396  -1.425  1.00  0.00    -0.272 OA
ENDROOT
BRANCH   3   5
HETATM    5  C8  UNL     1      -2.036   1.598  -0.485  1.00  0.00     0.185 C 
BRANCH   5   6
HETATM    6  S1  UNL     1      -3.324   1.782   0.745  1.00  0.00    -0.083 SA
BRANCH   6   7
HETATM    7  C9  UNL     1      -4.665   0.656   0.400  1.00  0.00     0.174 A 
HETATM    8  N3  UNL     1      -4.802  -0.580   0.898  1.00  0.00    -0.168 N 
HETATM    9  C10 UNL     1      -5.920  -1.140   0.439  1.00  0.00     0.692 A 
ATOM     10  H3  UNL     1      -4.145  -1.028   1.537  1.00  0.00     0.186 HD
HETATM   11  N5  UNL     1      -6.492  -0.225  -0.366  1.00  0.00    -0.130 N 
HETATM   12  N6  UNL     1      -5.738   0.856  -0.390  1.00  0.00    -0.265 N 
ATOM     13  H5  UNL     1      -7.367  -0.348  -0.875  1.00  0.00     0.205 HD
ATOM     14  H6  UNL     1      -5.935   1.705  -0.920  1.00  0.00     0.189 HD
BRANCH   9  15
HETATM   15  N4  UNL     1      -6.374  -2.312   0.711  1.00  0.00    -0.233 N 
ATOM     16  H42 UNL     1      -5.941  -3.005   1.321  1.00  0.00     0.174 HD
ATOM     17  H41 UNL     1      -7.230  -2.741   0.360  1.00  0.00     0.174 HD
ENDBRANCH   9  15
ENDBRANCH   6   7
ENDBRANCH   5   6
ENDBRANCH   3   5
BRANCH   1  18
HETATM   18  C6  UNL     1       0.294  -0.257   1.093  1.00  0.00     0.174 A 
HETATM   19  C5  UNL     1       1.317   0.256   0.327  1.00  0.00     0.087 A 
HETATM   20  C4  UNL     1       2.489   0.045   1.022  1.00  0.00     0.065 A 
HETATM   21  N7  UNL     1       2.121  -0.574   2.154  1.00  0.00    -0.262 N 
HETATM   22  O2  UNL     1       0.842  -0.743   2.180  1.00  0.00    -0.220 OA
ATOM     23  H7  UNL     1       2.762  -0.869   2.890  1.00  0.00     0.194 HD
BRANCH  20  24
HETATM   24  C3  UNL     1       3.881   0.404   0.670  1.00  0.00     0.330 C 
BRANCH  24  25
HETATM   25  N1  UNL     1       4.116   0.107  -0.704  1.00  0.00     0.085 N 
HETATM   26  C1  UNL     1       3.972  -1.259  -1.089  1.00  0.00     0.309 C 
HETATM   27  C2  UNL     1       5.345   0.709  -1.198  1.00  0.00     0.309 C 
ENDBRANCH  24  25
ENDBRANCH  20  24
ENDBRANCH   1  18
TORSDOF 7
