REMARK  5 active torsions:
REMARK  status: ('A' for Active; 'I' for Inactive)
REMARK    1  A    between atoms: C3_5  and  N2_6 
REMARK    2  A    between atoms: C8_16  and  N5_17 
REMARK    3  A    between atoms: N5_17  and  C9_19 
REMARK    4  A    between atoms: C9_19  and  C10_20 
REMARK    5  A    between atoms: C10_20  and  N6_21 
REMARK       I    between atoms: N6_21  and  C11_23 
REMARK       I    between atoms: C11_23  and  N8_25 
ROOT
HETATM    1  N6  UNL     1       4.601   0.539   0.066  1.00  0.00    -0.351 N 
ATOM      2  H6  UNL     1       4.177   1.446   0.263  1.00  0.00     0.163 HD
HETATM    3  C11 UNL     1       6.033   0.387  -0.308  1.00  0.00     0.275 C 
HETATM    4  N7  UNL     1       6.326  -0.703  -1.218  1.00  0.00    -0.049 NA
HETATM    5  N8  UNL     1       6.881   1.100   0.137  1.00  0.00    -0.296 NA
HETATM    6  C12 UNL     1       7.803   1.841   0.594  1.00  0.00     0.271 C 
HETATM    7  N9  UNL     1       8.608   2.532   1.022  1.00  0.00    -0.156 NA
ENDROOT
BRANCH   1   8
HETATM    8  C10 UNL     1       3.876  -0.668   0.127  1.00  0.00     0.143 C 
BRANCH   8   9
HETATM    9  C9  UNL     1       2.568  -0.701   0.778  1.00  0.00     0.157 C 
BRANCH   9  10
HETATM   10  N5  UNL     1       1.498   0.097   0.311  1.00  0.00    -0.224 N 
ATOM     11  H5  UNL     1       1.690   0.983  -0.156  1.00  0.00     0.177 HD
BRANCH  10  12
HETATM   12  C8  UNL     1       0.248  -0.305   0.479  1.00  0.00     0.694 A 
HETATM   13  N4  UNL     1      -0.808   0.399   0.066  1.00  0.00    -0.022 N 
HETATM   14  C3  UNL     1      -2.056  -0.098   0.300  1.00  0.00     0.696 A 
ATOM     15  H4  UNL     1      -0.684   1.290  -0.415  1.00  0.00     0.203 HD
HETATM   16  N1  UNL     1      -2.157  -1.263   0.924  1.00  0.00    -0.180 N 
HETATM   17  C2  UNL     1      -1.109  -2.003   1.356  1.00  0.00     0.109 A 
ATOM     18  H1  UNL     1      -3.094  -1.629   1.091  1.00  0.00     0.185 HD
HETATM   19  C1  UNL     1      -1.310  -3.269   2.057  1.00  0.00     0.090 C 
HETATM   20  N10 UNL     1       0.090  -1.471   1.104  1.00  0.00    -0.180 N 
ATOM     21  H10 UNL     1       0.922  -1.980   1.403  1.00  0.00     0.185 HD
BRANCH  14  22
HETATM   22  N2  UNL     1      -3.238   0.618  -0.123  1.00  0.00    -0.214 N 
HETATM   23  C4  UNL     1      -4.481  -0.101  -0.056  1.00  0.00     0.168 C 
HETATM   24  C5  UNL     1      -5.197   0.229  -1.369  1.00  0.00     0.252 C 
HETATM   25  N3  UNL     1      -5.560   1.628  -1.260  1.00  0.00    -0.072 N 
HETATM   26  C6  UNL     1      -4.402   2.492  -1.256  1.00  0.00     0.252 C 
ATOM     27  H32 UNL     1      -6.219   1.897  -1.991  1.00  0.00     0.277 HD
ATOM     28  H31 UNL     1      -6.148   1.795  -0.443  1.00  0.00     0.277 HD
HETATM   29  C7  UNL     1      -3.231   1.970  -0.532  1.00  0.00     0.168 C 
ENDBRANCH  14  22
ENDBRANCH  10  12
ENDBRANCH   9  10
ENDBRANCH   8   9
ENDBRANCH   1   8
TORSDOF 5
