REMARK  7 active torsions:
REMARK  status: ('A' for Active; 'I' for Inactive)
REMARK    1  A    between atoms: C3_5  and  N2_6 
REMARK    2  A    between atoms: N2_6  and  C4_8 
REMARK    3  A    between atoms: C4_8  and  C5_9 
REMARK    4  A    between atoms: C5_9  and  C6_10 
REMARK    5  A    between atoms: C6_10  and  N3_11 
REMARK    6  A    between atoms: N3_11  and  C7_13 
REMARK    7  A    between atoms: C10_23  and  N7_24 
REMARK       I    between atoms: N7_24  and  C11_26 
ROOT
HETATM    1  C1  UNL     1      -4.899   2.710   1.157  1.00  0.00     0.090 C 
HETATM    2  C2  UNL     1      -3.775   1.880   0.629  1.00  0.00     0.109 A 
HETATM    3  N1  UNL     1      -2.574   2.421   0.324  1.00  0.00    -0.180 N 
ATOM      4  H1  UNL     1      -2.437   3.423   0.459  1.00  0.00     0.185 HD
HETATM    5  C3  UNL     1      -1.558   1.687  -0.150  1.00  0.00     0.697 A 
HETATM    6  N6  UNL     1      -1.763   0.371  -0.319  1.00  0.00    -0.022 N 
ATOM      7  H6  UNL     1      -1.008  -0.214  -0.678  1.00  0.00     0.203 HD
HETATM    8  C10 UNL     1      -2.968  -0.194  -0.017  1.00  0.00     0.700 A 
HETATM    9  N10 UNL     1      -3.966   0.573   0.457  1.00  0.00    -0.180 N 
ATOM     10  H10 UNL     1      -4.868   0.154   0.684  1.00  0.00     0.185 HD
ENDROOT
BRANCH   5  11
HETATM   11  N2  UNL     1      -0.447   2.198  -0.430  1.00  0.00    -0.205 N 
ATOM     12  H2  UNL     1      -0.382   3.203  -0.270  1.00  0.00     0.183 HD
BRANCH  11  13
HETATM   13  C4  UNL     1       0.724   1.599  -0.931  1.00  0.00     0.080 C 
BRANCH  13  14
HETATM   14  C5  UNL     1       1.705   1.132   0.114  1.00  0.00     0.065 C 
BRANCH  14  15
HETATM   15  C6  UNL     1       2.887   0.521  -0.651  1.00  0.00     0.126 C 
BRANCH  15  16
HETATM   16  N3  UNL     1       3.898   0.035   0.257  1.00  0.00    -0.373 N 
ATOM     17  H3  UNL     1       3.977   0.449   1.186  1.00  0.00     0.161 HD
BRANCH  16  18
HETATM   18  C7  UNL     1       4.701  -0.909  -0.083  1.00  0.00     0.147 A 
HETATM   19  N4  UNL     1       4.748  -1.568  -1.251  1.00  0.00    -0.224 N 
HETATM   20  O1  UNL     1       5.715  -2.460  -1.196  1.00  0.00    -0.155 OA
ATOM     21  H4  UNL     1       4.135  -1.405  -2.050  1.00  0.00     0.198 HD
HETATM   22  N5  UNL     1       6.301  -2.409  -0.036  1.00  0.00    -0.242 N 
HETATM   23  C8  UNL     1       5.700  -1.453   0.691  1.00  0.00     0.076 A 
ATOM     24  H5  UNL     1       7.080  -2.993   0.268  1.00  0.00     0.196 HD
HETATM   25  C9  UNL     1       6.051  -1.066   2.062  1.00  0.00     0.074 C 
ENDBRANCH  16  18
ENDBRANCH  15  16
ENDBRANCH  14  15
ENDBRANCH  13  14
ENDBRANCH  11  13
ENDBRANCH   5  11
BRANCH   8  26
HETATM   26  N7  UNL     1      -3.129  -1.443  -0.190  1.00  0.00    -0.163 N 
HETATM   27  C11 UNL     1      -4.314  -2.155   0.079  1.00  0.00     0.200 C 
HETATM   28  N8  UNL     1      -4.434  -2.774   1.195  1.00  0.00    -0.373 N 
HETATM   29  N9  UNL     1      -5.385  -2.212  -0.848  1.00  0.00    -0.063 NA
ATOM     30  H82 UNL     1      -3.663  -2.733   1.862  1.00  0.00     0.158 HD
ATOM     31  H81 UNL     1      -5.292  -3.290   1.390  1.00  0.00     0.158 HD
ATOM     32  H7  UNL     1      -2.336  -1.972  -0.553  1.00  0.00     0.187 HD
ENDBRANCH   8  26
TORSDOF 7
