REMARK  8 active torsions:
REMARK  status: ('A' for Active; 'I' for Inactive)
REMARK    1  A    between atoms: C2_2  and  N1_3 
REMARK    2  A    between atoms: C2_2  and  C8_20 
REMARK    3  A    between atoms: N1_3  and  N2_5 
REMARK    4  A    between atoms: C3_7  and  C4_8 
REMARK    5  A    between atoms: C6_11  and  S2_12 
REMARK    6  A    between atoms: S2_12  and  N3_13 
REMARK    7  A    between atoms: C8_20  and  N5_21 
REMARK    8  A    between atoms: C8_20  and  O3_25 
ROOT
HETATM    1  N2  UNL     1      -0.790  -1.202   0.776  1.00  0.00    -0.314 N 
ATOM      2  H2  UNL     1      -1.039  -2.145   1.075  1.00  0.00     0.185 HD
HETATM    3  C3  UNL     1       0.387  -1.173   0.398  1.00  0.00     0.137 C 
ENDROOT
BRANCH   1   4
HETATM    4  N1  UNL     1      -1.846  -0.378   0.916  1.00  0.00    -0.328 N 
ATOM      5  H1  UNL     1      -1.816   0.311   1.667  1.00  0.00     0.180 HD
BRANCH   4   6
HETATM    6  C2  UNL     1      -3.036  -0.405   0.061  1.00  0.00     0.151 C 
HETATM    7  C1  UNL     1      -3.661  -1.796   0.196  1.00  0.00     0.038 C 
BRANCH   6   8
HETATM    8  C8  UNL     1      -4.024   0.628   0.556  1.00  0.00     0.340 C 
BRANCH   8   9
HETATM    9  N5  UNL     1      -4.363   0.341   1.939  1.00  0.00    -0.051 N 
ATOM     10  H53 UNL     1      -4.704  -0.612   2.064  1.00  0.00     0.277 HD
ATOM     11  H52 UNL     1      -3.538   0.278   2.535  1.00  0.00     0.277 HD
ATOM     12  H51 UNL     1      -5.029   1.038   2.273  1.00  0.00     0.277 HD
ENDBRANCH   8   9
BRANCH   8  13
HETATM   13  O3  UNL     1      -5.172   0.656  -0.206  1.00  0.00    -0.368 OA
ATOM     14  H3  UNL     1      -5.792   1.305   0.105  1.00  0.00     0.212 HD
ENDBRANCH   8  13
ENDBRANCH   6   8
ENDBRANCH   4   6
ENDBRANCH   1   4
BRANCH   3  15
HETATM   15  C4  UNL     1       1.153  -0.002  -0.119  1.00  0.00     0.059 A 
HETATM   16  C5  UNL     1       0.514   1.208  -0.211  1.00  0.00     0.083 A 
HETATM   17  S1  UNL     1       1.741   2.222  -0.838  1.00  0.00    -0.068 SA
HETATM   18  C6  UNL     1       2.980   1.070  -0.948  1.00  0.00     0.193 A 
HETATM   19  N4  UNL     1       2.406  -0.049  -0.499  1.00  0.00    -0.333 N 
HETATM   20  C7  UNL     1       3.219  -1.302  -0.442  1.00  0.00     0.158 C 
BRANCH  18  21
HETATM   21  S2  UNL     1       4.642   1.284  -1.518  1.00  0.00     0.279 S 
HETATM   22  O1  UNL     1       5.073   0.081  -2.260  1.00  0.00    -0.199 OA
HETATM   23  O2  UNL     1       4.577   2.462  -2.482  1.00  0.00    -0.199 OA
BRANCH  21  24
HETATM   24  N3  UNL     1       5.720   1.694  -0.280  1.00  0.00    -0.323 N 
ATOM     25  H32 UNL     1       5.426   1.803   0.691  1.00  0.00     0.169 HD
ATOM     26  H31 UNL     1       6.678   1.817  -0.608  1.00  0.00     0.169 HD
ENDBRANCH  21  24
ENDBRANCH  18  21
ENDBRANCH   3  15
TORSDOF 8
