REMARK  13 active torsions:
REMARK  status: ('A' for Active; 'I' for Inactive)
REMARK       I    between atoms: C2_2  and  N1_4 
REMARK    1  A    between atoms: N1_4  and  C3_6 
REMARK    2  A    between atoms: C4_9  and  N3_10 
REMARK    3  A    between atoms: C5_15  and  C6_16 
REMARK    4  A    between atoms: C7_19  and  C8_20 
REMARK    5  A    between atoms: C8_20  and  N5_21 
REMARK    6  A    between atoms: C8_20  and  C9_26 
REMARK    7  A    between atoms: N5_21  and  N6_23 
REMARK    8  A    between atoms: N10_34  and  C11_35 
REMARK    9  A    between atoms: C11_35  and  O4_36 
REMARK   10  A    between atoms: C11_35  and  C12_38 
REMARK   11  A    between atoms: C12_38  and  N11_39 
REMARK   12  A    between atoms: C12_38  and  C13_43 
REMARK   13  A    between atoms: C13_43  and  O5_44 
ROOT
HETATM    1  C8  UNL     1      -1.753   0.358   1.257  1.00  0.00     0.095 C 
ENDROOT
BRANCH   1   2
HETATM    2  C7  UNL     1      -3.096   0.849   0.941  1.00  0.00     0.073 A 
HETATM    3  C3  UNL     1      -3.640   0.481  -0.316  1.00  0.00     0.138 A 
HETATM    4  N2  UNL     1      -4.880   0.855  -0.588  1.00  0.00    -0.176 N 
HETATM    5  C4  UNL     1      -5.651   1.575   0.279  1.00  0.00     0.678 A 
ATOM      6  H2  UNL     1      -5.279   0.593  -1.489  1.00  0.00     0.186 HD
HETATM    7  N4  UNL     1      -5.107   1.898   1.427  1.00  0.00    -0.184 N 
HETATM    8  C5  UNL     1      -3.849   1.583   1.840  1.00  0.00     0.141 A 
ATOM      9  H4  UNL     1      -5.682   2.438   2.074  1.00  0.00     0.184 HD
BRANCH   3  10
HETATM   10  N1  UNL     1      -2.853  -0.183  -1.252  1.00  0.00    -0.312 N 
HETATM   11  C2  UNL     1      -3.302  -0.639  -2.506  1.00  0.00     0.219 C 
HETATM   12  C1  UNL     1      -2.289  -1.301  -3.441  1.00  0.00     0.117 C 
HETATM   13  O1  UNL     1      -4.437  -0.586  -2.993  1.00  0.00    -0.274 OA
ATOM     14  H1  UNL     1      -1.876  -0.352  -1.011  1.00  0.00     0.170 HD
ENDBRANCH   3  10
BRANCH   5  15
HETATM   15  N3  UNL     1      -6.858   1.896  -0.072  1.00  0.00    -0.234 N 
ATOM     16  H32 UNL     1      -7.281   1.645  -0.965  1.00  0.00     0.174 HD
ATOM     17  H31 UNL     1      -7.434   2.434   0.576  1.00  0.00     0.174 HD
ENDBRANCH   5  15
BRANCH   8  18
HETATM   18  C6  UNL     1      -3.381   2.049   3.105  1.00  0.00     0.228 C 
HETATM   19  O2  UNL     1      -2.318   1.958   3.690  1.00  0.00    -0.643 OA
HETATM   20  O3  UNL     1      -4.360   2.784   3.864  1.00  0.00    -0.643 OA
ENDBRANCH   8  18
ENDBRANCH   1   2
BRANCH   1  21
HETATM   21  N5  UNL     1      -1.648  -0.289   2.548  1.00  0.00    -0.304 N 
ATOM     22  H5  UNL     1      -2.432  -0.344   3.198  1.00  0.00     0.186 HD
BRANCH  21  23
HETATM   23  N6  UNL     1      -0.419  -0.821   2.832  1.00  0.00    -0.345 N 
ATOM     24  H62 UNL     1       0.356  -0.758   2.172  1.00  0.00     0.176 HD
ATOM     25  H61 UNL     1      -0.345  -1.277   3.741  1.00  0.00     0.176 HD
ENDBRANCH  21  23
ENDBRANCH   1  21
BRANCH   1  26
HETATM   26  C9  UNL     1      -0.627   1.182   0.844  1.00  0.00     0.115 A 
HETATM   27  N7  UNL     1      -0.583   2.527   0.773  1.00  0.00    -0.281 N 
HETATM   28  N8  UNL     1       0.588   2.958   0.344  1.00  0.00    -0.239 N 
ATOM     29  H7  UNL     1      -1.361   3.138   1.021  1.00  0.00     0.188 HD
HETATM   30  N9  UNL     1       1.329   1.861   0.129  1.00  0.00    -0.267 N 
ATOM     31  H8  UNL     1       0.872   3.928   0.204  1.00  0.00     0.208 HD
HETATM   32  C10 UNL     1       0.604   0.770   0.428  1.00  0.00     0.134 A 
HETATM   33  C15 UNL     1       2.689   1.641  -0.317  1.00  0.00     0.167 C 
HETATM   34  S1  UNL     1       1.425  -0.838   0.169  1.00  0.00    -0.017 SA
HETATM   35  N10 UNL     1       2.355  -0.607  -1.326  1.00  0.00    -0.222 NA
HETATM   36  C14 UNL     1       2.708   0.763  -1.512  1.00  0.00     0.128 C 
BRANCH  35  37
HETATM   37  C11 UNL     1       3.461  -1.477  -1.468  1.00  0.00     0.236 C 
BRANCH  37  38
HETATM   38  O4  UNL     1       3.058  -2.834  -1.522  1.00  0.00    -0.378 OA
ATOM     39  H4  UNL     1       3.801  -3.418  -1.617  1.00  0.00     0.211 HD
ENDBRANCH  37  38
BRANCH  37  40
HETATM   40  C12 UNL     1       4.552  -1.296  -0.456  1.00  0.00     0.250 C 
BRANCH  40  41
HETATM   41  N11 UNL     1       4.149  -1.693   0.887  1.00  0.00    -0.069 N 
ATOM     42 3H11 UNL     1       3.301  -1.204   1.173  1.00  0.00     0.275 HD
ATOM     43 2H11 UNL     1       3.799  -2.651   0.895  1.00  0.00     0.275 HD
ATOM     44 1H11 UNL     1       4.891  -1.570   1.576  1.00  0.00     0.275 HD
ENDBRANCH  40  41
BRANCH  40  45
HETATM   45  C13 UNL     1       5.761  -2.172  -0.782  1.00  0.00     0.200 C 
BRANCH  45  46
HETATM   46  O5  UNL     1       6.227  -1.873  -2.050  1.00  0.00    -0.399 OA
ATOM     47  H5  UNL     1       6.979  -2.418  -2.253  1.00  0.00     0.209 HD
ENDBRANCH  45  46
ENDBRANCH  40  45
ENDBRANCH  37  40
ENDBRANCH  35  37
ENDBRANCH   1  26
TORSDOF 13
