REMARK  15 active torsions:
REMARK  status: ('A' for Active; 'I' for Inactive)
REMARK    1  A    between atoms: N1_1  and  C1_4 
REMARK    2  A    between atoms: C2_7  and  N3_8 
REMARK    3  A    between atoms: N3_8  and  C3_10 
REMARK    4  A    between atoms: C4_13  and  N5_14 
REMARK    5  A    between atoms: C7_17  and  O1_18 
REMARK    6  A    between atoms: C7_17  and  C8_20 
REMARK    7  A    between atoms: C8_20  and  O2_21 
REMARK    8  A    between atoms: C10_26  and  N7_27 
REMARK    9  A    between atoms: N7_27  and  O3_28 
REMARK   10  A    between atoms: N7_27  and  C11_30 
REMARK   11  A    between atoms: C11_30  and  C12_31 
REMARK   12  A    between atoms: C12_31  and  C13_32 
REMARK   13  A    between atoms: C13_32  and  N8_33 
REMARK   14  A    between atoms: N8_33  and  C14_35 
REMARK   15  A    between atoms: C17_46  and  N13_47 
ROOT
HETATM    1  C3  UNL     1      -1.154   2.085  -0.019  1.00  0.00     0.726 A 
HETATM    2  N4  UNL     1      -1.875   0.959   0.120  1.00  0.00    -0.021 N 
ATOM      3  H4  UNL     1      -2.838   0.921  -0.214  1.00  0.00     0.203 HD
HETATM    4  C4  UNL     1      -1.309  -0.131   0.711  1.00  0.00     0.709 A 
HETATM    5  N6  UNL     1      -0.047  -0.009   1.123  1.00  0.00    -0.019 N 
ATOM      6  H6  UNL     1       0.378  -0.824   1.566  1.00  0.00     0.203 HD
HETATM    7  C10 UNL     1       0.717   1.094   1.007  1.00  0.00     0.733 A 
HETATM    8  N11 UNL     1       0.138   2.153   0.424  1.00  0.00    -0.019 N 
ATOM      9  H11 UNL     1       0.666   3.018   0.310  1.00  0.00     0.203 HD
ENDROOT
BRANCH   1  10
HETATM   10  N3  UNL     1      -1.636   3.156  -0.575  1.00  0.00    -0.020 N 
ATOM     11  H3  UNL     1      -1.043   3.982  -0.654  1.00  0.00     0.203 HD
BRANCH  10  12
HETATM   12  C2  UNL     1      -2.959   3.212  -1.075  1.00  0.00     0.726 A 
HETATM   13  N2  UNL     1      -3.925   3.998  -0.601  1.00  0.00    -0.021 N 
HETATM   14  C1  UNL     1      -5.175   4.004  -1.127  1.00  0.00     0.705 A 
ATOM     15  H2  UNL     1      -3.717   4.616   0.184  1.00  0.00     0.203 HD
HETATM   16  N14 UNL     1      -5.440   3.190  -2.157  1.00  0.00    -0.022 N 
HETATM   17  C17 UNL     1      -4.491   2.371  -2.676  1.00  0.00     0.705 A 
ATOM     18  H14 UNL     1      -6.377   3.186  -2.561  1.00  0.00     0.203 HD
HETATM   19  N12 UNL     1      -3.274   2.408  -2.116  1.00  0.00    -0.021 N 
ATOM     20  H12 UNL     1      -2.548   1.799  -2.494  1.00  0.00     0.203 HD
BRANCH  14  21
HETATM   21  N1  UNL     1      -6.035   4.798  -0.600  1.00  0.00    -0.234 N 
ATOM     22  H12 UNL     1      -5.833   5.418   0.184  1.00  0.00     0.174 HD
ATOM     23  H11 UNL     1      -6.975   4.803  -0.996  1.00  0.00     0.174 HD
ENDBRANCH  14  21
BRANCH  17  24
HETATM   24  N13 UNL     1      -4.791   1.616  -3.654  1.00  0.00    -0.234 N 
ATOM     25 2H13 UNL     1      -4.078   1.000  -4.044  1.00  0.00     0.174 HD
ATOM     26 1H13 UNL     1      -5.717   1.588  -4.080  1.00  0.00     0.174 HD
ENDBRANCH  17  24
ENDBRANCH  10  12
ENDBRANCH   1  10
BRANCH   4  27
HETATM   27  N5  UNL     1      -2.062  -1.329   0.865  1.00  0.00    -0.214 N 
HETATM   28  C5  UNL     1      -1.555  -2.559   1.452  1.00  0.00     0.144 C 
HETATM   29  C6  UNL     1      -2.231  -3.591   0.578  1.00  0.00     0.062 C 
HETATM   30  C7  UNL     1      -3.636  -3.050   0.476  1.00  0.00     0.097 C 
HETATM   31  C9  UNL     1      -3.439  -1.567   0.485  1.00  0.00     0.181 C 
BRANCH  30  32
HETATM   32  O1  UNL     1      -4.276  -3.494  -0.683  1.00  0.00    -0.386 OA
ATOM     33  H1  UNL     1      -5.161  -3.153  -0.747  1.00  0.00     0.210 HD
ENDBRANCH  30  32
BRANCH  30  34
HETATM   34  C8  UNL     1      -4.386  -3.523   1.719  1.00  0.00     0.203 C 
BRANCH  34  35
HETATM   35  O2  UNL     1      -5.692  -3.035   1.729  1.00  0.00    -0.398 OA
ATOM     36  H2  UNL     1      -6.159  -3.329   2.502  1.00  0.00     0.209 HD
ENDBRANCH  34  35
ENDBRANCH  30  34
ENDBRANCH   4  27
BRANCH   7  37
HETATM   37  N7  UNL     1       2.046   1.078   1.513  1.00  0.00    -0.089 N 
BRANCH  37  38
HETATM   38  O3  UNL     1       2.450  -0.037   2.216  1.00  0.00    -0.274 OA
ATOM     39  H3  UNL     1       3.338  -0.048   2.554  1.00  0.00     0.245 HD
ENDBRANCH  37  38
BRANCH  37  40
HETATM   40  C11 UNL     1       3.007   2.116   1.321  1.00  0.00     0.176 C 
BRANCH  40  41
HETATM   41  C12 UNL     1       3.508   2.289  -0.074  1.00  0.00     0.042 C 
BRANCH  41  42
HETATM   42  C13 UNL     1       4.197   1.049  -0.606  1.00  0.00     0.124 C 
BRANCH  42  43
HETATM   43  N8  UNL     1       5.338   0.679   0.193  1.00  0.00    -0.362 N 
ATOM     44  H8  UNL     1       5.604   1.223   1.014  1.00  0.00     0.162 HD
BRANCH  43  45
HETATM   45  C14 UNL     1       6.080  -0.467  -0.198  1.00  0.00     0.171 C 
HETATM   46  N9  UNL     1       5.593  -1.663  -0.389  1.00  0.00    -0.361 N 
HETATM   47  C15 UNL     1       6.609  -2.590  -0.777  1.00  0.00     0.142 C 
ATOM     48  H9  UNL     1       4.609  -1.906  -0.275  1.00  0.00     0.162 HD
HETATM   49  C16 UNL     1       7.922  -1.897  -0.517  1.00  0.00     0.142 C 
HETATM   50  N10 UNL     1       7.485  -0.500  -0.446  1.00  0.00    -0.361 N 
ATOM     51  H10 UNL     1       8.087   0.316  -0.556  1.00  0.00     0.162 HD
ENDBRANCH  43  45
ENDBRANCH  42  43
ENDBRANCH  41  42
ENDBRANCH  40  41
ENDBRANCH  37  40
ENDBRANCH   7  37
TORSDOF 15
