REMARK  15 active torsions:
REMARK  status: ('A' for Active; 'I' for Inactive)
REMARK    1  A    between atoms: C2_2  and  C3_3 
REMARK    2  A    between atoms: C3_3  and  C4_4 
REMARK    3  A    between atoms: C4_4  and  O2_6 
REMARK    4  A    between atoms: O2_6  and  C5_7 
REMARK    5  A    between atoms: C5_7  and  C6_8 
REMARK    6  A    between atoms: C8_10  and  C9_11 
REMARK    7  A    between atoms: C9_11  and  O3_12 
REMARK    8  A    between atoms: C9_11  and  C10_14 
REMARK    9  A    between atoms: C10_14  and  N1_17 
REMARK       I    between atoms: N1_17  and  C13_19 
REMARK   10  A    between atoms: C13_19  and  C14_21 
REMARK   11  A    between atoms: C18_25  and  O5_26 
REMARK   12  A    between atoms: O5_26  and  C19_27 
REMARK   13  A    between atoms: C19_27  and  C20_28 
REMARK   14  A    between atoms: C30_38  and  O6_39 
REMARK   15  A    between atoms: C31_41  and  O7_42 
ROOT
HETATM    1  C10 UNL     1       0.549  -2.147  -0.311  1.00  0.00     0.052 C 
HETATM    2  C11 UNL     1      -0.004  -1.654   1.017  1.00  0.00     0.041 C 
HETATM    3  C12 UNL     1       0.748  -3.601  -0.227  1.00  0.00     0.041 C 
ENDROOT
BRANCH   1   4
HETATM    4  C9  UNL     1       1.751  -1.300  -0.650  1.00  0.00     0.152 C 
BRANCH   4   5
HETATM    5  C8  UNL     1       2.881  -1.283   0.311  1.00  0.00     0.049 C 
HETATM    6  C7  UNL     1       3.813  -0.144  -0.152  1.00  0.00     0.019 C 
HETATM    7  C6  UNL     1       5.146  -0.714  -0.428  1.00  0.00     0.042 C 
HETATM    8  C31 UNL     1       5.061  -2.192  -0.360  1.00  0.00     0.153 C 
HETATM    9  C30 UNL     1       3.710  -2.513   0.203  1.00  0.00     0.154 C 
BRANCH   7  10
HETATM   10  C5  UNL     1       6.229  -0.267   0.546  1.00  0.00     0.185 C 
BRANCH  10  11
HETATM   11  O2  UNL     1       6.403   1.132   0.533  1.00  0.00    -0.321 OA
BRANCH  11  12
HETATM   12  C4  UNL     1       7.360   1.679   1.371  1.00  0.00     0.258 C 
HETATM   13  O1  UNL     1       8.031   0.906   2.105  1.00  0.00    -0.265 OA
BRANCH  12  14
HETATM   14  C3  UNL     1       7.634   3.127   1.448  1.00  0.00     0.111 C 
BRANCH  14  15
HETATM   15  C2  UNL     1       6.699   3.827   0.457  1.00  0.00     0.005 C 
HETATM   16  C1  UNL     1       7.023   3.263  -0.923  1.00  0.00     0.005 C 
ENDBRANCH  14  15
ENDBRANCH  12  14
ENDBRANCH  11  12
ENDBRANCH  10  11
ENDBRANCH   7  10
BRANCH   8  17
HETATM   17  O7  UNL     1       5.291  -2.758  -1.617  1.00  0.00    -0.393 OA
ATOM     18  H7  UNL     1       5.237  -3.705  -1.573  1.00  0.00     0.210 HD
ENDBRANCH   8  17
BRANCH   9  19
HETATM   19  O6  UNL     1       3.919  -3.112   1.472  1.00  0.00    -0.393 OA
ATOM     20  H6  UNL     1       4.449  -3.898   1.403  1.00  0.00     0.210 HD
ENDBRANCH   9  19
ENDBRANCH   4   5
BRANCH   4  21
HETATM   21  O3  UNL     1       1.175   0.030  -0.618  1.00  0.00    -0.393 OA
ATOM     22  H3  UNL     1       0.451   0.019  -1.233  1.00  0.00     0.210 HD
ENDBRANCH   4  21
ENDBRANCH   1   4
BRANCH   1  23
HETATM   23  N1  UNL     1      -0.431  -1.868  -1.366  1.00  0.00    -0.350 N 
HETATM   24  C13 UNL     1      -1.740  -2.331  -1.440  1.00  0.00     0.225 C 
HETATM   25  O4  UNL     1      -2.218  -3.067  -0.550  1.00  0.00    -0.273 OA
ATOM     26  H1  UNL     1      -0.118  -1.268  -2.129  1.00  0.00     0.163 HD
BRANCH  24  27
HETATM   27  C14 UNL     1      -2.664  -1.996  -2.562  1.00  0.00     0.107 C 
HETATM   28  C15 UNL     1      -2.039  -2.183  -3.919  1.00  0.00     0.017 C 
HETATM   29  C16 UNL     1      -1.575  -0.832  -4.342  1.00  0.00     0.004 C 
HETATM   30  C17 UNL     1      -2.118   0.174  -3.368  1.00  0.00     0.033 C 
HETATM   31  C18 UNL     1      -3.125  -0.574  -2.580  1.00  0.00     0.134 C 
BRANCH  31  32
HETATM   32  O5  UNL     1      -3.325  -0.059  -1.301  1.00  0.00    -0.384 OA
BRANCH  32  33
HETATM   33  C19 UNL     1      -4.667   0.292  -1.191  1.00  0.00     0.177 C 
BRANCH  33  34
HETATM   34  C20 UNL     1      -4.987   0.867   0.170  1.00  0.00    -0.018 C 
HETATM   35  C21 UNL     1      -6.433   1.229   0.249  1.00  0.00     0.016 C 
HETATM   36  C22 UNL     1      -6.727   1.713   1.669  1.00  0.00    -0.013 C 
HETATM   37  C23 UNL     1      -6.435   0.613   2.660  1.00  0.00     0.009 C 
HETATM   38  C27 UNL     1      -5.878   2.904   2.025  1.00  0.00     0.009 C 
HETATM   39  C24 UNL     1      -4.962   0.250   2.573  1.00  0.00    -0.013 C 
HETATM   40  C25 UNL     1      -4.130   1.456   2.891  1.00  0.00     0.009 C 
HETATM   41  C29 UNL     1      -4.706  -0.245   1.169  1.00  0.00     0.016 C 
HETATM   42  C26 UNL     1      -4.428   2.534   1.883  1.00  0.00    -0.013 C 
HETATM   43  C28 UNL     1      -4.171   2.093   0.463  1.00  0.00     0.016 C 
ENDBRANCH  33  34
ENDBRANCH  32  33
ENDBRANCH  31  32
ENDBRANCH  24  27
ENDBRANCH   1  23
TORSDOF 15
