REMARK  14 active torsions:
REMARK  status: ('A' for Active; 'I' for Inactive)
REMARK    1  A    between atoms: O1_2  and  C2_3 
REMARK    2  A    between atoms: C6_7  and  C7_8 
REMARK    3  A    between atoms: C7_8  and  C8_10 
REMARK    4  A    between atoms: C8_10  and  C9_11 
REMARK    5  A    between atoms: C9_11  and  C10_12 
REMARK    6  A    between atoms: C10_12  and  C11_13 
REMARK    7  A    between atoms: C11_13  and  N1_15 
REMARK    8  A    between atoms: N1_15  and  C13_17 
REMARK    9  A    between atoms: C13_17  and  C14_18 
REMARK   10  A    between atoms: C14_18  and  N2_19 
REMARK   11  A    between atoms: N2_19  and  C15_21 
REMARK   12  A    between atoms: C15_21  and  C16_22 
REMARK   13  A    between atoms: C16_22  and  C17_23 
REMARK   14  A    between atoms: C17_23  and  N3_24 
ROOT
HETATM    1  C2  UNL     1      -4.165  -2.381   0.417  1.00  0.00     0.183 C 
HETATM    2  C3  UNL     1      -2.881  -2.424  -0.326  1.00  0.00     0.021 C 
HETATM    3  C4  UNL     1      -2.896  -2.918  -1.742  1.00  0.00     0.013 C 
HETATM    4  C5  UNL     1      -2.024  -1.223  -0.096  1.00  0.00     0.013 A 
HETATM    5  C6  UNL     1      -0.919  -0.777  -0.870  1.00  0.00     0.069 A 
HETATM    6  C18 UNL     1      -2.243   0.049  -0.556  1.00  0.00    -0.023 A 
HETATM    7  C19 UNL     1      -2.628   0.733  -1.730  1.00  0.00     0.011 C 
HETATM    8  C20 UNL     1      -3.989   0.963  -2.274  1.00  0.00     0.006 C 
HETATM    9  C21 UNL     1      -5.090   1.398  -1.429  1.00  0.00    -0.007 C 
HETATM   10  C22 UNL     1      -6.065   2.440  -2.043  1.00  0.00     0.005 C 
HETATM   11  C23 UNL     1      -6.972   2.833  -0.921  1.00  0.00     0.004 C 
HETATM   12  C24 UNL     1      -7.457   1.822   0.033  1.00  0.00     0.043 C 
HETATM   13  C25 UNL     1      -6.550   0.704   0.329  1.00  0.00     0.116 C 
HETATM   14  C26 UNL     1      -5.444   1.000   1.274  1.00  0.00     0.161 C 
HETATM   15  N4  UNL     1      -4.375   0.049   0.922  1.00  0.00    -0.375 N 
HETATM   16  C27 UNL     1      -3.246   0.348   1.610  1.00  0.00     0.121 C 
HETATM   17  C28 UNL     1      -2.250   0.993   0.614  1.00  0.00     0.030 C 
HETATM   18  C29 UNL     1      -4.911  -1.099   0.454  1.00  0.00     0.193 C 
HETATM   19  C30 UNL     1      -5.545  -1.041  -0.950  1.00  0.00     0.075 C 
HETATM   20  C31 UNL     1      -6.042   0.327  -1.084  1.00  0.00     0.034 C 
HETATM   21  O3  UNL     1      -6.098  -1.275   1.231  1.00  0.00    -0.204 OA
HETATM   22  O4  UNL     1      -7.086  -0.491   0.773  1.00  0.00    -0.225 OA
ENDROOT
BRANCH   5  23
HETATM   23  C7  UNL     1       0.298  -0.122  -0.355  1.00  0.00     0.132 C 
HETATM   24  O2  UNL     1       0.868   0.632  -1.134  1.00  0.00    -0.298 OA
BRANCH  23  25
HETATM   25  C8  UNL     1       0.834  -0.339   0.997  1.00  0.00     0.079 C 
BRANCH  25  26
HETATM   26  C9  UNL     1       1.934   0.562   1.399  1.00  0.00     0.009 C 
BRANCH  26  27
HETATM   27  C10 UNL     1       3.193   0.496   0.621  1.00  0.00     0.024 C 
BRANCH  27  28
HETATM   28  C11 UNL     1       4.235   1.472   1.160  1.00  0.00     0.072 C 
HETATM   29  C12 UNL     1       4.554   1.132   2.621  1.00  0.00     0.031 C 
BRANCH  28  30
HETATM   30  N1  UNL     1       5.452   1.475   0.404  1.00  0.00    -0.416 N 
ATOM     31  H1  UNL     1       5.777   2.302  -0.097  1.00  0.00     0.153 HD
BRANCH  30  32
HETATM   32  C13 UNL     1       6.181   0.246   0.397  1.00  0.00     0.133 C 
BRANCH  32  33
HETATM   33  C14 UNL     1       7.469   0.388  -0.452  1.00  0.00     0.138 C 
BRANCH  33  34
HETATM   34  N2  UNL     1       8.120  -0.851  -0.401  1.00  0.00    -0.401 N 
ATOM     35  H2  UNL     1       7.717  -1.592   0.172  1.00  0.00     0.158 HD
BRANCH  34  36
HETATM   36  C15 UNL     1       9.295  -1.112  -1.100  1.00  0.00     0.057 C 
BRANCH  36  37
HETATM   37  C16 UNL     1      10.585  -0.512  -0.724  1.00  0.00     0.071 C 
BRANCH  37  38
HETATM   38  C17 UNL     1      10.738   0.960  -0.727  1.00  0.00     0.234 C 
BRANCH  38  39
HETATM   39  N3  UNL     1      12.164   1.206  -0.358  1.00  0.00    -0.079 N 
ATOM     40  H33 UNL     1      12.445   0.764   0.517  1.00  0.00     0.274 HD
ATOM     41  H32 UNL     1      12.834   0.721  -0.955  1.00  0.00     0.274 HD
ATOM     42  H31 UNL     1      12.269   2.221  -0.360  1.00  0.00     0.274 HD
ENDBRANCH  38  39
ENDBRANCH  37  38
ENDBRANCH  36  37
ENDBRANCH  34  36
ENDBRANCH  33  34
ENDBRANCH  32  33
ENDBRANCH  30  32
ENDBRANCH  28  30
ENDBRANCH  27  28
ENDBRANCH  26  27
ENDBRANCH  25  26
ENDBRANCH  23  25
ENDBRANCH   5  23
BRANCH   1  43
HETATM   43  O1  UNL     1      -5.014  -3.338  -0.148  1.00  0.00    -0.385 OA
HETATM   44  C1  UNL     1      -5.414  -4.303   0.770  1.00  0.00     0.202 C 
ENDBRANCH   1  43
TORSDOF 14
