REMARK  12 active torsions:
REMARK  status: ('A' for Active; 'I' for Inactive)
REMARK    1  A    between atoms: S1_2  and  C2_3 
REMARK    2  A    between atoms: C2_3  and  C3_4 
REMARK    3  A    between atoms: C3_4  and  N1_5 
REMARK    4  A    between atoms: N1_5  and  C4_8 
REMARK       I    between atoms: N2_12  and  C7_13 
REMARK    5  A    between atoms: C7_13  and  C8_15 
REMARK    6  A    between atoms: C8_15  and  C9_16 
REMARK    7  A    between atoms: C8_15  and  N6_24 
REMARK    8  A    between atoms: C9_16  and  C10_17 
REMARK    9  A    between atoms: C10_17  and  C11_18 
REMARK   10  A    between atoms: C11_18  and  N3_19 
REMARK       I    between atoms: N6_24  and  C13_26 
REMARK   11  A    between atoms: C13_26  and  C14_28 
REMARK   12  A    between atoms: C14_28  and  S3_29 
ROOT
HETATM    1  C8  UNL     1       0.956   0.414  -0.580  1.00  0.00     0.176 C 
ENDROOT
BRANCH   1   2
HETATM    2  C7  UNL     1       1.941  -0.063   0.422  1.00  0.00     0.244 C 
HETATM    3  N2  UNL     1       3.346  -0.020   0.215  1.00  0.00    -0.313 N 
HETATM    4  C4  UNL     1       4.329  -0.483   1.217  1.00  0.00     0.352 C 
HETATM    5  C6  UNL     1       4.114   0.425  -0.917  1.00  0.00     0.139 C 
HETATM    6  S2  UNL     1       5.426   0.996   1.209  1.00  0.00    -0.114 SA
HETATM    7  C5  UNL     1       4.952   1.618  -0.458  1.00  0.00     0.098 C 
HETATM    8  O1  UNL     1       1.481  -0.525   1.499  1.00  0.00    -0.271 OA
BRANCH   4   9
HETATM    9  N1  UNL     1       5.096  -1.564   0.687  1.00  0.00    -0.044 N 
ATOM     10  H12 UNL     1       5.325  -1.397  -0.293  1.00  0.00     0.280 HD
ATOM     11  H11 UNL     1       4.519  -2.400   0.587  1.00  0.00     0.280 HD
BRANCH   9  12
HETATM   12  C3  UNL     1       6.282  -1.854   1.442  1.00  0.00     0.246 C 
BRANCH  12  13
HETATM   13  C2  UNL     1       5.900  -2.417   2.796  1.00  0.00     0.101 C 
BRANCH  13  14
HETATM   14  S1  UNL     1       7.443  -2.772   3.715  1.00  0.00    -0.172 SA
HETATM   15  C1  UNL     1       8.308  -4.116   2.839  1.00  0.00     0.089 C 
ENDBRANCH  13  14
ENDBRANCH  12  13
ENDBRANCH   9  12
ENDBRANCH   4   9
ENDBRANCH   1   2
BRANCH   1  16
HETATM   16  C9  UNL     1       1.048   1.935  -0.689  1.00  0.00     0.036 C 
BRANCH  16  17
HETATM   17  C10 UNL     1       0.755   2.633   0.603  1.00  0.00     0.022 C 
BRANCH  17  18
HETATM   18  C11 UNL     1       0.871   4.135   0.471  1.00  0.00     0.122 C 
BRANCH  18  19
HETATM   19  N3  UNL     1      -0.001   4.717  -0.491  1.00  0.00    -0.367 N 
HETATM   20  C12 UNL     1      -1.244   4.871  -0.289  1.00  0.00     0.196 C 
HETATM   21  N4  UNL     1      -2.011   5.475  -1.345  1.00  0.00    -0.067 NA
HETATM   22  N5  UNL     1      -1.845   4.469   0.912  1.00  0.00    -0.067 NA
ATOM     23  H3  UNL     1       0.390   5.024  -1.382  1.00  0.00     0.161 HD
ENDBRANCH  18  19
ENDBRANCH  17  18
ENDBRANCH  16  17
ENDBRANCH   1  16
BRANCH   1  24
HETATM   24  N6  UNL     1      -0.414   0.148  -0.108  1.00  0.00    -0.346 N 
HETATM   25  C13 UNL     1      -1.372  -0.560  -0.879  1.00  0.00     0.238 C 
HETATM   26  O2  UNL     1      -1.034  -0.971  -2.003  1.00  0.00    -0.272 OA
ATOM     27  H6  UNL     1      -0.686   0.488   0.814  1.00  0.00     0.163 HD
BRANCH  25  28
HETATM   28  C14 UNL     1      -2.734  -0.808  -0.362  1.00  0.00     0.097 C 
HETATM   29  C16 UNL     1      -3.344   0.509   0.178  1.00  0.00     0.036 C 
HETATM   30  C17 UNL     1      -4.736   0.583  -0.348  1.00  0.00    -0.004 C 
HETATM   31  C18 UNL     1      -4.662   1.059  -1.780  1.00  0.00     0.006 C 
HETATM   32  C22 UNL     1      -5.051  -0.891  -0.650  1.00  0.00    -0.035 C 
HETATM   33  C19 UNL     1      -3.809  -0.055  -2.406  1.00  0.00     0.012 C 
HETATM   34  C20 UNL     1      -3.733  -1.169  -1.370  1.00  0.00    -0.011 C 
HETATM   35  C21 UNL     1      -3.688  -2.519  -1.978  1.00  0.00     0.018 C 
HETATM   36  C23 UNL     1      -6.229  -1.012  -1.587  1.00  0.00     0.016 C 
HETATM   37  C24 UNL     1      -5.317  -1.682   0.560  1.00  0.00     0.016 C 
BRANCH  28  38
HETATM   38  S3  UNL     1      -2.526  -1.972   1.014  1.00  0.00    -0.153 SA
HETATM   39  C15 UNL     1      -1.930  -3.576   0.499  1.00  0.00     0.091 C 
ENDBRANCH  28  38
ENDBRANCH  25  28
ENDBRANCH   1  24
TORSDOF 12
