REMARK  10 active torsions:
REMARK  status: ('A' for Active; 'I' for Inactive)
REMARK    1  A    between atoms: C2_2  and  C3_3 
REMARK    2  A    between atoms: C7_8  and  O2_9 
REMARK    3  A    between atoms: C16_19  and  O3_20 
REMARK    4  A    between atoms: O3_20  and  C17_21 
REMARK    5  A    between atoms: C17_21  and  C18_23 
REMARK    6  A    between atoms: C18_23  and  N1_24 
REMARK       I    between atoms: N1_24  and  C19_26 
REMARK    7  A    between atoms: C19_26  and  C20_28 
REMARK    8  A    between atoms: C20_28  and  C21_29 
REMARK    9  A    between atoms: C21_29  and  C22_30 
REMARK   10  A    between atoms: C29_39  and  O7_41 
ROOT
HETATM    1  C3  UNL     1      -5.286   0.932  -0.923  1.00  0.00     0.041 C 
HETATM    2  C4  UNL     1      -4.814   0.677  -2.301  1.00  0.00     0.028 C 
HETATM    3  C5  UNL     1      -6.624   0.286  -0.647  1.00  0.00     0.142 C 
HETATM    4  O1  UNL     1      -7.638   0.634  -1.221  1.00  0.00    -0.297 OA
HETATM    5  C6  UNL     1      -6.461  -0.781   0.392  1.00  0.00     0.120 C 
HETATM    6  C7  UNL     1      -4.967  -1.024   0.302  1.00  0.00     0.100 C 
HETATM    7  C8  UNL     1      -4.457   0.383   0.176  1.00  0.00     0.047 C 
HETATM    8  C9  UNL     1      -2.981   0.503   0.017  1.00  0.00    -0.001 C 
HETATM    9  C10 UNL     1      -2.537   1.755   0.721  1.00  0.00     0.006 C 
HETATM   10  C11 UNL     1      -1.068   1.893   0.895  1.00  0.00     0.007 C 
HETATM   11  C12 UNL     1      -0.388   0.753   0.180  1.00  0.00     0.004 C 
HETATM   12  C13 UNL     1       1.085   1.002   0.032  1.00  0.00    -0.017 C 
HETATM   13  C14 UNL     1       1.189   2.197  -0.938  1.00  0.00     0.018 C 
HETATM   14  C15 UNL     1       1.780   1.436   1.279  1.00  0.00     0.018 C 
HETATM   15  C16 UNL     1       1.748  -0.145  -0.673  1.00  0.00     0.140 C 
HETATM   16  C23 UNL     1       0.714  -1.173  -1.151  1.00  0.00     0.034 C 
HETATM   17  C24 UNL     1       0.016  -1.669   0.079  1.00  0.00     0.012 C 
HETATM   18  C25 UNL     1      -0.803  -0.550   0.741  1.00  0.00    -0.035 C 
HETATM   19  C26 UNL     1      -0.501  -0.671   2.227  1.00  0.00     0.016 C 
HETATM   20  C27 UNL     1      -2.286  -0.735   0.452  1.00  0.00     0.002 C 
HETATM   21  C28 UNL     1      -2.910  -1.442   1.614  1.00  0.00     0.046 C 
HETATM   22  C29 UNL     1      -4.381  -1.655   1.514  1.00  0.00     0.086 C 
HETATM   23  C30 UNL     1      -5.070  -1.169   2.798  1.00  0.00     0.049 C 
ENDROOT
BRANCH  15  24
HETATM   24  O3  UNL     1       2.658  -0.856   0.148  1.00  0.00    -0.314 OA
BRANCH  24  25
HETATM   25  C17 UNL     1       3.973  -1.077  -0.206  1.00  0.00     0.277 C 
HETATM   26  O4  UNL     1       4.367  -0.629  -1.293  1.00  0.00    -0.263 OA
BRANCH  25  27
HETATM   27  C18 UNL     1       4.909  -1.821   0.661  1.00  0.00     0.233 C 
BRANCH  27  28
HETATM   28  N1  UNL     1       6.243  -1.921   0.120  1.00  0.00    -0.352 N 
HETATM   29  C19 UNL     1       7.034  -0.790  -0.144  1.00  0.00     0.218 C 
HETATM   30  O5  UNL     1       6.656   0.387   0.067  1.00  0.00    -0.274 OA
ATOM     31  H1  UNL     1       6.625  -2.846  -0.078  1.00  0.00     0.162 HD
BRANCH  29  32
HETATM   32  C20 UNL     1       8.409  -0.970  -0.709  1.00  0.00     0.111 C 
BRANCH  32  33
HETATM   33  C21 UNL     1       9.099   0.356  -0.913  1.00  0.00     0.109 C 
BRANCH  33  34
HETATM   34  C22 UNL     1      10.442   0.113  -1.471  1.00  0.00     0.231 C 
HETATM   35  N2  UNL     1      11.296   1.226  -1.732  1.00  0.00    -0.062 NA
HETATM   36  O6  UNL     1      10.836  -1.050  -1.714  1.00  0.00    -0.277 OA
ENDBRANCH  33  34
ENDBRANCH  32  33
ENDBRANCH  29  32
ENDBRANCH  27  28
ENDBRANCH  25  27
ENDBRANCH  24  25
ENDBRANCH  15  24
BRANCH  22  37
HETATM   37  O7  UNL     1      -4.723  -3.031   1.444  1.00  0.00    -0.387 OA
ATOM     38  H7  UNL     1      -4.349  -3.434   2.218  1.00  0.00     0.210 HD
ENDBRANCH  22  37
BRANCH   1  39
HETATM   39  C2  UNL     1      -5.529   2.412  -0.788  1.00  0.00    -0.020 C 
HETATM   40  C1  UNL     1      -6.074   3.085  -1.780  1.00  0.00     0.008 C 
ENDBRANCH   1  39
BRANCH   6  41
HETATM   41  O2  UNL     1      -4.743  -1.818  -0.787  1.00  0.00    -0.386 OA
ATOM     42  H2  UNL     1      -3.807  -1.970  -0.843  1.00  0.00     0.210 HD
ENDBRANCH   6  41
TORSDOF 10
