REMARK  8 active torsions:
REMARK  status: ('A' for Active; 'I' for Inactive)
REMARK       I    between atoms: C1_2  and  N1_3 
REMARK       I    between atoms: C1_2  and  N6_31 
REMARK    1  A    between atoms: N1_3  and  C2_5 
REMARK    2  A    between atoms: N2_8  and  C5_9 
REMARK    3  A    between atoms: C5_9  and  C6_10 
REMARK    4  A    between atoms: C6_10  and  C7_11 
REMARK    5  A    between atoms: C10_14  and  N3_15 
REMARK    6  A    between atoms: N3_15  and  C11_17 
REMARK    7  A    between atoms: C14_20  and  N4_21 
REMARK    8  A    between atoms: N6_31  and  C20_33 
ROOT
HETATM    1  C2  UNL     1      -1.551   0.304  -1.264  1.00  0.00     0.089 C 
HETATM    2  C3  UNL     1      -0.634  -0.507  -2.093  1.00  0.00     0.055 C 
HETATM    3  C4  UNL     1       0.195  -1.491  -1.314  1.00  0.00     0.274 C 
HETATM    4  N2  UNL     1       0.783  -0.942  -0.137  1.00  0.00     0.088 N 
HETATM    5  C18 UNL     1      -0.029  -0.057   0.614  1.00  0.00     0.274 C 
HETATM    6  C19 UNL     1      -0.798   0.944  -0.147  1.00  0.00     0.055 C 
ENDROOT
BRANCH   1   7
HETATM    7  N1  UNL     1      -2.743  -0.412  -0.824  1.00  0.00    -0.338 N 
HETATM    8  C1  UNL     1      -4.037   0.143  -0.898  1.00  0.00     0.316 C 
HETATM    9  O1  UNL     1      -4.194   1.290  -1.360  1.00  0.00    -0.247 OA
HETATM   10  N6  UNL     1      -5.165  -0.588  -0.451  1.00  0.00    -0.338 N 
ATOM     11  H6  UNL     1      -5.019  -1.526  -0.078  1.00  0.00     0.164 HD
ATOM     12  H1  UNL     1      -2.636  -1.354  -0.447  1.00  0.00     0.164 HD
BRANCH  10  13
HETATM   13  C20 UNL     1      -6.532  -0.061  -0.499  1.00  0.00     0.091 C 
HETATM   14  C21 UNL     1      -7.384  -1.045  -1.274  1.00  0.00     0.032 C 
HETATM   15  C22 UNL     1      -8.003  -1.548  -0.004  1.00  0.00     0.025 C 
HETATM   16  C23 UNL     1      -9.458  -1.208   0.199  1.00  0.00     0.194 C 
HETATM   17  C26 UNL     1      -7.267  -0.415   0.734  1.00  0.00     0.023 C 
HETATM   18  C24 UNL     1      -9.379  -0.646   1.633  1.00  0.00     0.043 C 
HETATM   19  N7  UNL     1      -9.734  -0.003  -0.545  1.00  0.00    -0.038 N 
HETATM   20  C25 UNL     1      -8.358   0.454   1.250  1.00  0.00     0.057 C 
HETATM   21  C27 UNL     1      -9.183   1.107   0.173  1.00  0.00     0.232 C 
HETATM   22  C28 UNL     1     -10.232   1.994   0.800  1.00  0.00     0.095 C 
HETATM   23  O4  UNL     1      -8.650   2.149  -0.500  1.00  0.00    -0.354 OA
HETATM   24  C29 UNL     1      -9.883   2.823  -0.402  1.00  0.00     0.176 C 
ATOM     25  H72 UNL     1      -9.401  -0.052  -1.508  1.00  0.00     0.281 HD
ATOM     26  H71 UNL     1     -10.727   0.114  -0.747  1.00  0.00     0.281 HD
ENDBRANCH  10  13
ENDBRANCH   1   7
BRANCH   4  27
HETATM   27  C5  UNL     1       2.039  -0.306  -0.400  1.00  0.00     0.272 C 
BRANCH  27  28
HETATM   28  C6  UNL     1       3.173  -1.180  -0.748  1.00  0.00     0.034 C 
BRANCH  28  29
HETATM   29  C7  UNL     1       4.419  -0.305  -1.007  1.00  0.00    -0.013 C 
HETATM   30  C8  UNL     1       4.816   0.508   0.153  1.00  0.00     0.007 C 
HETATM   31  C9  UNL     1       6.223   0.498   0.611  1.00  0.00     0.025 C 
HETATM   32  C10 UNL     1       6.996  -0.759   0.454  1.00  0.00     0.083 C 
HETATM   33  C16 UNL     1       6.247  -1.810  -0.345  1.00  0.00     0.025 C 
HETATM   34  C17 UNL     1       5.543  -1.160  -1.518  1.00  0.00     0.007 C 
BRANCH  32  35
HETATM   35  N3  UNL     1       8.266  -0.550  -0.222  1.00  0.00    -0.372 N 
ATOM     36  H3  UNL     1       8.334  -0.823  -1.202  1.00  0.00     0.161 HD
BRANCH  35  37
HETATM   37  C11 UNL     1       9.308  -0.044   0.334  1.00  0.00     0.101 A 
HETATM   38  C12 UNL     1       9.392   0.373   1.631  1.00  0.00     0.051 A 
HETATM   39  C13 UNL     1      10.542   0.921   2.147  1.00  0.00     0.041 A 
HETATM   40  C14 UNL     1      11.675   1.070   1.351  1.00  0.00     0.118 A 
HETATM   41  C15 UNL     1      11.537   0.631   0.046  1.00  0.00     0.125 A 
HETATM   42  N5  UNL     1      10.410   0.096  -0.451  1.00  0.00    -0.350 N 
ATOM     43  H5  UNL     1      10.380  -0.208  -1.424  1.00  0.00     0.166 HD
BRANCH  40  44
HETATM   44  N4  UNL     1      12.873   1.633   1.839  1.00  0.00    -0.114 N 
HETATM   45  O2  UNL     1      12.943   1.995   3.017  1.00  0.00    -0.532 OA
HETATM   46  O3  UNL     1      13.946   1.777   1.025  1.00  0.00    -0.532 OA
ENDBRANCH  40  44
ENDBRANCH  35  37
ENDBRANCH  32  35
ENDBRANCH  28  29
ENDBRANCH  27  28
ENDBRANCH   4  27
TORSDOF 8
