REMARK  8 active torsions:
REMARK  status: ('A' for Active; 'I' for Inactive)
REMARK    1  A    between atoms: C2_2  and  C3_3 
REMARK    2  A    between atoms: C13_13  and  C14_14 
REMARK    3  A    between atoms: C16_18  and  C18_20 
REMARK    4  A    between atoms: C20_23  and  C21_24 
REMARK    5  A    between atoms: C25_30  and  O5_31 
REMARK    6  A    between atoms: C26_33  and  C27_34 
REMARK    7  A    between atoms: C27_34  and  O6_35 
REMARK    8  A    between atoms: C29_38  and  O7_39 
ROOT
HETATM    1  C3  UNL     1      -3.362   1.233  -0.652  1.00  0.00    -0.026 C 
HETATM    2  C4  UNL     1      -3.241   1.818  -2.105  1.00  0.00     0.019 C 
HETATM    3  C5  UNL     1      -4.430   0.292  -0.759  1.00  0.00     0.016 C 
HETATM    4  C6  UNL     1      -4.273  -1.115  -1.387  1.00  0.00     0.037 C 
HETATM    5  C7  UNL     1      -3.006  -1.484  -0.866  1.00  0.00     0.147 C 
HETATM    6  C8  UNL     1      -2.126  -2.629  -0.937  1.00  0.00     0.009 C 
HETATM    7  C9  UNL     1      -0.858  -2.652  -0.437  1.00  0.00    -0.065 A 
HETATM    8  C10 UNL     1       0.548  -2.896   0.039  1.00  0.00     0.030 A 
HETATM    9  C11 UNL     1       1.781  -2.760  -0.693  1.00  0.00     0.018 C 
HETATM   10  C12 UNL     1       2.427  -1.423  -0.341  1.00  0.00     0.038 C 
HETATM   11  C13 UNL     1       2.339  -0.909   1.015  1.00  0.00     0.082 C 
HETATM   12  C15 UNL     1       3.548   0.037   1.231  1.00  0.00     0.043 C 
HETATM   13  C16 UNL     1       3.777   1.054   0.194  1.00  0.00     0.007 C 
HETATM   14  C17 UNL     1       3.870   2.461   0.820  1.00  0.00     0.027 C 
HETATM   15  S1  UNL     1       2.488   1.148  -1.062  1.00  0.00    -0.137 SA
HETATM   16  C20 UNL     1       1.728  -0.436  -1.231  1.00  0.00     0.107 C 
HETATM   17  C22 UNL     1       0.292  -0.555  -0.875  1.00  0.00     0.043 A 
HETATM   18  C23 UNL     1      -0.031  -1.639   0.067  1.00  0.00     0.009 A 
HETATM   19  C24 UNL     1      -0.105  -0.351   0.495  1.00  0.00     0.021 A 
HETATM   20  C25 UNL     1       1.099  -0.193   1.445  1.00  0.00     0.148 C 
HETATM   21  C26 UNL     1      -1.427   0.318   0.885  1.00  0.00     0.043 C 
HETATM   22  C28 UNL     1      -2.033   1.235  -0.119  1.00  0.00     0.030 C 
HETATM   23  C29 UNL     1      -2.316  -0.813   1.328  1.00  0.00     0.271 C 
HETATM   24  O8  UNL     1      -3.180  -1.269   0.454  1.00  0.00    -0.351 OA
ENDROOT
BRANCH   1  25
HETATM   25  C2  UNL     1      -4.085   2.444  -0.033  1.00  0.00    -0.028 C 
HETATM   26  C1  UNL     1      -5.325   2.496   0.312  1.00  0.00     0.007 C 
ENDBRANCH   1  25
BRANCH  21  27
HETATM   27  C27 UNL     1      -1.229   1.177   2.129  1.00  0.00     0.179 C 
BRANCH  27  28
HETATM   28  O6  UNL     1      -2.457   1.783   2.505  1.00  0.00    -0.400 OA
ATOM     29  H6  UNL     1      -2.334   2.318   3.280  1.00  0.00     0.209 HD
ENDBRANCH  27  28
ENDBRANCH  21  27
BRANCH  23  30
HETATM   30  O7  UNL     1      -3.097  -0.455   2.458  1.00  0.00    -0.365 OA
HETATM   31  C30 UNL     1      -2.810  -1.290   3.505  1.00  0.00     0.204 C 
ENDBRANCH  23  30
BRANCH  20  32
HETATM   32  O5  UNL     1       1.378   1.046   1.867  1.00  0.00    -0.393 OA
ATOM     33  H5  UNL     1       0.590   1.501   2.140  1.00  0.00     0.210 HD
ENDBRANCH  20  32
BRANCH  16  34
HETATM   34  C21 UNL     1       1.956  -0.891  -2.652  1.00  0.00     0.193 C 
HETATM   35  O3  UNL     1       0.952  -1.125  -3.364  1.00  0.00    -0.647 OA
HETATM   36  O4  UNL     1       3.208  -1.055  -3.185  1.00  0.00    -0.647 OA
ENDBRANCH  16  34
BRANCH  11  37
HETATM   37  C14 UNL     1       2.686  -2.007   1.965  1.00  0.00     0.185 C 
HETATM   38  O1  UNL     1       1.958  -2.224   2.945  1.00  0.00    -0.647 OA
HETATM   39  O2  UNL     1       3.820  -2.749   1.718  1.00  0.00    -0.647 OA
ENDBRANCH  11  37
BRANCH  13  40
HETATM   40  C18 UNL     1       5.166   0.886  -0.447  1.00  0.00     0.016 C 
HETATM   41  C19 UNL     1       5.401   1.920  -1.509  1.00  0.00     0.006 C 
ENDBRANCH  13  40
TORSDOF 8
