REMARK  2 active torsions:
REMARK  status: ('A' for Active; 'I' for Inactive)
REMARK    1  A    between atoms: C2_2  and  C3_3 
REMARK    2  A    between atoms: C4_6  and  O2_7 
ROOT
HETATM    1  C1  UNL     1       0.015  -1.469   0.079  1.00  0.00     0.052 C 
HETATM    2  C2  UNL     1       0.143   0.009  -0.142  1.00  0.00     0.119 A 
HETATM    3  O1  UNL     1       0.077   0.331  -1.538  1.00  0.00    -0.342 OA
HETATM    4  C4  UNL     1      -0.906   0.840  -0.708  1.00  0.00     0.293 A 
ENDROOT
BRANCH   2   5
HETATM    5  C3  UNL     1       1.216   0.681   0.662  1.00  0.00     0.128 C 
HETATM    6 BR1  UNL     1       2.911  -0.112   0.201  1.00  0.00    -0.093 Br
ENDBRANCH   2   5
BRANCH   4   7
HETATM    7  O2  UNL     1      -2.178   0.311  -0.696  1.00  0.00    -0.368 OA
ATOM      8  H2  UNL     1      -2.864   0.854  -1.066  1.00  0.00     0.212 HD
ENDBRANCH   4   7
TORSDOF 2
