REMARK  1 active torsions:
REMARK  status: ('A' for Active; 'I' for Inactive)
REMARK    1  A    between atoms: C3_7  and  C4_8 
ROOT
HETATM    1  C1  UNL     1      -1.215   1.253   0.164  1.00  0.00     0.315 C 
HETATM    2  N1  UNL     1      -1.037   0.162  -0.722  1.00  0.00     0.144 N 
HETATM    3  C2  UNL     1      -1.480  -1.136  -0.285  1.00  0.00     0.508 C 
HETATM    4  N2  UNL     1      -0.312  -1.702  -0.960  1.00  0.00    -0.013 N 
ATOM      5  H21 UNL     1      -0.402  -2.207  -1.842  1.00  0.00     0.282 HD
ATOM      6  H22 UNL     1       0.180  -2.510  -0.579  1.00  0.00     0.282 HD
HETATM    7  C3  UNL     1       0.271  -0.364  -0.908  1.00  0.00     0.447 C 
ENDROOT
BRANCH   7   8
HETATM    8  C4  UNL     1       1.271  -0.148   0.122  1.00  0.00     0.045 C 
HETATM    9  C5  UNL     1       2.212   0.783   0.009  1.00  0.00     0.056 C 
HETATM   10 BR1  UNL     1       3.531   1.071   1.364  1.00  0.00    -0.064 Br
ENDBRANCH   7   8
TORSDOF 1
