REMARK  2 active torsions:
REMARK  status: ('A' for Active; 'I' for Inactive)
REMARK    1  A    between atoms: C2_2  and  N1_3 
REMARK    2  A    between atoms: C7_9  and  O1_10 
ROOT
HETATM    1  N1  UNL     1      -0.905  -0.161   0.444  1.00  0.00     0.091 N 
HETATM    2  C3  UNL     1      -0.185  -1.401   0.241  1.00  0.00     0.280 C 
HETATM    3  C4  UNL     1       1.240  -0.967   0.472  1.00  0.00     0.053 C 
HETATM    4  C5  UNL     1       2.167  -1.123  -0.702  1.00  0.00     0.033 C 
HETATM    5  C6  UNL     1       2.342   0.385  -0.778  1.00  0.00     0.119 C 
HETATM    6 CL1  UNL     1       3.903   0.950  -0.089  1.00  0.00    -0.122 Cl
HETATM    7  C7  UNL     1       1.260   0.531   0.238  1.00  0.00     0.106 C 
HETATM    8  C8  UNL     1      -0.140   0.758  -0.343  1.00  0.00     0.312 C 
ENDROOT
BRANCH   1   9
HETATM    9  C2  UNL     1      -2.288  -0.255   0.070  1.00  0.00     0.268 C 
HETATM   10  C1  UNL     1      -3.065   0.994   0.262  1.00  0.00     0.037 C 
ENDBRANCH   1   9
BRANCH   7  11
HETATM   11  O1  UNL     1       1.543   1.254   1.369  1.00  0.00    -0.386 OA
ATOM     12  H1  UNL     1       1.556   2.193   1.222  1.00  0.00     0.210 HD
ENDBRANCH   7  11
TORSDOF 2
