REMARK  2 active torsions:
REMARK  status: ('A' for Active; 'I' for Inactive)
REMARK    1  A    between atoms: N1_2  and  C2_3 
REMARK    2  A    between atoms: C6_8  and  N2_9 
ROOT
HETATM    1  N2  UNL     1       1.736  -0.682   0.799  1.00  0.00    -0.299 N 
ATOM      2  H2  UNL     1       2.128  -0.364   1.685  1.00  0.00     0.173 HD
HETATM    3  C7  UNL     1       2.008  -1.975   0.338  1.00  0.00     0.179 C 
HETATM    4  N3  UNL     1       2.256  -3.060  -0.046  1.00  0.00    -0.172 NA
ENDROOT
BRANCH   1   5
HETATM    5  C6  UNL     1       0.910   0.191   0.030  1.00  0.00     0.298 C 
HETATM    6  N1  UNL     1      -0.422  -0.277  -0.218  1.00  0.00    -0.037 N 
HETATM    7  C1  UNL     1      -0.518  -0.867  -1.562  1.00  0.00     0.276 C 
HETATM    8  C3  UNL     1      -1.303   0.878  -0.222  1.00  0.00     0.241 C 
HETATM    9  C4  UNL     1      -0.426   2.105  -0.094  1.00  0.00     0.032 C 
HETATM   10  C5  UNL     1       0.748   1.556   0.697  1.00  0.00     0.057 C 
BRANCH   6  11
HETATM   11  C2  UNL     1      -0.903  -1.267   0.700  1.00  0.00     0.353 C 
HETATM   12 CL1  UNL     1      -0.426  -0.974   2.378  1.00  0.00    -0.101 Cl
ENDBRANCH   6  11
ENDBRANCH   1   5
TORSDOF 2
