REMARK  1 active torsions:
REMARK  status: ('A' for Active; 'I' for Inactive)
REMARK    1  A    between atoms: C8_11  and  C9_12 
ROOT
HETATM    1  C1  UNL     1      -1.048   2.000   1.243  1.00  0.00     0.012 C 
HETATM    2  C2  UNL     1      -1.014   0.576   0.720  1.00  0.00     0.006 C 
HETATM    3  C3  UNL     1      -2.321   0.278   0.048  1.00  0.00     0.008 C 
HETATM    4  C4  UNL     1      -2.356  -0.988  -0.719  1.00  0.00     0.020 C 
HETATM    5  C5  UNL     1      -1.080  -1.447  -1.302  1.00  0.00     0.117 C 
HETATM    6  N1  UNL     1       0.106  -0.980  -0.693  1.00  0.00    -0.404 N 
HETATM    7  C6  UNL     1       0.690  -1.825   0.289  1.00  0.00     0.136 C 
HETATM    8  C7  UNL     1       2.148  -1.380   0.462  1.00  0.00     0.133 C 
HETATM    9  N2  UNL     1       2.183  -0.024   0.903  1.00  0.00    -0.411 N 
ATOM     10  H2  UNL     1       2.725   0.272   1.715  1.00  0.00     0.153 HD
HETATM   11  C8  UNL     1       1.410   0.887   0.132  1.00  0.00     0.128 C 
HETATM   12  C10 UNL     1       0.080   0.401  -0.305  1.00  0.00     0.107 C 
ENDROOT
BRANCH  11  13
HETATM   13  C9  UNL     1       2.248   1.348  -1.049  1.00  0.00     0.248 C 
HETATM   14  F1  UNL     1       3.380   1.965  -0.505  1.00  0.00    -0.253 F 
ENDBRANCH  11  13
TORSDOF 1
