REMARK  2 active torsions:
REMARK  status: ('A' for Active; 'I' for Inactive)
REMARK    1  A    between atoms: O1_1  and  C1_3 
REMARK    2  A    between atoms: C1_3  and  C2_4 
ROOT
HETATM    1  C2  UNL     1      -1.014  -0.204  -0.238  1.00  0.00     0.018 C 
HETATM    2  C3  UNL     1      -1.695   0.655   0.839  1.00  0.00     0.059 C 
HETATM    3  C4  UNL     1      -0.970   1.828   0.219  1.00  0.00     0.131 C 
HETATM    4  F1  UNL     1      -1.592   3.023   0.245  1.00  0.00    -0.241 F 
HETATM    5  C5  UNL     1       0.463   1.800   0.750  1.00  0.00     0.316 C 
HETATM    6  N1  UNL     1       1.146   0.787   0.030  1.00  0.00     0.097 N 
HETATM    7  C6  UNL     1       2.410   0.382   0.519  1.00  0.00     0.273 C 
HETATM    8  C7  UNL     1       2.593  -0.985  -0.165  1.00  0.00     0.032 C 
HETATM    9  C8  UNL     1       1.182  -1.368  -0.643  1.00  0.00     0.038 C 
HETATM   10  C9  UNL     1       0.366  -0.454   0.205  1.00  0.00     0.233 C 
HETATM   11  C10 UNL     1      -1.062   1.059  -1.108  1.00  0.00     0.059 C 
ENDROOT
BRANCH   1  12
HETATM   12  C1  UNL     1      -1.836  -1.343  -0.729  1.00  0.00     0.176 C 
BRANCH  12  13
HETATM   13  O1  UNL     1      -2.146  -2.194   0.308  1.00  0.00    -0.400 OA
ATOM     14  H1  UNL     1      -2.671  -2.921  -0.005  1.00  0.00     0.209 HD
ENDBRANCH  12  13
ENDBRANCH   1  12
TORSDOF 2
