REMARK  2 active torsions:
REMARK  status: ('A' for Active; 'I' for Inactive)
REMARK    1  A    between atoms: C2_2  and  C3_3 
REMARK    2  A    between atoms: C5_6  and  O1_8 
ROOT
HETATM    1  C3  UNL     1       1.044  -0.319  -0.792  1.00  0.00     0.113 C 
HETATM    2  F1  UNL     1       0.635  -0.654  -2.090  1.00  0.00    -0.242 F 
HETATM    3  C4  UNL     1       0.866   1.155  -0.617  1.00  0.00     0.083 C 
HETATM    4  C5  UNL     1      -0.576   1.368  -0.200  1.00  0.00     0.088 C 
HETATM    5  C6  UNL     1      -0.621   2.523   0.747  1.00  0.00     0.048 C 
HETATM    6  C7  UNL     1      -1.016   0.078   0.406  1.00  0.00     0.265 C 
HETATM    7  C8  UNL     1       0.123  -0.901   0.234  1.00  0.00     0.090 C 
HETATM    8  C9  UNL     1      -0.889  -1.805  -0.373  1.00  0.00     0.282 C 
HETATM    9  N1  UNL     1      -1.893  -0.747  -0.370  1.00  0.00     0.092 N 
HETATM   10  C10 UNL     1      -3.084  -1.210   0.296  1.00  0.00     0.310 C 
ENDROOT
BRANCH   1  11
HETATM   11  C2  UNL     1       2.462  -0.785  -0.659  1.00  0.00     0.039 C 
HETATM   12  C1  UNL     1       3.074  -0.511   0.676  1.00  0.00     0.008 C 
ENDBRANCH   1  11
BRANCH   4  13
HETATM   13  O1  UNL     1      -1.334   1.711  -1.327  1.00  0.00    -0.388 OA
ATOM     14  H1  UNL     1      -2.238   1.844  -1.066  1.00  0.00     0.210 HD
ENDBRANCH   4  13
TORSDOF 2
