REMARK  1 active torsions:
REMARK  status: ('A' for Active; 'I' for Inactive)
REMARK    1  A    between atoms: O1_2  and  C2_3 
ROOT
HETATM    1  C2  UNL     1       1.089   0.114  -0.071  1.00  0.00     0.178 C 
HETATM    2  C3  UNL     1       1.005   1.596  -0.352  1.00  0.00     0.149 C 
HETATM    3  N1  UNL     1      -0.052   2.263   0.314  1.00  0.00    -0.418 N 
ATOM      4  H1  UNL     1      -0.196   3.269   0.229  1.00  0.00     0.153 HD
HETATM    5  C4  UNL     1      -0.904   1.441   1.112  1.00  0.00     0.118 C 
HETATM    6  C5  UNL     1      -1.663   0.405   0.370  1.00  0.00     0.011 C 
HETATM    7  C6  UNL     1      -1.328  -0.976   0.972  1.00  0.00     0.014 C 
HETATM    8  C7  UNL     1      -0.765  -1.632  -0.260  1.00  0.00     0.029 C 
HETATM    9  C8  UNL     1      -1.825  -1.220  -1.299  1.00  0.00     0.016 C 
HETATM   10  C9  UNL     1      -1.232   0.174  -1.034  1.00  0.00     0.034 C 
HETATM   11  C10 UNL     1       0.082  -0.583  -0.905  1.00  0.00     0.138 C 
HETATM   12  F1  UNL     1       0.534  -0.992  -2.148  1.00  0.00    -0.239 F 
ENDROOT
BRANCH   1  13
HETATM   13  O1  UNL     1       2.365  -0.293  -0.517  1.00  0.00    -0.386 OA
HETATM   14  C1  UNL     1       3.126  -0.813   0.526  1.00  0.00     0.202 C 
ENDBRANCH   1  13
TORSDOF 1
