REMARK  1 active torsions:
REMARK  status: ('A' for Active; 'I' for Inactive)
REMARK    1  A    between atoms: C2_2  and  N1_3 
ROOT
HETATM    1  N1  UNL     1      -0.826  -0.256  -0.035  1.00  0.00    -0.290 NA
HETATM    2  C3  UNL     1      -0.243  -1.370  -0.658  1.00  0.00     0.078 C 
HETATM    3  C4  UNL     1       1.221  -1.283  -0.948  1.00  0.00     0.117 C 
HETATM    4  N2  UNL     1       1.974  -0.313  -0.289  1.00  0.00    -0.310 N 
HETATM    5  C5  UNL     1       2.810  -0.637   0.776  1.00  0.00     0.172 C 
HETATM    6  N3  UNL     1       1.756   0.997  -0.578  1.00  0.00    -0.134 NA
HETATM    7  C6  UNL     1       0.809   1.525   0.380  1.00  0.00     0.109 C 
HETATM    8  C7  UNL     1       0.041   2.668  -0.194  1.00  0.00     0.031 C 
HETATM    9  C8  UNL     1      -0.106   0.461   0.946  1.00  0.00     0.117 C 
ENDROOT
BRANCH   1  10
HETATM   10  C2  UNL     1      -2.132  -0.595   0.479  1.00  0.00     0.090 C 
HETATM   11  C1  UNL     1      -3.184  -0.790  -0.584  1.00  0.00     0.021 C 
ENDBRANCH   1  10
TORSDOF 1
