REMARK  3 active torsions:
REMARK  status: ('A' for Active; 'I' for Inactive)
REMARK    1  A    between atoms: N1_2  and  C2_5 
REMARK    2  A    between atoms: C2_5  and  C3_6 
REMARK    3  A    between atoms: C4_7  and  C5_8 
ROOT
HETATM    1  C5  UNL     1       0.696   0.941   0.087  1.00  0.00     0.092 C 
HETATM    2  C6  UNL     1       1.174   0.519   1.436  1.00  0.00     0.249 C 
HETATM    3  N2  UNL     1       2.544   0.086   1.299  1.00  0.00    -0.070 N 
ATOM      4  H21 UNL     1       2.672  -0.893   1.556  1.00  0.00     0.277 HD
ATOM      5  H22 UNL     1       3.156   0.497   2.004  1.00  0.00     0.277 HD
HETATM    6  C7  UNL     1       2.979   0.364  -0.035  1.00  0.00     0.183 C 
HETATM    7  C8  UNL     1       3.830  -0.797  -0.549  1.00  0.00     0.040 C 
HETATM    8  C9  UNL     1       1.731   0.380  -0.861  1.00  0.00     0.051 C 
ENDROOT
BRANCH   1   9
HETATM    9  C4  UNL     1      -0.631   0.342  -0.167  1.00  0.00    -0.098 C 
HETATM   10  C3  UNL     1      -1.719  -0.161  -0.395  1.00  0.00    -0.079 C 
BRANCH  10  11
HETATM   11  C2  UNL     1      -3.009  -0.782  -0.684  1.00  0.00     0.325 C 
BRANCH  11  12
HETATM   12  N1  UNL     1      -3.731  -0.893   0.556  1.00  0.00    -0.069 N 
HETATM   13  C1  UNL     1      -4.088   0.446   0.991  1.00  0.00     0.267 C 
ATOM     14  H12 UNL     1      -3.217  -1.414   1.266  1.00  0.00     0.277 HD
ATOM     15  H11 UNL     1      -4.538  -1.514   0.488  1.00  0.00     0.277 HD
ENDBRANCH  11  12
ENDBRANCH  10  11
ENDBRANCH   1   9
TORSDOF 3
