REMARK  1 active torsions:
REMARK  status: ('A' for Active; 'I' for Inactive)
REMARK    1  A    between atoms: N1_2  and  C4_5 
ROOT
HETATM    1  C4  UNL     1       0.253   0.097   0.496  1.00  0.00     0.201 C 
HETATM    2  C5  UNL     1       1.109  -0.784  -0.356  1.00  0.00     0.051 C 
HETATM    3  C6  UNL     1       2.532  -0.811   0.159  1.00  0.00     0.124 C 
HETATM    4  N2  UNL     1       3.241   0.412  -0.068  1.00  0.00    -0.179 NA
HETATM    5  S1  UNL     1       2.135   1.672  -0.665  1.00  0.00    -0.064 SA
HETATM    6  C7  UNL     1       0.630   1.549   0.374  1.00  0.00     0.126 C 
ENDROOT
BRANCH   1   7
HETATM    7  N1  UNL     1      -1.140  -0.042   0.191  1.00  0.00    -0.073 N 
HETATM    8  C1  UNL     1      -1.367  -0.095  -1.259  1.00  0.00     0.272 C 
HETATM    9  C2  UNL     1      -1.947   1.037   0.694  1.00  0.00     0.272 C 
HETATM   10  C3  UNL     1      -1.631  -1.295   0.726  1.00  0.00     0.272 C 
ENDBRANCH   1   7
TORSDOF 1
