REMARK  2 active torsions:
REMARK  status: ('A' for Active; 'I' for Inactive)
REMARK    1  A    between atoms: C3_3  and  N1_4 
REMARK    2  A    between atoms: C8_9  and  O1_10 
ROOT
HETATM    1  C1  UNL     1       4.430   0.265   0.676  1.00  0.00     0.013 C 
HETATM    2  C2  UNL     1       3.421  -0.343   0.439  1.00  0.00    -0.087 C 
HETATM    3  C3  UNL     1       2.206  -1.050   0.130  1.00  0.00     0.365 C 
ENDROOT
BRANCH   3   4
HETATM    4  N1  UNL     1       1.021  -0.306   0.513  1.00  0.00     0.101 N 
HETATM    5  C4  UNL     1       0.846   0.886  -0.294  1.00  0.00     0.274 C 
HETATM    6  C5  UNL     1      -0.440   1.542   0.185  1.00  0.00     0.037 C 
HETATM    7  C6  UNL     1      -1.566   0.711  -0.396  1.00  0.00     0.014 C 
HETATM    8  C7  UNL     1      -2.782   0.766   0.483  1.00  0.00     0.012 C 
HETATM    9  C8  UNL     1      -1.130  -0.690  -0.650  1.00  0.00     0.150 C 
HETATM   10  C9  UNL     1      -0.108  -1.202   0.325  1.00  0.00     0.305 C 
BRANCH   9  11
HETATM   11  O1  UNL     1      -2.271  -1.498  -0.488  1.00  0.00    -0.393 OA
ATOM     12  H1  UNL     1      -1.993  -2.392  -0.650  1.00  0.00     0.210 HD
ENDBRANCH   9  11
ENDBRANCH   3   4
TORSDOF 2
