REMARK  2 active torsions:
REMARK  status: ('A' for Active; 'I' for Inactive)
REMARK    1  A    between atoms: C3_3  and  N1_4 
REMARK    2  A    between atoms: C7_8  and  O1_9 
ROOT
HETATM    1  C1  UNL     1       3.911  -0.813  -0.967  1.00  0.00     0.013 C 
HETATM    2  C2  UNL     1       2.934  -0.281  -0.501  1.00  0.00    -0.087 C 
HETATM    3  C3  UNL     1       1.753   0.367   0.079  1.00  0.00     0.365 C 
ENDROOT
BRANCH   3   4
HETATM    4  N1  UNL     1       0.556   0.022  -0.688  1.00  0.00     0.106 N 
HETATM    5  C4  UNL     1       0.208  -1.374  -0.546  1.00  0.00     0.274 C 
HETATM    6  C5  UNL     1      -1.281  -1.608  -0.682  1.00  0.00     0.033 C 
HETATM    7  C6  UNL     1      -2.062  -0.879   0.388  1.00  0.00     0.035 C 
HETATM    8  C7  UNL     1      -1.157   0.216   0.931  1.00  0.00     0.151 C 
HETATM    9  C8  UNL     1      -0.542   0.882  -0.281  1.00  0.00     0.248 C 
HETATM   10  C9  UNL     1      -0.123   2.293  -0.045  1.00  0.00     0.045 C 
BRANCH   8  11
HETATM   11  O1  UNL     1      -1.784   1.080   1.795  1.00  0.00    -0.393 OA
ATOM     12  H1  UNL     1      -1.219   1.764   2.134  1.00  0.00     0.210 HD
ENDBRANCH   8  11
ENDBRANCH   3   4
TORSDOF 2
