REMARK  1 active torsions:
REMARK  status: ('A' for Active; 'I' for Inactive)
REMARK    1  A    between atoms: N1_2  and  C2_5 
ROOT
HETATM    1  C2  UNL     1       1.103  -0.631   0.485  1.00  0.00     0.195 C 
HETATM    2  C3  UNL     1       0.310  -1.714  -0.197  1.00  0.00     0.055 C 
HETATM    3  C4  UNL     1      -0.711  -1.006  -1.057  1.00  0.00     0.118 C 
HETATM    4 CL1  UNL     1      -2.243  -1.911  -0.968  1.00  0.00    -0.123 Cl
HETATM    5  C5  UNL     1      -0.920   0.363  -0.423  1.00  0.00     0.248 A 
HETATM    6  C6  UNL     1       0.161   0.531   0.602  1.00  0.00     0.079 A 
HETATM    7  C7  UNL     1      -0.953   0.325   1.614  1.00  0.00     0.281 A 
HETATM    8  N2  UNL     1      -1.958   0.251   0.589  1.00  0.00     0.091 N 
HETATM    9  C8  UNL     1      -2.942   1.296   0.563  1.00  0.00     0.310 C 
ENDROOT
BRANCH   1  10
HETATM   10  N1  UNL     1       2.215  -0.285  -0.361  1.00  0.00    -0.074 N 
HETATM   11  C1  UNL     1       3.357   0.165   0.402  1.00  0.00     0.267 C 
ATOM     12  H12 UNL     1       1.945   0.403  -1.064  1.00  0.00     0.277 HD
ATOM     13  H11 UNL     1       2.464  -1.057  -0.979  1.00  0.00     0.277 HD
ENDBRANCH   1  10
TORSDOF 1
