REMARK  2 active torsions:
REMARK  status: ('A' for Active; 'I' for Inactive)
REMARK    1  A    between atoms: O1_1  and  C1_3 
REMARK    2  A    between atoms: C4_6  and  C5_7 
ROOT
HETATM    1  C1  UNL     1      -1.499   0.367  -0.389  1.00  0.00     0.257 C 
HETATM    2  C2  UNL     1      -1.213  -1.065  -0.015  1.00  0.00     0.063 C 
HETATM    3  C3  UNL     1       0.300  -1.081   0.061  1.00  0.00     0.037 C 
HETATM    4  C4  UNL     1       0.574   0.423   0.203  1.00  0.00     0.134 C 
HETATM    5  O2  UNL     1      -0.264   0.911  -0.795  1.00  0.00    -0.355 OA
ENDROOT
BRANCH   1   6
HETATM    6  O1  UNL     1      -1.922   1.122   0.696  1.00  0.00    -0.371 OA
ATOM      7  H1  UNL     1      -2.102   2.024   0.460  1.00  0.00     0.212 HD
ENDBRANCH   1   6
BRANCH   4   8
HETATM    8  C5  UNL     1       2.035   0.616  -0.137  1.00  0.00     0.117 C 
HETATM    9 BR1  UNL     1       3.155  -0.397   1.068  1.00  0.00    -0.094 Br
ENDBRANCH   4   8
TORSDOF 2
