REMARK  1 active torsions:
REMARK  status: ('A' for Active; 'I' for Inactive)
REMARK    1  A    between atoms: N1_2  and  C2_4 
ROOT
HETATM    1  C2  UNL     1       0.556   0.431  -0.149  1.00  0.00     0.054 C 
HETATM    2  C3  UNL     1       0.162   1.915  -0.270  1.00  0.00     0.040 C 
HETATM    3  C4  UNL     1       0.024  -0.274  -1.339  1.00  0.00     0.304 C 
HETATM    4  N2  UNL     1      -1.133  -1.065  -0.880  1.00  0.00     0.110 N 
HETATM    5  C5  UNL     1      -2.193  -0.166  -0.413  1.00  0.00     0.275 C 
HETATM    6  C6  UNL     1      -1.698   0.492   0.839  1.00  0.00     0.041 C 
HETATM    7  C7  UNL     1      -0.299  -0.106   0.968  1.00  0.00     0.065 C 
HETATM    8  C8  UNL     1      -0.609  -1.506   0.428  1.00  0.00     0.324 C 
HETATM    9 CL1  UNL     1      -1.960  -2.248   1.283  1.00  0.00    -0.091 Cl
ENDROOT
BRANCH   1  10
HETATM   10  N1  UNL     1       1.937   0.414   0.059  1.00  0.00    -0.415 N 
HETATM   11  C1  UNL     1       2.647  -0.801  -0.005  1.00  0.00     0.140 C 
ATOM     12  H1  UNL     1       2.432   1.283   0.258  1.00  0.00     0.153 HD
ENDBRANCH   1  10
TORSDOF 1
