REMARK  9 active torsions:
REMARK  status: ('A' for Active; 'I' for Inactive)
REMARK    1  A    between atoms: C2_3  and  N2_4 
REMARK    2  A    between atoms: N3_6  and  N4_8 
REMARK    3  A    between atoms: N4_8  and  C3_10 
REMARK    4  A    between atoms: C8_17  and  O1_18 
REMARK    5  A    between atoms: C12_23  and  C13_24 
REMARK    6  A    between atoms: C14_25  and  O2_26 
REMARK    7  A    between atoms: C16_29  and  O3_30 
REMARK    8  A    between atoms: C18_33  and  S1_34 
REMARK    9  A    between atoms: S1_34  and  N6_35 
ROOT
HETATM    1  C3  UNL     1       0.428   0.281   0.441  1.00  0.00     0.149 A 
HETATM    2  N5  UNL     1       1.048   1.456   0.438  1.00  0.00    -0.339 N 
ATOM      3  H5  UNL     1       2.064   1.507   0.512  1.00  0.00     0.167 HD
HETATM    4  C4  UNL     1       0.312   2.577   0.336  1.00  0.00     0.047 A 
HETATM    5  C5  UNL     1       0.989   3.783   0.336  1.00  0.00     0.030 A 
HETATM    6  C6  UNL     1       0.255   4.947   0.232  1.00  0.00     0.005 A 
HETATM    7  C7  UNL     1      -1.101   4.950   0.130  1.00  0.00     0.037 A 
HETATM    8  C8  UNL     1      -1.794   3.729   0.130  1.00  0.00     0.079 A 
HETATM    9  C9  UNL     1      -1.088   2.563   0.232  1.00  0.00     0.036 A 
HETATM   10  C10 UNL     1      -1.730   1.341   0.235  1.00  0.00     0.012 A 
HETATM   11  C11 UNL     1      -3.059   0.970   0.152  1.00  0.00     0.045 A 
HETATM   12  C12 UNL     1      -3.104  -0.398   0.205  1.00  0.00     0.048 A 
HETATM   13  N7  UNL     1      -1.803  -0.841   0.320  1.00  0.00    -0.352 N 
ATOM     14  H7  UNL     1      -1.524  -1.820   0.381  1.00  0.00     0.166 HD
HETATM   15  C19 UNL     1      -0.950   0.209   0.341  1.00  0.00     0.090 A 
ENDROOT
BRANCH   1  16
HETATM   16  N4  UNL     1       1.106  -0.802   0.537  1.00  0.00    -0.269 N 
ATOM     17  H4  UNL     1       0.590  -1.682   0.535  1.00  0.00     0.190 HD
BRANCH  16  18
HETATM   18  N3  UNL     1       2.475  -0.870   0.642  1.00  0.00    -0.239 N 
HETATM   19  N2  UNL     1       3.275  -0.674  -0.325  1.00  0.00    -0.271 N 
ATOM     20  H2  UNL     1       2.895  -0.450  -1.245  1.00  0.00     0.190 HD
ATOM     21  H3  UNL     1       2.874  -1.092   1.554  1.00  0.00     0.208 HD
BRANCH  19  22
HETATM   22  C2  UNL     1       4.692  -0.758  -0.160  1.00  0.00     0.126 A 
HETATM   23  N1  UNL     1       5.349  -1.572  -1.009  1.00  0.00    -0.302 N 
HETATM   24  C1  UNL     1       4.624  -2.306  -2.021  1.00  0.00     0.161 C 
HETATM   25  C25 UNL     1       6.677  -1.646  -0.850  1.00  0.00     0.266 A 
HETATM   26  C24 UNL     1       7.353  -0.919   0.144  1.00  0.00     0.083 A 
HETATM   27  O6  UNL     1       7.358  -2.372  -1.590  1.00  0.00    -0.266 OA
HETATM   28  C21 UNL     1       6.680  -0.097   0.999  1.00  0.00    -0.009 A 
HETATM   29  S2  UNL     1       8.973  -0.752   0.645  1.00  0.00    -0.096 SA
HETATM   30  C20 UNL     1       5.283  -0.029   0.820  1.00  0.00     0.063 A 
HETATM   31  C22 UNL     1       7.406   0.566   1.926  1.00  0.00     0.020 A 
HETATM   32  C23 UNL     1       8.760   0.353   1.925  1.00  0.00     0.051 A 
ENDBRANCH  19  22
ENDBRANCH  16  18
ENDBRANCH   1  16
BRANCH  12  33
HETATM   33  C13 UNL     1      -4.207  -1.341   0.267  1.00  0.00     0.047 A 
HETATM   34  C14 UNL     1      -4.086  -2.492   1.073  1.00  0.00     0.082 A 
HETATM   35  C15 UNL     1      -5.028  -3.488   1.104  1.00  0.00     0.074 A 
HETATM   36  C16 UNL     1      -6.156  -3.401   0.332  1.00  0.00     0.069 A 
HETATM   37  C17 UNL     1      -6.300  -2.301  -0.455  1.00  0.00     0.062 A 
HETATM   38  C18 UNL     1      -5.329  -1.265  -0.495  1.00  0.00     0.097 A 
BRANCH  34  39
HETATM   39  O2  UNL     1      -2.966  -2.603   1.864  1.00  0.00    -0.360 OA
ATOM     40  H2  UNL     1      -2.884  -3.378   2.407  1.00  0.00     0.217 HD
ENDBRANCH  34  39
BRANCH  36  41
HETATM   41  O3  UNL     1      -7.147  -4.373   0.318  1.00  0.00    -0.361 OA
ATOM     42  H3  UNL     1      -7.929  -4.313  -0.217  1.00  0.00     0.217 HD
ENDBRANCH  36  41
BRANCH  38  43
HETATM   43  S1  UNL     1      -5.634   0.076  -1.564  1.00  0.00     0.257 S 
HETATM   44  O4  UNL     1      -6.776  -0.407  -2.538  1.00  0.00    -0.201 OA
HETATM   45  O5  UNL     1      -6.281   1.251  -0.914  1.00  0.00    -0.201 OA
BRANCH  43  46
HETATM   46  N6  UNL     1      -4.365   0.428  -2.642  1.00  0.00    -0.324 N 
ATOM     47  H62 UNL     1      -3.500  -0.113  -2.649  1.00  0.00     0.169 HD
ATOM     48  H61 UNL     1      -4.544   1.213  -3.268  1.00  0.00     0.169 HD
ENDBRANCH  43  46
ENDBRANCH  38  43
ENDBRANCH  12  33
BRANCH   8  49
HETATM   49  O1  UNL     1      -3.160   3.727   0.028  1.00  0.00    -0.360 OA
ATOM     50  H1  UNL     1      -3.629   2.901   0.028  1.00  0.00     0.217 HD
ENDBRANCH   8  49
TORSDOF 9
