REMARK  9 active torsions:
REMARK  status: ('A' for Active; 'I' for Inactive)
REMARK    1  A    between atoms: C3_5  and  O3_6 
REMARK    2  A    between atoms: C5_9  and  O4_10 
REMARK    3  A    between atoms: C10_16  and  O5_17 
REMARK    4  A    between atoms: C11_19  and  C12_20 
REMARK    5  A    between atoms: C15_23  and  C16_24 
REMARK    6  A    between atoms: C16_24  and  O6_25 
REMARK    7  A    between atoms: C21_32  and  O8_33 
REMARK    8  A    between atoms: C25_38  and  O9_39 
REMARK    9  A    between atoms: C26_41  and  C27_42 
ROOT
HETATM    1  O1  UNL     1      -0.549   3.300  -1.712  1.00  0.00    -0.259 OA
HETATM    2  C1  UNL     1      -0.976   2.744  -0.648  1.00  0.00     0.300 A 
HETATM    3  O2  UNL     1      -1.716   3.389   0.213  1.00  0.00    -0.271 OA
HETATM    4  C2  UNL     1      -2.140   2.793   1.294  1.00  0.00     0.125 A 
HETATM    5  C3  UNL     1      -2.938   3.489   2.222  1.00  0.00     0.103 A 
HETATM    6  C4  UNL     1      -3.410   2.902   3.377  1.00  0.00     0.076 A 
HETATM    7  C5  UNL     1      -3.092   1.587   3.641  1.00  0.00     0.069 A 
HETATM    8  C6  UNL     1      -2.308   0.901   2.733  1.00  0.00     0.053 A 
HETATM    9  C7  UNL     1      -1.841   1.494   1.579  1.00  0.00     0.038 A 
HETATM   10  C8  UNL     1      -1.053   0.801   0.668  1.00  0.00     0.098 A 
HETATM   11  C9  UNL     1      -0.605   1.440  -0.479  1.00  0.00     0.092 A 
HETATM   12  C10 UNL     1       0.227   0.687  -1.435  1.00  0.00     0.162 C 
HETATM   13  C11 UNL     1       1.666   0.934  -1.409  1.00  0.00     0.205 C 
HETATM   14  O7  UNL     1       2.387  -0.122  -1.998  1.00  0.00    -0.337 OA
HETATM   15  C19 UNL     1       1.797  -1.125  -2.748  1.00  0.00     0.082 A 
HETATM   16  C20 UNL     1       2.539  -1.746  -3.718  1.00  0.00     0.074 A 
HETATM   17  C21 UNL     1       1.993  -2.756  -4.497  1.00  0.00     0.068 A 
HETATM   18  C22 UNL     1       0.693  -3.110  -4.264  1.00  0.00     0.037 A 
HETATM   19  C23 UNL     1      -0.054  -2.480  -3.281  1.00  0.00     0.016 A 
HETATM   20  C24 UNL     1       0.463  -1.484  -2.503  1.00  0.00     0.016 A 
HETATM   21  C25 UNL     1      -0.242  -0.762  -1.448  1.00  0.00     0.156 C 
HETATM   22  C26 UNL     1      -0.298  -1.423  -0.123  1.00  0.00     0.204 C 
HETATM   23  O10 UNL     1      -0.704  -0.500   0.868  1.00  0.00    -0.336 OA
ENDROOT
BRANCH  13  24
HETATM   24  C12 UNL     1       2.300   1.342  -0.145  1.00  0.00    -0.025 A 
HETATM   25  C13 UNL     1       2.792   0.399   0.723  1.00  0.00     0.010 A 
HETATM   26  C14 UNL     1       3.402   0.728   1.922  1.00  0.00     0.010 A 
HETATM   27  C15 UNL     1       3.529   2.051   2.275  1.00  0.00    -0.035 A 
HETATM   28  C17 UNL     1       3.042   3.014   1.419  1.00  0.00     0.010 A 
HETATM   29  C18 UNL     1       2.439   2.661   0.231  1.00  0.00     0.010 A 
BRANCH  27  30
HETATM   30  C16 UNL     1       4.183   2.457   3.566  1.00  0.00     0.202 C 
BRANCH  30  31
HETATM   31  O6  UNL     1       3.195   2.501   4.545  1.00  0.00    -0.396 OA
ATOM     32  H6  UNL     1       3.608   2.758   5.361  1.00  0.00     0.209 HD
ENDBRANCH  30  31
ENDBRANCH  27  30
ENDBRANCH  13  24
BRANCH  12  33
HETATM   33  O5  UNL     1      -0.233   1.146  -2.718  1.00  0.00    -0.378 OA
ATOM     34  H5  UNL     1       0.303   0.661  -3.334  1.00  0.00     0.211 HD
ENDBRANCH  12  33
BRANCH  21  35
HETATM   35  O9  UNL     1      -1.595  -0.673  -1.885  1.00  0.00    -0.378 OA
ATOM     36  H9  UNL     1      -1.888  -1.577  -1.893  1.00  0.00     0.211 HD
ENDBRANCH  21  35
BRANCH  22  37
HETATM   37  C27 UNL     1      -1.240  -2.570  -0.150  1.00  0.00    -0.026 A 
HETATM   38  C28 UNL     1      -2.591  -2.348  -0.098  1.00  0.00     0.010 A 
HETATM   39  C29 UNL     1      -3.496  -3.391  -0.115  1.00  0.00     0.001 A 
HETATM   40  C30 UNL     1      -3.047  -4.671  -0.186  1.00  0.00     0.000 A 
HETATM   41  C31 UNL     1      -1.700  -4.939  -0.240  1.00  0.00     0.001 A 
HETATM   42  C32 UNL     1      -0.800  -3.873  -0.221  1.00  0.00     0.010 A 
ENDBRANCH  22  37
BRANCH  17  43
HETATM   43  O8  UNL     1       2.775  -3.374  -5.483  1.00  0.00    -0.361 OA
ATOM     44  H8  UNL     1       2.401  -4.066  -6.016  1.00  0.00     0.217 HD
ENDBRANCH  17  43
BRANCH   5  45
HETATM   45  O3  UNL     1      -3.235   4.809   1.918  1.00  0.00    -0.358 OA
ATOM     46  H3  UNL     1      -3.773   5.279   2.544  1.00  0.00     0.217 HD
ENDBRANCH   5  45
BRANCH   7  47
HETATM   47  O4  UNL     1      -3.560   0.977   4.807  1.00  0.00    -0.361 OA
ATOM     48  H4  UNL     1      -3.341   0.071   4.989  1.00  0.00     0.217 HD
ENDBRANCH   7  47
TORSDOF 9
