REMARK  7 active torsions:
REMARK  status: ('A' for Active; 'I' for Inactive)
REMARK       I    between atoms: C1_2  and  N1_3 
REMARK    1  A    between atoms: C1_2  and  C8_11 
REMARK    2  A    between atoms: N1_3  and  C2_5 
REMARK    3  A    between atoms: C12_15  and  N2_16 
REMARK    4  A    between atoms: C14_21  and  O2_22 
REMARK    5  A    between atoms: C16_31  and  N6_32 
REMARK    6  A    between atoms: N6_32  and  C17_34 
REMARK    7  A    between atoms: C20_37  and  O3_38 
ROOT
HETATM    1  N2  UNL     1      -1.355   2.077   0.348  1.00  0.00    -0.343 N 
ATOM      2  H2  UNL     1      -0.922   2.839   0.869  1.00  0.00     0.167 HD
HETATM    3  C13 UNL     1      -0.577   1.148  -0.119  1.00  0.00     0.125 C 
HETATM    4  N3  UNL     1      -1.054   0.032  -0.864  1.00  0.00    -0.334 N 
ATOM      5  H3  UNL     1      -2.034  -0.155  -1.078  1.00  0.00     0.164 HD
HETATM    6  C14 UNL     1       0.081  -0.812  -1.279  1.00  0.00     0.220 C 
HETATM    7  S1  UNL     1       0.586  -1.909   0.109  1.00  0.00    -0.031 SA
HETATM    8  S2  UNL     1       1.321  -0.234   1.281  1.00  0.00    -0.049 SA
HETATM    9  C15 UNL     1       0.868   1.002  -0.010  1.00  0.00     0.188 C 
HETATM   10  N4  UNL     1       1.696   2.130  -0.025  1.00  0.00    -0.291 N 
ATOM     11  H4  UNL     1       1.334   3.069   0.140  1.00  0.00     0.183 HD
HETATM   12  N5  UNL     1       3.076   1.888  -0.285  1.00  0.00    -0.135 N 
ATOM     13  H5  UNL     1       3.768   2.604  -0.065  1.00  0.00     0.205 HD
HETATM   14  C16 UNL     1       3.456   0.753  -0.803  1.00  0.00     0.693 C 
HETATM   15  N7  UNL     1       2.501  -0.250  -1.124  1.00  0.00    -0.211 N 
ATOM     16  H7  UNL     1       2.759  -1.232  -1.226  1.00  0.00     0.178 HD
HETATM   17  C27 UNL     1       1.162   0.203  -1.294  1.00  0.00     0.215 C 
ENDROOT
BRANCH   1  18
HETATM   18  C12 UNL     1      -2.756   2.107   0.186  1.00  0.00     0.034 A 
HETATM   19  C11 UNL     1      -3.381   3.218  -0.394  1.00  0.00     0.029 A 
HETATM   20  C10 UNL     1      -4.744   3.261  -0.553  1.00  0.00     0.003 A 
HETATM   21  C9  UNL     1      -5.515   2.188  -0.131  1.00  0.00     0.017 A 
HETATM   22  C8  UNL     1      -4.925   1.076   0.446  1.00  0.00     0.034 A 
HETATM   23  C28 UNL     1      -3.555   1.068   0.589  1.00  0.00     0.046 A 
BRANCH  22  24
HETATM   24  C1  UNL     1      -5.727  -0.094   0.884  1.00  0.00     0.256 C 
HETATM   25  O1  UNL     1      -5.128  -0.802   1.755  1.00  0.00    -0.267 OA
HETATM   26  N1  UNL     1      -6.989  -0.327   0.353  1.00  0.00    -0.323 N 
ATOM     27  H1  UNL     1      -7.303   0.356  -0.336  1.00  0.00     0.169 HD
BRANCH  26  28
HETATM   28  C2  UNL     1      -7.902  -1.368   0.625  1.00  0.00     0.035 A 
HETATM   29  C3  UNL     1      -9.207  -1.258   0.120  1.00  0.00     0.029 A 
HETATM   30  C4  UNL     1     -10.140  -2.243   0.331  1.00  0.00     0.002 A 
HETATM   31  C5  UNL     1      -9.739  -3.342   1.062  1.00  0.00     0.000 A 
HETATM   32  C6  UNL     1      -8.469  -3.467   1.563  1.00  0.00     0.002 A 
HETATM   33  C7  UNL     1      -7.516  -2.459   1.346  1.00  0.00     0.029 A 
ENDBRANCH  26  28
ENDBRANCH  22  24
ENDBRANCH   1  18
BRANCH   6  34
HETATM   34  O2  UNL     1      -0.147  -1.486  -2.429  1.00  0.00    -0.360 OA
ATOM     35  H2  UNL     1       0.584  -2.030  -2.696  1.00  0.00     0.213 HD
ENDBRANCH   6  34
BRANCH  14  36
HETATM   36  N6  UNL     1       4.850   0.472  -1.081  1.00  0.00    -0.190 N 
ATOM     37  H6  UNL     1       5.149   0.390  -2.053  1.00  0.00     0.184 HD
BRANCH  36  38
HETATM   38  C17 UNL     1       5.803   0.308  -0.067  1.00  0.00     0.060 A 
HETATM   39  C18 UNL     1       5.402   0.405   1.244  1.00  0.00     0.034 A 
HETATM   40  C19 UNL     1       6.271   0.257   2.303  1.00  0.00     0.039 A 
HETATM   41  C20 UNL     1       7.612  -0.003   2.004  1.00  0.00     0.076 A 
HETATM   42  C21 UNL     1       8.022  -0.102   0.704  1.00  0.00     0.009 A 
HETATM   43  C22 UNL     1       9.338  -0.356   0.428  1.00  0.00     0.015 A 
HETATM   44  C26 UNL     1       7.119   0.054  -0.328  1.00  0.00     0.004 A 
HETATM   45  C23 UNL     1       9.775  -0.457  -0.877  1.00  0.00     0.001 A 
HETATM   46  C24 UNL     1       8.881  -0.303  -1.900  1.00  0.00     0.001 A 
HETATM   47  C25 UNL     1       7.563  -0.050  -1.658  1.00  0.00     0.014 A 
BRANCH  41  48
HETATM   48  O3  UNL     1       8.441  -0.143   3.108  1.00  0.00    -0.360 OA
ATOM     49  H3  UNL     1       9.352  -0.320   2.905  1.00  0.00     0.217 HD
ENDBRANCH  41  48
ENDBRANCH  36  38
ENDBRANCH  14  36
TORSDOF 7
