REMARK  6 active torsions:
REMARK  status: ('A' for Active; 'I' for Inactive)
REMARK    1  A    between atoms: C6_10  and  N2_11 
REMARK       I    between atoms: N2_11  and  C7_13 
REMARK    2  A    between atoms: C7_13  and  C8_15 
REMARK    3  A    between atoms: C11_18  and  N3_19 
REMARK    4  A    between atoms: N3_19  and  C12_21 
REMARK    5  A    between atoms: C17_31  and  N7_32 
REMARK       I    between atoms: N7_32  and  C18_34 
REMARK       I    between atoms: C18_34  and  N8_36 
REMARK    6  A    between atoms: N8_36  and  C19_38 
ROOT
HETATM    1  C1  UNL     1      -4.400  -4.932   1.460  1.00  0.00     0.071 C 
HETATM    2  C2  UNL     1      -3.013  -5.347   1.174  1.00  0.00     0.040 A 
HETATM    3  N1  UNL     1      -2.636  -6.661   1.138  1.00  0.00    -0.261 N 
ATOM      4  H1  UNL     1      -3.325  -7.392   1.314  1.00  0.00     0.194 HD
HETATM    5  O1  UNL     1      -1.403  -6.981   0.880  1.00  0.00    -0.195 OA
HETATM    6  C3  UNL     1      -0.451  -6.115   0.643  1.00  0.00     0.316 A 
HETATM    7  O2  UNL     1       0.711  -6.462   0.403  1.00  0.00    -0.257 OA
HETATM    8  C4  UNL     1      -0.793  -4.760   0.671  1.00  0.00     0.056 A 
HETATM    9  C5  UNL     1       0.147  -3.790   0.434  1.00  0.00     0.050 A 
HETATM   10  C6  UNL     1      -0.135  -2.454   0.450  1.00  0.00     0.063 A 
HETATM   11  C17 UNL     1      -1.476  -2.038   0.724  1.00  0.00     0.064 A 
HETATM   12  C26 UNL     1      -2.392  -3.022   0.958  1.00  0.00     0.046 A 
HETATM   13  C27 UNL     1      -2.066  -4.385   0.935  1.00  0.00     0.007 A 
ENDROOT
BRANCH  10  14
HETATM   14  N2  UNL     1       0.836  -1.445   0.293  1.00  0.00    -0.321 N 
HETATM   15  C7  UNL     1       2.123  -1.639  -0.212  1.00  0.00     0.256 C 
HETATM   16  O3  UNL     1       2.561  -2.740  -0.599  1.00  0.00    -0.267 OA
ATOM     17  H2  UNL     1       0.578  -0.498   0.570  1.00  0.00     0.169 HD
BRANCH  15  18
HETATM   18  C8  UNL     1       3.074  -0.504  -0.321  1.00  0.00     0.034 A 
HETATM   19  C9  UNL     1       4.146  -0.546  -1.174  1.00  0.00     0.019 A 
HETATM   20  C10 UNL     1       5.036   0.530  -1.251  1.00  0.00     0.032 A 
HETATM   21  C11 UNL     1       4.860   1.654  -0.475  1.00  0.00     0.059 A 
HETATM   22  C15 UNL     1       3.774   1.683   0.381  1.00  0.00     0.074 A 
HETATM   23  N6  UNL     1       3.588   2.840   1.182  1.00  0.00    -0.100 NA
HETATM   24  C16 UNL     1       2.881   0.602   0.458  1.00  0.00     0.045 A 
BRANCH  21  25
HETATM   25  N3  UNL     1       5.747   2.761  -0.530  1.00  0.00    -0.327 N 
ATOM     26  H3  UNL     1       5.577   3.574   0.063  1.00  0.00     0.169 HD
BRANCH  25  27
HETATM   27  C12 UNL     1       6.876   2.750  -1.406  1.00  0.00     0.175 C 
HETATM   28  N4  UNL     1       7.034   3.581  -2.367  1.00  0.00    -0.361 N 
HETATM   29  C13 UNL     1       8.253   3.362  -3.104  1.00  0.00     0.142 C 
ATOM     30  H4  UNL     1       6.367   4.320  -2.588  1.00  0.00     0.162 HD
HETATM   31  C14 UNL     1       9.022   2.424  -2.178  1.00  0.00     0.142 C 
HETATM   32  N5  UNL     1       7.974   1.857  -1.369  1.00  0.00    -0.361 N 
ATOM     33  H5  UNL     1       8.015   0.973  -0.862  1.00  0.00     0.162 HD
ENDBRANCH  25  27
ENDBRANCH  21  25
ENDBRANCH  15  18
ENDBRANCH  10  14
BRANCH  11  34
HETATM   34  N7  UNL     1      -1.826  -0.682   0.662  1.00  0.00    -0.306 N 
HETATM   35  C18 UNL     1      -2.997  -0.090   1.175  1.00  0.00     0.326 C 
HETATM   36  O4  UNL     1      -3.860  -0.747   1.766  1.00  0.00    -0.247 OA
HETATM   37  N8  UNL     1      -3.221   1.293   1.025  1.00  0.00    -0.288 N 
ATOM     38  H8  UNL     1      -2.413   1.901   1.160  1.00  0.00     0.172 HD
ATOM     39  H7  UNL     1      -1.165  -0.060   0.198  1.00  0.00     0.170 HD
BRANCH  37  40
HETATM   40  C19 UNL     1      -4.340   1.877   0.734  1.00  0.00     0.153 A 
HETATM   41  N9  UNL     1      -5.544   1.363   0.501  1.00  0.00    -0.335 N 
HETATM   42  C20 UNL     1      -6.543   2.164   0.227  1.00  0.00     0.051 A 
ATOM     43  H9  UNL     1      -5.688   0.354   0.535  1.00  0.00     0.168 HD
HETATM   44  C21 UNL     1      -7.878   1.803  -0.045  1.00  0.00     0.031 A 
HETATM   45  C25 UNL     1      -6.295   3.506   0.193  1.00  0.00     0.035 A 
HETATM   46  C22 UNL     1      -8.842   2.712  -0.319  1.00  0.00     0.002 A 
HETATM   47  C23 UNL     1      -8.591   4.055  -0.352  1.00  0.00     0.002 A 
HETATM   48  C24 UNL     1      -7.298   4.448  -0.092  1.00  0.00     0.021 A 
HETATM   49  S1  UNL     1      -4.630   3.573   0.557  1.00  0.00    -0.052 SA
ENDBRANCH  37  40
ENDBRANCH  11  34
TORSDOF 6
