REMARK  10 active torsions:
REMARK  status: ('A' for Active; 'I' for Inactive)
REMARK    1  A    between atoms: S1_2  and  C2_3 
REMARK    2  A    between atoms: C5_6  and  C6_7 
REMARK    3  A    between atoms: C9_12  and  N2_13 
REMARK    4  A    between atoms: C13_22  and  O2_23 
REMARK    5  A    between atoms: C14_25  and  O3_26 
REMARK    6  A    between atoms: N4_30  and  N5_31 
REMARK    7  A    between atoms: N6_33  and  C17_35 
REMARK    8  A    between atoms: C17_35  and  N7_37 
REMARK    9  A    between atoms: N7_37  and  C18_39 
REMARK   10  A    between atoms: C25_46  and  N8_47 
ROOT
HETATM    1  C6  UNL     1      -1.404   0.880  -0.562  1.00  0.00     0.184 C 
HETATM    2  C7  UNL     1      -2.181   1.777   0.292  1.00  0.00     0.068 A 
HETATM    3  C8  UNL     1      -1.627   2.877   0.892  1.00  0.00     0.076 A 
HETATM    4  N1  UNL     1      -2.378   3.737   1.626  1.00  0.00    -0.190 N 
ATOM      5  H1  UNL     1      -1.937   4.548   2.059  1.00  0.00     0.184 HD
HETATM    6  C9  UNL     1      -3.692   3.533   1.789  1.00  0.00     0.679 A 
HETATM    7  N3  UNL     1      -4.251   2.464   1.214  1.00  0.00    -0.156 N 
ATOM      8  H3  UNL     1      -5.251   2.304   1.336  1.00  0.00     0.187 HD
HETATM    9  C10 UNL     1      -3.527   1.581   0.470  1.00  0.00     0.270 A 
HETATM   10  O1  UNL     1      -4.198   0.634   0.000  1.00  0.00    -0.267 OA
HETATM   11  C11 UNL     1      -0.170   3.079   0.794  1.00  0.00     0.023 A 
HETATM   12  C12 UNL     1       0.400   4.226   1.311  1.00  0.00     0.055 A 
HETATM   13  C13 UNL     1       1.757   4.482   1.161  1.00  0.00     0.099 A 
HETATM   14  C14 UNL     1       2.527   3.568   0.486  1.00  0.00     0.101 A 
HETATM   15  C15 UNL     1       1.955   2.425  -0.027  1.00  0.00     0.071 A 
HETATM   16  C16 UNL     1       0.604   2.156   0.116  1.00  0.00     0.068 A 
HETATM   17  N4  UNL     1       0.032   0.947  -0.360  1.00  0.00    -0.263 N 
ENDROOT
BRANCH  17  18
HETATM   18  N5  UNL     1       0.804  -0.132  -0.634  1.00  0.00    -0.237 N 
HETATM   19  N6  UNL     1       1.633  -0.812  -0.107  1.00  0.00    -0.261 N 
ATOM     20  H6  UNL     1       1.930  -1.543  -0.753  1.00  0.00     0.191 HD
ATOM     21  H5  UNL     1       0.622  -0.466  -1.580  1.00  0.00     0.208 HD
BRANCH  19  22
HETATM   22  C17 UNL     1       2.316  -0.942   1.065  1.00  0.00     0.192 C 
HETATM   23  S2  UNL     1       1.579  -0.518   2.502  1.00  0.00    -0.039 SA
BRANCH  22  24
HETATM   24  N7  UNL     1       3.629  -1.424   1.187  1.00  0.00    -0.332 N 
ATOM     25  H7  UNL     1       4.030  -1.483   2.123  1.00  0.00     0.168 HD
BRANCH  24  26
HETATM   26  C18 UNL     1       4.429  -1.831   0.102  1.00  0.00     0.034 A 
HETATM   27  C19 UNL     1       4.329  -1.396  -1.178  1.00  0.00     0.029 A 
HETATM   28  C20 UNL     1       5.162  -1.891  -2.198  1.00  0.00     0.002 A 
HETATM   29  C21 UNL     1       6.114  -2.840  -1.923  1.00  0.00     0.000 A 
HETATM   30  C22 UNL     1       6.235  -3.296  -0.629  1.00  0.00     0.002 A 
HETATM   31  C23 UNL     1       5.414  -2.802   0.351  1.00  0.00     0.029 A 
ENDBRANCH  24  26
ENDBRANCH  22  24
ENDBRANCH  19  22
ENDBRANCH  17  18
BRANCH   1  32
HETATM   32  C5  UNL     1      -1.880  -0.523  -0.604  1.00  0.00    -0.026 A 
HETATM   33  C4  UNL     1      -1.749  -1.392   0.461  1.00  0.00     0.011 A 
HETATM   34  C3  UNL     1      -2.170  -2.714   0.380  1.00  0.00     0.021 A 
HETATM   35  C2  UNL     1      -2.732  -3.199  -0.761  1.00  0.00     0.033 A 
HETATM   36  C25 UNL     1      -2.886  -2.357  -1.863  1.00  0.00     0.120 A 
HETATM   37  C24 UNL     1      -2.458  -1.062  -1.744  1.00  0.00     0.047 A 
BRANCH  35  38
HETATM   38  S1  UNL     1      -3.269  -4.900  -0.850  1.00  0.00    -0.132 SA
HETATM   39  C1  UNL     1      -5.015  -4.947  -0.295  1.00  0.00     0.095 C 
ENDBRANCH  35  38
BRANCH  36  40
HETATM   40  N8  UNL     1      -3.470  -2.867  -3.045  1.00  0.00    -0.114 N 
HETATM   41  O4  UNL     1      -3.297  -4.065  -3.327  1.00  0.00    -0.532 OA
HETATM   42  O5  UNL     1      -4.219  -2.097  -3.893  1.00  0.00    -0.532 OA
ENDBRANCH  36  40
ENDBRANCH   1  32
BRANCH  14  43
HETATM   43  O3  UNL     1       3.880   3.848   0.348  1.00  0.00    -0.358 OA
ATOM     44  H3  UNL     1       4.413   3.215  -0.119  1.00  0.00     0.217 HD
ENDBRANCH  14  43
BRANCH  13  45
HETATM   45  O2  UNL     1       2.339   5.652   1.688  1.00  0.00    -0.358 OA
ATOM     46  H2  UNL     1       3.267   5.827   1.585  1.00  0.00     0.217 HD
ENDBRANCH  13  45
BRANCH   6  47
HETATM   47  N2  UNL     1      -4.397   4.376   2.501  1.00  0.00    -0.234 N 
ATOM     48  H22 UNL     1      -3.970   5.192   2.940  1.00  0.00     0.174 HD
ATOM     49  H21 UNL     1      -5.397   4.221   2.625  1.00  0.00     0.174 HD
ENDBRANCH   6  47
TORSDOF 10
