REMARK  1 active torsions:
REMARK  status: ('A' for Active; 'I' for Inactive)
REMARK    1  A    between atoms: N2_21  and  O3_22 
ROOT
HETATM    1  O1  UNL     1      -1.297  -2.297   1.969  1.00  0.00    -0.270 OA
HETATM    2  C1  UNL     1      -1.930  -2.238   0.893  1.00  0.00     0.252 C 
HETATM    3  C2  UNL     1      -1.616  -3.208  -0.166  1.00  0.00     0.179 C 
HETATM    4  S1  UNL     1       0.104  -3.399  -0.529  1.00  0.00    -0.160 SA
HETATM    5  C3  UNL     1       1.142  -2.023  -0.064  1.00  0.00     0.074 C 
HETATM    6  C4  UNL     1       2.113  -1.740  -1.187  1.00  0.00     0.014 C 
HETATM    7  C5  UNL     1       3.456  -1.297  -0.693  1.00  0.00     0.054 C 
HETATM    8  C6  UNL     1       3.505   0.119  -0.228  1.00  0.00     0.163 A 
HETATM    9  N1  UNL     1       4.025   0.455   1.071  1.00  0.00    -0.332 N 
ATOM     10  H1  UNL     1       3.902   0.484   2.083  1.00  0.00     0.164 HD
HETATM   11  C7  UNL     1       4.849   0.723  -0.093  1.00  0.00     0.258 A 
HETATM   12  O2  UNL     1       5.956   1.180  -0.463  1.00  0.00    -0.270 OA
HETATM   13  S2  UNL     1       2.262   1.170  -1.003  1.00  0.00    -0.127 SA
HETATM   14  C8  UNL     1       2.223   2.750  -0.114  1.00  0.00     0.087 C 
HETATM   15  C9  UNL     1       1.013   2.828   0.809  1.00  0.00     0.084 C 
HETATM   16  S3  UNL     1      -0.458   3.153  -0.155  1.00  0.00    -0.168 SA
HETATM   17  C10 UNL     1      -1.890   2.198   0.381  1.00  0.00     0.074 C 
HETATM   18  C11 UNL     1      -2.716   1.760  -0.831  1.00  0.00     0.012 C 
HETATM   19  C12 UNL     1      -3.764   0.769  -0.381  1.00  0.00     0.023 C 
HETATM   20  C13 UNL     1      -3.257  -0.655  -0.535  1.00  0.00     0.159 C 
HETATM   21  N2  UNL     1      -2.919  -1.236   0.753  1.00  0.00    -0.228 N 
ENDROOT
BRANCH  21  22
HETATM   22  O3  UNL     1      -3.617  -0.755   1.831  1.00  0.00    -0.285 OA
ATOM     23  H3  UNL     1      -4.281  -0.082   1.737  1.00  0.00     0.245 HD
ENDBRANCH  21  22
TORSDOF 1
