REMARK  6 active torsions:
REMARK  status: ('A' for Active; 'I' for Inactive)
REMARK       I    between atoms: N2_7  and  C4_9 
REMARK    1  A    between atoms: C4_9  and  O3_11 
REMARK    2  A    between atoms: O3_11  and  C5_12 
REMARK    3  A    between atoms: C9_16  and  C10_17 
REMARK    4  A    between atoms: C11_18  and  C12_19 
REMARK    5  A    between atoms: C14_22  and  N3_23 
REMARK    6  A    between atoms: N4_26  and  C15_27 
ROOT
HETATM    1  C1  UNL     1       2.239  -3.582  -0.035  1.00  0.00     0.081 C 
HETATM    2  C2  UNL     1       0.967  -2.835   0.163  1.00  0.00     0.095 A 
HETATM    3  O1  UNL     1      -0.228  -3.366   0.333  1.00  0.00    -0.239 OA
HETATM    4  N1  UNL     1      -1.122  -2.421   0.478  1.00  0.00    -0.243 N 
ATOM      5  H1  UNL     1      -2.121  -2.563   0.624  1.00  0.00     0.196 HD
HETATM    6  C3  UNL     1      -0.493  -1.218   0.401  1.00  0.00     0.151 A 
HETATM    7  N2  UNL     1      -1.003  -0.036   0.492  1.00  0.00    -0.286 N 
ATOM      8  H2  UNL     1      -0.414   0.793   0.415  1.00  0.00     0.172 HD
HETATM    9  C4  UNL     1      -2.395   0.084   0.700  1.00  0.00     0.367 C 
HETATM   10  O2  UNL     1      -2.948  -0.394   1.708  1.00  0.00    -0.238 OA
HETATM   11  C9  UNL     1       0.861  -1.454   0.197  1.00  0.00     0.095 A 
ENDROOT
BRANCH  11  12
HETATM   12  C10 UNL     1       1.902  -0.476   0.056  1.00  0.00    -0.053 C 
HETATM   13  C11 UNL     1       2.772   0.370  -0.066  1.00  0.00    -0.042 C 
BRANCH  13  14
HETATM   14  C12 UNL     1       3.807   1.410  -0.222  1.00  0.00     0.099 A 
HETATM   15  C13 UNL     1       3.443   2.729  -0.125  1.00  0.00     0.092 A 
HETATM   16  S1  UNL     1       4.928   3.534  -0.365  1.00  0.00    -0.063 SA
HETATM   17  C14 UNL     1       5.920   2.165  -0.574  1.00  0.00     0.146 A 
HETATM   18  N4  UNL     1       5.069   1.147  -0.450  1.00  0.00    -0.306 N 
BRANCH  17  19
HETATM   19  N3  UNL     1       7.220   2.107  -0.802  1.00  0.00    -0.379 N 
ATOM     20  H32 UNL     1       7.871   2.886  -0.897  1.00  0.00     0.158 HD
ATOM     21  H31 UNL     1       7.814   1.287  -0.927  1.00  0.00     0.158 HD
ENDBRANCH  17  19
BRANCH  18  22
HETATM   22  C15 UNL     1       5.588  -0.241  -0.571  1.00  0.00     0.246 C 
HETATM   23 CL1  UNL     1       6.116  -0.890   0.971  1.00  0.00    -0.108 Cl
ENDBRANCH  18  22
ENDBRANCH  13  14
ENDBRANCH  11  12
BRANCH   9  24
HETATM   24  O3  UNL     1      -3.157   0.747  -0.238  1.00  0.00    -0.294 OA
BRANCH  24  25
HETATM   25  C5  UNL     1      -4.540   0.933  -0.151  1.00  0.00     0.061 C 
HETATM   26  C6  UNL     1      -4.907   1.703   1.084  1.00  0.00     0.046 C 
HETATM   27  C7  UNL     1      -4.965   1.738  -1.378  1.00  0.00     0.046 C 
HETATM   28  C8  UNL     1      -5.258  -0.398  -0.232  1.00  0.00     0.046 C 
ENDBRANCH  24  25
ENDBRANCH   9  24
TORSDOF 6
