REMARK  0 active torsions:
REMARK  status: ('A' for Active; 'I' for Inactive)
ROOT
HETATM    1  N1  UNL     1       4.883   0.210  -0.214  1.00  0.00    -0.379 N 
ATOM      2  H11 UNL     1       5.734  -0.281   0.060  1.00  0.00     0.158 HD
ATOM      3  H12 UNL     1       5.042   1.150  -0.577  1.00  0.00     0.158 HD
HETATM    4  C1  UNL     1       3.705  -0.296  -0.115  1.00  0.00     0.145 C 
HETATM    5  N2  UNL     1       2.520   0.387  -0.497  1.00  0.00    -0.362 N 
ATOM      6  H2  UNL     1       2.546   0.911  -1.372  1.00  0.00     0.162 HD
HETATM    7  C2  UNL     1       1.296   0.404   0.236  1.00  0.00     0.137 C 
HETATM    8  C3  UNL     1       0.447   1.527  -0.387  1.00  0.00     0.082 C 
HETATM    9  C4  UNL     1      -0.906   1.661   0.215  1.00  0.00     0.157 C 
HETATM   10 BR1  UNL     1      -1.124   3.138   1.431  1.00  0.00    -0.051 Br
HETATM   11  O1  UNL     1      -1.996   1.499  -0.682  1.00  0.00    -0.357 OA
HETATM   12  C5  UNL     1      -2.634   0.600   0.216  1.00  0.00     0.166 C 
HETATM   13  C6  UNL     1      -3.065  -0.718  -0.433  1.00  0.00     0.036 C 
HETATM   14  C7  UNL     1      -1.850  -1.658  -0.275  1.00  0.00     0.014 C 
HETATM   15  C8  UNL     1      -0.768  -0.667  -0.362  1.00  0.00     0.081 C 
HETATM   16  C9  UNL     1       0.522  -0.888   0.307  1.00  0.00     0.181 C 
HETATM   17  O2  UNL     1       0.100  -1.023   1.658  1.00  0.00    -0.214 OA
HETATM   18  O3  UNL     1      -0.920  -0.208   1.820  1.00  0.00    -0.221 OA
HETATM   19  C10 UNL     1      -1.305   0.331   0.696  1.00  0.00     0.171 C 
HETATM   20  S1  UNL     1       1.423  -2.353  -0.195  1.00  0.00    -0.045 SA
HETATM   21  S2  UNL     1       3.422  -1.967   0.530  1.00  0.00    -0.019 SA
ENDROOT
TORSDOF 0
