REMARK  0 active torsions:
REMARK  status: ('A' for Active; 'I' for Inactive)
ROOT
HETATM    1  F1  UNL     1      -5.262  -1.653   3.467  1.00  0.00    -0.206 F 
HETATM    2  C1  UNL     1      -4.823  -1.087   2.341  1.00  0.00     0.119 A 
HETATM    3  C2  UNL     1      -5.682  -0.383   1.532  1.00  0.00     0.045 A 
HETATM    4  C3  UNL     1      -5.236   0.208   0.364  1.00  0.00     0.042 A 
HETATM    5  C4  UNL     1      -3.918   0.127  -0.053  1.00  0.00     0.102 A 
HETATM    6  C5  UNL     1      -3.035  -0.582   0.752  1.00  0.00     0.104 A 
HETATM    7  C6  UNL     1      -3.513  -1.155   1.905  1.00  0.00     0.081 A 
HETATM    8  O1  UNL     1      -1.687  -0.710   0.389  1.00  0.00    -0.348 OA
HETATM    9  C7  UNL     1      -1.270  -1.266  -0.870  1.00  0.00     0.176 C 
HETATM   10  C8  UNL     1      -0.840  -2.700  -0.549  1.00  0.00     0.029 C 
HETATM   11  C9  UNL     1       0.228  -3.191  -1.474  1.00  0.00     0.028 C 
HETATM   12  C10 UNL     1       1.558  -3.323  -0.731  1.00  0.00     0.167 C 
HETATM   13  O2  UNL     1       1.897  -2.143  -0.104  1.00  0.00    -0.389 OA
HETATM   14  C11 UNL     1       2.729  -2.369   0.970  1.00  0.00     0.195 C 
HETATM   15  C12 UNL     1       4.175  -2.036   0.594  1.00  0.00     0.258 C 
HETATM   16  N1  UNL     1       4.115  -1.110  -0.531  1.00  0.00    -0.073 N 
ATOM     17  H11 UNL     1       3.465  -1.422  -1.253  1.00  0.00     0.277 HD
ATOM     18  H12 UNL     1       4.969  -1.124  -1.088  1.00  0.00     0.277 HD
HETATM   19  C13 UNL     1       3.801   0.210  -0.049  1.00  0.00     0.234 C 
HETATM   20  C14 UNL     1       2.991   0.961  -1.072  1.00  0.00     0.055 C 
HETATM   21  C15 UNL     1       2.795   2.375  -0.517  1.00  0.00     0.234 C 
HETATM   22  N2  UNL     1       1.766   2.359   0.506  1.00  0.00    -0.073 N 
ATOM     23  H21 UNL     1       2.107   2.011   1.402  1.00  0.00     0.277 HD
ATOM     24  H22 UNL     1       1.058   1.644   0.342  1.00  0.00     0.277 HD
HETATM   25  C16 UNL     1       1.205   3.691   0.599  1.00  0.00     0.258 C 
HETATM   26  C17 UNL     1      -0.223   3.763   0.149  1.00  0.00     0.195 C 
HETATM   27  O3  UNL     1      -0.703   2.494  -0.089  1.00  0.00    -0.387 OA
HETATM   28  C18 UNL     1      -2.108   2.478  -0.189  1.00  0.00     0.194 C 
HETATM   29  C19 UNL     1      -2.578   1.764  -1.407  1.00  0.00     0.201 C 
HETATM   30  O4  UNL     1      -3.475   0.717  -1.213  1.00  0.00    -0.346 OA
ENDROOT
TORSDOF 0
