REMARK  1 active torsions:
REMARK  status: ('A' for Active; 'I' for Inactive)
REMARK    1  A    between atoms: N1_6  and  O1_7 
ROOT
HETATM    1  C1  UNL     1       4.892   0.352   0.510  1.00  0.00     0.073 C 
HETATM    2  C2  UNL     1       3.948  -0.813   0.271  1.00  0.00     0.063 A 
HETATM    3  C3  UNL     1       2.786  -0.733  -0.388  1.00  0.00     0.051 A 
HETATM    4  C4  UNL     1       2.056  -1.883  -0.512  1.00  0.00     0.079 A 
HETATM    5  S1  UNL     1       3.046  -3.016   0.306  1.00  0.00     0.025 SA
HETATM    6  N1  UNL     1       4.308  -2.006   0.757  1.00  0.00    -0.195 N 
HETATM    7  S2  UNL     1       0.475  -2.007  -1.352  1.00  0.00    -0.120 SA
HETATM    8  C5  UNL     1      -0.592  -3.243  -0.573  1.00  0.00     0.082 C 
HETATM    9  C6  UNL     1      -1.434  -2.550   0.466  1.00  0.00     0.038 C 
HETATM   10  C7  UNL     1      -2.740  -2.086  -0.179  1.00  0.00     0.233 C 
HETATM   11  N2  UNL     1      -3.475  -1.261   0.756  1.00  0.00    -0.074 N 
ATOM     12  H21 UNL     1      -2.930  -1.077   1.598  1.00  0.00     0.277 HD
ATOM     13  H22 UNL     1      -4.249  -1.775   1.177  1.00  0.00     0.277 HD
HETATM   14  C8  UNL     1      -3.926  -0.039   0.144  1.00  0.00     0.251 C 
HETATM   15  C9  UNL     1      -3.151   1.168   0.597  1.00  0.00     0.150 C 
HETATM   16  N3  UNL     1      -2.775   1.912  -0.591  1.00  0.00    -0.359 N 
ATOM     17  H3  UNL     1      -3.506   2.155  -1.260  1.00  0.00     0.162 HD
HETATM   18  C10 UNL     1      -1.448   2.319  -0.871  1.00  0.00     0.217 C 
HETATM   19  O2  UNL     1      -1.039   2.356  -2.061  1.00  0.00    -0.274 OA
HETATM   20  C11 UNL     1      -0.519   2.707   0.238  1.00  0.00     0.103 C 
HETATM   21  C12 UNL     1       0.830   3.048  -0.303  1.00  0.00     0.020 C 
HETATM   22  C13 UNL     1       1.895   2.060   0.059  1.00  0.00     0.080 C 
HETATM   23  S3  UNL     1       2.017   0.724  -1.162  1.00  0.00    -0.126 SA
ENDROOT
BRANCH   6  24
HETATM   24  O1  UNL     1       5.420  -2.401   1.464  1.00  0.00    -0.276 OA
ATOM     25  H1  UNL     1       5.676  -3.248   1.809  1.00  0.00     0.246 HD
ENDBRANCH   6  24
TORSDOF 1
