REMARK  1 active torsions:
REMARK  status: ('A' for Active; 'I' for Inactive)
REMARK    1  A    between atoms: N1_2  and  C2_4 
ROOT
HETATM    1  C2  UNL     1       4.782   0.450   0.050  1.00  0.00     0.163 A 
HETATM    2  N2  UNL     1       3.699  -0.197  -0.304  1.00  0.00    -0.320 N 
ATOM      3  H2  UNL     1       3.771  -1.005  -0.923  1.00  0.00     0.169 HD
HETATM    4  C3  UNL     1       2.525   0.186   0.131  1.00  0.00     0.146 A 
HETATM    5  C4  UNL     1       1.258  -0.384  -0.140  1.00  0.00     0.015 A 
HETATM    6  C5  UNL     1       0.115   0.149   0.407  1.00  0.00     0.055 A 
HETATM    7  N3  UNL     1       0.158   1.220   1.210  1.00  0.00    -0.193 N 
ATOM      8  H3  UNL     1      -0.696   1.608   1.610  1.00  0.00     0.184 HD
HETATM    9  C6  UNL     1       1.355   1.770   1.475  1.00  0.00     0.690 A 
HETATM   10  N4  UNL     1       1.473   2.789   2.229  1.00  0.00    -0.233 N 
ATOM     11  H41 UNL     1       2.382   3.207   2.430  1.00  0.00     0.174 HD
ATOM     12  H42 UNL     1       0.617   3.174   2.628  1.00  0.00     0.174 HD
HETATM   13  N5  UNL     1       2.504   1.254   0.940  1.00  0.00    -0.097 N 
HETATM   14  S1  UNL     1       4.137   1.671   1.053  1.00  0.00     0.048 SA
HETATM   15  C7  UNL     1      -1.147  -0.544   0.048  1.00  0.00     0.055 C 
HETATM   16  C8  UNL     1      -2.337  -0.135   0.774  1.00  0.00     0.036 C 
HETATM   17  C9  UNL     1      -3.308   0.666   0.015  1.00  0.00    -0.037 C 
HETATM   18  C10 UNL     1      -3.724   1.900   0.842  1.00  0.00     0.015 C 
HETATM   19  C11 UNL     1      -4.649  -0.058  -0.206  1.00  0.00     0.015 C 
HETATM   20  C12 UNL     1      -2.764   1.203  -1.260  1.00  0.00     0.083 C 
HETATM   21  S2  UNL     1      -1.492  -0.019  -1.680  1.00  0.00    -0.152 SA
HETATM   22  C13 UNL     1      -0.928  -2.016   0.134  1.00  0.00     0.070 C 
HETATM   23  C14 UNL     1       0.160  -2.541  -0.749  1.00  0.00     0.105 C 
HETATM   24  C15 UNL     1      -0.442  -3.105  -2.029  1.00  0.00     0.052 C 
HETATM   25  F1  UNL     1       0.721  -3.626  -0.096  1.00  0.00    -0.243 F 
HETATM   26  C16 UNL     1       1.241  -1.568  -1.042  1.00  0.00     0.087 C 
ENDROOT
BRANCH   1  27
HETATM   27  N1  UNL     1       6.030   0.212  -0.286  1.00  0.00    -0.374 N 
HETATM   28  C1  UNL     1       7.011   1.117   0.276  1.00  0.00     0.148 C 
ATOM     29  H1  UNL     1       6.290  -0.559  -0.901  1.00  0.00     0.161 HD
ENDBRANCH   1  27
TORSDOF 1
