REMARK  7 active torsions:
REMARK  status: ('A' for Active; 'I' for Inactive)
REMARK    1  A    between atoms: C1_2  and  C2_3 
REMARK    2  A    between atoms: C2_3  and  O1_4 
REMARK    3  A    between atoms: C2_3  and  N2_6 
REMARK    4  A    between atoms: N2_6  and  C3_8 
REMARK    5  A    between atoms: C6_13  and  C7_14 
REMARK       I    between atoms: C7_14  and  N5_16 
REMARK    6  A    between atoms: N5_16  and  N6_17 
REMARK    7  A    between atoms: N7_22  and  N8_23 
ROOT
HETATM    1  C3  UNL     1      -0.405  -0.997  -0.262  1.00  0.00     0.158 A 
HETATM    2  C4  UNL     1       0.104  -1.262   1.039  1.00  0.00     0.117 A 
HETATM    3  N3  UNL     1      -0.370  -2.447   1.677  1.00  0.00    -0.096 NA
HETATM    4  C5  UNL     1       0.991  -0.423   1.652  1.00  0.00     0.097 A 
HETATM    5  N4  UNL     1       1.501  -0.707   2.953  1.00  0.00    -0.099 NA
HETATM    6  C6  UNL     1       1.428   0.721   1.026  1.00  0.00     0.144 A 
HETATM    7  C8  UNL     1       0.943   0.972  -0.219  1.00  0.00     0.286 A 
HETATM    8  O3  UNL     1       1.289   1.991  -0.861  1.00  0.00    -0.265 OA
HETATM    9  N7  UNL     1       0.050   0.111  -0.818  1.00  0.00    -0.207 N 
ENDROOT
BRANCH   1  10
HETATM   10  N2  UNL     1      -1.215  -1.978  -0.873  1.00  0.00    -0.319 N 
ATOM     11  H2  UNL     1      -0.907  -2.909  -0.592  1.00  0.00     0.169 HD
BRANCH  10  12
HETATM   12  C2  UNL     1      -2.257  -2.073  -1.702  1.00  0.00     0.155 C 
BRANCH  12  13
HETATM   13  C1  UNL     1      -3.317  -1.187  -2.130  1.00  0.00     0.155 C 
HETATM   14  N1  UNL     1      -3.509   0.089  -1.565  1.00  0.00    -0.111 NA
ENDBRANCH  12  13
BRANCH  12  15
HETATM   15  O1  UNL     1      -2.395  -3.268  -2.290  1.00  0.00    -0.345 OA
ATOM     16  H1  UNL     1      -1.699  -3.850  -2.009  1.00  0.00     0.219 HD
ENDBRANCH  12  15
ENDBRANCH  10  12
ENDBRANCH   1  10
BRANCH   9  17
HETATM   17  N8  UNL     1      -0.272   0.392  -2.174  1.00  0.00    -0.334 N 
ATOM     18  H82 UNL     1      -0.933  -0.246  -2.618  1.00  0.00     0.177 HD
ATOM     19  H81 UNL     1       0.079   1.248  -2.603  1.00  0.00     0.177 HD
ENDBRANCH   9  17
BRANCH   6  20
HETATM   20  C7  UNL     1       2.388   1.647   1.701  1.00  0.00     0.352 C 
HETATM   21  O2  UNL     1       2.715   1.252   2.877  1.00  0.00    -0.249 OA
HETATM   22  N5  UNL     1       2.816   2.747   1.069  1.00  0.00    -0.288 NA
BRANCH  22  23
HETATM   23  N6  UNL     1       3.243   3.842   0.439  1.00  0.00    -0.276 N 
ATOM     24  H62 UNL     1       2.945   2.982   0.900  1.00  0.00     0.191 HD
ATOM     25  H61 UNL     1       3.569   4.680  -0.042  1.00  0.00     0.191 HD
ENDBRANCH  22  23
ENDBRANCH   6  20
TORSDOF 7
