REMARK  8 active torsions:
REMARK  status: ('A' for Active; 'I' for Inactive)
REMARK    1  A    between atoms: C2_2  and  O2_4 
REMARK    2  A    between atoms: O2_4  and  N1_5 
REMARK    3  A    between atoms: N1_5  and  N2_7 
REMARK    4  A    between atoms: C3_8  and  C4_9 
REMARK    5  A    between atoms: C6_16  and  N6_17 
REMARK    6  A    between atoms: C7_20  and  N7_21 
REMARK    7  A    between atoms: N7_21  and  N8_23 
REMARK    8  A    between atoms: N8_23  and  N9_25 
ROOT
HETATM    1  N2  UNL     1       0.419  -0.476   0.178  1.00  0.00    -0.207 N 
HETATM    2  C3  UNL     1       1.608  -1.113   0.194  1.00  0.00     0.166 A 
HETATM    3  C5  UNL     1       2.742  -0.367  -0.190  1.00  0.00     0.152 A 
HETATM    4  N4  UNL     1       4.027  -0.970  -0.199  1.00  0.00    -0.080 NA
HETATM    5  N5  UNL     1       2.627   0.919  -0.553  1.00  0.00    -0.326 N 
ATOM      6  H5  UNL     1       3.463   1.436  -0.827  1.00  0.00     0.168 HD
HETATM    7  C6  UNL     1       1.435   1.544  -0.565  1.00  0.00     0.148 A 
HETATM    8  C7  UNL     1       0.316   0.837  -0.194  1.00  0.00     0.189 A 
ENDROOT
BRANCH   8   9
HETATM    9  N7  UNL     1      -0.842   1.370  -0.184  1.00  0.00    -0.267 N 
ATOM     10  H7  UNL     1      -1.622   0.779   0.103  1.00  0.00     0.190 HD
BRANCH   9  11
HETATM   11  N8  UNL     1      -1.138   2.686  -0.529  1.00  0.00    -0.248 N 
ATOM     12  H8  UNL     1      -1.169   2.908  -1.524  1.00  0.00     0.207 HD
BRANCH  11  13
HETATM   13  N9  UNL     1      -1.390   3.705   0.339  1.00  0.00    -0.331 N 
ATOM     14  H92 UNL     1      -1.355   3.465   1.330  1.00  0.00     0.178 HD
ATOM     15  H91 UNL     1      -1.607   4.669   0.086  1.00  0.00     0.178 HD
ENDBRANCH  11  13
ENDBRANCH   9  11
ENDBRANCH   8   9
BRANCH   1  16
HETATM   16  N1  UNL     1      -0.748  -1.092   0.525  1.00  0.00    -0.189 N 
ATOM     17  H1  UNL     1      -0.728  -2.075   0.797  1.00  0.00     0.217 HD
BRANCH  16  18
HETATM   18  O2  UNL     1      -1.974  -0.413   0.518  1.00  0.00    -0.184 OA
BRANCH  18  19
HETATM   19  C2  UNL     1      -3.054  -1.013  -0.076  1.00  0.00     0.279 C 
HETATM   20  C1  UNL     1      -4.406  -0.369  -0.134  1.00  0.00     0.128 C 
HETATM   21  O1  UNL     1      -2.913  -2.149  -0.594  1.00  0.00    -0.264 OA
ENDBRANCH  18  19
ENDBRANCH  16  18
ENDBRANCH   1  16
BRANCH   7  22
HETATM   22  N6  UNL     1       1.333   2.782  -0.915  1.00  0.00    -0.382 N 
ATOM     23  H62 UNL     1       2.163   3.307  -1.190  1.00  0.00     0.157 HD
ATOM     24  H61 UNL     1       0.430   3.256  -0.924  1.00  0.00     0.157 HD
ENDBRANCH   7  22
BRANCH   2  25
HETATM   25  C4  UNL     1       1.842  -2.474   0.564  1.00  0.00     0.287 C 
HETATM   26  N3  UNL     1       0.877  -3.416   0.984  1.00  0.00    -0.056 NA
HETATM   27  O3  UNL     1       3.056  -2.888   0.510  1.00  0.00    -0.269 OA
ENDBRANCH   2  25
TORSDOF 8
