REMARK  6 active torsions:
REMARK  status: ('A' for Active; 'I' for Inactive)
REMARK    1  A    between atoms: C7_8  and  N1_9 
REMARK       I    between atoms: N1_9  and  C8_11 
REMARK    2  A    between atoms: C8_11  and  C9_13 
REMARK    3  A    between atoms: C9_13  and  N2_14 
REMARK    4  A    between atoms: C12_17  and  C13_18 
REMARK    5  A    between atoms: C13_18  and  C14_19 
REMARK    6  A    between atoms: C16_23  and  C17_24 
ROOT
HETATM    1  C1  UNL     1       6.323  -0.678  -0.959  1.00  0.00     0.015 C 
HETATM    2  C2  UNL     1       6.174   0.333   0.123  1.00  0.00    -0.043 C 
HETATM    3  C3  UNL     1       7.381   1.288   0.064  1.00  0.00     0.015 C 
HETATM    4  C4  UNL     1       6.230  -0.255   1.527  1.00  0.00     0.014 C 
HETATM    5  C5  UNL     1       5.199  -1.325   1.580  1.00  0.00     0.047 C 
HETATM    6  C6  UNL     1       3.899  -0.840   1.030  1.00  0.00    -0.007 A 
HETATM    7  S1  UNL     1       2.334  -1.500   1.101  1.00  0.00    -0.075 SA
HETATM    8  C7  UNL     1       1.500  -0.312   0.210  1.00  0.00     0.098 A 
HETATM    9  C18 UNL     1       2.470   0.582  -0.127  1.00  0.00     0.085 A 
HETATM   10  C19 UNL     1       2.101   1.771  -0.926  1.00  0.00     0.103 C 
HETATM   11  N3  UNL     1       1.791   2.707  -1.573  1.00  0.00    -0.191 NA
HETATM   12  C20 UNL     1       3.727   0.298   0.307  1.00  0.00    -0.021 A 
HETATM   13  C21 UNL     1       4.949   1.164   0.028  1.00  0.00     0.050 C 
ENDROOT
BRANCH   8  14
HETATM   14  N1  UNL     1       0.090  -0.286  -0.145  1.00  0.00    -0.319 N 
HETATM   15  C8  UNL     1      -0.744  -1.344   0.231  1.00  0.00     0.251 C 
HETATM   16  O1  UNL     1      -0.203  -2.304   0.892  1.00  0.00    -0.271 OA
ATOM     17  H1  UNL     1      -0.290   0.503  -0.668  1.00  0.00     0.169 HD
BRANCH  15  18
HETATM   18  C9  UNL     1      -2.163  -1.501  -0.043  1.00  0.00     0.375 C 
BRANCH  18  19
HETATM   19  N2  UNL     1      -2.839  -0.427  -0.745  1.00  0.00     0.110 N 
HETATM   20  C10 UNL     1      -4.092  -0.985  -1.271  1.00  0.00     0.274 C 
HETATM   21  C11 UNL     1      -4.868  -1.598  -0.169  1.00  0.00     0.035 C 
HETATM   22  C12 UNL     1      -5.091  -0.700   1.005  1.00  0.00    -0.001 C 
HETATM   23  C15 UNL     1      -4.296   0.530   1.040  1.00  0.00     0.050 C 
HETATM   24  C16 UNL     1      -3.128   0.692   0.125  1.00  0.00     0.330 C 
BRANCH  22  25
HETATM   25  C13 UNL     1      -6.563  -0.392   1.131  1.00  0.00     0.117 C 
BRANCH  25  26
HETATM   26  C14 UNL     1      -7.144   0.290  -0.038  1.00  0.00     0.172 C 
HETATM   27  O2  UNL     1      -7.434  -0.327  -1.087  1.00  0.00    -0.648 OA
HETATM   28  O3  UNL     1      -7.414   1.666  -0.066  1.00  0.00    -0.648 OA
ENDBRANCH  25  26
ENDBRANCH  22  25
BRANCH  24  29
HETATM   29  C17 UNL     1      -3.261   1.968  -0.663  1.00  0.00     0.418 C 
HETATM   30  F1  UNL     1      -3.543   3.004   0.269  1.00  0.00    -0.169 F 
HETATM   31  F2  UNL     1      -2.155   2.395  -1.318  1.00  0.00    -0.169 F 
HETATM   32  F3  UNL     1      -4.323   2.005  -1.531  1.00  0.00    -0.169 F 
ENDBRANCH  24  29
ENDBRANCH  18  19
ENDBRANCH  15  18
ENDBRANCH   8  14
TORSDOF 6
