REMARK  8 active torsions:
REMARK  status: ('A' for Active; 'I' for Inactive)
REMARK    1  A    between atoms: C2_2  and  C3_4 
REMARK    2  A    between atoms: C12_13  and  O1_14 
REMARK    3  A    between atoms: C13_16  and  O2_17 
REMARK    4  A    between atoms: O2_17  and  C14_18 
REMARK    5  A    between atoms: C17_22  and  C18_23 
REMARK    6  A    between atoms: C18_23  and  N1_24 
REMARK    7  A    between atoms: N1_24  and  C19_27 
REMARK    8  A    between atoms: C19_27  and  C20_28 
ROOT
HETATM    1  C3  UNL     1      -4.022   0.234   0.432  1.00  0.00     0.038 C 
HETATM    2  C4  UNL     1      -3.871   0.134   1.961  1.00  0.00     0.011 C 
HETATM    3  C5  UNL     1      -2.358   0.091   2.046  1.00  0.00     0.007 C 
HETATM    4  C6  UNL     1      -2.013  -0.872   0.919  1.00  0.00     0.003 C 
HETATM    5  C7  UNL     1      -3.192  -0.912  -0.009  1.00  0.00    -0.031 C 
HETATM    6  C8  UNL     1      -3.990  -2.189   0.153  1.00  0.00     0.016 C 
HETATM    7  C9  UNL     1      -2.775  -0.751  -1.446  1.00  0.00     0.011 C 
HETATM    8  C10 UNL     1      -1.868   0.398  -1.624  1.00  0.00     0.009 C 
HETATM    9  C11 UNL     1      -0.552   0.127  -0.921  1.00  0.00     0.026 C 
HETATM   10  C12 UNL     1       0.108   1.446  -0.787  1.00  0.00     0.156 C 
HETATM   11  C13 UNL     1       1.504   1.303  -0.211  1.00  0.00     0.190 C 
HETATM   12  C16 UNL     1       1.572   0.179   0.713  1.00  0.00    -0.050 C 
HETATM   13  C17 UNL     1       2.654  -0.521   0.970  1.00  0.00     0.006 C 
HETATM   14  C21 UNL     1       0.289  -0.223   1.398  1.00  0.00     0.046 C 
HETATM   15  C22 UNL     1      -0.691  -0.709   0.310  1.00  0.00    -0.030 C 
HETATM   16  C23 UNL     1      -0.146  -2.103  -0.026  1.00  0.00     0.016 C 
ENDROOT
BRANCH  11  17
HETATM   17  O2  UNL     1       1.917   2.537   0.349  1.00  0.00    -0.309 OA
BRANCH  17  18
HETATM   18  C14 UNL     1       2.862   3.353  -0.159  1.00  0.00     0.255 C 
HETATM   19  C15 UNL     1       3.229   4.628   0.517  1.00  0.00     0.126 C 
HETATM   20  O3  UNL     1       3.449   3.056  -1.208  1.00  0.00    -0.266 OA
ENDBRANCH  17  18
ENDBRANCH  11  17
BRANCH  13  21
HETATM   21  C18 UNL     1       3.995  -0.332   0.399  1.00  0.00     0.260 C 
BRANCH  21  22
HETATM   22  N1  UNL     1       4.356  -1.579  -0.270  1.00  0.00    -0.064 N 
ATOM     23  H12 UNL     1       4.286  -2.384   0.353  1.00  0.00     0.277 HD
ATOM     24  H11 UNL     1       3.657  -1.863  -0.957  1.00  0.00     0.277 HD
BRANCH  22  25
HETATM   25  C19 UNL     1       5.694  -1.453  -0.862  1.00  0.00     0.349 C 
BRANCH  25  26
HETATM   26  C20 UNL     1       5.985  -2.788  -1.531  1.00  0.00     0.411 C 
HETATM   27  F1  UNL     1       7.227  -2.798  -2.131  1.00  0.00    -0.169 F 
HETATM   28  F2  UNL     1       5.890  -3.744  -0.521  1.00  0.00    -0.169 F 
HETATM   29  F3  UNL     1       4.969  -3.024  -2.429  1.00  0.00    -0.169 F 
ENDBRANCH  25  26
ENDBRANCH  22  25
ENDBRANCH  21  22
ENDBRANCH  13  21
BRANCH  10  30
HETATM   30  O1  UNL     1      -0.617   2.467  -0.231  1.00  0.00    -0.392 OA
ATOM     31  H1  UNL     1      -0.194   3.313  -0.145  1.00  0.00     0.210 HD
ENDBRANCH  10  30
BRANCH   1  32
HETATM   32  C2  UNL     1      -5.410   0.281   0.018  1.00  0.00     0.007 C 
HETATM   33  C1  UNL     1      -5.840   1.298  -0.710  1.00  0.00     0.032 C 
HETATM   34 CL1  UNL     1      -6.630  -0.922   0.410  1.00  0.00    -0.089 Cl
ENDBRANCH   1  32
TORSDOF 8
