REMARK  7 active torsions:
REMARK  status: ('A' for Active; 'I' for Inactive)
REMARK    1  A    between atoms: C6_7  and  S2_8 
REMARK    2  A    between atoms: S2_8  and  N1_11 
REMARK       I    between atoms: N1_11  and  C7_13 
REMARK    3  A    between atoms: C7_13  and  C8_15 
REMARK    4  A    between atoms: C8_15  and  C11_18 
REMARK    5  A    between atoms: C14_21  and  C15_22 
REMARK    6  A    between atoms: C15_22  and  O4_24 
REMARK    7  A    between atoms: C15_22  and  C17_26 
ROOT
HETATM    1  C8  UNL     1       0.064   0.921  -0.104  1.00  0.00     0.061 C 
HETATM    2  C9  UNL     1      -0.329   1.423   1.270  1.00  0.00     0.030 C 
HETATM    3  C10 UNL     1       0.030   2.153  -1.045  1.00  0.00     0.030 C 
ENDROOT
BRANCH   1   4
HETATM    4  C7  UNL     1      -1.085   0.094  -0.582  1.00  0.00     0.243 C 
HETATM    5  N1  UNL     1      -2.313   0.795  -0.608  1.00  0.00    -0.249 N 
ATOM      6  H1  UNL     1      -2.267   1.768  -0.305  1.00  0.00     0.182 HD
HETATM    7  O3  UNL     1      -0.976  -1.059  -0.913  1.00  0.00    -0.271 OA
BRANCH   5   8
HETATM    8  S2  UNL     1      -3.850   0.251  -1.071  1.00  0.00     0.266 S 
HETATM    9  O1  UNL     1      -3.759  -1.079  -1.783  1.00  0.00    -0.200 OA
HETATM   10  O2  UNL     1      -4.549   1.196  -1.997  1.00  0.00    -0.200 OA
BRANCH   8  11
HETATM   11  C6  UNL     1      -4.883   0.105   0.384  1.00  0.00     0.099 A 
HETATM   12  C2  UNL     1      -5.153  -1.061   0.986  1.00  0.00    -0.031 A 
HETATM   13  C1  UNL     1      -4.681  -2.404   0.429  1.00  0.00     0.050 C 
HETATM   14  C3  UNL     1      -5.907  -1.034   2.130  1.00  0.00     0.058 A 
HETATM   15  S1  UNL     1      -6.221   0.623   2.340  1.00  0.00    -0.105 SA
HETATM   16  C4  UNL     1      -5.387   1.241   0.966  1.00  0.00     0.002 A 
HETATM   17  C5  UNL     1      -5.244   2.688   0.555  1.00  0.00     0.058 C 
ENDBRANCH   8  11
ENDBRANCH   5   8
ENDBRANCH   1   4
BRANCH   1  18
HETATM   18  C11 UNL     1       1.357   0.294  -0.001  1.00  0.00    -0.041 A 
HETATM   19  C12 UNL     1       2.484   1.075  -0.234  1.00  0.00     0.009 A 
HETATM   20  C13 UNL     1       3.773   0.576  -0.168  1.00  0.00     0.011 A 
HETATM   21  C14 UNL     1       4.015  -0.722   0.133  1.00  0.00    -0.016 A 
HETATM   22  C18 UNL     1       2.914  -1.524   0.369  1.00  0.00     0.011 A 
HETATM   23  C19 UNL     1       1.608  -1.023   0.302  1.00  0.00     0.009 A 
BRANCH  21  24
HETATM   24  C15 UNL     1       5.353  -1.330   0.243  1.00  0.00     0.179 C 
HETATM   25  C16 UNL     1       5.578  -2.200  -0.997  1.00  0.00     0.061 C 
BRANCH  24  26
HETATM   26  O4  UNL     1       5.463  -2.133   1.374  1.00  0.00    -0.376 OA
ATOM     27  H4  UNL     1       6.325  -2.525   1.445  1.00  0.00     0.211 HD
ENDBRANCH  24  26
BRANCH  24  28
HETATM   28  C17 UNL     1       6.485  -0.332   0.263  1.00  0.00     0.422 C 
HETATM   29  F1  UNL     1       6.388   0.539   1.322  1.00  0.00    -0.167 F 
HETATM   30  F2  UNL     1       7.636  -1.094   0.564  1.00  0.00    -0.167 F 
HETATM   31  F3  UNL     1       6.763   0.249  -0.941  1.00  0.00    -0.167 F 
ENDBRANCH  24  28
ENDBRANCH  21  24
ENDBRANCH   1  18
TORSDOF 7
