REMARK  7 active torsions:
REMARK  status: ('A' for Active; 'I' for Inactive)
REMARK    1  A    between atoms: C4_7  and  O1_8 
REMARK    2  A    between atoms: O1_8  and  C5_9 
REMARK       I    between atoms: C5_9  and  N2_11 
REMARK    3  A    between atoms: N2_11  and  C6_13 
REMARK    4  A    between atoms: C6_13  and  C9_16 
REMARK    5  A    between atoms: C9_16  and  C10_17 
REMARK       I    between atoms: C10_17  and  N3_19 
REMARK    6  A    between atoms: N5_25  and  C14_27 
REMARK    7  A    between atoms: C14_27  and  C16_29 
ROOT
HETATM    1  C1  UNL     1      -6.691  -3.858  -0.360  1.00  0.00     0.057 C 
HETATM    2  C2  UNL     1      -5.432  -3.054  -0.542  1.00  0.00    -0.012 A 
HETATM    3  S1  UNL     1      -3.949  -3.555  -1.193  1.00  0.00    -0.076 SA
HETATM    4  C3  UNL     1      -3.079  -2.094  -1.047  1.00  0.00     0.092 A 
HETATM    5  N1  UNL     1      -1.795  -1.746  -1.376  1.00  0.00    -0.315 N 
ATOM      6  H1  UNL     1      -1.170  -2.435  -1.794  1.00  0.00     0.170 HD
HETATM    7  C4  UNL     1      -1.359  -0.491  -1.146  1.00  0.00     0.235 A 
HETATM    8  N4  UNL     1      -2.217   0.353  -0.603  1.00  0.00    -0.307 N 
ATOM      9  H4  UNL     1      -1.887   1.302  -0.429  1.00  0.00     0.171 HD
HETATM   10  C13 UNL     1      -3.489   0.074  -0.258  1.00  0.00     0.118 A 
HETATM   11  N5  UNL     1      -4.247   0.941   0.259  1.00  0.00    -0.362 N 
ATOM     12  H5  UNL     1      -5.189   0.620   0.481  1.00  0.00     0.161 HD
HETATM   13  C17 UNL     1      -3.982  -1.232  -0.484  1.00  0.00     0.049 A 
HETATM   14  C18 UNL     1      -5.213  -1.743  -0.222  1.00  0.00    -0.032 A 
HETATM   15  C19 UNL     1      -6.341  -0.932   0.402  1.00  0.00     0.050 C 
ENDROOT
BRANCH   7  16
HETATM   16  O1  UNL     1      -0.053  -0.165  -1.489  1.00  0.00    -0.228 OA
BRANCH  16  17
HETATM   17  C5  UNL     1       1.000  -0.300  -0.615  1.00  0.00     0.368 C 
HETATM   18  O2  UNL     1       0.740  -0.741   0.537  1.00  0.00    -0.238 OA
HETATM   19  N2  UNL     1       2.345   0.028  -0.945  1.00  0.00    -0.328 N 
ATOM     20  H2  UNL     1       2.563   0.385  -1.875  1.00  0.00     0.165 HD
BRANCH  19  21
HETATM   21  C6  UNL     1       3.401  -0.138   0.017  1.00  0.00     0.036 C 
HETATM   22  C7  UNL     1       3.104   0.713   1.217  1.00  0.00     0.038 C 
HETATM   23  C8  UNL     1       3.426  -1.598   0.398  1.00  0.00     0.038 C 
BRANCH  21  24
HETATM   24  C9  UNL     1       4.736   0.295  -0.555  1.00  0.00     0.133 C 
BRANCH  24  25
HETATM   25  C10 UNL     1       5.796   0.113   0.453  1.00  0.00     0.221 C 
HETATM   26  O3  UNL     1       5.530  -0.341   1.578  1.00  0.00    -0.273 OA
HETATM   27  N3  UNL     1       7.127   0.459   0.129  1.00  0.00    -0.361 N 
HETATM   28  C11 UNL     1       7.466   0.998  -1.197  1.00  0.00     0.152 C 
HETATM   29  C12 UNL     1       8.167   0.290   1.095  1.00  0.00     0.152 C 
ENDBRANCH  24  25
ENDBRANCH  21  24
ENDBRANCH  19  21
ENDBRANCH  16  17
ENDBRANCH   7  16
BRANCH  11  30
HETATM   30  C14 UNL     1      -3.980   2.291   0.575  1.00  0.00     0.186 C 
HETATM   31  C15 UNL     1      -3.236   2.502   1.870  1.00  0.00     0.041 C 
BRANCH  30  32
HETATM   32  C16 UNL     1      -5.255   3.095   0.647  1.00  0.00     0.407 C 
HETATM   33  F1  UNL     1      -6.131   2.634   1.595  1.00  0.00    -0.169 F 
HETATM   34  F2  UNL     1      -5.908   3.091  -0.573  1.00  0.00    -0.169 F 
HETATM   35  F3  UNL     1      -5.010   4.425   0.959  1.00  0.00    -0.169 F 
ENDBRANCH  30  32
ENDBRANCH  11  30
TORSDOF 7
