REMARK  6 active torsions:
REMARK  status: ('A' for Active; 'I' for Inactive)
REMARK    1  A    between atoms: C2_2  and  O1_3 
REMARK    2  A    between atoms: N1_8  and  C6_10 
REMARK    3  A    between atoms: C6_10  and  C7_11 
REMARK    4  A    between atoms: C7_11  and  C8_12 
REMARK    5  A    between atoms: C8_12  and  C9_13 
REMARK    6  A    between atoms: C9_13  and  N2_14 
ROOT
HETATM    1  C1  UNL     1      -3.980   0.184   1.035  1.00  0.00     0.081 C 
HETATM    2  C2  UNL     1      -3.474  -0.001  -0.343  1.00  0.00     0.248 C 
HETATM    3  C3  UNL     1      -3.613   1.320  -1.072  1.00  0.00     0.238 C 
HETATM    4  O2  UNL     1      -2.382   1.949  -0.977  1.00  0.00    -0.359 OA
HETATM    5  C4  UNL     1      -1.631   1.171  -0.061  1.00  0.00     0.408 C 
HETATM    6  N1  UNL     1      -2.021  -0.164  -0.448  1.00  0.00    -0.017 N 
HETATM    7  C5  UNL     1      -1.723  -0.349  -1.825  1.00  0.00     0.279 C 
ENDROOT
BRANCH   6   8
HETATM    8  C6  UNL     1      -1.502  -1.167   0.377  1.00  0.00     0.243 C 
BRANCH   8   9
HETATM    9  C7  UNL     1      -0.348  -1.974  -0.054  1.00  0.00     0.030 C 
BRANCH   9  10
HETATM   10  C8  UNL     1       0.954  -1.259  -0.279  1.00  0.00     0.032 C 
BRANCH  10  11
HETATM   11  C9  UNL     1       1.490  -0.636   0.981  1.00  0.00     0.272 C 
BRANCH  11  12
HETATM   12  N2  UNL     1       2.715   0.055   0.817  1.00  0.00     0.088 N 
HETATM   13  C10 UNL     1       2.670   1.249   0.040  1.00  0.00     0.272 C 
HETATM   14  C11 UNL     1       4.142   1.686   0.080  1.00  0.00     0.032 C 
HETATM   15  C12 UNL     1       4.848   0.349   0.021  1.00  0.00     0.032 C 
HETATM   16  C13 UNL     1       3.750  -0.707   0.166  1.00  0.00     0.272 C 
ENDBRANCH  11  12
ENDBRANCH  10  11
ENDBRANCH   9  10
ENDBRANCH   8   9
ENDBRANCH   6   8
BRANCH   2  17
HETATM   17  O1  UNL     1      -4.153  -0.957  -1.076  1.00  0.00    -0.363 OA
ATOM     18  H1  UNL     1      -3.828  -1.076  -1.961  1.00  0.00     0.212 HD
ENDBRANCH   2  17
TORSDOF 6
