REMARK  11 active torsions:
REMARK  status: ('A' for Active; 'I' for Inactive)
REMARK    1  A    between atoms: C3_3  and  N1_4 
REMARK    2  A    between atoms: N1_4  and  N2_6 
REMARK    3  A    between atoms: N2_6  and  N3_8 
REMARK    4  A    between atoms: N3_8  and  S1_10 
REMARK    5  A    between atoms: S1_10  and  N4_13 
REMARK    6  A    between atoms: N4_13  and  N5_15 
REMARK    7  A    between atoms: N5_15  and  C4_17 
REMARK    8  A    between atoms: C8_28  and  N10_29 
REMARK    9  A    between atoms: N10_29  and  C9_31 
REMARK   10  A    between atoms: C11_35  and  N12_36 
REMARK   11  A    between atoms: N12_36  and  O3_38 
ROOT
HETATM    1  C1  UNL     1       1.020   3.532  -2.209  1.00  0.00     0.058 C 
HETATM    2  C2  UNL     1       1.872   2.462  -1.613  1.00  0.00     0.052 A 
HETATM    3  C3  UNL     1       1.481   1.134  -1.594  1.00  0.00     0.148 A 
HETATM    4  N9  UNL     1       2.285   0.206  -1.045  1.00  0.00    -0.175 N 
ATOM      5  H9  UNL     1       1.975  -0.766  -1.044  1.00  0.00     0.186 HD
HETATM    6  C8  UNL     1       3.480   0.500  -0.497  1.00  0.00     0.684 A 
HETATM    7  N14 UNL     1       3.855   1.795  -0.519  1.00  0.00    -0.156 N 
ATOM      8  H14 UNL     1       4.755   2.051  -0.112  1.00  0.00     0.187 HD
HETATM    9  C12 UNL     1       3.091   2.763  -1.055  1.00  0.00     0.269 A 
HETATM   10  O4  UNL     1       3.462   3.971  -1.065  1.00  0.00    -0.267 OA
ENDROOT
BRANCH   3  11
HETATM   11  N1  UNL     1       0.236   0.760  -2.153  1.00  0.00    -0.269 N 
ATOM     12  H1  UNL     1       0.026   1.020  -3.117  1.00  0.00     0.190 HD
BRANCH  11  13
HETATM   13  N2  UNL     1      -0.640   0.099  -1.477  1.00  0.00    -0.230 N 
ATOM     14  H2  UNL     1      -0.472  -0.182  -0.511  1.00  0.00     0.209 HD
BRANCH  13  15
HETATM   15  N3  UNL     1      -1.823  -0.210  -2.133  1.00  0.00    -0.194 N 
ATOM     16  H3  UNL     1      -2.330   0.519  -2.635  1.00  0.00     0.203 HD
BRANCH  15  17
HETATM   17  S1  UNL     1      -2.433  -1.802  -2.103  1.00  0.00     0.351 S 
HETATM   18  O1  UNL     1      -3.243  -2.121  -3.343  1.00  0.00    -0.179 OA
HETATM   19  O2  UNL     1      -1.348  -2.836  -2.003  1.00  0.00    -0.179 OA
BRANCH  17  20
HETATM   20  N4  UNL     1      -3.491  -1.956  -0.741  1.00  0.00    -0.207 N 
ATOM     21  H4  UNL     1      -3.226  -2.236   0.203  1.00  0.00     0.201 HD
BRANCH  20  22
HETATM   22  N5  UNL     1      -4.775  -1.625  -1.179  1.00  0.00    -0.278 N 
ATOM     23  H5  UNL     1      -5.109  -1.980  -2.075  1.00  0.00     0.189 HD
BRANCH  22  24
HETATM   24  C4  UNL     1      -5.638  -0.783  -0.374  1.00  0.00     0.103 A 
HETATM   25  N6  UNL     1      -5.579  -0.832   0.891  1.00  0.00    -0.319 N 
HETATM   26  C5  UNL     1      -6.415  -0.016   1.727  1.00  0.00     0.193 A 
ATOM     27  H6  UNL     1      -4.916  -1.472   1.330  1.00  0.00     0.169 HD
HETATM   28  N7  UNL     1      -6.358  -0.062   3.139  1.00  0.00    -0.063 NA
HETATM   29  N8  UNL     1      -7.228   0.766   1.143  1.00  0.00    -0.344 N 
HETATM   30  C6  UNL     1      -7.409   0.930  -0.243  1.00  0.00     0.071 A 
ATOM     31  H8  UNL     1      -7.816   1.340   1.747  1.00  0.00     0.167 HD
HETATM   32  C7  UNL     1      -6.540   0.092  -1.103  1.00  0.00     0.122 A 
ENDBRANCH  22  24
ENDBRANCH  20  22
ENDBRANCH  17  20
ENDBRANCH  15  17
ENDBRANCH  13  15
ENDBRANCH  11  13
ENDBRANCH   3  11
BRANCH   6  33
HETATM   33  N10 UNL     1       4.192  -0.443   0.009  1.00  0.00    -0.203 N 
ATOM     34  H10 UNL     1       3.828  -1.396  -0.019  1.00  0.00     0.180 HD
BRANCH  33  35
HETATM   35  C9  UNL     1       5.487  -0.215   0.617  1.00  0.00     0.234 C 
HETATM   36  C10 UNL     1       6.311  -1.477   0.675  1.00  0.00     0.186 C 
HETATM   37  N11 UNL     1       6.995  -1.346   1.941  1.00  0.00    -0.221 N 
HETATM   38  C11 UNL     1       6.220  -0.468   2.730  1.00  0.00     0.695 C 
ATOM     39  H11 UNL     1       7.868  -1.799   2.212  1.00  0.00     0.177 HD
HETATM   40  N13 UNL     1       5.373   0.170   2.003  1.00  0.00    -0.201 N 
ATOM     41  H13 UNL     1       4.709   0.857   2.359  1.00  0.00     0.180 HD
BRANCH  38  42
HETATM   42  N12 UNL     1       6.293  -0.248   4.150  1.00  0.00    -0.099 N 
ATOM     43  H12 UNL     1       6.618   0.647   4.516  1.00  0.00     0.213 HD
BRANCH  42  44
HETATM   44  O3  UNL     1       5.928  -1.237   4.995  1.00  0.00    -0.276 OA
ATOM     45  H3  UNL     1       5.976  -1.092   5.933  1.00  0.00     0.245 HD
ENDBRANCH  42  44
ENDBRANCH  38  42
ENDBRANCH  33  35
ENDBRANCH   6  33
TORSDOF 11
