REMARK  12 active torsions:
REMARK  status: ('A' for Active; 'I' for Inactive)
REMARK    1  A    between atoms: C2_2  and  O1_3 
REMARK    2  A    between atoms: C2_2  and  C3_5 
REMARK    3  A    between atoms: C3_5  and  N1_6 
REMARK    4  A    between atoms: C3_5  and  C9_23 
REMARK    5  A    between atoms: N1_6  and  C4_8 
REMARK    6  A    between atoms: C4_8  and  O2_9 
REMARK    7  A    between atoms: C8_19  and  N3_20 
REMARK    8  A    between atoms: C9_23  and  C10_25 
REMARK    9  A    between atoms: C10_25  and  N4_26 
REMARK   10  A    between atoms: C11_31  and  C12_32 
REMARK   11  A    between atoms: C13_35  and  N8_36 
REMARK   12  A    between atoms: C14_41  and  N10_42 
ROOT
HETATM    1  C9  UNL     1      -0.283  -0.573  -0.276  1.00  0.00     0.173 C 
HETATM    2  O5  UNL     1       0.113   0.602  -0.445  1.00  0.00    -0.294 OA
ENDROOT
BRANCH   1   3
HETATM    3  C3  UNL     1      -1.559  -0.959  -0.884  1.00  0.00     0.183 C 
BRANCH   3   4
HETATM    4  C2  UNL     1      -2.389  -1.969  -0.197  1.00  0.00     0.144 C 
HETATM    5  C1  UNL     1      -1.660  -3.322  -0.218  1.00  0.00     0.042 C 
BRANCH   4   6
HETATM    6  O1  UNL     1      -3.512  -2.205  -1.052  1.00  0.00    -0.393 OA
ATOM      7  H1  UNL     1      -3.963  -1.369  -1.039  1.00  0.00     0.210 HD
ENDBRANCH   4   6
ENDBRANCH   3   4
BRANCH   3   8
HETATM    8  N1  UNL     1      -2.296   0.291  -1.146  1.00  0.00    -0.356 N 
ATOM      9  H1  UNL     1      -2.307   0.671  -2.092  1.00  0.00     0.162 HD
BRANCH   8  10
HETATM   10  C4  UNL     1      -2.977   0.966  -0.137  1.00  0.00     0.158 C 
HETATM   11  C5  UNL     1      -4.167   1.474  -0.041  1.00  0.00     0.102 C 
HETATM   12  S1  UNL     1      -4.594   2.286   1.567  1.00  0.00    -0.034 SA
HETATM   13  C8  UNL     1      -5.242   1.470  -1.019  1.00  0.00     0.123 C 
HETATM   14  C6  UNL     1      -6.234   1.578   1.886  1.00  0.00     0.281 C 
HETATM   15  O3  UNL     1      -6.505   1.187   3.008  1.00  0.00    -0.274 OA
HETATM   16  C7  UNL     1      -7.101   1.549   0.707  1.00  0.00     0.304 C 
HETATM   17  O4  UNL     1      -8.350   1.568   0.931  1.00  0.00    -0.263 OA
HETATM   18  N2  UNL     1      -6.612   1.503  -0.595  1.00  0.00    -0.305 N 
ATOM     19  H2  UNL     1      -7.312   1.491  -1.337  1.00  0.00     0.170 HD
BRANCH  10  20
HETATM   20  O2  UNL     1      -2.189   1.132   1.051  1.00  0.00    -0.345 OA
ATOM     21  H2  UNL     1      -2.654   1.593   1.740  1.00  0.00     0.219 HD
ENDBRANCH  10  20
BRANCH  13  22
HETATM   22  N3  UNL     1      -4.946   1.479  -2.247  1.00  0.00    -0.384 N 
ATOM     23  H32 UNL     1      -3.972   1.456  -2.548  1.00  0.00     0.157 HD
ATOM     24  H31 UNL     1      -5.700   1.476  -2.933  1.00  0.00     0.157 HD
ENDBRANCH  13  22
ENDBRANCH   8  10
ENDBRANCH   3   8
ENDBRANCH   1   3
BRANCH   1  25
HETATM   25  C10 UNL     1       0.596  -1.444   0.530  1.00  0.00     0.251 C 
BRANCH  25  26
HETATM   26  N4  UNL     1       1.819  -0.728   0.918  1.00  0.00    -0.211 N 
HETATM   27  N5  UNL     1       1.982   0.005   1.983  1.00  0.00    -0.224 N 
HETATM   28  N6  UNL     1       3.194   0.504   2.025  1.00  0.00    -0.265 N 
ATOM     29  H5  UNL     1       1.264   0.169   2.689  1.00  0.00     0.210 HD
HETATM   30  C11 UNL     1       3.828   0.068   0.938  1.00  0.00     0.183 A 
ATOM     31  H6  UNL     1       3.577   1.110   2.751  1.00  0.00     0.190 HD
HETATM   32  N12 UNL     1       2.962  -0.701   0.253  1.00  0.00    -0.263 N 
ATOM     33  H12 UNL     1       3.154  -1.180  -0.627  1.00  0.00     0.190 HD
BRANCH  30  34
HETATM   34  C12 UNL     1       5.195   0.393   0.568  1.00  0.00     0.183 A 
HETATM   35  N7  UNL     1       5.915   1.225   1.350  1.00  0.00    -0.172 N 
HETATM   36  C13 UNL     1       7.178   1.558   1.022  1.00  0.00     0.692 A 
ATOM     37  H7  UNL     1       5.498   1.606   2.199  1.00  0.00     0.186 HD
HETATM   38  N9  UNL     1       7.721   1.052  -0.094  1.00  0.00    -0.023 N 
HETATM   39  C14 UNL     1       7.006   0.220  -0.877  1.00  0.00     0.692 A 
ATOM     40  H9  UNL     1       8.677   1.297  -0.351  1.00  0.00     0.203 HD
HETATM   41  N11 UNL     1       5.764  -0.107  -0.557  1.00  0.00    -0.172 N 
ATOM     42  H11 UNL     1       5.233  -0.737  -1.158  1.00  0.00     0.186 HD
BRANCH  36  43
HETATM   43  N8  UNL     1       7.897   2.362   1.752  1.00  0.00    -0.234 N 
ATOM     44  H82 UNL     1       7.484   2.747   2.601  1.00  0.00     0.174 HD
ATOM     45  H81 UNL     1       8.854   2.614   1.504  1.00  0.00     0.174 HD
ENDBRANCH  36  43
BRANCH  39  46
HETATM   46  N10 UNL     1       7.537  -0.269  -1.959  1.00  0.00    -0.234 N 
ATOM     47 2H10 UNL     1       8.494  -0.017  -2.206  1.00  0.00     0.174 HD
ATOM     48 1H10 UNL     1       6.996  -0.899  -2.552  1.00  0.00     0.174 HD
ENDBRANCH  39  46
ENDBRANCH  30  34
ENDBRANCH  25  26
ENDBRANCH   1  25
TORSDOF 12
