REMARK  12 active torsions:
REMARK  status: ('A' for Active; 'I' for Inactive)
REMARK       I    between atoms: C2_2  and  N1_4 
REMARK    1  A    between atoms: C3_6  and  C4_7 
REMARK    2  A    between atoms: C6_10  and  N2_11 
REMARK       I    between atoms: N2_11  and  C7_13 
REMARK    3  A    between atoms: C7_13  and  C8_15 
REMARK    4  A    between atoms: C8_15  and  O3_16 
REMARK    5  A    between atoms: C8_15  and  C9_18 
REMARK    6  A    between atoms: N3_19  and  O4_21 
REMARK    7  A    between atoms: C10_24  and  C11_25 
REMARK    8  A    between atoms: C11_25  and  O6_26 
REMARK    9  A    between atoms: C12_29  and  O8_30 
REMARK   10  A    between atoms: C13_32  and  O9_33 
REMARK   11  A    between atoms: C14_35  and  O10_36 
REMARK   12  A    between atoms: C15_38  and  O11_39 
ROOT
HETATM    1  C4  UNL     1       0.037   1.818  -0.163  1.00  0.00     0.068 C 
HETATM    2  C5  UNL     1       0.623   1.922  -1.581  1.00  0.00     0.091 C 
HETATM    3  S1  UNL     1       2.278   1.128  -1.422  1.00  0.00    -0.116 SA
HETATM    4  C6  UNL     1       1.935  -0.097  -0.090  1.00  0.00     0.289 C 
HETATM    5  O5  UNL     1       0.588  -0.441  -0.325  1.00  0.00    -0.346 OA
HETATM    6  C10 UNL     1      -0.279   0.472   0.278  1.00  0.00     0.199 C 
ENDROOT
BRANCH   6   7
HETATM    7  C11 UNL     1      -1.675  -0.055   0.232  1.00  0.00     0.221 C 
HETATM    8  O7  UNL     1      -1.792  -1.172   1.064  1.00  0.00    -0.318 OA
HETATM    9  C12 UNL     1      -1.945  -2.377   0.473  1.00  0.00     0.292 C 
HETATM   10  C13 UNL     1      -3.143  -2.532  -0.431  1.00  0.00     0.204 C 
HETATM   11  C14 UNL     1      -3.447  -1.224  -1.061  1.00  0.00     0.185 C 
HETATM   12  C15 UNL     1      -2.209  -0.346  -1.149  1.00  0.00     0.214 C 
BRANCH   7  13
HETATM   13  O6  UNL     1      -2.609   0.835   0.815  1.00  0.00    -0.361 OA
ATOM     14  H6  UNL     1      -3.497   0.500   0.786  1.00  0.00     0.213 HD
ENDBRANCH   7  13
BRANCH   9  15
HETATM   15  O8  UNL     1      -0.806  -2.927  -0.110  1.00  0.00    -0.368 OA
ATOM     16  H8  UNL     1      -0.914  -3.774  -0.526  1.00  0.00     0.212 HD
ENDBRANCH   9  15
BRANCH  10  17
HETATM   17  O9  UNL     1      -4.260  -3.033   0.267  1.00  0.00    -0.388 OA
ATOM     18  H9  UNL     1      -5.014  -3.131  -0.302  1.00  0.00     0.210 HD
ENDBRANCH  10  17
BRANCH  11  19
HETATM   19  O10 UNL     1      -4.486  -0.627  -0.361  1.00  0.00    -0.390 OA
ATOM     20  H10 UNL     1      -4.681   0.211  -0.764  1.00  0.00     0.210 HD
ENDBRANCH  11  19
BRANCH  12  21
HETATM   21  O11 UNL     1      -2.685   0.821  -1.787  1.00  0.00    -0.387 OA
ATOM     22  H11 UNL     1      -3.021   0.638  -2.656  1.00  0.00     0.210 HD
ENDBRANCH  12  21
ENDBRANCH   6   7
BRANCH   1  23
HETATM   23  C3  UNL     1      -0.941   2.891  -0.015  1.00  0.00     0.072 C 
HETATM   24  N1  UNL     1      -1.141   3.440   1.154  1.00  0.00    -0.341 N 
HETATM   25  C2  UNL     1      -2.068   4.479   1.371  1.00  0.00     0.217 C 
ATOM     26  H1  UNL     1      -0.599   3.100   1.949  1.00  0.00     0.167 HD
HETATM   27  C1  UNL     1      -2.273   5.482   0.317  1.00  0.00     0.117 C 
HETATM   28  O1  UNL     1      -2.692   4.531   2.441  1.00  0.00    -0.274 OA
ENDBRANCH   1  23
BRANCH   4  29
HETATM   29  N2  UNL     1       2.825  -1.182  -0.283  1.00  0.00    -0.324 N 
HETATM   30  C7  UNL     1       3.695  -1.590   0.745  1.00  0.00     0.254 C 
HETATM   31  O2  UNL     1       3.669  -0.975   1.838  1.00  0.00    -0.270 OA
ATOM     32  H2  UNL     1       2.835  -1.673  -1.177  1.00  0.00     0.166 HD
BRANCH  30  33
HETATM   33  C8  UNL     1       4.653  -2.714   0.619  1.00  0.00     0.250 C 
BRANCH  33  34
HETATM   34  O3  UNL     1       5.390  -2.915   1.761  1.00  0.00    -0.381 OA
ATOM     35  H3  UNL     1       6.004  -3.635   1.680  1.00  0.00     0.211 HD
ENDBRANCH  33  34
BRANCH  33  36
HETATM   36  C9  UNL     1       5.550  -2.594  -0.529  1.00  0.00     0.127 C 
HETATM   37  N3  UNL     1       5.925  -1.477  -1.052  1.00  0.00    -0.281 N 
ATOM     38  H3  UNL     1       5.572  -0.614  -0.638  1.00  0.00     0.193 HD
BRANCH  37  39
HETATM   39  O4  UNL     1       6.756  -1.375  -2.115  1.00  0.00    -0.290 OA
ATOM     40  H4  UNL     1       7.032  -0.552  -2.500  1.00  0.00     0.244 HD
ENDBRANCH  37  39
ENDBRANCH  33  36
ENDBRANCH  30  33
ENDBRANCH   4  29
TORSDOF 12
