REMARK  3 active torsions:
REMARK  status: ('A' for Active; 'I' for Inactive)
REMARK    1  A    between atoms: N1_5  and  C5_6 
REMARK    2  A    between atoms: C5_6  and  N2_8 
REMARK    3  A    between atoms: C8_11  and  N3_12 
ROOT
HETATM    1  C1  UNL     1       4.767   1.575  -0.327  1.00  0.00     0.012 C 
HETATM    2  C2  UNL     1       3.998   0.819   0.227  1.00  0.00    -0.108 C 
HETATM    3  C3  UNL     1       3.069  -0.083   0.919  1.00  0.00     0.117 C 
HETATM    4  C4  UNL     1       1.670   0.304   0.573  1.00  0.00     0.145 C 
HETATM    5  N1  UNL     1       1.188  -0.720  -0.309  1.00  0.00    -0.354 N 
HETATM    6  C10 UNL     1       2.281  -1.625  -0.708  1.00  0.00     0.164 C 
HETATM    7  C11 UNL     1       3.267  -1.488   0.434  1.00  0.00     0.205 C 
HETATM    8  F1  UNL     1       2.972  -2.403   1.395  1.00  0.00    -0.246 F 
ENDROOT
BRANCH   5   9
HETATM    9  C5  UNL     1      -0.143  -0.888  -0.770  1.00  0.00     0.172 C 
HETATM   10  S1  UNL     1      -0.379  -2.190  -1.799  1.00  0.00    -0.041 SA
BRANCH   9  11
HETATM   11  N2  UNL     1      -1.251  -0.073  -0.442  1.00  0.00    -0.356 N 
HETATM   12  C6  UNL     1      -1.295   1.080   0.410  1.00  0.00     0.127 C 
HETATM   13  C7  UNL     1      -2.748   1.613   0.272  1.00  0.00     0.054 C 
HETATM   14  C8  UNL     1      -3.445   0.277   0.112  1.00  0.00     0.203 C 
HETATM   15  C9  UNL     1      -2.582  -0.313  -0.977  1.00  0.00     0.158 C 
BRANCH  14  16
HETATM   16  N3  UNL     1      -4.820   0.398  -0.244  1.00  0.00    -0.073 N 
ATOM     17  H33 UNL     1      -5.317   0.988   0.423  1.00  0.00     0.274 HD
ATOM     18  H32 UNL     1      -4.928   0.966  -1.084  1.00  0.00     0.274 HD
ATOM     19  H31 UNL     1      -5.289  -0.501  -0.352  1.00  0.00     0.274 HD
ENDBRANCH  14  16
ENDBRANCH   9  11
ENDBRANCH   5   9
TORSDOF 3
