REMARK  3 active torsions:
REMARK  status: ('A' for Active; 'I' for Inactive)
REMARK    1  A    between atoms: O1_1  and  C1_3 
REMARK    2  A    between atoms: C1_3  and  C2_4 
REMARK    3  A    between atoms: C3_5  and  C4_6 
ROOT
HETATM    1  C1  UNL     1       0.147  -0.862  -0.083  1.00  0.00     0.328 C 
HETATM    2  C5  UNL     1      -0.886  -0.069  -0.897  1.00  0.00     0.069 C 
HETATM    3  C6  UNL     1      -0.945   1.202  -0.105  1.00  0.00     0.041 C 
HETATM    4  C7  UNL     1      -0.686   0.709   1.311  1.00  0.00     0.278 C 
HETATM    5  N1  UNL     1      -0.534  -0.743   1.217  1.00  0.00     0.136 N 
HETATM    6  C8  UNL     1      -1.845  -1.273   0.884  1.00  0.00     0.278 C 
HETATM    7  C9  UNL     1      -2.121  -0.872  -0.561  1.00  0.00     0.041 C 
ENDROOT
BRANCH   1   8
HETATM    8  O1  UNL     1       0.188  -2.171  -0.494  1.00  0.00    -0.353 OA
ATOM      9  H1  UNL     1      -0.641  -2.634  -0.469  1.00  0.00     0.213 HD
ENDBRANCH   1   8
BRANCH   1  10
HETATM   10  C2  UNL     1       1.398  -0.163  -0.120  1.00  0.00    -0.035 C 
HETATM   11  C3  UNL     1       2.458   0.407  -0.159  1.00  0.00    -0.091 C 
BRANCH  11  12
HETATM   12  C4  UNL     1       3.769   1.086  -0.216  1.00  0.00     0.179 C 
HETATM   13 BR1  UNL     1       3.508   2.920  -0.757  1.00  0.00    -0.083 Br
ENDBRANCH  11  12
ENDBRANCH   1  10
TORSDOF 3
