REMARK  2 active torsions:
REMARK  status: ('A' for Active; 'I' for Inactive)
REMARK    1  A    between atoms: N2_5  and  C4_6 
REMARK    2  A    between atoms: C4_6  and  N3_8 
ROOT
HETATM    1  C1  UNL     1      -3.612   0.734   0.496  1.00  0.00     0.310 C 
HETATM    2  N1  UNL     1      -2.311   0.419  -0.038  1.00  0.00     0.087 N 
HETATM    3  C2  UNL     1      -1.297   1.352   0.330  1.00  0.00     0.291 C 
HETATM    4  C3  UNL     1       0.022   0.838  -0.247  1.00  0.00     0.155 C 
HETATM    5  N2  UNL     1       0.360  -0.346   0.518  1.00  0.00    -0.355 N 
HETATM    6  C6  UNL     1      -0.735  -1.174   0.982  1.00  0.00     0.155 C 
HETATM    7  C7  UNL     1      -1.949  -0.954   0.074  1.00  0.00     0.291 C 
ENDROOT
BRANCH   5   8
HETATM    8  C4  UNL     1       1.691  -0.715   0.821  1.00  0.00     0.175 C 
HETATM    9  S1  UNL     1       1.996  -2.056   1.683  1.00  0.00    -0.041 SA
BRANCH   8  10
HETATM   10  N3  UNL     1       2.732   0.109   0.357  1.00  0.00    -0.312 N 
HETATM   11  C5  UNL     1       3.780  -0.405  -0.178  1.00  0.00     0.190 C 
HETATM   12  N4  UNL     1       4.792   0.470  -0.625  1.00  0.00    -0.069 NA
HETATM   13 CL1  UNL     1       3.918  -2.123  -0.333  1.00  0.00    -0.048 Cl
ATOM     14  H3  UNL     1       2.654   1.122   0.446  1.00  0.00     0.170 HD
ENDBRANCH   8  10
ENDBRANCH   5   8
TORSDOF 2
