REMARK  0 active torsions:
REMARK  status: ('A' for Active; 'I' for Inactive)
REMARK       I    between atoms: C3_5  and  N3_7 
ROOT
HETATM    1  C1  UNL     1       4.714   0.347   0.626  1.00  0.00     0.123 C 
HETATM    2  C2  UNL     1       3.516   0.123   0.721  1.00  0.00    -0.073 C 
HETATM    3  N1  UNL     1       2.148  -0.126   0.851  1.00  0.00    -0.300 N 
ATOM      4  H1  UNL     1       1.775  -0.396   1.761  1.00  0.00     0.178 HD
HETATM    5  C3  UNL     1       1.360  -0.024  -0.137  1.00  0.00     0.198 C 
HETATM    6  N2  UNL     1       1.923   0.362  -1.410  1.00  0.00    -0.063 NA
HETATM    7  N3  UNL     1      -0.040  -0.264  -0.070  1.00  0.00    -0.342 N 
HETATM    8  C4  UNL     1      -0.749   0.060   1.143  1.00  0.00     0.128 C 
HETATM    9  C5  UNL     1      -2.137   0.577   0.792  1.00  0.00     0.035 C 
HETATM   10  C6  UNL     1      -2.770  -0.490  -0.095  1.00  0.00     0.106 C 
HETATM   11  N4  UNL     1      -2.065  -0.451  -1.356  1.00  0.00    -0.233 NA
HETATM   12 BR1  UNL     1      -2.281   1.203  -2.214  1.00  0.00     0.014 Br
HETATM   13  C7  UNL     1      -0.676  -0.825  -1.237  1.00  0.00     0.229 C 
ENDROOT
TORSDOF 0
