REMARK  5 active torsions:
REMARK  status: ('A' for Active; 'I' for Inactive)
REMARK    1  A    between atoms: N1_2  and  C2_4 
REMARK    2  A    between atoms: C2_4  and  N2_6 
REMARK    3  A    between atoms: N2_6  and  C3_8 
REMARK    4  A    between atoms: C3_8  and  C4_9 
REMARK    5  A    between atoms: C4_9  and  N3_10 
ROOT
HETATM    1  N3  UNL     1      -0.245   0.306   0.407  1.00  0.00     0.096 N 
HETATM    2  C5  UNL     1      -1.236   1.378   0.371  1.00  0.00     0.300 C 
HETATM    3  C6  UNL     1      -1.490   1.716  -1.052  1.00  0.00     0.264 C 
HETATM    4  N4  UNL     1      -2.878   1.776  -1.421  1.00  0.00    -0.058 N 
ATOM      5  H41 UNL     1      -3.070   2.451  -2.162  1.00  0.00     0.279 HD
ATOM      6  H42 UNL     1      -3.467   2.201  -0.706  1.00  0.00     0.279 HD
HETATM    7  C7  UNL     1      -3.282   0.399  -1.767  1.00  0.00     0.356 C 
HETATM    8  N5  UNL     1      -3.038  -0.383  -0.614  1.00  0.00    -0.373 N 
HETATM    9  C8  UNL     1      -4.206  -0.801   0.106  1.00  0.00     0.150 C 
HETATM   10  C9  UNL     1      -1.923  -1.245  -0.604  1.00  0.00     0.089 C 
HETATM   11  C10 UNL     1      -0.851  -0.995   0.388  1.00  0.00     0.317 C 
ENDROOT
BRANCH   1  12
HETATM   12  C4  UNL     1       0.420   0.382   1.723  1.00  0.00     0.292 C 
BRANCH  12  13
HETATM   13  C3  UNL     1       1.663  -0.482   1.724  1.00  0.00     0.152 C 
BRANCH  13  14
HETATM   14  N2  UNL     1       2.502   0.054   0.665  1.00  0.00    -0.366 N 
ATOM     15  H2  UNL     1       2.133   0.771   0.041  1.00  0.00     0.161 HD
BRANCH  14  16
HETATM   16  C2  UNL     1       3.818  -0.410   0.496  1.00  0.00     0.167 C 
HETATM   17  S1  UNL     1       4.416  -1.540   1.545  1.00  0.00    -0.041 SA
BRANCH  16  18
HETATM   18  N1  UNL     1       4.667   0.064  -0.527  1.00  0.00    -0.372 N 
HETATM   19  C1  UNL     1       6.010  -0.435  -0.657  1.00  0.00     0.148 C 
ATOM     20  H1  UNL     1       4.325   0.768  -1.181  1.00  0.00     0.161 HD
ENDBRANCH  16  18
ENDBRANCH  14  16
ENDBRANCH  13  14
ENDBRANCH  12  13
ENDBRANCH   1  12
TORSDOF 5
