REMARK  4 active torsions:
REMARK  status: ('A' for Active; 'I' for Inactive)
REMARK    1  A    between atoms: C2_5  and  N3_6 
REMARK    2  A    between atoms: C2_5  and  C4_13 
REMARK    3  A    between atoms: N3_6  and  N4_8 
REMARK    4  A    between atoms: C6_15  and  C7_16 
ROOT
HETATM    1  N1  UNL     1       1.827   4.364   1.538  1.00  0.00    -0.172 NA
HETATM    2  C1  UNL     1       1.895   3.576   0.691  1.00  0.00     0.183 C 
HETATM    3  N2  UNL     1       2.003   2.684  -0.300  1.00  0.00    -0.281 N 
ATOM      4  H2  UNL     1       2.920   2.709  -0.745  1.00  0.00     0.179 HD
HETATM    5  C2  UNL     1       1.256   1.833  -0.808  1.00  0.00     0.109 C 
ENDROOT
BRANCH   5   6
HETATM    6  N3  UNL     1       1.842   1.077  -1.903  1.00  0.00    -0.286 N 
ATOM      7  H3  UNL     1       2.100   1.540  -2.774  1.00  0.00     0.188 HD
BRANCH   6   8
HETATM    8  N4  UNL     1       2.042  -0.277  -1.742  1.00  0.00    -0.275 N 
HETATM    9  C3  UNL     1       2.749  -0.826  -0.837  1.00  0.00     0.215 C 
HETATM   10  N5  UNL     1       3.440  -0.080   0.149  1.00  0.00    -0.065 NA
HETATM   11  N6  UNL     1       2.839  -2.254  -0.831  1.00  0.00    -0.065 NA
ATOM     12  H4  UNL     1       1.581  -0.896  -2.409  1.00  0.00     0.189 HD
ENDBRANCH   6   8
ENDBRANCH   5   6
BRANCH   5  13
HETATM   13  C4  UNL     1      -0.132   1.462  -0.500  1.00  0.00     0.064 A 
HETATM   14  C5  UNL     1      -0.781   1.960   0.698  1.00  0.00     0.023 A 
HETATM   15  C6  UNL     1      -0.429   0.463   0.556  1.00  0.00     0.030 A 
BRANCH  15  16
HETATM   16  C7  UNL     1      -1.568  -0.469   0.446  1.00  0.00    -0.053 A 
HETATM   17  C8  UNL     1      -2.721  -0.123  -0.225  1.00  0.00     0.007 A 
HETATM   18  C9  UNL     1      -3.803  -0.987  -0.339  1.00  0.00     0.001 A 
HETATM   19  C10 UNL     1      -3.748  -2.242   0.232  1.00  0.00     0.000 A 
HETATM   20  C11 UNL     1      -2.601  -2.604   0.907  1.00  0.00     0.001 A 
HETATM   21  C12 UNL     1      -1.533  -1.733   1.012  1.00  0.00     0.007 A 
ENDBRANCH  15  16
ENDBRANCH   5  13
TORSDOF 4
