REMARK  8 active torsions:
REMARK  status: ('A' for Active; 'I' for Inactive)
REMARK    1  A    between atoms: C3_3  and  C4_4 
REMARK       I    between atoms: C4_4  and  N1_6 
REMARK    2  A    between atoms: N1_6  and  C5_8 
REMARK    3  A    between atoms: C5_8  and  C8_11 
REMARK    4  A    between atoms: C8_11  and  O2_12 
REMARK    5  A    between atoms: C8_11  and  N2_14 
REMARK    6  A    between atoms: N2_14  and  C9_16 
REMARK    7  A    between atoms: C9_16  and  O3_17 
REMARK    8  A    between atoms: C9_16  and  N3_19 
ROOT
HETATM    1  C1  UNL     1       5.335  -1.909   0.259  1.00  0.00     0.012 C 
HETATM    2  C2  UNL     1       4.595  -1.060  -0.210  1.00  0.00    -0.108 C 
HETATM    3  C3  UNL     1       3.696  -0.061  -0.786  1.00  0.00     0.195 C 
ENDROOT
BRANCH   3   4
HETATM    4  C4  UNL     1       2.300  -0.263  -0.316  1.00  0.00     0.229 C 
HETATM    5  O1  UNL     1       2.039  -1.204   0.476  1.00  0.00    -0.273 OA
HETATM    6  N1  UNL     1       1.251   0.577  -0.735  1.00  0.00    -0.344 N 
ATOM      7  H1  UNL     1       1.438   1.347  -1.377  1.00  0.00     0.163 HD
BRANCH   6   8
HETATM    8  C5  UNL     1      -0.137   0.338  -0.238  1.00  0.00     0.090 C 
HETATM    9  C6  UNL     1      -0.012   0.479   1.255  1.00  0.00     0.047 C 
HETATM   10  C7  UNL     1      -0.495  -1.100  -0.610  1.00  0.00     0.047 C 
BRANCH   8  11
HETATM   11  C8  UNL     1      -1.072   1.245  -0.886  1.00  0.00     0.146 C 
BRANCH  11  12
HETATM   12  O2  UNL     1      -0.476   2.043  -1.756  1.00  0.00    -0.347 OA
ATOM     13  H2  UNL     1      -1.087   2.635  -2.179  1.00  0.00     0.219 HD
ENDBRANCH  11  12
BRANCH  11  14
HETATM   14  N2  UNL     1      -2.443   1.435  -0.772  1.00  0.00    -0.304 N 
ATOM     15  H2  UNL     1      -2.772   2.172  -1.395  1.00  0.00     0.171 HD
BRANCH  14  16
HETATM   16  C9  UNL     1      -3.479   0.890  -0.038  1.00  0.00     0.232 C 
BRANCH  16  17
HETATM   17  O3  UNL     1      -4.653   1.442  -0.307  1.00  0.00    -0.332 OA
ATOM     18  H3  UNL     1      -5.365   1.067   0.198  1.00  0.00     0.221 HD
ENDBRANCH  16  17
BRANCH  16  19
HETATM   19  N3  UNL     1      -3.557  -0.108   0.919  1.00  0.00    -0.259 N 
HETATM   20  C10 UNL     1      -4.833  -0.417   1.481  1.00  0.00     0.185 C 
HETATM   21  N4  UNL     1      -5.872  -0.673   1.919  1.00  0.00    -0.172 NA
ATOM     22  H3  UNL     1      -2.721  -0.611   1.216  1.00  0.00     0.181 HD
ENDBRANCH  16  19
ENDBRANCH  14  16
ENDBRANCH  11  14
ENDBRANCH   8  11
ENDBRANCH   6   8
ENDBRANCH   3   4
TORSDOF 8
