REMARK  10 active torsions:
REMARK  status: ('A' for Active; 'I' for Inactive)
REMARK    1  A    between atoms: S1_2  and  N1_4 
REMARK    2  A    between atoms: S1_2  and  C8_25 
REMARK    3  A    between atoms: N1_4  and  C2_6 
REMARK    4  A    between atoms: N6_18  and  C6_19 
REMARK    5  A    between atoms: C6_19  and  C7_20 
REMARK    6  A    between atoms: C7_20  and  N7_21 
REMARK    7  A    between atoms: C14_34  and  C15_35 
REMARK    8  A    between atoms: C15_35  and  N9_36 
REMARK    9  A    between atoms: C15_35  and  O3_40 
REMARK   10  A    between atoms: N10_42  and  N11_43 
ROOT
HETATM    1  C1  UNL     1       0.598  -4.360  -1.102  1.00  0.00     0.144 C 
HETATM    2  S1  UNL     1       0.014  -2.872  -0.855  1.00  0.00     0.070 S 
HETATM    3  O1  UNL     1      -0.641  -2.630  -2.209  1.00  0.00    -0.243 OA
ENDROOT
BRANCH   2   4
HETATM    4  N1  UNL     1      -1.027  -2.850   0.451  1.00  0.00    -0.296 N 
ATOM      5  H1  UNL     1      -0.806  -3.569   1.140  1.00  0.00     0.177 HD
BRANCH   4   6
HETATM    6  C2  UNL     1      -2.016  -2.156   0.781  1.00  0.00     0.146 A 
HETATM    7  N2  UNL     1      -2.599  -2.488   1.977  1.00  0.00    -0.336 N 
HETATM    8  C3  UNL     1      -3.665  -1.830   2.455  1.00  0.00     0.183 A 
ATOM      9  H2  UNL     1      -2.210  -3.259   2.520  1.00  0.00     0.168 HD
HETATM   10  N3  UNL     1      -4.231  -0.805   1.794  1.00  0.00    -0.335 N 
HETATM   11  C4  UNL     1      -3.717  -0.428   0.625  1.00  0.00     0.157 A 
ATOM     12  H3  UNL     1      -5.042  -0.323   2.182  1.00  0.00     0.168 HD
HETATM   13  C5  UNL     1      -2.604  -1.111   0.121  1.00  0.00     0.140 A 
HETATM   14  N6  UNL     1      -4.060   0.544  -0.249  1.00  0.00    -0.258 N 
HETATM   15  N4  UNL     1      -2.335  -0.516  -1.028  1.00  0.00    -0.279 N 
HETATM   16  N5  UNL     1      -3.200   0.454  -1.230  1.00  0.00    -0.238 N 
ATOM     17  H4  UNL     1      -1.575  -0.769  -1.660  1.00  0.00     0.189 HD
ATOM     18  H5  UNL     1      -3.200   1.061  -2.050  1.00  0.00     0.208 HD
BRANCH  14  19
HETATM   19  C6  UNL     1      -5.143   1.492  -0.143  1.00  0.00     0.179 C 
BRANCH  19  20
HETATM   20  C7  UNL     1      -6.394   0.916  -0.781  1.00  0.00     0.251 C 
BRANCH  20  21
HETATM   21  N7  UNL     1      -7.447   1.907  -0.646  1.00  0.00    -0.078 N 
ATOM     22  H73 UNL     1      -7.593   2.204   0.319  1.00  0.00     0.274 HD
ATOM     23  H72 UNL     1      -7.188   2.817  -1.027  1.00  0.00     0.274 HD
ATOM     24  H71 UNL     1      -8.288   1.520  -1.075  1.00  0.00     0.274 HD
ENDBRANCH  20  21
ENDBRANCH  19  20
ENDBRANCH  14  19
ENDBRANCH   4   6
ENDBRANCH   2   4
BRANCH   2  25
HETATM   25  C8  UNL     1       1.355  -1.781  -0.586  1.00  0.00     0.110 A 
HETATM   26  C9  UNL     1       1.434  -0.453  -0.944  1.00  0.00     0.074 A 
HETATM   27  C10 UNL     1       2.652   0.055  -0.557  1.00  0.00     0.089 A 
HETATM   28  C11 UNL     1       3.331  -0.986   0.050  1.00  0.00     0.113 A 
HETATM   29  N10 UNL     1       3.242   1.254  -0.652  1.00  0.00    -0.260 N 
HETATM   30  N8  UNL     1       2.528  -2.060   0.014  1.00  0.00    -0.343 N 
HETATM   31  C12 UNL     1       4.605  -0.791   0.553  1.00  0.00     0.203 A 
ATOM     32  H8  UNL     1       2.775  -2.974   0.394  1.00  0.00     0.167 HD
HETATM   33  O2  UNL     1       5.225  -1.728   1.104  1.00  0.00    -0.286 OA
HETATM   34  C13 UNL     1       5.159   0.460   0.428  1.00  0.00     0.089 A 
HETATM   35  C14 UNL     1       4.493   1.494  -0.171  1.00  0.00     0.093 A 
BRANCH  35  36
HETATM   36  C15 UNL     1       5.144   2.806  -0.272  1.00  0.00     0.369 C 
BRANCH  36  37
HETATM   37  N9  UNL     1       5.752   3.094   1.032  1.00  0.00    -0.047 N 
ATOM     38  H93 UNL     1       5.087   3.037   1.803  1.00  0.00     0.277 HD
ATOM     39  H92 UNL     1       6.384   2.359   1.348  1.00  0.00     0.277 HD
ATOM     40  H91 UNL     1       6.204   4.006   0.962  1.00  0.00     0.277 HD
ENDBRANCH  36  37
BRANCH  36  41
HETATM   41  O3  UNL     1       6.148   2.855  -1.234  1.00  0.00    -0.365 OA
ATOM     42  H3  UNL     1       6.569   3.704  -1.299  1.00  0.00     0.212 HD
ENDBRANCH  36  41
ENDBRANCH  35  36
BRANCH  29  43
HETATM   43  N11 UNL     1       2.567   2.316  -1.263  1.00  0.00    -0.338 N 
ATOM     44 2H11 UNL     1       1.630   2.136  -1.623  1.00  0.00     0.177 HD
ATOM     45 1H11 UNL     1       3.016   3.229  -1.335  1.00  0.00     0.177 HD
ENDBRANCH  29  43
ENDBRANCH   2  25
TORSDOF 10
