REMARK  8 active torsions:
REMARK  status: ('A' for Active; 'I' for Inactive)
REMARK       I    between atoms: C1_4  and  N3_6 
REMARK    1  A    between atoms: N3_6  and  C2_8 
REMARK    2  A    between atoms: C5_13  and  C6_14 
REMARK    3  A    between atoms: C6_14  and  N5_15 
REMARK    4  A    between atoms: N9_23  and  C9_24 
REMARK    5  A    between atoms: C9_24  and  C10_25 
REMARK    6  A    between atoms: C9_24  and  C11_30 
REMARK    7  A    between atoms: C10_25  and  N10_26 
REMARK       I    between atoms: C11_30  and  N11_32 
REMARK    8  A    between atoms: N11_32  and  C12_34 
ROOT
HETATM    1  N5  UNL     1       1.458   0.842   1.097  1.00  0.00    -0.253 N 
HETATM    2  N6  UNL     1       1.510   2.148   0.964  1.00  0.00    -0.238 N 
ATOM      3  H6  UNL     1       2.183   2.747   1.442  1.00  0.00     0.208 HD
HETATM    4  N7  UNL     1       0.584   2.588   0.136  1.00  0.00    -0.279 N 
ATOM      5  H7  UNL     1       0.433   3.563  -0.121  1.00  0.00     0.189 HD
HETATM    6  C7  UNL     1      -0.130   1.538  -0.315  1.00  0.00     0.139 A 
HETATM    7  C8  UNL     1      -1.159   1.071  -1.106  1.00  0.00     0.166 A 
HETATM    8  N8  UNL     1      -1.998   1.871  -1.911  1.00  0.00    -0.078 NA
HETATM    9  N9  UNL     1      -1.215  -0.256  -0.973  1.00  0.00    -0.260 N 
HETATM   10  N13 UNL     1      -0.269  -0.622  -0.138  1.00  0.00    -0.278 N 
ATOM     11  H13 UNL     1      -0.094  -1.588   0.138  1.00  0.00     0.189 HD
HETATM   12  C15 UNL     1       0.442   0.428   0.310  1.00  0.00     0.171 A 
ENDROOT
BRANCH   1  13
HETATM   13  C6  UNL     1       2.320   0.007   1.927  1.00  0.00     0.210 C 
BRANCH  13  14
HETATM   14  C5  UNL     1       3.523  -0.436   1.138  1.00  0.00     0.047 A 
HETATM   15  C4  UNL     1       3.490  -1.605   0.425  1.00  0.00     0.045 A 
HETATM   16  C3  UNL     1       4.584  -2.011  -0.295  1.00  0.00     0.108 A 
HETATM   17  N4  UNL     1       5.678  -1.231  -0.278  1.00  0.00    -0.202 N 
HETATM   18  C2  UNL     1       5.740  -0.079   0.411  1.00  0.00     0.684 A 
ATOM     19  H4  UNL     1       6.496  -1.526  -0.811  1.00  0.00     0.183 HD
HETATM   20  N14 UNL     1       4.653   0.301   1.112  1.00  0.00    -0.194 N 
ATOM     21  H14 UNL     1       4.686   1.173   1.640  1.00  0.00     0.184 HD
BRANCH  18  22
HETATM   22  N3  UNL     1       6.833   0.644   0.392  1.00  0.00    -0.164 N 
HETATM   23  C1  UNL     1       6.932   1.860   1.105  1.00  0.00     0.200 C 
HETATM   24  N1  UNL     1       7.539   1.888   2.221  1.00  0.00    -0.373 N 
HETATM   25  N2  UNL     1       6.358   3.046   0.582  1.00  0.00    -0.063 NA
ATOM     26  H12 UNL     1       7.610   2.766   2.736  1.00  0.00     0.158 HD
ATOM     27  H11 UNL     1       7.952   1.035   2.597  1.00  0.00     0.158 HD
ATOM     28  H3  UNL     1       7.633   0.320  -0.152  1.00  0.00     0.187 HD
ENDBRANCH  18  22
ENDBRANCH  13  14
ENDBRANCH   1  13
BRANCH   9  29
HETATM   29  C9  UNL     1      -2.125  -1.205  -1.602  1.00  0.00     0.227 C 
BRANCH  29  30
HETATM   30  C10 UNL     1      -2.230  -2.447  -0.736  1.00  0.00     0.266 C 
BRANCH  30  31
HETATM   31  N10 UNL     1      -2.722  -2.182   0.580  1.00  0.00    -0.077 N 
ATOM     32 3H10 UNL     1      -2.158  -1.467   1.040  1.00  0.00     0.274 HD
ATOM     33 2H10 UNL     1      -3.616  -1.692   0.540  1.00  0.00     0.274 HD
ATOM     34 1H10 UNL     1      -2.793  -3.017   1.162  1.00  0.00     0.274 HD
ENDBRANCH  30  31
ENDBRANCH  29  30
BRANCH  29  35
HETATM   35  C11 UNL     1      -3.425  -0.617  -1.909  1.00  0.00     0.250 C 
HETATM   36  O1  UNL     1      -3.875  -0.556  -3.077  1.00  0.00    -0.271 OA
HETATM   37  N11 UNL     1      -4.224  -0.088  -0.864  1.00  0.00    -0.305 N 
ATOM     38  H11 UNL     1      -3.809   0.392  -0.066  1.00  0.00     0.171 HD
BRANCH  37  39
HETATM   39  C12 UNL     1      -5.526  -0.245  -0.971  1.00  0.00     0.150 A 
HETATM   40  N12 UNL     1      -6.450   0.173  -0.105  1.00  0.00    -0.346 N 
HETATM   41  C13 UNL     1      -7.702  -0.068  -0.369  1.00  0.00     0.097 A 
ATOM     42  H12 UNL     1      -6.182   0.670   0.744  1.00  0.00     0.167 HD
HETATM   43  C14 UNL     1      -7.998  -0.740  -1.524  1.00  0.00     0.070 A 
HETATM   44  S1  UNL     1      -6.447  -0.999  -2.189  1.00  0.00    -0.064 SA
ENDBRANCH  37  39
ENDBRANCH  29  35
ENDBRANCH   9  29
TORSDOF 8
