REMARK  8 active torsions:
REMARK  status: ('A' for Active; 'I' for Inactive)
REMARK    1  A    between atoms: C2_3  and  N2_4 
REMARK    2  A    between atoms: C2_3  and  C13_32 
REMARK    3  A    between atoms: N2_4  and  C3_6 
REMARK    4  A    between atoms: C3_6  and  C4_7 
REMARK    5  A    between atoms: C6_9  and  N3_10 
REMARK    6  A    between atoms: C7_15  and  N5_16 
REMARK    7  A    between atoms: C9_18  and  N6_19 
REMARK    8  A    between atoms: C11_24  and  N7_25 
ROOT
HETATM    1  N1  UNL     1       3.369   3.947   0.757  1.00  0.00    -0.195 NA
HETATM    2  C1  UNL     1       3.353   2.868   0.312  1.00  0.00     0.090 C 
HETATM    3  C2  UNL     1       3.307   1.505  -0.247  1.00  0.00     0.240 C 
ENDROOT
BRANCH   3   4
HETATM    4  N2  UNL     1       1.995   1.213  -0.686  1.00  0.00    -0.396 N 
ATOM      5  H2  UNL     1       1.809   1.021  -1.670  1.00  0.00     0.155 HD
BRANCH   4   6
HETATM    6  C3  UNL     1       0.944   1.191   0.261  1.00  0.00     0.173 C 
BRANCH   6   7
HETATM    7  C4  UNL     1      -0.330   0.916  -0.506  1.00  0.00     0.047 A 
HETATM    8  C5  UNL     1      -0.350   1.126  -1.868  1.00  0.00     0.075 A 
HETATM    9  C6  UNL     1      -1.492   0.885  -2.571  1.00  0.00     0.116 A 
HETATM   10  N4  UNL     1      -2.569   0.445  -1.897  1.00  0.00    -0.177 N 
HETATM   11  C7  UNL     1      -2.564   0.233  -0.548  1.00  0.00     0.682 A 
ATOM     12  H4  UNL     1      -3.428   0.261  -2.416  1.00  0.00     0.185 HD
HETATM   13  N8  UNL     1      -1.433   0.472   0.139  1.00  0.00    -0.194 N 
ATOM     14  H8  UNL     1      -1.407   0.318   1.147  1.00  0.00     0.184 HD
BRANCH   9  15
HETATM   15  N3  UNL     1      -1.528   1.079  -3.856  1.00  0.00    -0.385 N 
ATOM     16  H32 UNL     1      -0.711   1.413  -4.367  1.00  0.00     0.157 HD
ATOM     17  H31 UNL     1      -2.383   0.899  -4.382  1.00  0.00     0.157 HD
ENDBRANCH   9  15
BRANCH  11  18
HETATM   18  N5  UNL     1      -3.769  -0.222   0.048  1.00  0.00    -0.214 N 
HETATM   19  C8  UNL     1      -4.628   0.755   0.671  1.00  0.00     0.174 C 
HETATM   20  C9  UNL     1      -6.069   0.288   0.703  1.00  0.00     0.204 C 
HETATM   21  C10 UNL     1      -6.303  -0.592  -0.478  1.00  0.00     0.069 C 
HETATM   22  C11 UNL     1      -5.537  -1.881  -0.291  1.00  0.00     0.204 C 
HETATM   23  C12 UNL     1      -4.072  -1.631  -0.012  1.00  0.00     0.174 C 
BRANCH  20  24
HETATM   24  N6  UNL     1      -6.936   1.460   0.550  1.00  0.00    -0.073 N 
ATOM     25  H63 UNL     1      -6.743   2.185   1.241  1.00  0.00     0.274 HD
ATOM     26  H62 UNL     1      -6.718   2.004  -0.285  1.00  0.00     0.274 HD
ATOM     27  H61 UNL     1      -7.906   1.146   0.572  1.00  0.00     0.274 HD
ENDBRANCH  20  24
BRANCH  22  28
HETATM   28  N7  UNL     1      -6.152  -2.693   0.740  1.00  0.00    -0.073 N 
ATOM     29  H73 UNL     1      -6.252  -2.181   1.616  1.00  0.00     0.274 HD
ATOM     30  H72 UNL     1      -7.140  -2.863   0.550  1.00  0.00     0.274 HD
ATOM     31  H71 UNL     1      -5.635  -3.563   0.866  1.00  0.00     0.274 HD
ENDBRANCH  22  28
ENDBRANCH  11  18
ENDBRANCH   6   7
ENDBRANCH   4   6
ENDBRANCH   3   4
BRANCH   3  32
HETATM   32  C13 UNL     1       3.965   0.532   0.625  1.00  0.00     0.096 A 
HETATM   33  N9  UNL     1       3.437  -0.057   1.707  1.00  0.00    -0.296 N 
HETATM   34  N10 UNL     1       4.073  -0.920   2.479  1.00  0.00    -0.265 N 
ATOM     35  H9  UNL     1       2.475   0.178   1.952  1.00  0.00     0.187 HD
HETATM   36  C14 UNL     1       5.342  -1.297   2.241  1.00  0.00     0.276 A 
ATOM     37  H10 UNL     1       3.585  -1.314   3.283  1.00  0.00     0.190 HD
HETATM   38  O1  UNL     1       5.959  -2.112   2.959  1.00  0.00    -0.266 OA
HETATM   39  C15 UNL     1       5.972  -0.741   1.141  1.00  0.00     0.114 A 
HETATM   40  C16 UNL     1       5.290   0.156   0.354  1.00  0.00     0.115 A 
HETATM   41  C19 UNL     1       7.341  -1.079   0.791  1.00  0.00     0.170 C 
HETATM   42  O2  UNL     1       5.977   0.685  -0.744  1.00  0.00    -0.347 OA
HETATM   43  C17 UNL     1       6.924  -0.101  -1.458  1.00  0.00     0.183 C 
HETATM   44  C18 UNL     1       7.915  -0.747  -0.516  1.00  0.00     0.111 C 
HETATM   45  O3  UNL     1       8.051  -1.670   1.621  1.00  0.00    -0.292 OA
ENDBRANCH   3  32
TORSDOF 8
