REMARK  7 active torsions:
REMARK  status: ('A' for Active; 'I' for Inactive)
REMARK    1  A    between atoms: N1_4  and  C4_5 
REMARK    2  A    between atoms: C4_5  and  C5_6 
REMARK       I    between atoms: C5_6  and  N2_8 
REMARK    3  A    between atoms: N2_8  and  N3_10 
REMARK    4  A    between atoms: N3_10  and  C6_12 
REMARK    5  A    between atoms: C8_17  and  N6_18 
REMARK    6  A    between atoms: N6_18  and  N7_20 
REMARK    7  A    between atoms: C10_26  and  C11_27 
ROOT
HETATM    1  C6  UNL     1      -1.085  -1.132   0.945  1.00  0.00     0.185 A 
HETATM    2  C7  UNL     1      -1.053  -2.456   1.340  1.00  0.00     0.165 A 
HETATM    3  N4  UNL     1       0.136  -3.085   1.805  1.00  0.00    -0.078 NA
HETATM    4  N5  UNL     1      -2.155  -3.243   1.298  1.00  0.00    -0.324 N 
ATOM      5  H5  UNL     1      -2.097  -4.217   1.597  1.00  0.00     0.169 HD
HETATM    6  C8  UNL     1      -3.318  -2.746   0.866  1.00  0.00     0.168 A 
HETATM    7  C9  UNL     1      -3.372  -1.431   0.468  1.00  0.00     0.176 A 
HETATM    8  N8  UNL     1      -4.359  -0.649  -0.007  1.00  0.00    -0.322 N 
ATOM      9  H8  UNL     1      -5.320  -0.957  -0.153  1.00  0.00     0.169 HD
HETATM   10  C10 UNL     1      -3.910   0.592  -0.263  1.00  0.00     0.132 A 
HETATM   11  N9  UNL     1      -2.611   0.562   0.068  1.00  0.00    -0.275 N 
ATOM     12  H9  UNL     1      -1.974   1.355  -0.009  1.00  0.00     0.189 HD
HETATM   13  N10 UNL     1      -2.272  -0.634   0.506  1.00  0.00    -0.213 N 
ENDROOT
BRANCH   1  14
HETATM   14  N3  UNL     1       0.070  -0.310   1.012  1.00  0.00    -0.279 N 
ATOM     15  H3  UNL     1      -0.044   0.649   0.683  1.00  0.00     0.189 HD
BRANCH  14  16
HETATM   16  N2  UNL     1       1.319  -0.645   1.464  1.00  0.00    -0.267 N 
HETATM   17  C5  UNL     1       2.531  -0.444   0.754  1.00  0.00     0.254 C 
HETATM   18  O1  UNL     1       2.494   0.093  -0.380  1.00  0.00    -0.270 OA
ATOM     19  H2  UNL     1       1.383  -1.074   2.387  1.00  0.00     0.190 HD
BRANCH  17  20
HETATM   20  C4  UNL     1       3.849  -0.841   1.292  1.00  0.00     0.237 C 
BRANCH  20  21
HETATM   21  N1  UNL     1       4.942  -0.411   0.471  1.00  0.00    -0.300 N 
HETATM   22  C3  UNL     1       5.507   0.778   0.755  1.00  0.00     0.108 A 
HETATM   23  C2  UNL     1       6.570   1.268   0.028  1.00  0.00     0.022 A 
HETATM   24  C1  UNL     1       7.194   2.578   0.350  1.00  0.00     0.056 C 
HETATM   25  C18 UNL     1       7.035   0.492  -1.005  1.00  0.00     0.256 A 
HETATM   26  N11 UNL     1       6.472  -0.691  -1.288  1.00  0.00    -0.275 N 
HETATM   27  O3  UNL     1       8.007   0.883  -1.708  1.00  0.00    -0.267 OA
HETATM   28  C17 UNL     1       5.420  -1.135  -0.540  1.00  0.00     0.329 A 
ATOM     29  H11 UNL     1       6.828  -1.257  -2.059  1.00  0.00     0.173 HD
HETATM   30  O2  UNL     1       4.891  -2.255  -0.816  1.00  0.00    -0.246 OA
ENDBRANCH  20  21
ENDBRANCH  17  20
ENDBRANCH  14  16
ENDBRANCH   1  14
BRANCH   6  31
HETATM   31  N6  UNL     1      -4.350  -3.497   0.835  1.00  0.00    -0.289 N 
ATOM     32  H6  UNL     1      -4.240  -4.462   1.147  1.00  0.00     0.188 HD
BRANCH  31  33
HETATM   33  N7  UNL     1      -5.616  -3.100   0.408  1.00  0.00    -0.344 N 
ATOM     34  H72 UNL     1      -5.708  -2.132   0.100  1.00  0.00     0.176 HD
ATOM     35  H71 UNL     1      -6.440  -3.700   0.383  1.00  0.00     0.176 HD
ENDBRANCH  31  33
ENDBRANCH   6  31
BRANCH  10  36
HETATM   36  C11 UNL     1      -4.734   1.681  -0.778  1.00  0.00     0.009 A 
HETATM   37  C12 UNL     1      -6.087   1.533  -1.002  1.00  0.00     0.015 A 
HETATM   38  C13 UNL     1      -6.870   2.556  -1.499  1.00  0.00     0.001 A 
HETATM   39  C14 UNL     1      -6.320   3.777  -1.792  1.00  0.00     0.000 A 
HETATM   40  C15 UNL     1      -4.955   3.966  -1.580  1.00  0.00     0.001 A 
HETATM   41  C16 UNL     1      -4.196   2.910  -1.077  1.00  0.00     0.015 A 
ENDBRANCH  10  36
TORSDOF 7
