REMARK  9 active torsions:
REMARK  status: ('A' for Active; 'I' for Inactive)
REMARK    1  A    between atoms: N1_1  and  S1_4 
REMARK    2  A    between atoms: S1_4  and  C1_7 
REMARK    3  A    between atoms: C3_11  and  C4_12 
REMARK    4  A    between atoms: C4_12  and  C5_13 
REMARK    5  A    between atoms: C5_13  and  C6_14 
REMARK    6  A    between atoms: C5_13  and  C7_17 
REMARK    7  A    between atoms: C8_20  and  C9_21 
REMARK       I    between atoms: C9_21  and  N4_23 
REMARK    8  A    between atoms: N4_23  and  C10_25 
REMARK    9  A    between atoms: C11_34  and  O6_35 
ROOT
HETATM    1  C7  UNL     1       0.594   1.145   0.887  1.00  0.00     0.119 A 
HETATM    2  N3  UNL     1       1.135   0.034   0.259  1.00  0.00    -0.343 N 
ATOM      3  H3  UNL     1       0.553  -0.490  -0.395  1.00  0.00     0.166 HD
HETATM    4  C8  UNL     1       2.383  -0.377   0.474  1.00  0.00     0.153 A 
HETATM    5  C11 UNL     1       3.223   0.281   1.343  1.00  0.00     0.176 A 
HETATM    6  N9  UNL     1       2.724   1.350   1.958  1.00  0.00    -0.300 N 
ATOM      7  H9  UNL     1       3.314   1.866   2.610  1.00  0.00     0.171 HD
HETATM    8  C12 UNL     1       1.430   1.781   1.739  1.00  0.00     0.275 A 
HETATM    9  O7  UNL     1       1.092   2.784   2.380  1.00  0.00    -0.266 OA
ENDROOT
BRANCH   1  10
HETATM   10  C5  UNL     1      -0.801   1.472   0.614  1.00  0.00     0.075 C 
BRANCH  10  11
HETATM   11  C4  UNL     1      -1.476   0.509  -0.009  1.00  0.00     0.058 C 
BRANCH  11  12
HETATM   12  C3  UNL     1      -2.836   0.475  -0.478  1.00  0.00     0.076 A 
HETATM   13  N2  UNL     1      -3.614   1.211  -1.239  1.00  0.00    -0.358 N 
HETATM   14  C2  UNL     1      -4.843   0.886  -1.464  1.00  0.00     0.121 A 
ATOM     15  H2  UNL     1      -3.238   2.059  -1.662  1.00  0.00     0.166 HD
HETATM   16  C1  UNL     1      -5.315  -0.261  -0.878  1.00  0.00     0.137 A 
HETATM   17  S2  UNL     1      -3.937  -0.801  -0.032  1.00  0.00    -0.058 SA
BRANCH  16  18
HETATM   18  S1  UNL     1      -6.924  -0.977  -0.976  1.00  0.00     0.264 S 
HETATM   19  O1  UNL     1      -7.812  -0.194  -1.865  1.00  0.00    -0.200 OA
HETATM   20  O2  UNL     1      -6.820  -2.404  -1.451  1.00  0.00    -0.200 OA
BRANCH  18  21
HETATM   21  N1  UNL     1      -7.539  -1.026   0.637  1.00  0.00    -0.324 N 
ATOM     22  H12 UNL     1      -8.404  -0.569   0.924  1.00  0.00     0.169 HD
ATOM     23  H11 UNL     1      -6.927  -1.565   1.249  1.00  0.00     0.169 HD
ENDBRANCH  18  21
ENDBRANCH  16  18
ENDBRANCH  11  12
ENDBRANCH  10  11
BRANCH  10  24
HETATM   24  C6  UNL     1      -1.435   2.693   0.913  1.00  0.00     0.211 C 
HETATM   25  O3  UNL     1      -2.678   2.893   0.644  1.00  0.00    -0.644 OA
HETATM   26  O4  UNL     1      -0.862   3.796   1.495  1.00  0.00    -0.644 OA
ENDBRANCH  10  24
ENDBRANCH   1  10
BRANCH   4  27
HETATM   27  C9  UNL     1       2.891  -1.554  -0.226  1.00  0.00     0.290 C 
HETATM   28  O5  UNL     1       2.153  -2.199  -1.039  1.00  0.00    -0.265 OA
HETATM   29  N4  UNL     1       4.213  -2.019  -0.029  1.00  0.00    -0.151 N 
ATOM     30  H4  UNL     1       4.438  -2.501   0.841  1.00  0.00     0.188 HD
BRANCH  29  31
HETATM   31  C10 UNL     1       5.150  -1.856  -0.911  1.00  0.00     0.716 A 
HETATM   32  N5  UNL     1       4.947  -1.236  -2.079  1.00  0.00    -0.115 N 
HETATM   33  N6  UNL     1       6.099  -1.253  -2.712  1.00  0.00    -0.213 N 
ATOM     34  H5  UNL     1       4.072  -0.831  -2.412  1.00  0.00     0.207 HD
HETATM   35  N7  UNL     1       7.004  -1.860  -1.978  1.00  0.00    -0.213 N 
ATOM     36  H6  UNL     1       6.266  -0.854  -3.636  1.00  0.00     0.210 HD
HETATM   37  N8  UNL     1       6.424  -2.234  -0.866  1.00  0.00    -0.115 N 
ATOM     38  H7  UNL     1       7.981  -2.012  -2.229  1.00  0.00     0.210 HD
ATOM     39  H8  UNL     1       6.873  -2.731  -0.096  1.00  0.00     0.207 HD
ENDBRANCH  29  31
ENDBRANCH   4  27
BRANCH   5  40
HETATM   40  O6  UNL     1       4.525  -0.126   1.585  1.00  0.00    -0.344 OA
ATOM     41  H6  UNL     1       5.105   0.328   2.185  1.00  0.00     0.219 HD
ENDBRANCH   5  40
TORSDOF 9
