REMARK  8 active torsions:
REMARK  status: ('A' for Active; 'I' for Inactive)
REMARK    1  A    between atoms: N2_7  and  N3_8 
REMARK    2  A    between atoms: C3_11  and  C4_12 
REMARK    3  A    between atoms: C8_16  and  C9_17 
REMARK       I    between atoms: C9_17  and  N4_19 
REMARK    4  A    between atoms: N4_19  and  N5_21 
REMARK    5  A    between atoms: N7_27  and  C11_28 
REMARK    6  A    between atoms: C11_28  and  C12_29 
REMARK    7  A    between atoms: C12_29  and  C13_30 
REMARK    8  A    between atoms: C12_29  and  N10_39 
ROOT
HETATM    1  N1  UNL     1       0.638  -2.065   3.377  1.00  0.00    -0.380 N 
ATOM      2  H11 UNL     1      -0.109  -2.745   3.519  1.00  0.00     0.157 HD
ATOM      3  H12 UNL     1       1.311  -1.842   4.110  1.00  0.00     0.157 HD
HETATM    4  C1  UNL     1       0.754  -1.505   2.202  1.00  0.00     0.176 A 
HETATM    5  C2  UNL     1       1.787  -0.564   2.006  1.00  0.00     0.310 A 
HETATM    6  O1  UNL     1       2.586  -0.311   2.908  1.00  0.00    -0.262 OA
HETATM    7  N2  UNL     1       1.897   0.068   0.807  1.00  0.00    -0.220 N 
HETATM    8  C3  UNL     1       1.027  -0.207  -0.167  1.00  0.00     0.102 A 
HETATM    9  C10 UNL     1       0.057  -1.111   0.066  1.00  0.00     0.132 A 
HETATM   10  N7  UNL     1      -0.129  -1.797   1.241  1.00  0.00    -0.310 N 
ENDROOT
BRANCH   8  11
HETATM   11  C4  UNL     1       1.080   0.525  -1.437  1.00  0.00     0.063 A 
HETATM   12  C5  UNL     1      -0.018   0.667  -2.272  1.00  0.00     0.032 A 
HETATM   13  C6  UNL     1       0.034   1.411  -3.423  1.00  0.00     0.005 A 
HETATM   14  C7  UNL     1       1.211   2.031  -3.760  1.00  0.00     0.035 A 
HETATM   15  C8  UNL     1       2.303   1.904  -2.955  1.00  0.00     0.102 A 
HETATM   16  N6  UNL     1       2.216   1.159  -1.815  1.00  0.00    -0.350 N 
ATOM     17  H6  UNL     1       3.042   1.076  -1.222  1.00  0.00     0.166 HD
BRANCH  15  18
HETATM   18  C9  UNL     1       3.558   2.526  -3.331  1.00  0.00     0.286 C 
HETATM   19  O2  UNL     1       4.607   2.229  -2.649  1.00  0.00    -0.264 OA
HETATM   20  N4  UNL     1       3.718   3.434  -4.398  1.00  0.00    -0.271 N 
ATOM     21  H4  UNL     1       2.920   3.705  -4.972  1.00  0.00     0.189 HD
BRANCH  20  22
HETATM   22  N5  UNL     1       5.010   3.965  -4.660  1.00  0.00    -0.342 N 
ATOM     23  H52 UNL     1       5.798   3.684  -4.077  1.00  0.00     0.176 HD
ATOM     24  H51 UNL     1       5.126   4.622  -5.432  1.00  0.00     0.176 HD
ENDBRANCH  20  22
ENDBRANCH  15  18
ENDBRANCH   8  11
BRANCH   7  25
HETATM   25  N3  UNL     1       2.893   1.005   0.571  1.00  0.00    -0.335 N 
ATOM     26  H32 UNL     1       3.558   1.215   1.315  1.00  0.00     0.177 HD
ATOM     27  H31 UNL     1       2.976   1.479  -0.328  1.00  0.00     0.177 HD
ENDBRANCH   7  25
BRANCH  10  28
HETATM   28  C11 UNL     1      -1.150  -2.756   1.337  1.00  0.00     0.136 C 
BRANCH  28  29
HETATM   29  C12 UNL     1      -2.472  -2.575   1.817  1.00  0.00     0.151 C 
BRANCH  29  30
HETATM   30  C13 UNL     1      -3.193  -1.586   2.269  1.00  0.00     0.140 A 
HETATM   31  N8  UNL     1      -4.587  -1.747   2.697  1.00  0.00    -0.302 N 
HETATM   32  C14 UNL     1      -5.165  -0.529   3.070  1.00  0.00     0.327 A 
ATOM     33  H8  UNL     1      -5.077  -2.641   2.720  1.00  0.00     0.171 HD
HETATM   34  O3  UNL     1      -6.290  -0.201   3.488  1.00  0.00    -0.247 OA
HETATM   35  N9  UNL     1      -4.166   0.505   2.904  1.00  0.00    -0.274 N 
HETATM   36  C15 UNL     1      -2.993  -0.154   2.424  1.00  0.00     0.278 A 
ATOM     37  H9  UNL     1      -4.277   1.501   3.092  1.00  0.00     0.173 HD
HETATM   38  O4  UNL     1      -1.971   0.506   2.192  1.00  0.00    -0.265 OA
ENDBRANCH  29  30
BRANCH  29  39
HETATM   39  N10 UNL     1      -3.228  -3.861   1.782  1.00  0.00    -0.112 N 
HETATM   40  O5  UNL     1      -3.530  -4.270   0.677  1.00  0.00    -0.532 OA
HETATM   41  O6  UNL     1      -3.522  -4.481   2.927  1.00  0.00    -0.532 OA
ENDBRANCH  29  39
ENDBRANCH  28  29
ENDBRANCH  10  28
TORSDOF 8
