REMARK  9 active torsions:
REMARK  status: ('A' for Active; 'I' for Inactive)
REMARK    1  A    between atoms: C3_6  and  N3_7 
REMARK    2  A    between atoms: N3_7  and  C4_9 
REMARK    3  A    between atoms: C5_12  and  N5_13 
REMARK    4  A    between atoms: C7_15  and  N6_16 
REMARK    5  A    between atoms: C9_21  and  N7_22 
REMARK    6  A    between atoms: C11_29  and  N9_30 
REMARK    7  A    between atoms: C13_32  and  N10_33 
REMARK    8  A    between atoms: C15_38  and  N11_39 
REMARK    9  A    between atoms: N11_39  and  C16_41 
ROOT
HETATM    1  C4  UNL     1      -1.346   1.411   0.767  1.00  0.00     0.707 A 
HETATM    2  N4  UNL     1      -1.905   0.222   1.023  1.00  0.00    -0.021 N 
ATOM      3  H4  UNL     1      -2.849   0.167   1.406  1.00  0.00     0.203 HD
HETATM    4  C5  UNL     1      -1.216  -0.887   0.772  1.00  0.00     0.709 A 
HETATM    5  N8  UNL     1       0.030  -0.835   0.266  1.00  0.00    -0.021 N 
ATOM      6  H8  UNL     1       0.537  -1.701   0.082  1.00  0.00     0.203 HD
HETATM    7  C11 UNL     1       0.610   0.340   0.002  1.00  0.00     0.709 A 
HETATM    8  N12 UNL     1      -0.084   1.454   0.255  1.00  0.00    -0.021 N 
ATOM      9  H12 UNL     1       0.342   2.360   0.060  1.00  0.00     0.203 HD
ENDROOT
BRANCH   4  10
HETATM   10  N5  UNL     1      -1.790  -2.153   1.037  1.00  0.00    -0.213 N 
HETATM   11  C6  UNL     1      -3.132  -2.198   1.583  1.00  0.00     0.174 C 
HETATM   12  C7  UNL     1      -3.613  -3.641   1.419  1.00  0.00     0.204 C 
HETATM   13  C8  UNL     1      -3.276  -4.052   0.014  1.00  0.00     0.069 C 
HETATM   14  C9  UNL     1      -1.796  -4.362  -0.048  1.00  0.00     0.204 C 
HETATM   15  C10 UNL     1      -1.030  -3.354   0.758  1.00  0.00     0.174 C 
BRANCH  12  16
HETATM   16  N6  UNL     1      -5.019  -3.641   1.706  1.00  0.00    -0.073 N 
ATOM     17  H63 UNL     1      -5.244  -3.242   2.618  1.00  0.00     0.274 HD
ATOM     18  H62 UNL     1      -5.545  -2.974   1.141  1.00  0.00     0.274 HD
ATOM     19  H61 UNL     1      -5.340  -4.603   1.597  1.00  0.00     0.274 HD
ENDBRANCH  12  16
BRANCH  14  20
HETATM   20  N7  UNL     1      -1.420  -4.277  -1.462  1.00  0.00    -0.073 N 
ATOM     21  H73 UNL     1      -1.985  -4.871  -2.069  1.00  0.00     0.274 HD
ATOM     22  H72 UNL     1      -1.667  -3.387  -1.895  1.00  0.00     0.274 HD
ATOM     23  H71 UNL     1      -0.423  -4.486  -1.504  1.00  0.00     0.274 HD
ENDBRANCH  14  20
ENDBRANCH   4  10
BRANCH   1  24
HETATM   24  N3  UNL     1      -2.033   2.458   1.019  1.00  0.00    -0.218 N 
ATOM     25  H3  UNL     1      -2.974   2.368   1.402  1.00  0.00     0.178 HD
BRANCH  24  26
HETATM   26  C3  UNL     1      -1.487   3.760   0.765  1.00  0.00     0.123 C 
HETATM   27  C2  UNL     1      -1.739   4.131  -0.674  1.00  0.00     0.146 C 
HETATM   28  N2  UNL     1      -1.783   5.568  -0.646  1.00  0.00    -0.380 N 
HETATM   29  C1  UNL     1      -2.106   5.997   0.518  1.00  0.00     0.090 C 
ATOM     30  H2  UNL     1      -1.583   6.167  -1.447  1.00  0.00     0.160 HD
HETATM   31  N1  UNL     1      -2.253   7.351   0.937  1.00  0.00    -0.088 NA
HETATM   32  C18 UNL     1      -2.322   4.845   1.470  1.00  0.00     0.100 C 
ENDBRANCH  24  26
ENDBRANCH   1  24
BRANCH   7  33
HETATM   33  N9  UNL     1       1.926   0.356  -0.531  1.00  0.00    -0.213 N 
HETATM   34  C12 UNL     1       2.573   1.623  -0.801  1.00  0.00     0.174 C 
HETATM   35  C13 UNL     1       4.046   1.428  -0.941  1.00  0.00     0.204 C 
HETATM   36  C14 UNL     1       4.509   0.493   0.161  1.00  0.00     0.061 C 
HETATM   37  C15 UNL     1       3.931  -0.883  -0.006  1.00  0.00     0.104 C 
HETATM   38  C17 UNL     1       2.653  -0.867  -0.823  1.00  0.00     0.166 C 
BRANCH  35  39
HETATM   39  N10 UNL     1       4.393   0.994  -2.258  1.00  0.00    -0.073 N 
ATOM     40 3H10 UNL     1       3.878   0.154  -2.522  1.00  0.00     0.274 HD
ATOM     41 2H10 UNL     1       4.031   1.630  -2.968  1.00  0.00     0.274 HD
ATOM     42 1H10 UNL     1       5.400   0.861  -2.354  1.00  0.00     0.274 HD
ENDBRANCH  35  39
BRANCH  37  43
HETATM   43  N11 UNL     1       4.901  -1.799  -0.543  1.00  0.00    -0.362 N 
ATOM     44  H11 UNL     1       5.304  -1.641  -1.467  1.00  0.00     0.162 HD
BRANCH  43  45
HETATM   45  C16 UNL     1       5.290  -2.922   0.224  1.00  0.00     0.348 C 
HETATM   46  O1  UNL     1       4.801  -3.139   1.375  1.00  0.00    -0.284 OA
ENDBRANCH  43  45
ENDBRANCH  37  43
ENDBRANCH   7  33
TORSDOF 9
