REMARK  9 active torsions:
REMARK  status: ('A' for Active; 'I' for Inactive)
REMARK    1  A    between atoms: N1_1  and  N2_4 
REMARK    2  A    between atoms: N2_4  and  C1_5 
REMARK    3  A    between atoms: C1_5  and  O1_6 
REMARK    4  A    between atoms: N4_9  and  N5_10 
REMARK    5  A    between atoms: N6_13  and  S1_14 
REMARK    6  A    between atoms: S1_14  and  C2_15 
REMARK    7  A    between atoms: C2_15  and  C3_16 
REMARK    8  A    between atoms: C6_19  and  S2_20 
REMARK    9  A    between atoms: S2_20  and  N7_23 
ROOT
HETATM    1  C2  UNL     1       1.961   1.452   0.184  1.00  0.00     0.137 C 
ENDROOT
BRANCH   1   2
HETATM    2  S1  UNL     1       2.913   0.079   0.848  1.00  0.00    -0.024 SA
BRANCH   2   3
HETATM    3  N6  UNL     1       4.171  -0.610  -0.040  1.00  0.00    -0.176 N 
HETATM    4  N4  UNL     1       4.885  -1.824   0.298  1.00  0.00    -0.032 NA
HETATM    5  N3  UNL     1       6.183  -1.239   0.384  1.00  0.00    -0.056 NA
HETATM    6  C1  UNL     1       6.311  -0.498  -0.876  1.00  0.00     0.325 C 
HETATM    7  C13 UNL     1       4.884  -0.208  -1.236  1.00  0.00     0.320 C 
HETATM    8  O4  UNL     1       4.361   0.259  -2.266  1.00  0.00    -0.264 OA
BRANCH   4   9
HETATM    9  N5  UNL     1       4.503  -2.198   1.599  1.00  0.00    -0.329 NA
ATOM     10  H52 UNL     1       5.006  -3.053   1.837  1.00  0.00     0.174 HD
ATOM     11  H51 UNL     1       3.575  -2.616   1.537  1.00  0.00     0.174 HD
ENDBRANCH   4   9
BRANCH   6  12
HETATM   12  N2  UNL     1       6.975   0.770  -0.659  1.00  0.00    -0.081 NA
BRANCH  12  13
HETATM   13  N1  UNL     1       8.270   0.622  -0.144  1.00  0.00    -0.344 N 
ATOM     14  H12 UNL     1       8.686  -0.289   0.052  1.00  0.00     0.172 HD
ATOM     15  H11 UNL     1       8.738   1.515   0.009  1.00  0.00     0.172 HD
ENDBRANCH  12  13
ENDBRANCH   6  12
BRANCH   6  16
HETATM   16  O1  UNL     1       6.911  -1.253  -1.854  1.00  0.00    -0.351 OA
ATOM     17  H1  UNL     1       6.475  -2.085  -1.996  1.00  0.00     0.214 HD
ENDBRANCH   6  16
ENDBRANCH   2   3
ENDBRANCH   1   2
BRANCH   1  18
HETATM   18  C3  UNL     1       0.538   0.994   0.055  1.00  0.00    -0.047 A 
HETATM   19  C4  UNL     1      -0.131   0.816  -1.097  1.00  0.00     0.009 A 
HETATM   20  C5  UNL     1      -1.450   0.284  -1.111  1.00  0.00     0.025 A 
HETATM   21  C6  UNL     1      -2.105  -0.079   0.054  1.00  0.00     0.074 A 
HETATM   22  C11 UNL     1      -1.391   0.121   1.228  1.00  0.00     0.025 A 
HETATM   23  C12 UNL     1      -0.120   0.631   1.239  1.00  0.00     0.009 A 
BRANCH  21  24
HETATM   24  S2  UNL     1      -3.703  -0.826   0.059  1.00  0.00     0.244 S 
HETATM   25  O2  UNL     1      -3.929  -1.400  -1.331  1.00  0.00    -0.206 OA
HETATM   26  O3  UNL     1      -3.616  -2.071   0.951  1.00  0.00    -0.206 OA
BRANCH  24  27
HETATM   27  N7  UNL     1      -4.928   0.166   0.608  1.00  0.00    -0.197 NA
HETATM   28  C7  UNL     1      -5.209   1.365  -0.094  1.00  0.00     0.152 C 
HETATM   29  C8  UNL     1      -6.067   1.166  -1.315  1.00  0.00     0.075 C 
HETATM   30  N8  UNL     1      -6.618  -0.112  -1.448  1.00  0.00    -0.380 N 
HETATM   31  C9  UNL     1      -6.887  -0.939  -0.364  1.00  0.00     0.075 C 
ATOM     32  H8  UNL     1      -6.833  -0.454  -2.385  1.00  0.00     0.164 HD
HETATM   33  C10 UNL     1      -6.167  -0.554   0.918  1.00  0.00     0.152 C 
ENDBRANCH  24  27
ENDBRANCH  21  24
ENDBRANCH   1  18
TORSDOF 9
