REMARK  9 active torsions:
REMARK  status: ('A' for Active; 'I' for Inactive)
REMARK    1  A    between atoms: N1_1  and  C1_4 
REMARK    2  A    between atoms: N5_13  and  C4_14 
REMARK    3  A    between atoms: C4_14  and  C5_15 
REMARK    4  A    between atoms: N7_22  and  C9_23 
REMARK    5  A    between atoms: C9_23  and  C10_24 
REMARK    6  A    between atoms: C14_31  and  S1_32 
REMARK    7  A    between atoms: S1_32  and  N9_33 
REMARK    8  A    between atoms: S1_32  and  N10_37 
REMARK    9  A    between atoms: N10_37  and  O3_39 
ROOT
HETATM    1  C5  UNL     1      -0.969  -0.619  -0.072  1.00  0.00     0.268 C 
HETATM    2  C6  UNL     1      -1.997  -1.725  -0.264  1.00  0.00     0.270 C 
HETATM    3  N6  UNL     1      -2.258  -2.457   0.944  1.00  0.00    -0.071 N 
ATOM      4  H61 UNL     1      -3.074  -3.066   0.883  1.00  0.00     0.277 HD
ATOM      5  H62 UNL     1      -2.597  -1.873   1.709  1.00  0.00     0.277 HD
HETATM    6  C7  UNL     1      -1.023  -3.168   1.257  1.00  0.00     0.262 C 
HETATM    7  C8  UNL     1       0.152  -2.565   0.586  1.00  0.00     0.300 C 
HETATM    8  N7  UNL     1       0.199  -1.110   0.602  1.00  0.00     0.103 N 
ENDROOT
BRANCH   8   9
HETATM    9  C9  UNL     1       1.450  -0.754   0.003  1.00  0.00     0.331 C 
BRANCH   9  10
HETATM   10  C10 UNL     1       2.124   0.448   0.507  1.00  0.00     0.062 A 
HETATM   11  N8  UNL     1       1.743   1.137   1.593  1.00  0.00    -0.324 N 
HETATM   12  C11 UNL     1       2.390   2.204   2.102  1.00  0.00     0.245 A 
ATOM     13  H8  UNL     1       0.897   0.829   2.071  1.00  0.00     0.169 HD
HETATM   14  O1  UNL     1       1.958   2.788   3.124  1.00  0.00    -0.268 OA
HETATM   15  C12 UNL     1       3.541   2.674   1.507  1.00  0.00     0.076 A 
HETATM   16  C13 UNL     1       3.991   2.015   0.390  1.00  0.00     0.031 A 
HETATM   17  C14 UNL     1       3.294   0.918  -0.104  1.00  0.00     0.084 A 
BRANCH  17  18
HETATM   18  S1  UNL     1       3.882   0.109  -1.517  1.00  0.00     0.157 S 
HETATM   19  O2  UNL     1       2.875   0.308  -2.622  1.00  0.00    -0.222 OA
BRANCH  18  20
HETATM   20  N9  UNL     1       4.314  -1.519  -1.300  1.00  0.00    -0.339 N 
ATOM     21  H92 UNL     1       4.227  -1.975  -0.392  1.00  0.00     0.167 HD
ATOM     22  H91 UNL     1       4.660  -1.996  -2.133  1.00  0.00     0.167 HD
ENDBRANCH  18  20
BRANCH  18  23
HETATM   23  N10 UNL     1       5.209   0.850  -2.007  1.00  0.00    -0.207 N 
ATOM     24  H10 UNL     1       5.820   1.328  -1.344  1.00  0.00     0.206 HD
BRANCH  23  25
HETATM   25  O3  UNL     1       5.503   0.824  -3.352  1.00  0.00    -0.281 OA
ATOM     26  H3  UNL     1       6.292   1.265  -3.644  1.00  0.00     0.245 HD
ENDBRANCH  23  25
ENDBRANCH  18  23
ENDBRANCH  17  18
ENDBRANCH   9  10
ENDBRANCH   8   9
BRANCH   1  27
HETATM   27  C4  UNL     1      -1.612   0.619   0.376  1.00  0.00     0.189 C 
BRANCH  27  28
HETATM   28  N5  UNL     1      -2.611   1.170  -0.539  1.00  0.00    -0.249 N 
HETATM   29  C3  UNL     1      -2.244   1.940  -1.621  1.00  0.00     0.219 A 
HETATM   30  N4  UNL     1      -3.346   2.332  -2.229  1.00  0.00    -0.183 N 
HETATM   31  C2  UNL     1      -4.423   1.837  -1.568  1.00  0.00     0.734 A 
ATOM     32  H4  UNL     1      -3.383   2.916  -3.065  1.00  0.00     0.185 HD
HETATM   33  N3  UNL     1      -5.761   1.792  -1.534  1.00  0.00    -0.115 N 
HETATM   34  N11 UNL     1      -3.916   1.130  -0.535  1.00  0.00     0.095 N 
HETATM   35  N2  UNL     1      -6.132   1.074  -0.501  1.00  0.00    -0.116 N 
ATOM     36  H3  UNL     1      -6.388   2.242  -2.201  1.00  0.00     0.206 HD
HETATM   37  C1  UNL     1      -4.986   0.656   0.130  1.00  0.00     0.727 A 
ATOM     38  H2  UNL     1      -7.090   0.866  -0.220  1.00  0.00     0.206 HD
BRANCH  37  39
HETATM   39  N1  UNL     1      -5.051  -0.049   1.185  1.00  0.00    -0.231 N 
ATOM     40  H12 UNL     1      -5.862  -0.408   1.689  1.00  0.00     0.174 HD
ATOM     41  H11 UNL     1      -4.200  -0.359   1.654  1.00  0.00     0.174 HD
ENDBRANCH  37  39
ENDBRANCH  27  28
ENDBRANCH   1  27
TORSDOF 9
