REMARK  6 active torsions:
REMARK  status: ('A' for Active; 'I' for Inactive)
REMARK    1  A    between atoms: C1_2  and  C2_4 
REMARK    2  A    between atoms: C4_9  and  N3_10 
REMARK    3  A    between atoms: N3_10  and  N4_12 
REMARK    4  A    between atoms: N4_12  and  C5_14 
REMARK    5  A    between atoms: C9_18  and  S1_19 
REMARK    6  A    between atoms: S1_19  and  N5_20 
ROOT
HETATM    1  C2  UNL     1      -3.199   1.123   0.117  1.00  0.00     0.117 C 
HETATM    2  C3  UNL     1      -2.482   1.836  -0.846  1.00  0.00     0.276 C 
HETATM    3  O2  UNL     1      -2.768   3.039  -0.942  1.00  0.00    -0.267 OA
HETATM    4  N2  UNL     1      -1.534   1.292  -1.638  1.00  0.00    -0.154 N 
ATOM      5  H2  UNL     1      -1.214   1.913  -2.381  1.00  0.00     0.187 HD
HETATM    6  C4  UNL     1      -0.925   0.082  -1.638  1.00  0.00     0.701 C 
HETATM    7  N6  UNL     1      -1.381  -1.024  -0.989  1.00  0.00    -0.174 N 
ATOM      8  H6  UNL     1      -0.725  -1.794  -0.862  1.00  0.00     0.186 HD
HETATM    9  C11 UNL     1      -2.651  -1.190  -0.491  1.00  0.00     0.142 A 
HETATM   10  N7  UNL     1      -3.096  -2.451  -0.519  1.00  0.00    -0.293 N 
ATOM     11  H7  UNL     1      -2.493  -3.195  -0.870  1.00  0.00     0.172 HD
HETATM   12  C12 UNL     1      -4.337  -2.741  -0.085  1.00  0.00     0.328 A 
HETATM   13  O5  UNL     1      -4.732  -3.952  -0.123  1.00  0.00    -0.247 OA
HETATM   14  N8  UNL     1      -5.158  -1.786   0.382  1.00  0.00    -0.275 N 
ATOM     15  H8  UNL     1      -6.093  -2.040   0.702  1.00  0.00     0.173 HD
HETATM   16  C13 UNL     1      -4.767  -0.502   0.434  1.00  0.00     0.264 A 
HETATM   17  O6  UNL     1      -5.498   0.399   0.850  1.00  0.00    -0.267 OA
HETATM   18  C14 UNL     1      -3.508  -0.222  -0.006  1.00  0.00     0.098 A 
ENDROOT
BRANCH   6  19
HETATM   19  N3  UNL     1       0.260   0.033  -2.391  1.00  0.00    -0.131 N 
ATOM     20  H3  UNL     1       0.136   0.258  -3.378  1.00  0.00     0.205 HD
BRANCH  19  21
HETATM   21  N4  UNL     1       1.542  -0.259  -2.045  1.00  0.00    -0.287 N 
ATOM     22  H4  UNL     1       2.048  -0.802  -2.745  1.00  0.00     0.187 HD
BRANCH  21  23
HETATM   23  C5  UNL     1       2.298   0.047  -0.905  1.00  0.00     0.050 A 
HETATM   24  C6  UNL     1       1.745   0.638   0.199  1.00  0.00     0.031 A 
HETATM   25  C7  UNL     1       2.576   0.937   1.287  1.00  0.00     0.004 A 
HETATM   26  C8  UNL     1       3.923   0.639   1.241  1.00  0.00     0.025 A 
HETATM   27  C9  UNL     1       4.499   0.044   0.138  1.00  0.00     0.081 A 
HETATM   28  C10 UNL     1       3.681  -0.246  -0.923  1.00  0.00     0.056 A 
BRANCH  27  29
HETATM   29  S1  UNL     1       6.207  -0.290   0.135  1.00  0.00     0.256 S 
HETATM   30  O3  UNL     1       6.685  -0.225  -1.310  1.00  0.00    -0.201 OA
HETATM   31  O4  UNL     1       6.904   0.790   0.927  1.00  0.00    -0.201 OA
BRANCH  29  32
HETATM   32  N5  UNL     1       6.607  -1.837   0.758  1.00  0.00    -0.324 N 
ATOM     33  H52 UNL     1       5.898  -2.489   1.095  1.00  0.00     0.169 HD
ATOM     34  H51 UNL     1       7.608  -2.033   0.756  1.00  0.00     0.169 HD
ENDBRANCH  29  32
ENDBRANCH  27  29
ENDBRANCH  21  23
ENDBRANCH  19  21
ENDBRANCH   6  19
BRANCH   1  35
HETATM   35  C1  UNL     1      -3.657   1.839   1.263  1.00  0.00     0.271 C 
HETATM   36  N1  UNL     1      -3.990   3.208   1.127  1.00  0.00    -0.057 NA
HETATM   37  O1  UNL     1      -3.772   1.300   2.370  1.00  0.00    -0.271 OA
ENDBRANCH   1  35
TORSDOF 6
