REMARK  12 active torsions:
REMARK  status: ('A' for Active; 'I' for Inactive)
REMARK    1  A    between atoms: N1_2  and  C2_5 
REMARK    2  A    between atoms: C4_9  and  C5_10 
REMARK    3  A    between atoms: C6_13  and  S1_14 
REMARK    4  A    between atoms: S1_14  and  S2_15 
REMARK    5  A    between atoms: S2_15  and  C7_16 
REMARK    6  A    between atoms: C9_21  and  N4_22 
REMARK    7  A    between atoms: C10_26  and  N5_27 
REMARK    8  A    between atoms: N5_27  and  C11_29 
REMARK    9  A    between atoms: C11_29  and  C12_33 
REMARK   10  A    between atoms: N8_37  and  C14_38 
REMARK   11  A    between atoms: C16_45  and  N11_46 
REMARK   12  A    between atoms: C18_52  and  C19_53 
ROOT
HETATM    1  C7  UNL     1      -0.535  -2.479   0.250  1.00  0.00     0.282 C 
HETATM    2  N3  UNL     1      -0.777  -3.873   0.595  1.00  0.00    -0.057 N 
ATOM      3  H31 UNL     1      -0.933  -4.488  -0.204  1.00  0.00     0.278 HD
ATOM      4  H32 UNL     1      -1.678  -4.051   1.040  1.00  0.00     0.278 HD
HETATM    5  C8  UNL     1       0.389  -4.220   1.415  1.00  0.00     0.268 C 
HETATM    6  C9  UNL     1       1.513  -3.680   0.533  1.00  0.00     0.234 C 
HETATM    7  C10 UNL     1       0.947  -2.327   0.142  1.00  0.00     0.156 C 
ENDROOT
BRANCH   7   8
HETATM    8  N5  UNL     1       1.392  -1.951  -1.190  1.00  0.00    -0.366 N 
ATOM      9  H5  UNL     1       0.730  -1.796  -1.951  1.00  0.00     0.161 HD
BRANCH   8  10
HETATM   10  C11 UNL     1       2.787  -1.810  -1.380  1.00  0.00     0.108 C 
HETATM   11  N6  UNL     1       3.393  -2.752  -2.027  1.00  0.00    -0.385 N 
ATOM     12  H62 UNL     1       2.867  -3.553  -2.376  1.00  0.00     0.157 HD
ATOM     13  H61 UNL     1       4.399  -2.650  -2.164  1.00  0.00     0.157 HD
BRANCH  10  14
HETATM   14  C12 UNL     1       3.536  -0.668  -0.882  1.00  0.00     0.042 A 
HETATM   15  C13 UNL     1       3.033   0.397  -0.192  1.00  0.00     0.124 A 
HETATM   16  N7  UNL     1       4.085   1.205   0.066  1.00  0.00    -0.290 N 
HETATM   17  N8  UNL     1       5.192   0.709  -0.417  1.00  0.00    -0.096 N 
ATOM     18  H7  UNL     1       4.022   2.088   0.573  1.00  0.00     0.187 HD
HETATM   19  C17 UNL     1       4.891  -0.469  -1.022  1.00  0.00     0.151 A 
BRANCH  17  20
HETATM   20  C14 UNL     1       6.480   1.294  -0.328  1.00  0.00     0.721 A 
HETATM   21  N9  UNL     1       7.431   0.748   0.476  1.00  0.00    -0.138 N 
HETATM   22  C15 UNL     1       8.655   1.298   0.566  1.00  0.00     0.352 A 
ATOM     23  H9  UNL     1       7.213  -0.089   1.017  1.00  0.00     0.189 HD
HETATM   24  O4  UNL     1       9.536   0.784   1.316  1.00  0.00    -0.246 OA
HETATM   25  N10 UNL     1       8.967   2.401  -0.139  1.00  0.00    -0.141 N 
HETATM   26  C16 UNL     1       8.047   2.950  -0.932  1.00  0.00     0.694 A 
ATOM     27  H10 UNL     1       9.898   2.813  -0.067  1.00  0.00     0.189 HD
HETATM   28  N12 UNL     1       6.813   2.396  -1.023  1.00  0.00    -0.020 N 
ATOM     29  H12 UNL     1       6.119   2.826  -1.634  1.00  0.00     0.203 HD
BRANCH  26  30
HETATM   30  N11 UNL     1       8.311   4.016  -1.629  1.00  0.00    -0.234 N 
ATOM     31 2H11 UNL     1       9.239   4.433  -1.561  1.00  0.00     0.174 HD
ATOM     32 1H11 UNL     1       7.607   4.436  -2.236  1.00  0.00     0.174 HD
ENDBRANCH  26  30
ENDBRANCH  17  20
ENDBRANCH  10  14
ENDBRANCH   8  10
ENDBRANCH   7   8
BRANCH   1  33
HETATM   33  S2  UNL     1      -1.181  -1.367   1.523  1.00  0.00    -0.057 SA
BRANCH  33  34
HETATM   34  S1  UNL     1      -3.327  -1.490   1.596  1.00  0.00    -0.056 SA
BRANCH  34  35
HETATM   35  C6  UNL     1      -3.971  -0.269   0.464  1.00  0.00     0.046 C 
HETATM   36  C4  UNL     1      -3.864   0.993   0.721  1.00  0.00     0.131 C 
HETATM   37  N2  UNL     1      -4.368   2.004  -0.184  1.00  0.00    -0.292 N 
HETATM   38  C3  UNL     1      -4.125   3.271  -0.758  1.00  0.00     0.259 C 
HETATM   39  C20 UNL     1      -5.629   1.815  -0.896  1.00  0.00     0.196 C 
HETATM   40  C2  UNL     1      -5.280   3.050  -1.692  1.00  0.00     0.310 C 
HETATM   41  O1  UNL     1      -3.306   4.237  -0.604  1.00  0.00    -0.271 OA
HETATM   42  S3  UNL     1      -5.466   0.254  -1.806  1.00  0.00    -0.121 SA
HETATM   43  C18 UNL     1      -4.678  -0.892  -0.694  1.00  0.00     0.181 C 
BRANCH  36  44
HETATM   44  C5  UNL     1      -3.271   1.495   1.949  1.00  0.00     0.228 C 
HETATM   45  O2  UNL     1      -2.845   0.682   2.794  1.00  0.00    -0.643 OA
HETATM   46  O3  UNL     1      -3.144   2.848   2.252  1.00  0.00    -0.643 OA
ENDBRANCH  36  44
BRANCH  40  47
HETATM   47  N1  UNL     1      -6.265   4.116  -1.594  1.00  0.00    -0.063 N 
HETATM   48  C1  UNL     1      -6.831   4.151  -0.268  1.00  0.00     0.268 C 
ATOM     49  H12 UNL     1      -6.984   4.038  -2.313  1.00  0.00     0.277 HD
ATOM     50  H11 UNL     1      -5.877   5.019  -1.867  1.00  0.00     0.277 HD
ENDBRANCH  40  47
BRANCH  43  51
HETATM   51  C19 UNL     1      -5.625  -1.883  -0.121  1.00  0.00     0.250 C 
HETATM   52  N13 UNL     1      -6.403  -2.667  -1.015  1.00  0.00    -0.061 NA
HETATM   53  O5  UNL     1      -5.777  -2.067   1.112  1.00  0.00    -0.275 OA
ENDBRANCH  43  51
ENDBRANCH  34  35
ENDBRANCH  33  34
ENDBRANCH   1  33
BRANCH   6  54
HETATM   54  N4  UNL     1       2.725  -3.460   1.300  1.00  0.00    -0.071 N 
ATOM     55  H43 UNL     1       2.555  -2.854   2.103  1.00  0.00     0.274 HD
ATOM     56  H42 UNL     1       3.012  -4.303   1.797  1.00  0.00     0.274 HD
ATOM     57  H41 UNL     1       3.476  -3.099   0.711  1.00  0.00     0.274 HD
ENDBRANCH   6  54
TORSDOF 12
