REMARK  16 active torsions:
REMARK  status: ('A' for Active; 'I' for Inactive)
REMARK    1  A    between atoms: C3_5  and  N2_6 
REMARK    2  A    between atoms: N2_6  and  N3_8 
REMARK    3  A    between atoms: N3_8  and  C4_10 
REMARK    4  A    between atoms: C7_13  and  O1_14 
REMARK    5  A    between atoms: C12_24  and  C13_25 
REMARK    6  A    between atoms: C13_25  and  N5_26 
REMARK    7  A    between atoms: C14_27  and  N6_28 
REMARK    8  A    between atoms: N7_31  and  C15_32 
REMARK    9  A    between atoms: C15_32  and  C16_33 
REMARK   10  A    between atoms: C15_32  and  C18_37 
REMARK   11  A    between atoms: C16_33  and  C17_34 
REMARK   12  A    between atoms: C18_37  and  O5_38 
REMARK   13  A    between atoms: C18_37  and  C19_40 
REMARK   14  A    between atoms: C19_40  and  O6_41 
REMARK   15  A    between atoms: C19_40  and  C20_43 
REMARK   16  A    between atoms: C20_43  and  O7_44 
ROOT
HETATM    1  N5  UNL     1      -1.228   0.911  -0.878  1.00  0.00    -0.169 N 
HETATM    2  C14 UNL     1      -2.320   0.150  -0.692  1.00  0.00     0.683 A 
HETATM    3  N7  UNL     1      -3.124   0.611   0.271  1.00  0.00    -0.158 N 
HETATM    4  C21 UNL     1      -2.529   1.716   0.718  1.00  0.00     0.163 A 
HETATM    5  C22 UNL     1      -1.321   1.935   0.002  1.00  0.00     0.165 A 
HETATM    6  C23 UNL     1      -0.530   3.029   0.248  1.00  0.00     0.280 A 
HETATM    7  O8  UNL     1       0.524   3.245  -0.376  1.00  0.00    -0.265 OA
HETATM    8  N8  UNL     1      -0.937   3.903   1.213  1.00  0.00    -0.273 N 
ATOM      9  H8  UNL     1      -0.372   4.726   1.423  1.00  0.00     0.173 HD
HETATM   10  C24 UNL     1      -2.063   3.688   1.879  1.00  0.00     0.330 A 
HETATM   11  O9  UNL     1      -2.402   4.535   2.777  1.00  0.00    -0.246 OA
HETATM   12  N9  UNL     1      -2.872   2.616   1.657  1.00  0.00    -0.287 N 
HETATM   13  C25 UNL     1      -4.073   2.445   2.421  1.00  0.00     0.163 C 
ENDROOT
BRANCH   1  14
HETATM   14  C13 UNL     1      -0.133   0.691  -1.766  1.00  0.00     0.196 C 
BRANCH  14  15
HETATM   15  C12 UNL     1       1.096   0.016  -1.328  1.00  0.00     0.027 A 
HETATM   16  C2  UNL     1       1.470  -1.258  -1.009  1.00  0.00     0.022 A 
HETATM   17  C1  UNL     1       0.476  -2.418  -1.026  1.00  0.00     0.069 C 
HETATM   18  N1  UNL     1       2.731  -1.486  -0.694  1.00  0.00    -0.338 N 
HETATM   19  C3  UNL     1       3.595  -0.490  -0.696  1.00  0.00     0.164 A 
ATOM     20  H1  UNL     1       3.036  -2.428  -0.450  1.00  0.00     0.168 HD
HETATM   21  S1  UNL     1       2.641   0.823  -1.149  1.00  0.00    -0.053 SA
BRANCH  19  22
HETATM   22  N2  UNL     1       4.887  -0.534  -0.406  1.00  0.00    -0.279 N 
ATOM     23  H2  UNL     1       5.442   0.320  -0.449  1.00  0.00     0.189 HD
BRANCH  22  24
HETATM   24  N3  UNL     1       5.496  -1.733  -0.043  1.00  0.00    -0.293 N 
ATOM     25  H3  UNL     1       4.925  -2.473   0.365  1.00  0.00     0.187 HD
BRANCH  24  26
HETATM   26  C4  UNL     1       6.882  -1.957  -0.222  1.00  0.00     0.129 A 
HETATM   27  C5  UNL     1       7.885  -1.081  -0.190  1.00  0.00     0.027 A 
HETATM   28  C6  UNL     1       7.916   0.270   0.017  1.00  0.00     0.052 A 
HETATM   29  C10 UNL     1       9.088  -1.730  -0.416  1.00  0.00     0.048 A 
HETATM   30  C7  UNL     1       9.123   0.938  -0.004  1.00  0.00     0.066 A 
HETATM   31  C8  UNL     1      10.334   0.317  -0.226  1.00  0.00     0.039 A 
HETATM   32  C9  UNL     1      10.298  -1.045  -0.434  1.00  0.00     0.033 A 
HETATM   33  N4  UNL     1       8.909  -2.997  -0.594  1.00  0.00    -0.321 N 
HETATM   34  C11 UNL     1       7.520  -3.252  -0.489  1.00  0.00     0.275 A 
ATOM     35  H4  UNL     1       9.636  -3.688  -0.777  1.00  0.00     0.169 HD
HETATM   36  O2  UNL     1       6.998  -4.379  -0.610  1.00  0.00    -0.266 OA
BRANCH  30  37
HETATM   37  O1  UNL     1       9.144   2.324   0.209  1.00  0.00    -0.361 OA
ATOM     38  H1  UNL     1       9.975   2.784   0.195  1.00  0.00     0.217 HD
ENDBRANCH  30  37
ENDBRANCH  24  26
ENDBRANCH  22  24
ENDBRANCH  19  22
ENDBRANCH  14  15
ENDBRANCH   1  14
BRANCH   2  39
HETATM   39  N6  UNL     1      -2.586  -0.840  -1.449  1.00  0.00    -0.234 N 
ATOM     40  H62 UNL     1      -1.972  -1.192  -2.184  1.00  0.00     0.174 HD
ATOM     41  H61 UNL     1      -3.415  -1.418  -1.308  1.00  0.00     0.174 HD
ENDBRANCH   2  39
BRANCH   3  42
HETATM   42  C15 UNL     1      -4.318   0.007   0.678  1.00  0.00     0.151 C 
BRANCH  42  43
HETATM   43  C16 UNL     1      -4.187  -1.533   0.825  1.00  0.00     0.142 C 
BRANCH  43  44
HETATM   44  C17 UNL     1      -3.154  -1.878   1.806  1.00  0.00     0.174 C 
HETATM   45  O3  UNL     1      -2.919  -3.063   2.057  1.00  0.00    -0.648 OA
HETATM   46  O4  UNL     1      -2.463  -0.872   2.430  1.00  0.00    -0.648 OA
ENDBRANCH  43  44
ENDBRANCH  42  43
BRANCH  42  47
HETATM   47  C18 UNL     1      -5.419   0.129  -0.406  1.00  0.00     0.173 C 
BRANCH  47  48
HETATM   48  O5  UNL     1      -5.685   1.464  -0.690  1.00  0.00    -0.391 OA
ATOM     49  H5  UNL     1      -6.360   1.539  -1.354  1.00  0.00     0.210 HD
ENDBRANCH  47  48
BRANCH  47  50
HETATM   50  C19 UNL     1      -6.706  -0.519   0.028  1.00  0.00     0.172 C 
BRANCH  50  51
HETATM   51  O6  UNL     1      -7.263   0.028   1.161  1.00  0.00    -0.391 OA
ATOM     52  H6  UNL     1      -8.075  -0.381   1.435  1.00  0.00     0.210 HD
ENDBRANCH  50  51
BRANCH  50  53
HETATM   53  C20 UNL     1      -7.688  -0.237  -1.127  1.00  0.00     0.198 C 
BRANCH  53  54
HETATM   54  O7  UNL     1      -7.202  -0.759  -2.325  1.00  0.00    -0.398 OA
ATOM     55  H7  UNL     1      -7.807  -0.585  -3.037  1.00  0.00     0.209 HD
ENDBRANCH  53  54
ENDBRANCH  50  53
ENDBRANCH  47  50
ENDBRANCH  42  47
ENDBRANCH   3  42
TORSDOF 16
