REMARK  11 active torsions:
REMARK  status: ('A' for Active; 'I' for Inactive)
REMARK    1  A    between atoms: C2_2  and  C4_4 
REMARK    2  A    between atoms: C8_15  and  C9_16 
REMARK    3  A    between atoms: N5_19  and  O2_21 
REMARK    4  A    between atoms: O2_21  and  C11_22 
REMARK    5  A    between atoms: C11_22  and  C12_23 
REMARK    6  A    between atoms: C13_26  and  C14_27 
REMARK       I    between atoms: N7_30  and  C15_31 
REMARK    7  A    between atoms: C16_36  and  C17_37 
REMARK    8  A    between atoms: C17_37  and  N10_38 
REMARK    9  A    between atoms: C20_43  and  N12_44 
REMARK   10  A    between atoms: C21_47  and  N14_48 
REMARK   11  A    between atoms: C22_53  and  N16_54 
ROOT
HETATM    1  C9  UNL     1      -0.176   0.005   0.588  1.00  0.00     0.179 C 
HETATM    2  O1  UNL     1      -0.871   1.227   0.548  1.00  0.00    -0.326 OA
HETATM    3  C10 UNL     1      -0.358   2.241   1.328  1.00  0.00     0.172 C 
HETATM    4  N5  UNL     1      -0.916   3.321   1.662  1.00  0.00    -0.246 N 
ATOM      5  H5  UNL     1      -0.357   3.940   2.250  1.00  0.00     0.196 HD
HETATM    6  C13 UNL     1       1.059   1.975   1.822  1.00  0.00     0.265 C 
HETATM    7  N7  UNL     1       1.729   1.397   0.685  1.00  0.00    -0.325 N 
HETATM    8  C15 UNL     1       2.751   2.117   0.046  1.00  0.00     0.185 C 
HETATM    9  N8  UNL     1       2.555   2.878  -0.976  1.00  0.00    -0.374 N 
ATOM     10  H81 UNL     1       3.297   3.401  -1.440  1.00  0.00     0.158 HD
ATOM     11  H82 UNL     1       1.603   2.950  -1.335  1.00  0.00     0.158 HD
HETATM   12  N9  UNL     1       4.082   2.017   0.548  1.00  0.00    -0.064 NA
HETATM   13  C16 UNL     1       1.270   0.055   0.268  1.00  0.00     0.148 C 
ENDROOT
BRANCH  13  14
HETATM   14  C17 UNL     1       1.627  -0.223  -1.136  1.00  0.00     0.300 C 
BRANCH  14  15
HETATM   15  N10 UNL     1       3.094  -0.197  -1.284  1.00  0.00     0.099 N 
HETATM   16  C18 UNL     1       3.283  -0.382  -2.746  1.00  0.00     0.292 C 
HETATM   17  C19 UNL     1       4.723  -0.016  -3.031  1.00  0.00     0.151 C 
HETATM   18  N11 UNL     1       5.540  -0.833  -2.171  1.00  0.00    -0.375 N 
HETATM   19  C20 UNL     1       5.086  -1.469  -1.146  1.00  0.00     0.146 C 
ATOM     20  H11 UNL     1       6.534  -0.913  -2.385  1.00  0.00     0.160 HD
HETATM   21  C23 UNL     1       3.654  -1.434  -0.727  1.00  0.00     0.350 C 
BRANCH  19  22
HETATM   22  N12 UNL     1       6.045  -2.236  -0.402  1.00  0.00    -0.058 N 
HETATM   23  N13 UNL     1       6.233  -3.537  -0.422  1.00  0.00    -0.109 N 
HETATM   24  C21 UNL     1       7.232  -3.876   0.426  1.00  0.00     0.706 A 
ATOM     25  H13 UNL     1       5.703  -4.195  -0.993  1.00  0.00     0.207 HD
HETATM   26  N15 UNL     1       7.676  -2.746   0.988  1.00  0.00    -0.020 N 
HETATM   27  C22 UNL     1       6.935  -1.734   0.469  1.00  0.00     0.713 A 
ATOM     28  H15 UNL     1       8.426  -2.661   1.674  1.00  0.00     0.203 HD
BRANCH  24  29
HETATM   29  N14 UNL     1       7.697  -5.050   0.676  1.00  0.00    -0.233 N 
ATOM     30 2H14 UNL     1       7.358  -5.912   0.248  1.00  0.00     0.174 HD
ATOM     31 1H14 UNL     1       8.450  -5.305   1.315  1.00  0.00     0.174 HD
ENDBRANCH  24  29
BRANCH  27  32
HETATM   32  N16 UNL     1       7.123  -0.513   0.811  1.00  0.00    -0.232 N 
ATOM     33 2H16 UNL     1       6.566   0.247   0.421  1.00  0.00     0.174 HD
ATOM     34 1H16 UNL     1       7.799  -0.132   1.473  1.00  0.00     0.174 HD
ENDBRANCH  27  32
ENDBRANCH  19  22
ENDBRANCH  14  15
ENDBRANCH  13  14
BRANCH   1  35
HETATM   35  C8  UNL     1      -0.978  -1.129  -0.011  1.00  0.00     0.132 A 
HETATM   36  N4  UNL     1      -2.151  -1.252   0.812  1.00  0.00    -0.365 N 
HETATM   37  C7  UNL     1      -3.368  -1.230   0.499  1.00  0.00     0.133 A 
ATOM     38  H4  UNL     1      -1.966  -1.377   1.807  1.00  0.00     0.161 HD
HETATM   39  C6  UNL     1      -3.708  -1.066  -0.824  1.00  0.00     0.114 A 
HETATM   40  N3  UNL     1      -4.381  -1.365   1.405  1.00  0.00    -0.330 N 
HETATM   41  C5  UNL     1      -5.040  -1.036  -1.253  1.00  0.00     0.148 A 
HETATM   42  N17 UNL     1      -2.776  -0.941  -1.656  1.00  0.00    -0.382 N 
HETATM   43  N1  UNL     1      -5.966  -1.175  -0.300  1.00  0.00    -0.332 N 
HETATM   44  N2  UNL     1      -5.331  -0.866  -2.634  1.00  0.00    -0.080 NA
HETATM   45  C4  UNL     1      -5.661  -1.337   1.005  1.00  0.00     0.087 A 
ATOM     46  H1  UNL     1      -6.949  -1.158  -0.571  1.00  0.00     0.168 HD
HETATM   47  C24 UNL     1      -1.366  -0.944  -1.428  1.00  0.00     0.147 A 
ATOM     48  H17 UNL     1      -3.065  -0.821  -2.627  1.00  0.00     0.160 HD
ATOM     49  H3  UNL     1      -4.162  -1.488   2.394  1.00  0.00     0.168 HD
BRANCH  45  50
HETATM   50  C2  UNL     1      -6.726  -1.491   2.023  1.00  0.00     0.045 C 
HETATM   51  C1  UNL     1      -7.780  -0.413   1.907  1.00  0.00     0.017 C 
HETATM   52  C3  UNL     1      -7.386  -2.842   1.719  1.00  0.00     0.017 C 
ENDBRANCH  45  50
ENDBRANCH   1  35
BRANCH   6  53
HETATM   53  C14 UNL     1       1.620   3.191   2.384  1.00  0.00     0.205 C 
HETATM   54  O4  UNL     1       2.522   3.930   1.952  1.00  0.00    -0.646 OA
HETATM   55  O5  UNL     1       1.072   3.628   3.623  1.00  0.00    -0.646 OA
ENDBRANCH   6  53
BRANCH   4  56
HETATM   56  O2  UNL     1      -2.148   3.772   1.351  1.00  0.00    -0.270 OA
BRANCH  56  57
HETATM   57  C11 UNL     1      -2.619   3.755   0.037  1.00  0.00     0.300 C 
BRANCH  57  58
HETATM   58  C12 UNL     1      -4.007   4.302  -0.058  1.00  0.00     0.257 C 
HETATM   59  N6  UNL     1      -4.680   4.376  -1.295  1.00  0.00    -0.060 NA
HETATM   60  O3  UNL     1      -4.599   4.709   0.975  1.00  0.00    -0.274 OA
ENDBRANCH  57  58
ENDBRANCH  56  57
ENDBRANCH   4  56
TORSDOF 11
