REMARK  5 active torsions:
REMARK  status: ('A' for Active; 'I' for Inactive)
REMARK    1  A    between atoms: C2_2  and  C4_4 
REMARK    2  A    between atoms: C4_4  and  O2_6 
REMARK    3  A    between atoms: O2_6  and  C5_7 
REMARK    4  A    between atoms: C5_7  and  C6_8 
REMARK    5  A    between atoms: C6_8  and  C7_9 
ROOT
HETATM    1  C7  UNL     1      -0.449  -0.999   0.330  1.00  0.00    -0.081 C 
HETATM    2  C8  UNL     1      -1.152  -0.032   0.860  1.00  0.00    -0.011 C 
HETATM    3  C9  UNL     1      -2.550   0.117   1.359  1.00  0.00     0.103 C 
HETATM    4  C10 UNL     1      -3.559  -0.618   0.547  1.00  0.00     0.172 C 
HETATM    5  O3  UNL     1      -4.445   0.440   0.878  1.00  0.00    -0.345 OA
HETATM    6  C11 UNL     1      -3.315   1.248   0.661  1.00  0.00     0.171 C 
HETATM    7  C12 UNL     1      -3.280   2.565   1.288  1.00  0.00     0.080 C 
HETATM    8  O4  UNL     1      -2.959   1.115  -0.673  1.00  0.00    -0.342 OA
HETATM    9  C13 UNL     1      -3.290  -0.244  -0.885  1.00  0.00     0.088 C 
HETATM   10  C14 UNL     1      -4.625  -0.236  -1.612  1.00  0.00     0.049 C 
HETATM   11  C15 UNL     1      -2.249  -1.031  -1.570  1.00  0.00     0.041 C 
HETATM   12  C16 UNL     1      -1.968  -2.372  -0.982  1.00  0.00     0.007 C 
HETATM   13  C17 UNL     1      -0.860  -2.422   0.022  1.00  0.00     0.034 C 
ENDROOT
BRANCH   1  14
HETATM   14  C6  UNL     1       0.939  -0.697  -0.026  1.00  0.00     0.060 C 
BRANCH  14  15
HETATM   15  C5  UNL     1       1.427   0.682   0.259  1.00  0.00     0.183 C 
BRANCH  15  16
HETATM   16  O2  UNL     1       2.767   0.892  -0.134  1.00  0.00    -0.321 OA
BRANCH  16  17
HETATM   17  C4  UNL     1       3.860   0.241   0.353  1.00  0.00     0.262 C 
HETATM   18  O1  UNL     1       3.699  -0.633   1.243  1.00  0.00    -0.265 OA
BRANCH  17  19
HETATM   19  C2  UNL     1       5.247   0.533  -0.136  1.00  0.00     0.077 C 
HETATM   20  C1  UNL     1       5.602   1.988   0.111  1.00  0.00     0.020 C 
HETATM   21  C3  UNL     1       6.202  -0.313   0.667  1.00  0.00     0.020 C 
ENDBRANCH  17  19
ENDBRANCH  16  17
ENDBRANCH  15  16
ENDBRANCH  14  15
ENDBRANCH   1  14
TORSDOF 5
