REMARK  3 active torsions:
REMARK  status: ('A' for Active; 'I' for Inactive)
REMARK    1  A    between atoms: C2_2  and  C3_3 
REMARK    2  A    between atoms: C3_3  and  C4_4 
REMARK    3  A    between atoms: N1_7  and  C7_8 
ROOT
HETATM    1  C7  UNL     1       0.808  -0.217   0.305  1.00  0.00     0.223 C 
HETATM    2  C8  UNL     1       1.571   0.387   1.437  1.00  0.00     0.039 C 
HETATM    3  C9  UNL     1       2.959   0.755   1.059  1.00  0.00     0.046 C 
HETATM    4  C10 UNL     1       3.503   0.000  -0.118  1.00  0.00     0.099 C 
HETATM    5  C11 UNL     1       2.579   0.097  -1.326  1.00  0.00     0.046 C 
HETATM    6  C12 UNL     1       1.190   0.561  -0.942  1.00  0.00     0.039 C 
HETATM    7  N2  UNL     1       4.784   0.417  -0.509  1.00  0.00    -0.360 N 
ATOM      8  H2  UNL     1       4.902   1.351  -0.901  1.00  0.00     0.162 HD
HETATM    9  C13 UNL     1       5.774  -0.315  -0.392  1.00  0.00     0.080 C 
HETATM   10  C14 UNL     1       7.151   0.160  -0.823  1.00  0.00     0.089 C 
HETATM   11  N3  UNL     1       5.586  -1.608   0.154  1.00  0.00    -0.318 N 
ATOM     12  H3  UNL     1       6.299  -2.294   0.403  1.00  0.00     0.175 HD
HETATM   13  S1  UNL     1       3.831  -1.758   0.305  1.00  0.00    -0.022 SA
ENDROOT
BRANCH   1  14
HETATM   14  N1  UNL     1      -0.604  -0.318   0.493  1.00  0.00     0.093 N 
HETATM   15  C6  UNL     1      -1.109  -1.130  -0.602  1.00  0.00     0.273 C 
HETATM   16  C5  UNL     1      -2.252  -0.458  -1.284  1.00  0.00     0.035 C 
HETATM   17  C4  UNL     1      -3.345  -0.252  -0.228  1.00  0.00    -0.011 C 
HETATM   18  C16 UNL     1      -2.774   0.659   0.806  1.00  0.00     0.035 C 
HETATM   19  C15 UNL     1      -1.293   0.933   0.610  1.00  0.00     0.273 C 
BRANCH  17  20
HETATM   20  C3  UNL     1      -4.560   0.287  -0.929  1.00  0.00     0.004 C 
BRANCH  20  21
HETATM   21  C2  UNL     1      -5.697   0.525   0.035  1.00  0.00    -0.004 C 
HETATM   22  C1  UNL     1      -6.126  -0.724   0.740  1.00  0.00     0.005 C 
ENDBRANCH  20  21
ENDBRANCH  17  20
ENDBRANCH   1  14
TORSDOF 3
