REMARK  5 active torsions:
REMARK  status: ('A' for Active; 'I' for Inactive)
REMARK    1  A    between atoms: C4_4  and  C5_5 
REMARK    2  A    between atoms: C5_5  and  C6_6 
REMARK    3  A    between atoms: C6_6  and  C7_7 
REMARK    4  A    between atoms: C7_7  and  O1_8 
REMARK    5  A    between atoms: C10_14  and  C11_15 
ROOT
HETATM    1  C7  UNL     1       0.551  -0.379   0.939  1.00  0.00     0.167 C 
HETATM    2  C8  UNL     1      -0.049  -1.319   1.967  1.00  0.00     0.295 C 
HETATM    3  O2  UNL     1       0.582  -1.911   2.842  1.00  0.00    -0.262 OA
HETATM    4  O3  UNL     1      -1.412  -1.387   1.737  1.00  0.00    -0.312 OA
HETATM    5  C9  UNL     1      -1.690  -0.455   0.696  1.00  0.00     0.151 C 
HETATM    6  C10 UNL     1      -2.920  -0.741  -0.063  1.00  0.00     0.020 C 
HETATM    7  C14 UNL     1      -2.708  -0.785  -1.565  1.00  0.00     0.015 C 
HETATM    8  C15 UNL     1      -1.794   0.321  -2.031  1.00  0.00     0.079 C 
HETATM    9  C16 UNL     1      -0.492   0.248  -1.275  1.00  0.00     0.137 C 
HETATM   10  O4  UNL     1       0.388   0.944  -1.661  1.00  0.00    -0.297 OA
HETATM   11  C17 UNL     1      -0.450  -0.664  -0.157  1.00  0.00     0.130 C 
ENDROOT
BRANCH   1  12
HETATM   12  C6  UNL     1       1.925  -0.727   0.639  1.00  0.00     0.134 C 
BRANCH  12  13
HETATM   13  C5  UNL     1       2.896   0.034   0.364  1.00  0.00    -0.152 C 
BRANCH  13  14
HETATM   14  C4  UNL     1       3.961   0.876   0.063  1.00  0.00     0.053 C 
HETATM   15  C2  UNL     1       5.164   0.292  -0.185  1.00  0.00    -0.081 C 
HETATM   16  C1  UNL     1       6.342   1.113  -0.512  1.00  0.00     0.043 C 
HETATM   17  C3  UNL     1       5.254  -1.166  -0.117  1.00  0.00     0.043 C 
ENDBRANCH  13  14
ENDBRANCH  12  13
ENDBRANCH   1  12
BRANCH   1  18
HETATM   18  O1  UNL     1       0.331   0.907   1.414  1.00  0.00    -0.378 OA
ATOM     19  H1  UNL     1      -0.570   1.135   1.611  1.00  0.00     0.211 HD
ENDBRANCH   1  18
BRANCH   6  20
HETATM   20  C11 UNL     1      -4.046   0.178   0.349  1.00  0.00    -0.016 C 
HETATM   21  C12 UNL     1      -5.309  -0.144  -0.461  1.00  0.00     0.010 C 
HETATM   22  C13 UNL     1      -3.792   1.629   0.241  1.00  0.00     0.010 C 
ENDBRANCH   6  20
TORSDOF 5
