REMARK  4 active torsions:
REMARK  status: ('A' for Active; 'I' for Inactive)
REMARK    1  A    between atoms: C2_2  and  C3_3 
REMARK    2  A    between atoms: C4_6  and  C5_7 
REMARK    3  A    between atoms: C5_7  and  C6_8 
REMARK    4  A    between atoms: C13_15  and  C14_16 
ROOT
HETATM    1  C3  UNL     1       3.573  -0.052   0.071  1.00  0.00     0.097 A 
HETATM    2  N1  UNL     1       2.383  -0.614   0.336  1.00  0.00    -0.348 N 
ATOM      3  H1  UNL     1       2.376  -1.555   0.729  1.00  0.00     0.166 HD
HETATM    4  C4  UNL     1       1.192  -0.011   0.115  1.00  0.00     0.102 A 
HETATM    5  C16 UNL     1       1.187   1.246  -0.409  1.00  0.00     0.275 A 
HETATM    6  O1  UNL     1       0.099   1.844  -0.631  1.00  0.00    -0.266 OA
HETATM    7  N2  UNL     1       2.362   1.845  -0.689  1.00  0.00    -0.287 N 
ATOM      8  H2  UNL     1       2.364   2.786  -1.082  1.00  0.00     0.172 HD
HETATM    9  C17 UNL     1       3.529   1.224  -0.460  1.00  0.00     0.274 A 
HETATM   10  O2  UNL     1       4.569   1.864  -0.753  1.00  0.00    -0.266 OA
ENDROOT
BRANCH   4  11
HETATM   11  C5  UNL     1       0.099  -0.674   0.422  1.00  0.00     0.047 C 
BRANCH  11  12
HETATM   12  C6  UNL     1      -1.250  -0.207   0.262  1.00  0.00    -0.022 A 
HETATM   13  C7  UNL     1      -1.891   0.487   1.296  1.00  0.00    -0.051 A 
HETATM   14  C8  UNL     1      -1.153   0.732   2.585  1.00  0.00     0.049 C 
HETATM   15  C9  UNL     1      -3.182   0.939   1.146  1.00  0.00     0.014 A 
HETATM   16  C10 UNL     1      -3.902   0.736  -0.010  1.00  0.00    -0.061 A 
HETATM   17  C11 UNL     1      -5.304   1.226  -0.172  1.00  0.00     0.048 C 
HETATM   18  C12 UNL     1      -3.252   0.051  -1.011  1.00  0.00     0.014 A 
HETATM   19  C13 UNL     1      -1.954  -0.422  -0.906  1.00  0.00    -0.047 A 
BRANCH  19  20
HETATM   20  C14 UNL     1      -1.353  -1.175  -2.067  1.00  0.00     0.035 C 
HETATM   21  C15 UNL     1      -1.426  -2.645  -1.698  1.00  0.00     0.010 C 
ENDBRANCH  19  20
ENDBRANCH  11  12
ENDBRANCH   4  11
BRANCH   1  22
HETATM   22  C2  UNL     1       4.717  -0.674   0.299  1.00  0.00     0.004 C 
HETATM   23  C1  UNL     1       6.051  -0.146   0.045  1.00  0.00     0.038 C 
ENDBRANCH   1  22
TORSDOF 4
