REMARK  4 active torsions:
REMARK  status: ('A' for Active; 'I' for Inactive)
REMARK    1  A    between atoms: C2_2  and  C3_3 
REMARK    2  A    between atoms: C3_3  and  N1_4 
REMARK       I    between atoms: N1_4  and  C4_6 
REMARK       I    between atoms: C4_6  and  N2_8 
REMARK       I    between atoms: N2_8  and  C5_10 
REMARK       I    between atoms: C5_10  and  N3_12 
REMARK    3  A    between atoms: C11_18  and  C12_19 
REMARK    4  A    between atoms: C13_20  and  C14_21 
ROOT
HETATM    1  N1  UNL     1       3.950   0.173  -0.882  1.00  0.00    -0.339 N 
ATOM      2  H1  UNL     1       3.924  -0.843  -0.968  1.00  0.00     0.164 HD
HETATM    3  C4  UNL     1       2.757   0.900  -0.765  1.00  0.00     0.324 C 
HETATM    4  O1  UNL     1       2.868   2.181  -0.663  1.00  0.00    -0.247 OA
HETATM    5  N2  UNL     1       1.435   0.401  -0.744  1.00  0.00    -0.261 N 
ATOM      6  H2  UNL     1       0.698   1.100  -0.651  1.00  0.00     0.175 HD
HETATM    7  C5  UNL     1       1.009  -0.923  -0.834  1.00  0.00     0.327 C 
HETATM    8  O2  UNL     1       1.938  -1.807  -0.972  1.00  0.00    -0.247 OA
HETATM    9  N3  UNL     1      -0.291  -1.414  -0.795  1.00  0.00    -0.318 N 
HETATM   10  C6  UNL     1      -0.526  -2.903  -0.976  1.00  0.00     0.133 C 
HETATM   11  C7  UNL     1      -1.652  -3.210  -0.029  1.00  0.00     0.006 C 
HETATM   12  C8  UNL     1      -2.734  -4.032  -0.691  1.00  0.00     0.012 C 
HETATM   13  C9  UNL     1      -2.135  -1.904   0.483  1.00  0.00     0.022 C 
HETATM   14  C10 UNL     1      -3.615  -1.782   0.620  1.00  0.00     0.013 C 
HETATM   15  C11 UNL     1      -1.605  -0.941  -0.630  1.00  0.00     0.173 C 
ENDROOT
BRANCH  15  16
HETATM   16  C12 UNL     1      -1.805   0.390  -0.153  1.00  0.00    -0.075 C 
HETATM   17  C13 UNL     1      -2.027   1.522   0.270  1.00  0.00    -0.070 C 
BRANCH  17  18
HETATM   18  C14 UNL     1      -2.262   2.846   0.756  1.00  0.00    -0.018 C 
HETATM   19  C15 UNL     1      -1.494   3.337   1.698  1.00  0.00     0.028 C 
HETATM   20  C16 UNL     1      -3.353   3.705   0.233  1.00  0.00     0.057 C 
ENDBRANCH  17  18
ENDBRANCH  15  16
BRANCH   1  21
HETATM   21  C3  UNL     1       5.241   0.881  -0.880  1.00  0.00     0.150 C 
BRANCH  21  22
HETATM   22  C2  UNL     1       5.472   1.636   0.371  1.00  0.00    -0.018 C 
HETATM   23  C1  UNL     1       5.660   2.937   0.324  1.00  0.00     0.008 C 
ENDBRANCH  21  22
ENDBRANCH   1  21
TORSDOF 4
