REMARK  4 active torsions:
REMARK  status: ('A' for Active; 'I' for Inactive)
REMARK    1  A    between atoms: C1_2  and  C2_3 
REMARK       I    between atoms: C1_2  and  N2_12 
REMARK    2  A    between atoms: C2_3  and  C3_4 
REMARK    3  A    between atoms: C3_4  and  S1_5 
REMARK    4  A    between atoms: S1_5  and  C4_6 
ROOT
HETATM    1  O1  UNL     1       1.501  -1.867  -0.515  1.00  0.00    -0.273 OA
HETATM    2  C1  UNL     1       1.038  -0.754  -0.188  1.00  0.00     0.220 C 
HETATM    3  N2  UNL     1      -0.354  -0.598  -0.029  1.00  0.00    -0.352 N 
HETATM    4  C7  UNL     1      -0.911   0.686   0.350  1.00  0.00     0.126 C 
HETATM    5  C8  UNL     1      -1.907   1.069  -0.726  1.00  0.00     0.029 C 
HETATM    6  C9  UNL     1      -3.044   0.048  -0.627  1.00  0.00    -0.037 C 
HETATM    7  C10 UNL     1      -4.146   0.406  -1.590  1.00  0.00     0.010 C 
HETATM    8  C11 UNL     1      -5.264   0.943  -0.687  1.00  0.00     0.001 C 
HETATM    9  C12 UNL     1      -5.107  -0.009   0.506  1.00  0.00     0.001 C 
HETATM   10  C13 UNL     1      -3.611   0.128   0.762  1.00  0.00     0.010 C 
HETATM   11  C14 UNL     1      -2.521  -1.316  -0.956  1.00  0.00     0.029 C 
HETATM   12  C15 UNL     1      -1.274  -1.691  -0.232  1.00  0.00     0.126 C 
ENDROOT
BRANCH   2  13
HETATM   13  C2  UNL     1       1.962   0.384   0.027  1.00  0.00     0.113 C 
BRANCH  13  14
HETATM   14  C3  UNL     1       3.402  -0.019  -0.197  1.00  0.00     0.090 C 
BRANCH  14  15
HETATM   15  S1  UNL     1       4.530   1.375   0.068  1.00  0.00    -0.104 SA
BRANCH  15  16
HETATM   16  C4  UNL     1       6.199   0.734  -0.234  1.00  0.00     0.111 A 
HETATM   17  N1  UNL     1       7.039   0.183   0.616  1.00  0.00    -0.354 N 
HETATM   18  C5  UNL     1       8.202  -0.221   0.219  1.00  0.00     0.096 A 
ATOM     19  H1  UNL     1       6.771   0.074   1.594  1.00  0.00     0.166 HD
HETATM   20  C6  UNL     1       8.514  -0.050  -1.109  1.00  0.00     0.069 A 
HETATM   21  S2  UNL     1       7.087   0.691  -1.699  1.00  0.00    -0.076 SA
ENDBRANCH  15  16
ENDBRANCH  14  15
ENDBRANCH  13  14
ENDBRANCH   2  13
TORSDOF 4
