REMARK  4 active torsions:
REMARK  status: ('A' for Active; 'I' for Inactive)
REMARK    1  A    between atoms: C4_4  and  C5_5 
REMARK    2  A    between atoms: C5_5  and  C6_6 
REMARK    3  A    between atoms: C6_6  and  C7_7 
REMARK    4  A    between atoms: C6_6  and  N4_18 
ROOT
HETATM    1  C6  UNL     1       0.349  -0.025  -0.161  1.00  0.00     0.133 C 
ENDROOT
BRANCH   1   2
HETATM    2  C5  UNL     1      -0.728  -0.605   0.744  1.00  0.00     0.036 C 
BRANCH   2   3
HETATM    3  C4  UNL     1      -2.080  -0.709   0.233  1.00  0.00    -0.012 C 
HETATM    4  C3  UNL     1      -2.953  -1.380   1.359  1.00  0.00     0.005 C 
HETATM    5  C2  UNL     1      -3.868  -2.296   0.563  1.00  0.00     0.000 C 
HETATM    6  C1  UNL     1      -4.545  -1.446  -0.482  1.00  0.00     0.000 C 
HETATM    7  C19 UNL     1      -4.398   0.023  -0.269  1.00  0.00     0.000 C 
HETATM    8  C18 UNL     1      -2.908   0.414  -0.260  1.00  0.00     0.005 C 
ENDBRANCH   2   3
ENDBRANCH   1   2
BRANCH   1   9
HETATM    9  C7  UNL     1       1.678  -0.131   0.505  1.00  0.00     0.073 A 
HETATM   10  N1  UNL     1       2.268   0.473   1.519  1.00  0.00    -0.286 N 
HETATM   11  N2  UNL     1       3.508   0.150   1.714  1.00  0.00    -0.240 N 
ATOM     12  H1  UNL     1       1.782   1.148   2.109  1.00  0.00     0.188 HD
HETATM   13  N3  UNL     1       3.804  -0.755   0.772  1.00  0.00    -0.280 N 
ATOM     14  H2  UNL     1       4.131   0.511   2.437  1.00  0.00     0.208 HD
HETATM   15  C8  UNL     1       2.745  -0.969   0.013  1.00  0.00     0.056 A 
HETATM   16  C12 UNL     1       5.058  -1.488   0.621  1.00  0.00     0.150 C 
HETATM   17  C9  UNL     1       2.686  -1.983  -1.060  1.00  0.00     0.061 C 
HETATM   18  C10 UNL     1       3.937  -2.785  -1.173  1.00  0.00     0.008 C 
HETATM   19  C11 UNL     1       4.749  -2.890   0.076  1.00  0.00     0.022 C 
ENDBRANCH   1   9
BRANCH   1  20
HETATM   20  N4  UNL     1       0.068   1.379  -0.238  1.00  0.00    -0.403 N 
HETATM   21  C13 UNL     1      -0.010   2.149   0.931  1.00  0.00     0.117 C 
HETATM   22  C14 UNL     1       0.749   3.465   0.686  1.00  0.00     0.019 C 
HETATM   23  C15 UNL     1      -0.162   4.262  -0.244  1.00  0.00     0.003 C 
HETATM   24  C16 UNL     1      -0.801   3.392  -1.263  1.00  0.00     0.019 C 
HETATM   25  C17 UNL     1      -0.023   2.052  -1.465  1.00  0.00     0.117 C 
ENDBRANCH   1  20
TORSDOF 4
