REMARK  4 active torsions:
REMARK  status: ('A' for Active; 'I' for Inactive)
REMARK    1  A    between atoms: C2_2  and  C4_4 
REMARK    2  A    between atoms: C4_4  and  C5_5 
REMARK    3  A    between atoms: C5_5  and  S1_6 
REMARK    4  A    between atoms: S1_6  and  C6_7 
ROOT
HETATM    1  C6  UNL     1       0.164  -0.703   1.016  1.00  0.00     0.031 A 
HETATM    2  C7  UNL     1       0.960   0.158   0.114  1.00  0.00     0.069 C 
HETATM    3  C8  UNL     1       1.664   1.343   0.669  1.00  0.00     0.188 C 
HETATM    4  O1  UNL     1       2.281   1.991  -0.413  1.00  0.00    -0.345 OA
HETATM    5  C9  UNL     1       3.596   2.187  -0.110  1.00  0.00     0.160 C 
HETATM    6  C10 UNL     1       4.511   1.556  -1.167  1.00  0.00     0.078 C 
HETATM    7  C11 UNL     1       3.855   3.694  -0.093  1.00  0.00     0.078 C 
HETATM    8  O2  UNL     1       3.896   1.583   1.081  1.00  0.00    -0.324 OA
HETATM    9  C12 UNL     1       2.825   0.747   1.408  1.00  0.00     0.293 C 
HETATM   10  O3  UNL     1       2.987  -0.548   1.018  1.00  0.00    -0.352 OA
HETATM   11  C13 UNL     1       2.054  -0.883   0.064  1.00  0.00     0.143 C 
HETATM   12  C14 UNL     1       1.021  -1.835   0.685  1.00  0.00     0.005 A 
HETATM   13  C15 UNL     1       0.620  -3.038  -0.064  1.00  0.00     0.020 C 
HETATM   14  C16 UNL     1       0.714  -1.561   2.084  1.00  0.00     0.014 A 
HETATM   15  C17 UNL     1      -0.223  -2.498   2.776  1.00  0.00     0.012 C 
ENDROOT
BRANCH   1  16
HETATM   16  S1  UNL     1      -1.597  -0.639   0.834  1.00  0.00    -0.157 SA
BRANCH  16  17
HETATM   17  C5  UNL     1      -2.238  -1.266  -0.708  1.00  0.00     0.075 C 
BRANCH  17  18
HETATM   18  C4  UNL     1      -3.737  -1.144  -0.718  1.00  0.00     0.014 C 
BRANCH  18  19
HETATM   19  C2  UNL     1      -4.160   0.312  -0.566  1.00  0.00    -0.022 C 
HETATM   20  C1  UNL     1      -5.654   0.448  -0.575  1.00  0.00     0.009 C 
HETATM   21  C3  UNL     1      -3.554   1.171  -1.631  1.00  0.00     0.009 C 
ENDBRANCH  18  19
ENDBRANCH  17  18
ENDBRANCH  16  17
ENDBRANCH   1  16
TORSDOF 4
