REMARK  4 active torsions:
REMARK  status: ('A' for Active; 'I' for Inactive)
REMARK    1  A    between atoms: C7_10  and  C8_11 
REMARK    2  A    between atoms: C8_11  and  C9_12 
REMARK    3  A    between atoms: C9_12  and  C10_13 
REMARK    4  A    between atoms: C10_13  and  C11_14 
ROOT
HETATM    1  C1  UNL     1      -4.172   1.813  -1.241  1.00  0.00     0.015 C 
HETATM    2  C2  UNL     1      -3.290   0.812  -1.154  1.00  0.00    -0.077 C 
HETATM    3  C3  UNL     1      -2.521   0.368  -2.341  1.00  0.00     0.034 C 
HETATM    4  C4  UNL     1      -2.206  -1.093  -2.349  1.00  0.00     0.007 C 
HETATM    5  C5  UNL     1      -1.907  -1.650  -0.963  1.00  0.00     0.041 C 
HETATM    6  C6  UNL     1      -1.686  -0.555   0.028  1.00  0.00     0.148 C 
HETATM    7  N1  UNL     1      -0.642   0.295  -0.416  1.00  0.00    -0.060 N 
ATOM      8  H11 UNL     1      -0.610   1.169   0.108  1.00  0.00     0.278 HD
ATOM      9  H12 UNL     1      -0.831   0.684  -1.340  1.00  0.00     0.278 HD
HETATM   10  C7  UNL     1       0.617  -0.411  -0.371  1.00  0.00     0.187 C 
HETATM   11  C13 UNL     1       0.969  -0.628   1.054  1.00  0.00     0.038 C 
HETATM   12  C14 UNL     1      -0.142  -0.811   1.998  1.00  0.00    -0.004 C 
HETATM   13  C15 UNL     1       0.159  -2.054   2.848  1.00  0.00     0.011 C 
HETATM   14  C16 UNL     1      -1.521  -1.017   1.446  1.00  0.00     0.078 C 
HETATM   15  C17 UNL     1      -2.410  -0.141   2.254  1.00  0.00     0.033 C 
HETATM   16  N2  UNL     1      -2.643  -0.260   3.515  1.00  0.00    -0.400 N 
ATOM     17  H21 UNL     1      -3.253   0.341   4.069  1.00  0.00     0.156 HD
ATOM     18  H22 UNL     1      -2.274  -0.960   4.158  1.00  0.00     0.156 HD
HETATM   19  C18 UNL     1      -2.938   0.862   1.333  1.00  0.00     0.036 C 
HETATM   20  N3  UNL     1      -3.222   2.104   1.615  1.00  0.00    -0.400 N 
ATOM     21  H31 UNL     1      -3.591   2.804   0.972  1.00  0.00     0.156 HD
ATOM     22  H32 UNL     1      -3.139   2.617   2.493  1.00  0.00     0.156 HD
HETATM   23  C19 UNL     1      -3.057   0.126   0.074  1.00  0.00     0.102 C 
ENDROOT
BRANCH  10  24
HETATM   24  C8  UNL     1       1.715   0.382  -1.065  1.00  0.00     0.033 C 
BRANCH  24  25
HETATM   25  C9  UNL     1       2.994  -0.408  -0.984  1.00  0.00     0.002 C 
BRANCH  25  26
HETATM   26  C10 UNL     1       4.144   0.305  -1.660  1.00  0.00    -0.000 C 
BRANCH  26  27
HETATM   27  C11 UNL     1       4.429   1.643  -1.047  1.00  0.00    -0.005 C 
HETATM   28  C12 UNL     1       4.793   1.572   0.404  1.00  0.00     0.005 C 
ENDBRANCH  26  27
ENDBRANCH  25  26
ENDBRANCH  24  25
ENDBRANCH  10  24
TORSDOF 4
