REMARK  4 active torsions:
REMARK  status: ('A' for Active; 'I' for Inactive)
REMARK    1  A    between atoms: C2_2  and  C3_3 
REMARK    2  A    between atoms: C3_3  and  C4_4 
REMARK    3  A    between atoms: C4_4  and  N1_5 
REMARK    4  A    between atoms: C5_6  and  O1_7 
ROOT
HETATM    1  N1  UNL     1       0.988  -1.375   0.446  1.00  0.00    -0.324 N 
HETATM    2  C5  UNL     1       1.067  -2.764   0.522  1.00  0.00     0.163 A 
HETATM    3  C6  UNL     1      -0.145  -3.333   0.312  1.00  0.00     0.091 A 
HETATM    4  S1  UNL     1      -0.566  -5.068   0.307  1.00  0.00    -0.045 SA
HETATM    5  C7  UNL     1      -1.011  -2.285   0.098  1.00  0.00     0.083 A 
HETATM    6  N2  UNL     1      -2.282  -1.963  -0.163  1.00  0.00    -0.352 N 
ATOM      7  H2  UNL     1      -3.045  -2.630  -0.282  1.00  0.00     0.166 HD
HETATM    8  C8  UNL     1      -2.401  -0.629  -0.244  1.00  0.00     0.051 A 
HETATM    9  C9  UNL     1      -3.530   0.135  -0.495  1.00  0.00    -0.034 A 
HETATM   10  C10 UNL     1      -4.844  -0.517  -0.723  1.00  0.00     0.050 C 
HETATM   11  C11 UNL     1      -3.384   1.495  -0.523  1.00  0.00     0.016 A 
HETATM   12  C12 UNL     1      -2.151   2.082  -0.308  1.00  0.00    -0.054 A 
HETATM   13  C13 UNL     1      -2.015   3.564  -0.346  1.00  0.00     0.049 C 
HETATM   14  C14 UNL     1      -1.003   1.323  -0.053  1.00  0.00    -0.041 A 
HETATM   15  C15 UNL     1       0.260   2.059   0.178  1.00  0.00     0.050 C 
HETATM   16  C16 UNL     1      -1.158  -0.036  -0.028  1.00  0.00     0.027 A 
HETATM   17  C17 UNL     1      -0.277  -1.089   0.188  1.00  0.00     0.078 A 
ENDROOT
BRANCH   1  18
HETATM   18  C4  UNL     1       2.190  -0.635   0.647  1.00  0.00     0.131 C 
BRANCH  18  19
HETATM   19  C3  UNL     1       3.014  -0.456  -0.614  1.00  0.00     0.020 C 
BRANCH  19  20
HETATM   20  C2  UNL     1       4.289   0.303  -0.363  1.00  0.00    -0.003 C 
HETATM   21  C1  UNL     1       4.096   1.689   0.181  1.00  0.00     0.005 C 
ENDBRANCH  19  20
ENDBRANCH  18  19
ENDBRANCH   1  18
BRANCH   2  22
HETATM   22  O1  UNL     1       2.220  -3.498   0.778  1.00  0.00    -0.345 OA
ATOM     23  H1  UNL     1       2.274  -4.445   0.830  1.00  0.00     0.219 HD
ENDBRANCH   2  22
TORSDOF 4
