REMARK  6 active torsions:
REMARK  status: ('A' for Active; 'I' for Inactive)
REMARK    1  A    between atoms: C3_3  and  C4_4 
REMARK    2  A    between atoms: C5_5  and  C6_6 
REMARK    3  A    between atoms: C9_9  and  S1_10 
REMARK    4  A    between atoms: C10_12  and  O1_13 
REMARK    5  A    between atoms: C11_15  and  C12_16 
REMARK    6  A    between atoms: C15_19  and  O2_20 
ROOT
HETATM    1  C6  UNL     1       0.248   0.341   0.001  1.00  0.00     0.005 A 
HETATM    2  C7  UNL     1      -0.186   1.306  -0.855  1.00  0.00    -0.029 A 
HETATM    3  C8  UNL     1       0.689   2.381  -1.368  1.00  0.00     0.050 C 
HETATM    4  C9  UNL     1      -1.545   1.415  -1.247  1.00  0.00     0.053 A 
HETATM    5  C10 UNL     1      -2.459   0.524  -0.734  1.00  0.00     0.097 A 
HETATM    6  C11 UNL     1      -2.096  -0.460   0.126  1.00  0.00     0.034 A 
HETATM    7  C15 UNL     1      -0.737  -0.559   0.503  1.00  0.00     0.089 A 
ENDROOT
BRANCH   1   8
HETATM    8  C5  UNL     1       1.634   0.034   0.274  1.00  0.00     0.015 C 
HETATM    9  C4  UNL     1       2.751   0.406  -0.288  1.00  0.00     0.001 C 
BRANCH   9  10
HETATM   10  C3  UNL     1       3.992  -0.142   0.301  1.00  0.00    -0.004 C 
HETATM   11  C2  UNL     1       5.216   0.094  -0.098  1.00  0.00    -0.031 C 
HETATM   12  C1  UNL     1       6.334  -0.580   0.656  1.00  0.00     0.036 C 
ENDBRANCH   9  10
ENDBRANCH   1   8
BRANCH   7  13
HETATM   13  O2  UNL     1      -0.345  -1.529   1.372  1.00  0.00    -0.359 OA
ATOM     14  H2  UNL     1      -1.001  -2.129   1.707  1.00  0.00     0.217 HD
ENDBRANCH   7  13
BRANCH   4  15
HETATM   15  S1  UNL     1      -2.144   2.666  -2.320  1.00  0.00    -0.042 SA
HETATM   16  S2  UNL     1      -2.814   4.134  -0.949  1.00  0.00    -0.007 SA
ENDBRANCH   4  15
BRANCH   6  17
HETATM   17  C12 UNL     1      -2.938  -1.558   0.521  1.00  0.00    -0.072 C 
HETATM   18  C13 UNL     1      -3.344  -1.683   1.956  1.00  0.00     0.044 C 
HETATM   19  C14 UNL     1      -3.889  -2.144  -0.439  1.00  0.00     0.044 C 
ENDBRANCH   6  17
BRANCH   5  20
HETATM   20  O1  UNL     1      -3.776   0.665  -1.121  1.00  0.00    -0.358 OA
ATOM     21  H1  UNL     1      -4.407   0.050  -0.767  1.00  0.00     0.217 HD
ENDBRANCH   5  20
TORSDOF 6
