REMARK  9 active torsions:
REMARK  status: ('A' for Active; 'I' for Inactive)
REMARK    1  A    between atoms: C4_4  and  C5_5 
REMARK    2  A    between atoms: C5_5  and  C6_6 
REMARK    3  A    between atoms: C6_6  and  C7_7 
REMARK    4  A    between atoms: C7_7  and  C9_9 
REMARK    5  A    between atoms: C9_9  and  C10_10 
REMARK    6  A    between atoms: C10_10  and  C11_11 
REMARK    7  A    between atoms: C11_11  and  C12_12 
REMARK    8  A    between atoms: C15_19  and  O1_20 
REMARK    9  A    between atoms: C16_22  and  O2_23 
ROOT
HETATM    1  C12 UNL     1       3.053  -0.573  -0.463  1.00  0.00     0.123 A 
HETATM    2  N1  UNL     1       3.864   0.299   0.221  1.00  0.00    -0.339 N 
ATOM      3  H1  UNL     1       3.532   1.202   0.559  1.00  0.00     0.167 HD
HETATM    4  C13 UNL     1       5.195  -0.144   0.424  1.00  0.00     0.105 A 
HETATM    5  C14 UNL     1       5.473  -1.388  -0.096  1.00  0.00     0.108 A 
HETATM    6  N2  UNL     1       6.743  -1.698   0.155  1.00  0.00    -0.327 N 
ATOM      7  H2  UNL     1       7.198  -2.567  -0.125  1.00  0.00     0.168 HD
HETATM    8  C15 UNL     1       7.342  -0.697   0.833  1.00  0.00     0.177 A 
HETATM    9  C16 UNL     1       6.385   0.290   1.014  1.00  0.00     0.146 A 
HETATM   10  S1  UNL     1       3.987  -1.997  -0.869  1.00  0.00    -0.043 SA
ENDROOT
BRANCH   1  11
HETATM   11  C11 UNL     1       1.837  -0.353  -0.743  1.00  0.00    -0.091 C 
BRANCH  11  12
HETATM   12  C10 UNL     1       0.636  -0.205  -1.218  1.00  0.00     0.059 C 
BRANCH  12  13
HETATM   13  C9  UNL     1      -0.288  -1.170  -0.723  1.00  0.00     0.015 C 
BRANCH  13  14
HETATM   14  C7  UNL     1      -1.530  -0.827  -0.462  1.00  0.00    -0.054 C 
HETATM   15  C8  UNL     1      -2.429  -1.866   0.046  1.00  0.00     0.049 C 
BRANCH  14  16
HETATM   16  C6  UNL     1      -1.977   0.536  -0.664  1.00  0.00     0.062 C 
BRANCH  16  17
HETATM   17  C5  UNL     1      -3.118   1.058  -0.516  1.00  0.00    -0.127 C 
BRANCH  17  18
HETATM   18  C4  UNL     1      -4.352   1.622  -0.356  1.00  0.00     0.057 C 
HETATM   19  C2  UNL     1      -5.527   1.128   0.016  1.00  0.00    -0.080 C 
HETATM   20  C1  UNL     1      -6.706   2.071   0.084  1.00  0.00     0.043 C 
HETATM   21  C3  UNL     1      -5.751  -0.274   0.344  1.00  0.00     0.043 C 
ENDBRANCH  17  18
ENDBRANCH  16  17
ENDBRANCH  14  16
ENDBRANCH  13  14
ENDBRANCH  12  13
ENDBRANCH  11  12
ENDBRANCH   1  11
BRANCH   9  22
HETATM   22  O2  UNL     1       6.616   1.475   1.671  1.00  0.00    -0.355 OA
ATOM     23  H2  UNL     1       7.425   1.770   2.072  1.00  0.00     0.218 HD
ENDBRANCH   9  22
BRANCH   8  24
HETATM   24  O1  UNL     1       8.669  -0.665   1.266  1.00  0.00    -0.344 OA
ATOM     25  H1  UNL     1       9.091   0.040   1.743  1.00  0.00     0.219 HD
ENDBRANCH   8  24
TORSDOF 9
