REMARK  6 active torsions:
REMARK  status: ('A' for Active; 'I' for Inactive)
REMARK    1  A    between atoms: C3_5  and  O1_6 
REMARK    2  A    between atoms: C4_8  and  N2_9 
REMARK    3  A    between atoms: N2_9  and  N3_11 
REMARK    4  A    between atoms: N3_11  and  C5_12 
REMARK    5  A    between atoms: C7_16  and  C8_17 
REMARK    6  A    between atoms: C14_23  and  O2_24 
ROOT
HETATM    1  C5  UNL     1       0.124  -1.049   0.168  1.00  0.00     0.181 A 
HETATM    2  C6  UNL     1      -0.565  -1.521  -0.966  1.00  0.00     0.138 A 
HETATM    3  N4  UNL     1      -1.863  -1.193  -0.813  1.00  0.00    -0.363 N 
ATOM      4  H4  UNL     1      -2.595  -1.414  -1.488  1.00  0.00     0.165 HD
HETATM    5  C7  UNL     1      -2.071  -0.539   0.339  1.00  0.00     0.050 A 
HETATM    6  C14 UNL     1      -0.868  -0.436   0.960  1.00  0.00     0.133 A 
ENDROOT
BRANCH   1   7
HETATM    7  N3  UNL     1       1.428  -1.185   0.471  1.00  0.00    -0.321 NA
BRANCH   7   8
HETATM    8  N2  UNL     1       2.532  -1.045   0.569  1.00  0.00    -0.231 N 
ATOM      9  H2  UNL     1       2.894  -1.827   1.116  1.00  0.00     0.202 HD
BRANCH   8  10
HETATM   10  C4  UNL     1       3.609  -0.229   0.242  1.00  0.00     0.119 A 
HETATM   11  C3  UNL     1       3.608   1.074  -0.216  1.00  0.00     0.170 A 
HETATM   12  N1  UNL     1       4.890   1.479  -0.403  1.00  0.00    -0.339 N 
HETATM   13  C2  UNL     1       5.701   0.467  -0.076  1.00  0.00     0.015 A 
ATOM     14  H1  UNL     1       5.184   2.397  -0.736  1.00  0.00     0.168 HD
HETATM   15  C1  UNL     1       7.208   0.459  -0.139  1.00  0.00     0.069 C 
HETATM   16  C15 UNL     1       4.955  -0.614   0.331  1.00  0.00    -0.006 A 
HETATM   17  C16 UNL     1       5.436  -1.943   0.780  1.00  0.00     0.053 C 
BRANCH  11  18
HETATM   18  O1  UNL     1       2.521   1.884  -0.460  1.00  0.00    -0.344 OA
ATOM     19  H1  UNL     1       1.624   1.601  -0.329  1.00  0.00     0.219 HD
ENDBRANCH  11  18
ENDBRANCH   8  10
ENDBRANCH   7   8
ENDBRANCH   1   7
BRANCH   6  20
HETATM   20  O2  UNL     1      -0.680   0.177   2.174  1.00  0.00    -0.356 OA
ATOM     21  H2  UNL     1      -1.349   0.590   2.708  1.00  0.00     0.218 HD
ENDBRANCH   6  20
BRANCH   5  22
HETATM   22  C8  UNL     1      -3.407  -0.030   0.783  1.00  0.00     0.038 C 
HETATM   23  C9  UNL     1      -4.450  -0.935   0.215  1.00  0.00     0.011 C 
HETATM   24  C10 UNL     1      -5.801  -0.409  -0.035  1.00  0.00     0.001 C 
HETATM   25  C11 UNL     1      -5.861   1.086  -0.247  1.00  0.00     0.000 C 
HETATM   26  C12 UNL     1      -4.553   1.600  -0.782  1.00  0.00     0.001 C 
HETATM   27  C13 UNL     1      -3.518   1.385   0.289  1.00  0.00     0.011 C 
ENDBRANCH   5  22
TORSDOF 6
