REMARK  4 active torsions:
REMARK  status: ('A' for Active; 'I' for Inactive)
REMARK    1  A    between atoms: C5_7  and  N2_8 
REMARK    2  A    between atoms: N2_8  and  C6_10 
REMARK    3  A    between atoms: C17_24  and  N4_25 
REMARK    4  A    between atoms: N4_25  and  O1_27 
ROOT
HETATM    1  C6  UNL     1       0.442  -0.241  -0.254  1.00  0.00     0.284 C 
HETATM    2  C7  UNL     1       0.288   1.257  -0.406  1.00  0.00     0.054 C 
HETATM    3  C8  UNL     1      -0.975   1.571  -1.219  1.00  0.00     0.004 C 
HETATM    4  C9  UNL     1      -1.775   2.610  -0.508  1.00  0.00     0.000 C 
HETATM    5  C10 UNL     1      -3.253   2.334  -0.514  1.00  0.00     0.000 C 
HETATM    6  C11 UNL     1      -3.667   1.380   0.589  1.00  0.00     0.000 C 
HETATM    7  C12 UNL     1      -4.066   0.052   0.039  1.00  0.00     0.000 C 
HETATM    8  C13 UNL     1      -3.423  -1.116   0.737  1.00  0.00     0.006 C 
HETATM    9  C14 UNL     1      -2.695  -2.038  -0.229  1.00  0.00     0.007 C 
HETATM   10  C15 UNL     1      -3.224  -3.452  -0.092  1.00  0.00     0.011 C 
HETATM   11  C16 UNL     1      -1.189  -1.998   0.010  1.00  0.00     0.239 C 
HETATM   12  N3  UNL     1      -0.745  -0.710   0.434  1.00  0.00    -0.054 N 
ATOM     13  H31 UNL     1      -1.499  -0.027   0.355  1.00  0.00     0.279 HD
ATOM     14  H32 UNL     1      -0.604  -0.694   1.444  1.00  0.00     0.279 HD
ENDROOT
BRANCH   1  15
HETATM   15  N2  UNL     1       1.606  -0.545   0.550  1.00  0.00    -0.359 N 
ATOM     16  H2  UNL     1       1.466  -1.065   1.416  1.00  0.00     0.162 HD
BRANCH  15  17
HETATM   17  C5  UNL     1       2.929  -0.165   0.208  1.00  0.00     0.083 A 
HETATM   18  C3  UNL     1       3.628   0.958   0.578  1.00  0.00     0.034 A 
HETATM   19  N1  UNL     1       4.867   0.926   0.014  1.00  0.00    -0.360 N 
HETATM   20  C4  UNL     1       3.152   2.053   1.459  1.00  0.00     0.070 C 
HETATM   21  C2  UNL     1       4.963  -0.202  -0.708  1.00  0.00     0.036 A 
ATOM     22  H1  UNL     1       5.594   1.634   0.121  1.00  0.00     0.165 HD
HETATM   23  C1  UNL     1       6.146  -0.620  -1.481  1.00  0.00     0.070 C 
HETATM   24  C17 UNL     1       3.776  -0.893  -0.603  1.00  0.00     0.104 A 
BRANCH  24  25
HETATM   25  N4  UNL     1       3.447  -2.154  -1.218  1.00  0.00    -0.265 N 
ATOM     26  H4  UNL     1       2.876  -2.166  -2.063  1.00  0.00     0.194 HD
BRANCH  25  27
HETATM   27  O1  UNL     1       3.848  -3.231  -0.735  1.00  0.00    -0.289 OA
ATOM     28  H1  UNL     1       3.631  -4.062  -1.140  1.00  0.00     0.244 HD
ENDBRANCH  25  27
ENDBRANCH  24  25
ENDBRANCH  15  17
ENDBRANCH   1  15
TORSDOF 4
