REMARK  5 active torsions:
REMARK  status: ('A' for Active; 'I' for Inactive)
REMARK    1  A    between atoms: N1_1  and  C1_5 
REMARK    2  A    between atoms: C1_5  and  C2_6 
REMARK    3  A    between atoms: C2_6  and  N2_8 
REMARK    4  A    between atoms: N2_8  and  C3_10 
REMARK    5  A    between atoms: C3_10  and  C4_11 
ROOT
HETATM    1  C4  UNL     1      -2.483  -0.612  -1.330  1.00  0.00     0.169 C 
HETATM    2  C5  UNL     1      -2.019   0.845  -1.165  1.00  0.00     0.156 C 
HETATM    3  N3  UNL     1      -0.863   0.988  -2.030  1.00  0.00    -0.357 N 
ATOM      4  H3  UNL     1      -0.476   0.168  -2.498  1.00  0.00     0.162 HD
HETATM    5  C6  UNL     1      -0.259   2.277  -2.233  1.00  0.00     0.235 C 
HETATM    6  O1  UNL     1       0.250   2.523  -3.357  1.00  0.00    -0.272 OA
HETATM    7  C7  UNL     1      -0.222   3.309  -1.164  1.00  0.00     0.225 C 
HETATM    8  N4  UNL     1       0.814   4.269  -1.470  1.00  0.00    -0.352 N 
ATOM      9  H4  UNL     1       0.558   5.103  -1.998  1.00  0.00     0.162 HD
HETATM   10  C8  UNL     1       2.166   4.114  -1.077  1.00  0.00     0.217 C 
HETATM   11  O2  UNL     1       3.120   4.556  -1.776  1.00  0.00    -0.274 OA
HETATM   12  C9  UNL     1       2.517   3.415   0.193  1.00  0.00     0.103 C 
HETATM   13  C10 UNL     1       2.914   1.985  -0.026  1.00  0.00     0.009 C 
HETATM   14  C11 UNL     1       4.089   1.598   0.881  1.00  0.00     0.002 C 
HETATM   15  C12 UNL     1       4.875   0.465   0.257  1.00  0.00     0.020 C 
HETATM   16  C13 UNL     1       5.137  -0.643   1.285  1.00  0.00     0.122 C 
HETATM   17  N5  UNL     1       5.030  -1.939   0.649  1.00  0.00    -0.361 N 
ATOM     18  H5  UNL     1       5.872  -2.502   0.533  1.00  0.00     0.162 HD
HETATM   19  C14 UNL     1       3.804  -2.446   0.187  1.00  0.00     0.217 C 
HETATM   20  O3  UNL     1       3.758  -3.147  -0.867  1.00  0.00    -0.274 OA
HETATM   21  C15 UNL     1       2.542  -2.169   0.925  1.00  0.00     0.103 C 
HETATM   22  C16 UNL     1       1.363  -2.784   0.190  1.00  0.00     0.011 C 
HETATM   23  C17 UNL     1       0.114  -2.456   0.958  1.00  0.00     0.020 C 
HETATM   24  C18 UNL     1      -0.993  -3.460   0.743  1.00  0.00     0.125 C 
HETATM   25  N6  UNL     1      -1.354  -3.631  -0.633  1.00  0.00    -0.337 N 
ATOM     26  H6  UNL     1      -1.804  -4.512  -0.880  1.00  0.00     0.164 HD
HETATM   27  C19 UNL     1      -1.151  -2.703  -1.689  1.00  0.00     0.361 C 
HETATM   28  O4  UNL     1      -0.756  -3.239  -2.791  1.00  0.00    -0.239 OA
HETATM   29  O5  UNL     1      -1.358  -1.373  -1.535  1.00  0.00    -0.295 OA
ENDROOT
BRANCH   1  30
HETATM   30  C3  UNL     1      -3.305  -0.943  -0.139  1.00  0.00     0.154 C 
BRANCH  30  31
HETATM   31  N2  UNL     1      -4.453  -0.045  -0.081  1.00  0.00    -0.380 N 
ATOM     32  H2  UNL     1      -4.568   0.662  -0.807  1.00  0.00     0.160 HD
BRANCH  31  33
HETATM   33  C2  UNL     1      -5.411  -0.129   0.957  1.00  0.00     0.099 C 
HETATM   34  S1  UNL     1      -5.248  -1.247   2.123  1.00  0.00    -0.064 SA
BRANCH  33  35
HETATM   35  C1  UNL     1      -6.569   0.788   1.003  1.00  0.00     0.298 C 
BRANCH  35  36
HETATM   36  N1  UNL     1      -7.423   0.549   2.122  1.00  0.00    -0.073 N 
ATOM     37  H13 UNL     1      -7.727  -0.424   2.147  1.00  0.00     0.274 HD
ATOM     38  H12 UNL     1      -6.897   0.581   2.995  1.00  0.00     0.274 HD
ATOM     39  H11 UNL     1      -8.222   1.182   2.154  1.00  0.00     0.274 HD
ENDBRANCH  35  36
ENDBRANCH  33  35
ENDBRANCH  31  33
ENDBRANCH  30  31
ENDBRANCH   1  30
TORSDOF 5
