REMARK  5 active torsions:
REMARK  status: ('A' for Active; 'I' for Inactive)
REMARK    1  A    between atoms: N1_1  and  C1_5 
REMARK    2  A    between atoms: C1_5  and  C2_6 
REMARK    3  A    between atoms: C1_5  and  C3_9 
REMARK       I    between atoms: C3_9  and  N2_11 
REMARK    4  A    between atoms: C7_15  and  C8_16 
REMARK    5  A    between atoms: C8_16  and  C9_17 
ROOT
HETATM    1  C3  UNL     1      -3.851   0.107  -0.075  1.00  0.00     0.261 C 
HETATM    2  O3  UNL     1      -4.175   1.160   0.597  1.00  0.00    -0.270 OA
HETATM    3  N2  UNL     1      -2.472  -0.080  -0.286  1.00  0.00    -0.346 N 
HETATM    4  C4  UNL     1      -1.497   0.930   0.189  1.00  0.00     0.153 C 
HETATM    5  C5  UNL     1      -0.843   1.590  -0.965  1.00  0.00    -0.010 C 
HETATM    6  C6  UNL     1      -0.252   2.715  -1.061  1.00  0.00    -0.015 C 
HETATM    7  C7  UNL     1       0.035   3.810  -0.118  1.00  0.00     0.110 C 
HETATM    8  C10 UNL     1       1.471   4.176  -0.110  1.00  0.00     0.225 C 
HETATM    9  O6  UNL     1       1.754   5.398  -0.282  1.00  0.00    -0.273 OA
HETATM   10  N3  UNL     1       2.567   3.307   0.070  1.00  0.00    -0.359 N 
ATOM     11  H3  UNL     1       3.208   3.541   0.829  1.00  0.00     0.162 HD
HETATM   12  C11 UNL     1       2.889   2.122  -0.696  1.00  0.00     0.150 C 
HETATM   13  C12 UNL     1       3.066   0.912   0.228  1.00  0.00     0.251 C 
HETATM   14  N4  UNL     1       3.843  -0.053  -0.545  1.00  0.00    -0.073 N 
ATOM     15  H41 UNL     1       4.476   0.416  -1.193  1.00  0.00     0.277 HD
ATOM     16  H42 UNL     1       3.257  -0.545  -1.220  1.00  0.00     0.277 HD
HETATM   17  C13 UNL     1       4.559  -0.986   0.311  1.00  0.00     0.242 C 
HETATM   18  C14 UNL     1       4.207  -2.376  -0.168  1.00  0.00     0.101 C 
HETATM   19  S1  UNL     1       3.519  -3.328   1.225  1.00  0.00    -0.166 SA
HETATM   20  C15 UNL     1       2.732  -4.794   0.529  1.00  0.00     0.101 C 
HETATM   21  C16 UNL     1       1.427  -4.425  -0.104  1.00  0.00     0.242 C 
HETATM   22  N5  UNL     1       1.007  -3.057   0.228  1.00  0.00    -0.074 N 
ATOM     23  H51 UNL     1       1.667  -2.342  -0.078  1.00  0.00     0.277 HD
ATOM     24  H52 UNL     1       1.052  -2.846   1.225  1.00  0.00     0.277 HD
HETATM   25  C17 UNL     1      -0.311  -2.905  -0.335  1.00  0.00     0.234 C 
HETATM   26  C18 UNL     1      -0.532  -1.497  -0.910  1.00  0.00     0.047 C 
HETATM   27  C19 UNL     1      -2.009  -1.266  -0.949  1.00  0.00     0.128 C 
ENDROOT
BRANCH   1  28
HETATM   28  C1  UNL     1      -4.987  -0.707  -0.496  1.00  0.00     0.374 C 
BRANCH  28  29
HETATM   29  N1  UNL     1      -4.762  -1.679  -1.508  1.00  0.00    -0.056 N 
ATOM     30  H13 UNL     1      -4.259  -2.492  -1.151  1.00  0.00     0.275 HD
ATOM     31  H12 UNL     1      -5.625  -2.147  -1.786  1.00  0.00     0.275 HD
ATOM     32  H11 UNL     1      -4.285  -1.254  -2.303  1.00  0.00     0.275 HD
ENDBRANCH  28  29
BRANCH  28  33
HETATM   33  C2  UNL     1      -5.690  -1.333   0.676  1.00  0.00     0.214 C 
HETATM   34  O1  UNL     1      -5.992  -2.542   0.583  1.00  0.00    -0.646 OA
HETATM   35  O2  UNL     1      -6.001  -0.633   1.818  1.00  0.00    -0.646 OA
ENDBRANCH  28  33
ENDBRANCH   1  28
BRANCH   7  36
HETATM   36  C8  UNL     1      -0.533   3.673   1.258  1.00  0.00     0.131 C 
BRANCH  36  37
HETATM   37  C9  UNL     1      -0.103   4.867   2.030  1.00  0.00     0.173 C 
HETATM   38  O4  UNL     1       1.072   4.938   2.472  1.00  0.00    -0.648 OA
HETATM   39  O5  UNL     1      -0.949   5.923   2.290  1.00  0.00    -0.648 OA
ENDBRANCH  36  37
ENDBRANCH   7  36
TORSDOF 5
