REMARK  8 active torsions:
REMARK  status: ('A' for Active; 'I' for Inactive)
REMARK    1  A    between atoms: C1_2  and  N2_4 
REMARK       I    between atoms: N2_4  and  C2_6 
REMARK       I    between atoms: C2_6  and  N7_25 
REMARK    2  A    between atoms: N3_7  and  C3_9 
REMARK    3  A    between atoms: C3_9  and  C4_14 
REMARK    4  A    between atoms: N4_10  and  O1_12 
REMARK    5  A    between atoms: N5_18  and  S2_19 
REMARK    6  A    between atoms: S2_19  and  N6_20 
REMARK    7  A    between atoms: N7_25  and  C8_27 
REMARK    8  A    between atoms: N8_30  and  O4_31 
ROOT
HETATM    1  N2  UNL     1      -0.553   1.631  -1.759  1.00  0.00    -0.169 N 
ATOM      2  H2  UNL     1      -1.123   1.084  -2.404  1.00  0.00     0.186 HD
HETATM    3  C2  UNL     1      -0.139   1.047  -0.531  1.00  0.00     0.681 C 
HETATM    4  N3  UNL     1      -1.067   0.759   0.318  1.00  0.00    -0.177 N 
ATOM      5  H3  UNL     1      -0.805   0.340   1.210  1.00  0.00     0.185 HD
HETATM    6  N7  UNL     1       1.234   0.812  -0.295  1.00  0.00    -0.217 N 
ATOM      7  H7  UNL     1       1.902   1.365  -0.832  1.00  0.00     0.178 HD
ENDROOT
BRANCH   1   8
HETATM    8  C1  UNL     1      -0.190   2.958  -2.107  1.00  0.00     0.199 C 
HETATM    9  N1  UNL     1      -0.601   3.535  -3.325  1.00  0.00    -0.069 NA
HETATM   10  S1  UNL     1       0.728   3.887  -1.108  1.00  0.00    -0.044 SA
ENDBRANCH   1   8
BRANCH   4  11
HETATM   11  C3  UNL     1      -2.425   1.003   0.056  1.00  0.00     0.136 C 
HETATM   12  N4  UNL     1      -2.803   2.243  -0.129  1.00  0.00    -0.255 N 
ATOM     13  H4  UNL     1      -2.096   2.977  -0.075  1.00  0.00     0.195 HD
BRANCH  12  14
HETATM   14  O1  UNL     1      -4.079   2.602  -0.388  1.00  0.00    -0.288 OA
ATOM     15  H1  UNL     1      -4.353   3.502  -0.522  1.00  0.00     0.244 HD
ENDBRANCH  12  14
BRANCH  11  16
HETATM   16  C4  UNL     1      -3.473  -0.015  -0.030  1.00  0.00     0.145 C 
HETATM   17  C5  UNL     1      -3.132  -0.999  -1.157  1.00  0.00     0.030 C 
HETATM   18  C6  UNL     1      -4.044  -2.168  -0.761  1.00  0.00     0.018 C 
HETATM   19  C7  UNL     1      -3.826  -2.187   0.740  1.00  0.00     0.110 C 
HETATM   20  N5  UNL     1      -3.599  -0.830   1.149  1.00  0.00    -0.182 NA
BRANCH  20  21
HETATM   21  S2  UNL     1      -4.889  -0.325   2.147  1.00  0.00     0.297 S 
HETATM   22  O2  UNL     1      -4.921  -1.256   3.350  1.00  0.00    -0.189 OA
HETATM   23  O3  UNL     1      -4.608   1.079   2.604  1.00  0.00    -0.189 OA
BRANCH  21  24
HETATM   24  N6  UNL     1      -6.413  -0.435   1.350  1.00  0.00    -0.316 N 
ATOM     25  H62 UNL     1      -6.516  -0.766   0.391  1.00  0.00     0.170 HD
ATOM     26  H61 UNL     1      -7.184  -0.133   1.946  1.00  0.00     0.170 HD
ENDBRANCH  21  24
ENDBRANCH  20  21
ENDBRANCH  11  16
ENDBRANCH   4  11
BRANCH   6  27
HETATM   27  C8  UNL     1       1.762  -0.131   0.629  1.00  0.00     0.152 C 
HETATM   28  C9  UNL     1       1.380  -1.548   0.392  1.00  0.00     0.047 C 
HETATM   29  C10 UNL     1       2.645  -2.161  -0.173  1.00  0.00     0.126 C 
HETATM   30  N8  UNL     1       3.645  -1.563   0.710  1.00  0.00    -0.162 NA
HETATM   31  C11 UNL     1       3.250  -0.152   0.666  1.00  0.00     0.159 C 
HETATM   32  C12 UNL     1       3.902   0.443  -0.548  1.00  0.00     0.059 C 
HETATM   33  O5  UNL     1       3.755   0.430   1.821  1.00  0.00    -0.361 OA
HETATM   34  C13 UNL     1       5.343  -0.057  -0.578  1.00  0.00     0.006 C 
HETATM   35  C14 UNL     1       5.920   0.196   0.800  1.00  0.00     0.026 C 
HETATM   36  C15 UNL     1       4.974   1.038   1.629  1.00  0.00     0.170 C 
BRANCH  30  37
HETATM   37  O4  UNL     1       3.367  -2.025   1.961  1.00  0.00    -0.310 OA
ATOM     38  H4  UNL     1       4.017  -1.636   2.535  1.00  0.00     0.237 HD
ENDBRANCH  30  37
ENDBRANCH   6  27
TORSDOF 8
