REMARK  9 active torsions:
REMARK  status: ('A' for Active; 'I' for Inactive)
REMARK    1  A    between atoms: N1_2  and  C2_4 
REMARK    2  A    between atoms: C3_7  and  C4_8 
REMARK    3  A    between atoms: C8_13  and  C9_14 
REMARK    4  A    between atoms: C9_14  and  N3_15 
REMARK    5  A    between atoms: N3_15  and  S1_17 
REMARK    6  A    between atoms: S1_17  and  C10_20 
REMARK    7  A    between atoms: C10_20  and  O4_21 
REMARK    8  A    between atoms: C11_25  and  O5_26 
REMARK    9  A    between atoms: C13_30  and  N6_31 
ROOT
HETATM    1  C4  UNL     1      -1.182  -0.563  -0.044  1.00  0.00     0.063 A 
HETATM    2  C5  UNL     1      -0.400  -0.076   0.973  1.00  0.00     0.058 A 
HETATM    3  C6  UNL     1       0.910  -0.456   1.223  1.00  0.00     0.093 A 
HETATM    4  O1  UNL     1       1.789  -0.193   2.155  1.00  0.00    -0.354 OA
HETATM    5  C7  UNL     1       2.655   0.082   3.092  1.00  0.00     0.210 C 
HETATM    6  C8  UNL     1       1.378  -1.418   0.264  1.00  0.00     0.063 A 
HETATM    7  N4  UNL     1       0.596  -1.847  -0.665  1.00  0.00    -0.336 N 
ATOM      8  H4  UNL     1       1.001  -2.534  -1.301  1.00  0.00     0.168 HD
HETATM    9  C11 UNL     1      -0.682  -1.511  -0.909  1.00  0.00     0.156 A 
ENDROOT
BRANCH   6  10
HETATM   10  C9  UNL     1       2.930  -1.526   0.077  1.00  0.00     0.192 C 
BRANCH  10  11
HETATM   11  N3  UNL     1       3.407  -0.216   0.053  1.00  0.00    -0.312 N 
ATOM     12  H3  UNL     1       2.656   0.461   0.186  1.00  0.00     0.172 HD
BRANCH  11  13
HETATM   13  S1  UNL     1       4.829   0.505  -0.129  1.00  0.00     0.248 S 
HETATM   14  O2  UNL     1       5.924  -0.440  -0.583  1.00  0.00    -0.204 OA
HETATM   15  O3  UNL     1       5.384   1.361   0.973  1.00  0.00    -0.204 OA
BRANCH  13  16
HETATM   16  C10 UNL     1       4.625   1.660  -1.560  1.00  0.00     0.326 C 
BRANCH  16  17
HETATM   17  O4  UNL     1       3.608   2.530  -1.116  1.00  0.00    -0.384 OA
ATOM     18  H4  UNL     1       3.503   3.123  -1.851  1.00  0.00     0.210 HD
ENDBRANCH  16  17
ENDBRANCH  13  16
ENDBRANCH  11  13
ENDBRANCH  10  11
ENDBRANCH   6  10
BRANCH   1  19
HETATM   19  C3  UNL     1      -2.541  -0.057  -0.206  1.00  0.00     0.151 A 
HETATM   20  N2  UNL     1      -3.078   0.849   0.599  1.00  0.00    -0.175 N 
HETATM   21  C2  UNL     1      -4.355   1.263   0.504  1.00  0.00     0.693 A 
ATOM     22  H2  UNL     1      -2.492   1.254   1.329  1.00  0.00     0.186 HD
HETATM   23  N7  UNL     1      -5.157   0.711  -0.480  1.00  0.00    -0.023 N 
HETATM   24  C13 UNL     1      -4.669  -0.184  -1.287  1.00  0.00     0.692 A 
ATOM     25  H7  UNL     1      -6.129   1.006  -0.572  1.00  0.00     0.203 HD
HETATM   26  N5  UNL     1      -3.347  -0.562  -1.155  1.00  0.00    -0.175 N 
ATOM     27  H5  UNL     1      -2.968  -1.252  -1.804  1.00  0.00     0.186 HD
BRANCH  21  28
HETATM   28  N1  UNL     1      -4.917   2.264   1.056  1.00  0.00    -0.230 N 
HETATM   29  C1  UNL     1      -3.780   2.980   1.969  1.00  0.00     0.165 C 
ATOM     30  H1  UNL     1      -5.888   2.558   0.947  1.00  0.00     0.177 HD
ENDBRANCH  21  28
BRANCH  24  31
HETATM   31  N6  UNL     1      -5.365  -0.745  -2.282  1.00  0.00    -0.234 N 
ATOM     32  H62 UNL     1      -4.982  -1.447  -2.915  1.00  0.00     0.174 HD
ATOM     33  H61 UNL     1      -6.341  -0.466  -2.379  1.00  0.00     0.174 HD
ENDBRANCH  24  31
ENDBRANCH   1  19
BRANCH   9  34
HETATM   34  O5  UNL     1      -1.305  -2.138  -1.955  1.00  0.00    -0.340 OA
HETATM   35  C12 UNL     1      -0.889  -3.137  -2.807  1.00  0.00     0.211 C 
ENDBRANCH   9  34
TORSDOF 9
