REMARK  7 active torsions:
REMARK  status: ('A' for Active; 'I' for Inactive)
REMARK    1  A    between atoms: N1_1  and  N2_4 
REMARK    2  A    between atoms: N2_4  and  N3_5 
REMARK    3  A    between atoms: N3_5  and  C1_7 
REMARK    4  A    between atoms: N4_10  and  N5_11 
REMARK       I    between atoms: N5_11  and  C4_13 
REMARK       I    between atoms: C4_13  and  N6_15 
REMARK    5  A    between atoms: N6_15  and  C5_17 
REMARK    6  A    between atoms: C6_18  and  C7_19 
REMARK    7  A    between atoms: C8_23  and  C9_24 
ROOT
HETATM    1  C5  UNL     1      -1.523  -0.625   0.421  1.00  0.00     0.067 A 
HETATM    2  C6  UNL     1      -1.859  -1.943   0.647  1.00  0.00     0.098 A 
HETATM    3  C8  UNL     1      -3.130  -2.470   0.581  1.00  0.00     0.031 A 
HETATM    4  N7  UNL     1      -4.096  -1.601   0.269  1.00  0.00    -0.352 N 
ATOM      5  H7  UNL     1      -5.063  -1.921   0.206  1.00  0.00     0.166 HD
HETATM    6  C12 UNL     1      -3.800  -0.288   0.034  1.00  0.00     0.087 A 
HETATM    7  S1  UNL     1      -4.823   0.990  -0.430  1.00  0.00    -0.075 SA
HETATM    8  C13 UNL     1      -3.676   2.233  -0.537  1.00  0.00    -0.008 A 
HETATM    9  C14 UNL     1      -2.498   1.611  -0.198  1.00  0.00    -0.030 A 
HETATM   10  C15 UNL     1      -2.570   0.279   0.089  1.00  0.00     0.033 A 
HETATM   11  C16 UNL     1      -1.367   2.640  -0.055  1.00  0.00     0.040 C 
HETATM   12  C17 UNL     1      -1.966   3.775   0.816  1.00  0.00     0.005 C 
HETATM   13  C18 UNL     1      -3.038   4.533   0.120  1.00  0.00     0.005 C 
HETATM   14  C19 UNL     1      -3.706   3.683  -0.946  1.00  0.00     0.047 C 
ENDROOT
BRANCH   1  15
HETATM   15  N6  UNL     1      -0.186  -0.197   0.530  1.00  0.00    -0.306 N 
HETATM   16  C4  UNL     1       0.748  -0.083  -0.538  1.00  0.00     0.339 C 
HETATM   17  N5  UNL     1       2.067   0.355  -0.265  1.00  0.00    -0.250 N 
HETATM   18  O1  UNL     1       0.452  -0.353  -1.707  1.00  0.00    -0.245 OA
ATOM     19  H5  UNL     1       2.298   0.574   0.704  1.00  0.00     0.192 HD
ATOM     20  H6  UNL     1       0.144   0.055   1.462  1.00  0.00     0.171 HD
BRANCH  17  21
HETATM   21  N4  UNL     1       3.058   0.508  -1.201  1.00  0.00    -0.303 N 
HETATM   22  C3  UNL     1       3.596  -0.664  -1.751  1.00  0.00     0.085 C 
HETATM   23  C2  UNL     1       4.995  -1.013  -1.331  1.00  0.00     0.074 C 
HETATM   24  C1  UNL     1       5.442  -0.112  -0.168  1.00  0.00     0.120 C 
HETATM   25  C21 UNL     1       5.331   1.309  -0.685  1.00  0.00     0.049 C 
HETATM   26  C20 UNL     1       3.915   1.634  -1.011  1.00  0.00     0.150 C 
BRANCH  24  27
HETATM   27  N3  UNL     1       6.838  -0.444   0.097  1.00  0.00    -0.247 N 
ATOM     28  H3  UNL     1       7.477  -0.525  -0.694  1.00  0.00     0.197 HD
BRANCH  27  29
HETATM   29  N2  UNL     1       7.277  -0.629   1.218  1.00  0.00    -0.248 NA
BRANCH  29  30
HETATM   30  N1  UNL     1       7.708  -0.792   2.362  1.00  0.00    -0.261 N 
ATOM     31  H12 UNL     1       7.114  -0.048   1.997  1.00  0.00     0.193 HD
ATOM     32  H11 UNL     1       8.076  -0.947   3.301  1.00  0.00     0.193 HD
ENDBRANCH  29  30
ENDBRANCH  27  29
ENDBRANCH  24  27
ENDBRANCH  17  21
ENDBRANCH   1  15
BRANCH   2  33
HETATM   33  C7  UNL     1      -0.790  -2.866   1.090  1.00  0.00     0.421 C 
HETATM   34  F1  UNL     1       0.213  -3.027   0.180  1.00  0.00    -0.166 F 
HETATM   35  F2  UNL     1      -0.281  -2.253   2.267  1.00  0.00    -0.166 F 
HETATM   36  F3  UNL     1      -1.177  -4.092   1.506  1.00  0.00    -0.166 F 
ENDBRANCH   2  33
BRANCH   3  37
HETATM   37  C9  UNL     1      -3.419  -3.926   0.709  1.00  0.00     0.036 A 
HETATM   38  C10 UNL     1      -4.500  -4.404   1.645  1.00  0.00     0.011 A 
HETATM   39  C11 UNL     1      -4.966  -4.149   0.292  1.00  0.00     0.011 A 
ENDBRANCH   3  37
TORSDOF 7
