REMARK  7 active torsions:
REMARK  status: ('A' for Active; 'I' for Inactive)
REMARK    1  A    between atoms: O1_2  and  C2_3 
REMARK    2  A    between atoms: C7_8  and  C8_9 
REMARK    3  A    between atoms: C8_9  and  N1_10 
REMARK    4  A    between atoms: C8_9  and  C15_18 
REMARK    5  A    between atoms: N1_10  and  C9_12 
REMARK    6  A    between atoms: C22_31  and  N4_32 
REMARK    7  A    between atoms: N4_32  and  C23_34 
ROOT
HETATM    1  C2  UNL     1       1.046  -1.261   0.172  1.00  0.00     0.079 A 
HETATM    2  C3  UNL     1      -0.256  -1.324   0.528  1.00  0.00     0.069 A 
HETATM    3  C4  UNL     1      -1.245  -0.693  -0.221  1.00  0.00     0.065 A 
HETATM    4  C5  UNL     1      -0.853  -0.003  -1.337  1.00  0.00     0.061 A 
HETATM    5  C6  UNL     1       0.499   0.039  -1.685  1.00  0.00     0.044 A 
HETATM    6  C7  UNL     1       1.488  -0.578  -0.954  1.00  0.00     0.009 A 
HETATM    7  N2  UNL     1      -1.966   0.515  -1.870  1.00  0.00    -0.342 N 
ATOM      8  H2  UNL     1      -1.996   1.092  -2.711  1.00  0.00     0.167 HD
HETATM    9  C16 UNL     1      -3.039   0.167  -1.139  1.00  0.00     0.107 A 
HETATM   10  N3  UNL     1      -2.604  -0.581  -0.132  1.00  0.00    -0.332 N 
HETATM   11  C17 UNL     1      -3.483  -1.269   0.799  1.00  0.00     0.139 C 
HETATM   12  C18 UNL     1      -4.926  -1.236   0.454  1.00  0.00    -0.029 C 
HETATM   13  C19 UNL     1      -5.694  -0.649   1.634  1.00  0.00     0.016 C 
HETATM   14  C20 UNL     1      -5.415  -2.714   0.394  1.00  0.00     0.016 C 
HETATM   15  C21 UNL     1      -5.324  -0.645  -0.839  1.00  0.00     0.043 C 
HETATM   16  C22 UNL     1      -4.477   0.532  -1.289  1.00  0.00     0.151 C 
ENDROOT
BRANCH   6  17
HETATM   17  C8  UNL     1       2.913  -0.431  -1.293  1.00  0.00     0.222 C 
BRANCH  17  18
HETATM   18  N1  UNL     1       3.909  -0.513  -0.340  1.00  0.00    -0.402 N 
ATOM     19  H1  UNL     1       4.452  -1.365  -0.200  1.00  0.00     0.154 HD
BRANCH  18  20
HETATM   20  C9  UNL     1       4.139   0.675   0.448  1.00  0.00     0.077 C 
HETATM   21  C10 UNL     1       5.155   0.360   1.511  1.00  0.00     0.024 C 
HETATM   22  C11 UNL     1       6.481   0.053   0.901  1.00  0.00     0.002 C 
HETATM   23  C12 UNL     1       6.941   1.118  -0.061  1.00  0.00     0.000 C 
HETATM   24  C13 UNL     1       6.036   2.291   0.109  1.00  0.00     0.002 C 
HETATM   25  C14 UNL     1       4.633   1.857  -0.325  1.00  0.00     0.024 C 
ENDBRANCH  18  20
ENDBRANCH  17  18
BRANCH  17  26
HETATM   26  C15 UNL     1       3.242  -1.261  -2.559  1.00  0.00     0.411 C 
HETATM   27  F1  UNL     1       2.932  -2.617  -2.223  1.00  0.00    -0.168 F 
HETATM   28  F2  UNL     1       4.585  -1.256  -2.834  1.00  0.00    -0.168 F 
HETATM   29  F3  UNL     1       2.496  -0.828  -3.622  1.00  0.00    -0.168 F 
ENDBRANCH  17  26
ENDBRANCH   6  17
BRANCH   1  30
HETATM   30  O1  UNL     1       1.979  -1.904   0.950  1.00  0.00    -0.355 OA
HETATM   31  C1  UNL     1       1.584  -2.597   2.127  1.00  0.00     0.210 C 
ENDBRANCH   1  30
BRANCH  16  32
HETATM   32  N4  UNL     1      -4.910   1.704  -0.592  1.00  0.00    -0.373 N 
ATOM     33  H4  UNL     1      -5.685   1.572   0.058  1.00  0.00     0.161 HD
BRANCH  32  34
HETATM   34  C23 UNL     1      -4.405   3.018  -0.687  1.00  0.00     0.070 C 
HETATM   35  C24 UNL     1      -5.059   4.074   0.173  1.00  0.00     0.081 C 
HETATM   36  S1  UNL     1      -3.157   3.395  -1.668  1.00  0.00    -0.066 SA
ENDBRANCH  32  34
ENDBRANCH  16  32
TORSDOF 7
