REMARK  11 active torsions:
REMARK  status: ('A' for Active; 'I' for Inactive)
REMARK    1  A    between atoms: O1_2  and  N1_3 
REMARK    2  A    between atoms: N1_3  and  O2_4 
REMARK    3  A    between atoms: N1_3  and  C2_6 
REMARK    4  A    between atoms: C2_6  and  C3_7 
REMARK    5  A    between atoms: C3_7  and  C4_8 
REMARK    6  A    between atoms: C4_8  and  N2_9 
REMARK       I    between atoms: N2_9  and  C5_11 
REMARK       I    between atoms: C5_11  and  N5_16 
REMARK    7  A    between atoms: N5_16  and  C7_18 
REMARK    8  A    between atoms: C9_20  and  O3_21 
REMARK    9  A    between atoms: O3_21  and  C10_22 
REMARK   10  A    between atoms: C11_25  and  N7_26 
REMARK   11  A    between atoms: C16_38  and  N10_39 
ROOT
HETATM    1  N2  UNL     1      -2.873  -1.889   0.360  1.00  0.00    -0.226 N 
ATOM      2  H2  UNL     1      -3.004  -2.611  -0.349  1.00  0.00     0.177 HD
HETATM    3  C5  UNL     1      -1.745  -1.957   1.204  1.00  0.00     0.683 C 
HETATM    4  N3  UNL     1      -1.737  -2.886   2.124  1.00  0.00    -0.126 N 
ATOM      5  H3  UNL     1      -0.932  -2.954   2.746  1.00  0.00     0.197 HD
HETATM    6  C6  UNL     1      -2.779  -3.778   2.284  1.00  0.00     0.196 C 
HETATM    7  N4  UNL     1      -3.646  -4.541   2.419  1.00  0.00    -0.171 NA
HETATM    8  N5  UNL     1      -0.661  -1.052   1.059  1.00  0.00    -0.219 N 
ATOM      9  H5  UNL     1      -0.825  -0.071   0.832  1.00  0.00     0.178 HD
ENDROOT
BRANCH   1  10
HETATM   10  C4  UNL     1      -3.863  -0.814   0.469  1.00  0.00     0.139 C 
BRANCH  10  11
HETATM   11  C3  UNL     1      -4.928  -1.020  -0.554  1.00  0.00     0.039 C 
BRANCH  11  12
HETATM   12  C2  UNL     1      -5.999   0.015  -0.491  1.00  0.00     0.155 C 
BRANCH  12  13
HETATM   13  N1  UNL     1      -5.560   1.364  -0.699  1.00  0.00    -0.072 NA
BRANCH  13  14
HETATM   14  O1  UNL     1      -6.684   2.176  -0.709  1.00  0.00    -0.284 OA
HETATM   15  C1  UNL     1      -6.295   3.521  -0.613  1.00  0.00     0.232 C 
ENDBRANCH  13  14
BRANCH  13  16
HETATM   16  O2  UNL     1      -4.856   1.859   0.378  1.00  0.00    -0.289 OA
ATOM     17  H2  UNL     1      -4.086   1.303   0.385  1.00  0.00     0.239 HD
ENDBRANCH  13  16
ENDBRANCH  12  13
ENDBRANCH  11  12
ENDBRANCH  10  11
ENDBRANCH   1  10
BRANCH   8  18
HETATM   18  C7  UNL     1       0.697  -1.562   1.243  1.00  0.00     0.132 C 
HETATM   19  C8  UNL     1       1.718  -0.473   1.055  1.00  0.00     0.060 C 
HETATM   20  C9  UNL     1       2.985  -1.079   0.574  1.00  0.00     0.132 C 
HETATM   21  C14 UNL     1       2.728  -1.587  -0.823  1.00  0.00     0.035 C 
HETATM   22  C15 UNL     1       1.751  -2.703  -0.748  1.00  0.00     0.037 C 
HETATM   23  C16 UNL     1       0.929  -2.800   0.474  1.00  0.00     0.206 C 
BRANCH  20  24
HETATM   24  O3  UNL     1       4.125  -0.298   0.700  1.00  0.00    -0.328 OA
BRANCH  24  25
HETATM   25  C10 UNL     1       4.280   0.929   0.102  1.00  0.00     0.186 A 
HETATM   26  N6  UNL     1       3.382   1.450  -0.657  1.00  0.00    -0.324 N 
HETATM   27  C11 UNL     1       3.790   2.741  -1.159  1.00  0.00     0.391 A 
ATOM     28  H6  UNL     1       2.491   1.006  -0.877  1.00  0.00     0.165 HD
HETATM   29  N8  UNL     1       5.107   2.960  -0.591  1.00  0.00    -0.325 N 
HETATM   30  C12 UNL     1       5.957   4.109  -0.782  1.00  0.00     0.155 C 
HETATM   31  C13 UNL     1       5.427   1.829   0.204  1.00  0.00     0.151 A 
HETATM   32  N9  UNL     1       6.491   1.595   0.892  1.00  0.00    -0.382 N 
ATOM     33  H92 UNL     1       6.721   0.782   1.463  1.00  0.00     0.157 HD
ATOM     34  H91 UNL     1       7.292   2.223   0.963  1.00  0.00     0.157 HD
BRANCH  27  35
HETATM   35  N7  UNL     1       3.868   2.732  -2.615  1.00  0.00    -0.040 N 
ATOM     36  H73 UNL     1       4.475   1.986  -2.955  1.00  0.00     0.279 HD
ATOM     37  H72 UNL     1       2.992   2.423  -3.037  1.00  0.00     0.279 HD
ATOM     38  H71 UNL     1       4.156   3.644  -2.970  1.00  0.00     0.279 HD
ENDBRANCH  27  35
ENDBRANCH  24  25
ENDBRANCH  20  24
BRANCH  23  39
HETATM   39  N10 UNL     1       1.405  -3.895   1.342  1.00  0.00    -0.073 N 
ATOM     40 3H10 UNL     1       2.235  -3.621   1.867  1.00  0.00     0.274 HD
ATOM     41 2H10 UNL     1       0.769  -4.055   2.124  1.00  0.00     0.274 HD
ATOM     42 1H10 UNL     1       1.565  -4.751   0.810  1.00  0.00     0.274 HD
ENDBRANCH  23  39
ENDBRANCH   8  18
TORSDOF 11
