REMARK  8 active torsions:
REMARK  status: ('A' for Active; 'I' for Inactive)
REMARK    1  A    between atoms: N1_1  and  N2_4 
REMARK    2  A    between atoms: N2_4  and  C1_6 
REMARK    3  A    between atoms: C3_10  and  C4_11 
REMARK       I    between atoms: C4_11  and  N4_13 
REMARK    4  A    between atoms: N4_13  and  C5_15 
REMARK    5  A    between atoms: C5_15  and  C6_16 
REMARK    6  A    between atoms: C6_16  and  N5_17 
REMARK       I    between atoms: N5_17  and  C7_19 
REMARK    7  A    between atoms: C7_19  and  C8_21 
REMARK    8  A    between atoms: C12_25  and  N6_26 
ROOT
HETATM    1  C5  UNL     1      -1.315  -1.391  -1.796  1.00  0.00     0.142 C 
ENDROOT
BRANCH   1   2
HETATM    2  N4  UNL     1      -2.722  -1.550  -1.687  1.00  0.00    -0.354 N 
HETATM    3  C4  UNL     1      -3.631  -0.495  -1.432  1.00  0.00     0.271 C 
HETATM    4  O1  UNL     1      -3.168   0.679  -1.289  1.00  0.00    -0.266 OA
ATOM      5  H4  UNL     1      -3.104  -2.489  -1.800  1.00  0.00     0.162 HD
BRANCH   3   6
HETATM    6  C3  UNL     1      -5.062  -0.683  -1.324  1.00  0.00     0.142 A 
HETATM    7  N3  UNL     1      -5.606  -1.897  -1.471  1.00  0.00    -0.355 N 
HETATM    8  C2  UNL     1      -6.950  -2.094  -1.379  1.00  0.00     0.138 A 
ATOM      9  H3  UNL     1      -4.998  -2.695  -1.657  1.00  0.00     0.165 HD
HETATM   10  C1  UNL     1      -7.785  -1.029  -1.129  1.00  0.00     0.136 A 
HETATM   11  N11 UNL     1      -7.245   0.188  -0.981  1.00  0.00    -0.327 N 
HETATM   12  C16 UNL     1      -5.904   0.373  -1.075  1.00  0.00     0.150 A 
ATOM     13  H11 UNL     1      -7.851   0.987  -0.795  1.00  0.00     0.168 HD
HETATM   14  N10 UNL     1      -5.429   1.701  -0.903  1.00  0.00    -0.080 NA
BRANCH  10  15
HETATM   15  N2  UNL     1      -9.064  -1.163  -1.032  1.00  0.00    -0.291 N 
ATOM     16  H2  UNL     1      -9.488  -2.084  -1.140  1.00  0.00     0.188 HD
BRANCH  15  17
HETATM   17  N1  UNL     1      -9.864  -0.060  -0.781  1.00  0.00    -0.344 N 
ATOM     18  H12 UNL     1      -9.424   0.854  -0.675  1.00  0.00     0.176 HD
ATOM     19  H11 UNL     1     -10.876  -0.166  -0.704  1.00  0.00     0.176 HD
ENDBRANCH  15  17
ENDBRANCH  10  15
ENDBRANCH   3   6
ENDBRANCH   1   2
BRANCH   1  20
HETATM   20  C6  UNL     1      -0.655  -0.853  -0.553  1.00  0.00     0.142 C 
BRANCH  20  21
HETATM   21  N5  UNL     1       0.783  -0.714  -0.746  1.00  0.00    -0.354 N 
HETATM   22  C7  UNL     1       1.640  -0.244   0.262  1.00  0.00     0.268 C 
HETATM   23  O2  UNL     1       1.123   0.060   1.371  1.00  0.00    -0.266 OA
ATOM     24  H5  UNL     1       1.183  -0.968  -1.649  1.00  0.00     0.162 HD
BRANCH  22  25
HETATM   25  C8  UNL     1       3.099  -0.101   0.060  1.00  0.00     0.102 A 
HETATM   26  C9  UNL     1       3.658  -0.378  -1.164  1.00  0.00     0.035 A 
HETATM   27  C10 UNL     1       5.022  -0.234  -1.301  1.00  0.00     0.006 A 
HETATM   28  C11 UNL     1       5.767   0.181  -0.213  1.00  0.00     0.049 A 
HETATM   29  C12 UNL     1       5.215   0.460   1.016  1.00  0.00     0.110 A 
HETATM   30  N9  UNL     1       3.871   0.298   1.084  1.00  0.00    -0.338 N 
ATOM     31  H9  UNL     1       3.414   0.493   1.975  1.00  0.00     0.167 HD
BRANCH  29  32
HETATM   32  N6  UNL     1       5.949   0.873   2.153  1.00  0.00    -0.306 N 
HETATM   33  C13 UNL     1       5.296   1.396   3.363  1.00  0.00     0.153 C 
HETATM   34  C14 UNL     1       6.420   2.162   4.022  1.00  0.00     0.142 C 
HETATM   35  N7  UNL     1       7.606   1.599   3.438  1.00  0.00    -0.363 N 
HETATM   36  C15 UNL     1       7.324   0.874   2.386  1.00  0.00     0.192 C 
ATOM     37  H7  UNL     1       8.549   1.746   3.798  1.00  0.00     0.162 HD
HETATM   38  N8  UNL     1       8.330   0.210   1.652  1.00  0.00    -0.063 NA
ENDBRANCH  29  32
ENDBRANCH  22  25
ENDBRANCH  20  21
ENDBRANCH   1  20
TORSDOF 8
