REMARK  7 active torsions:
REMARK  status: ('A' for Active; 'I' for Inactive)
REMARK    1  A    between atoms: N1_2  and  C2_3 
REMARK    2  A    between atoms: N1_2  and  C9_10 
REMARK    3  A    between atoms: C2_3  and  C3_4 
REMARK    4  A    between atoms: C9_10  and  C10_11 
REMARK    5  A    between atoms: N4_18  and  C12_19 
REMARK    6  A    between atoms: C12_19  and  C13_20 
REMARK    7  A    between atoms: C13_20  and  C14_21 
ROOT
HETATM    1  C14 UNL     1       3.560   0.434   0.281  1.00  0.00    -0.057 A 
HETATM    2  C15 UNL     1       4.865   0.034   0.150  1.00  0.00     0.009 A 
HETATM    3  C16 UNL     1       5.759   0.774  -0.584  1.00  0.00     0.023 A 
HETATM    4  C17 UNL     1       5.365   1.942  -1.209  1.00  0.00     0.044 A 
HETATM    5  C18 UNL     1       6.292   2.712  -1.972  1.00  0.00     0.099 C 
HETATM    6  N5  UNL     1       7.047   3.321  -2.585  1.00  0.00    -0.191 NA
HETATM    7  C19 UNL     1       4.050   2.361  -1.088  1.00  0.00     0.023 A 
HETATM    8  C20 UNL     1       3.163   1.589  -0.336  1.00  0.00     0.009 A 
ENDROOT
BRANCH   1   9
HETATM    9  C13 UNL     1       2.554  -0.328   1.062  1.00  0.00     0.059 C 
BRANCH   9  10
HETATM   10  C12 UNL     1       1.841  -1.352   0.170  1.00  0.00     0.140 C 
BRANCH  10  11
HETATM   11  N4  UNL     1       0.895  -2.039   0.996  1.00  0.00    -0.285 N 
HETATM   12  C10 UNL     1      -0.399  -1.670   1.204  1.00  0.00     0.131 A 
HETATM   13  N2  UNL     1      -0.889  -2.602   2.039  1.00  0.00    -0.283 N 
HETATM   14  N3  UNL     1       0.022  -3.496   2.339  1.00  0.00    -0.250 N 
ATOM     15  H2  UNL     1      -1.845  -2.613   2.393  1.00  0.00     0.188 HD
HETATM   16  C11 UNL     1       1.137  -3.149   1.692  1.00  0.00     0.342 A 
ATOM     17  H3  UNL     1      -0.098  -4.303   2.951  1.00  0.00     0.192 HD
HETATM   18  O1  UNL     1       2.208  -3.817   1.775  1.00  0.00    -0.245 OA
BRANCH  12  19
HETATM   19  C9  UNL     1      -1.108  -0.491   0.629  1.00  0.00     0.350 C 
BRANCH  19  20
HETATM   20  N1  UNL     1      -1.704  -0.899  -0.611  1.00  0.00     0.095 N 
HETATM   21  C1  UNL     1      -2.654  -1.975  -0.451  1.00  0.00     0.310 C 
BRANCH  20  22
HETATM   22  C2  UNL     1      -2.209   0.200  -1.395  1.00  0.00     0.311 C 
BRANCH  22  23
HETATM   23  C3  UNL     1      -3.410   0.834  -0.826  1.00  0.00    -0.030 A 
HETATM   24  C4  UNL     1      -3.237   1.867   0.061  1.00  0.00     0.009 A 
HETATM   25  C5  UNL     1      -4.309   2.512   0.636  1.00  0.00     0.001 A 
HETATM   26  C6  UNL     1      -5.585   2.110   0.312  1.00  0.00     0.000 A 
HETATM   27  C7  UNL     1      -5.751   1.073  -0.579  1.00  0.00     0.001 A 
HETATM   28  C8  UNL     1      -4.678   0.437  -1.147  1.00  0.00     0.009 A 
ENDBRANCH  22  23
ENDBRANCH  20  22
ENDBRANCH  19  20
ENDBRANCH  12  19
ENDBRANCH  10  11
ENDBRANCH   9  10
ENDBRANCH   1   9
TORSDOF 7
