REMARK  8 active torsions:
REMARK  status: ('A' for Active; 'I' for Inactive)
REMARK    1  A    between atoms: N1_2  and  C3_4 
REMARK    2  A    between atoms: C6_7  and  C7_8 
REMARK    3  A    between atoms: C7_8  and  C8_9 
REMARK    4  A    between atoms: C8_9  and  N2_10 
REMARK    5  A    between atoms: N2_10  and  C9_12 
REMARK    6  A    between atoms: C10_15  and  C11_16 
REMARK    7  A    between atoms: C11_16  and  C12_17 
REMARK    8  A    between atoms: C12_17  and  C13_18 
ROOT
HETATM    1  C9  UNL     1       1.319  -3.256  -0.268  1.00  0.00     0.678 A 
HETATM    2  N3  UNL     1       1.689  -1.966  -0.354  1.00  0.00    -0.196 N 
ATOM      3  H3  UNL     1       1.038  -1.231  -0.078  1.00  0.00     0.184 HD
HETATM    4  C10 UNL     1       2.924  -1.640  -0.806  1.00  0.00     0.028 A 
HETATM    5  C17 UNL     1       3.839  -2.589  -1.189  1.00  0.00     0.043 A 
HETATM    6  C18 UNL     1       3.444  -3.909  -1.095  1.00  0.00     0.108 A 
HETATM    7  N6  UNL     1       2.205  -4.191  -0.639  1.00  0.00    -0.202 N 
ATOM      8  H6  UNL     1       1.928  -5.170  -0.573  1.00  0.00     0.183 HD
ENDROOT
BRANCH   1   9
HETATM    9  N2  UNL     1       0.139  -3.604   0.163  1.00  0.00    -0.226 N 
ATOM     10  H2  UNL     1      -0.128  -4.586   0.224  1.00  0.00     0.177 HD
BRANCH   9  11
HETATM   11  C8  UNL     1      -0.784  -2.554   0.553  1.00  0.00     0.142 C 
BRANCH  11  12
HETATM   12  C7  UNL     1      -1.450  -2.023  -0.691  1.00  0.00     0.058 C 
BRANCH  12  13
HETATM   13  C6  UNL     1      -2.410  -0.954  -0.433  1.00  0.00    -0.057 A 
HETATM   14  C5  UNL     1      -2.051   0.380  -0.419  1.00  0.00     0.009 A 
HETATM   15  C4  UNL     1      -3.007   1.346  -0.169  1.00  0.00     0.030 A 
HETATM   16  C3  UNL     1      -4.325   1.018   0.070  1.00  0.00     0.029 A 
HETATM   17  C20 UNL     1      -4.697  -0.317   0.059  1.00  0.00     0.030 A 
HETATM   18  C19 UNL     1      -3.729  -1.278  -0.193  1.00  0.00     0.009 A 
BRANCH  16  19
HETATM   19  N1  UNL     1      -5.306   2.030   0.328  1.00  0.00    -0.390 N 
HETATM   20  C1  UNL     1      -4.903   3.415   0.336  1.00  0.00     0.149 C 
HETATM   21  C2  UNL     1      -6.677   1.660   0.576  1.00  0.00     0.149 C 
ENDBRANCH  16  19
ENDBRANCH  12  13
ENDBRANCH  11  12
ENDBRANCH   9  11
ENDBRANCH   1   9
BRANCH   4  22
HETATM   22  C11 UNL     1       3.314  -0.204  -0.895  1.00  0.00     0.062 C 
BRANCH  22  23
HETATM   23  C12 UNL     1       3.939   0.168   0.430  1.00  0.00     0.046 C 
BRANCH  23  24
HETATM   24  C13 UNL     1       4.362   1.582   0.441  1.00  0.00    -0.040 A 
HETATM   25  C14 UNL     1       5.656   1.863   0.014  1.00  0.00     0.027 A 
HETATM   26  C15 UNL     1       6.039   3.177   0.027  1.00  0.00     0.107 A 
HETATM   27  N4  UNL     1       5.174   4.124   0.442  1.00  0.00    -0.312 N 
HETATM   28  N5  UNL     1       3.941   3.835   0.847  1.00  0.00    -0.312 N 
ATOM     29  H4  UNL     1       5.477   5.098   0.445  1.00  0.00     0.186 HD
HETATM   30  C16 UNL     1       3.500   2.570   0.859  1.00  0.00     0.114 A 
ATOM     31  H5  UNL     1       3.323   4.586   1.153  1.00  0.00     0.186 HD
ENDBRANCH  23  24
ENDBRANCH  22  23
ENDBRANCH   4  22
TORSDOF 8
