REMARK  3 active torsions:
REMARK  status: ('A' for Active; 'I' for Inactive)
REMARK    1  A    between atoms: C1_2  and  N1_3 
REMARK    2  A    between atoms: N1_3  and  N2_5 
REMARK    3  A    between atoms: N2_5  and  C2_7 
ROOT
HETATM    1  C2  UNL     1      -0.440   0.353  -0.612  1.00  0.00     0.164 A 
HETATM    2  C3  UNL     1       0.684  -0.281  -0.227  1.00  0.00     0.112 A 
HETATM    3  N3  UNL     1       1.052  -1.566  -0.338  1.00  0.00    -0.303 N 
ATOM      4  H3  UNL     1       0.490  -2.305  -0.761  1.00  0.00     0.171 HD
HETATM    5  C4  UNL     1       2.270  -1.729   0.191  1.00  0.00     0.325 A 
HETATM    6  O2  UNL     1       2.978  -2.766   0.291  1.00  0.00    -0.247 OA
HETATM    7  N4  UNL     1       2.662  -0.529   0.637  1.00  0.00    -0.305 N 
ATOM      8  H4  UNL     1       3.553  -0.335   1.094  1.00  0.00     0.171 HD
HETATM    9  C5  UNL     1       1.709   0.378   0.393  1.00  0.00     0.084 A 
HETATM   10  C6  UNL     1       1.642   1.676   0.645  1.00  0.00     0.139 A 
HETATM   11  N5  UNL     1       0.478   2.402   0.262  1.00  0.00    -0.308 N 
ATOM     12  H5  UNL     1       0.419   3.402   0.452  1.00  0.00     0.186 HD
HETATM   13  N6  UNL     1      -0.583   1.752  -0.373  1.00  0.00    -0.283 N 
ATOM     14  H6  UNL     1      -1.424   2.256  -0.654  1.00  0.00     0.188 HD
ENDROOT
BRANCH   1  15
HETATM   15  N2  UNL     1      -1.496  -0.315  -1.251  1.00  0.00    -0.280 N 
ATOM     16  H2  UNL     1      -1.467  -0.347  -2.270  1.00  0.00     0.188 HD
BRANCH  15  17
HETATM   17  N1  UNL     1      -2.576  -0.937  -0.640  1.00  0.00    -0.276 N 
ATOM     18  H1  UNL     1      -3.109  -1.613  -1.186  1.00  0.00     0.189 HD
BRANCH  17  19
HETATM   19  C1  UNL     1      -2.986  -0.691   0.699  1.00  0.00     0.368 C 
HETATM   20  O1  UNL     1      -2.359   0.144   1.438  1.00  0.00    -0.282 OA
ENDBRANCH  17  19
ENDBRANCH  15  17
ENDBRANCH   1  15
TORSDOF 3
