REMARK  3 active torsions:
REMARK  status: ('A' for Active; 'I' for Inactive)
REMARK    1  A    between atoms: N1_1  and  N2_4 
REMARK       I    between atoms: N2_4  and  C1_6 
REMARK       I    between atoms: C1_6  and  N3_8 
REMARK       I    between atoms: N3_8  and  C2_10 
REMARK       I    between atoms: C2_10  and  N4_12 
REMARK       I    between atoms: N4_12  and  C3_14 
REMARK    2  A    between atoms: C3_14  and  C4_16 
REMARK    3  A    between atoms: C4_16  and  N5_17 
ROOT
HETATM    1  N2  UNL     1       2.365  -0.115  -1.933  1.00  0.00    -0.258 N 
ATOM      2  H2  UNL     1       1.506   0.396  -1.730  1.00  0.00     0.191 HD
HETATM    3  C1  UNL     1       2.773  -1.172  -1.116  1.00  0.00     0.342 C 
HETATM    4  O1  UNL     1       3.876  -1.738  -1.485  1.00  0.00    -0.245 OA
HETATM    5  N3  UNL     1       2.173  -1.694   0.017  1.00  0.00    -0.259 N 
ATOM      6  H3  UNL     1       2.644  -2.482   0.462  1.00  0.00     0.175 HD
HETATM    7  C2  UNL     1       0.936  -1.233   0.641  1.00  0.00     0.330 C 
HETATM    8  O2  UNL     1       0.687  -1.948   1.676  1.00  0.00    -0.246 OA
HETATM    9  N4  UNL     1       0.224  -0.177   0.112  1.00  0.00    -0.275 N 
ATOM     10  H4  UNL     1       0.410   0.443  -0.676  1.00  0.00     0.173 HD
HETATM   11  C3  UNL     1      -1.085  -0.257   1.231  1.00  0.00     0.292 C 
HETATM   12  O3  UNL     1      -1.007  -1.086   2.000  1.00  0.00    -0.268 OA
ENDROOT
BRANCH  11  13
HETATM   13  C4  UNL     1      -2.038   0.782   0.941  1.00  0.00     0.387 A 
HETATM   14  C5  UNL     1      -3.483   0.252   0.890  1.00  0.00     0.316 A 
HETATM   15  N6  UNL     1      -3.040   1.149   1.923  1.00  0.00    -0.025 N 
ATOM     16  H62 UNL     1      -3.061   1.091   2.941  1.00  0.00     0.281 HD
ATOM     17  H61 UNL     1      -3.388   2.051   2.248  1.00  0.00     0.281 HD
BRANCH  13  18
HETATM   18  N5  UNL     1      -1.752   1.787  -0.094  1.00  0.00    -0.034 N 
ATOM     19  H53 UNL     1      -0.857   2.225   0.124  1.00  0.00     0.278 HD
ATOM     20  H52 UNL     1      -1.536   1.299  -0.963  1.00  0.00     0.278 HD
ATOM     21  H51 UNL     1      -2.427   2.523  -0.300  1.00  0.00     0.278 HD
ENDBRANCH  13  18
ENDBRANCH  11  13
BRANCH   1  22
HETATM   22  N1  UNL     1       3.169   0.236  -3.052  1.00  0.00    -0.341 N 
ATOM     23  H12 UNL     1       4.025  -0.285  -3.241  1.00  0.00     0.177 HD
ATOM     24  H11 UNL     1       2.871   1.008  -3.649  1.00  0.00     0.177 HD
ENDBRANCH   1  22
TORSDOF 3
