REMARK  5 active torsions:
REMARK  status: ('A' for Active; 'I' for Inactive)
REMARK    1  A    between atoms: N1_1  and  N2_4 
REMARK       I    between atoms: N2_4  and  C1_6 
REMARK       I    between atoms: C1_6  and  N3_8 
REMARK    2  A    between atoms: N3_8  and  C2_10 
REMARK    3  A    between atoms: C2_10  and  C3_11 
REMARK    4  A    between atoms: C2_10  and  C4_14 
REMARK       I    between atoms: C4_14  and  N5_16 
REMARK    5  A    between atoms: N5_16  and  N6_18 
ROOT
HETATM    1  C2  UNL     1       0.363   0.268   0.067  1.00  0.00     0.269 C 
ENDROOT
BRANCH   1   2
HETATM    2  N3  UNL     1      -0.893   0.263  -0.685  1.00  0.00    -0.321 N 
HETATM    3  C1  UNL     1      -2.141  -0.013  -0.095  1.00  0.00     0.335 C 
HETATM    4  N2  UNL     1      -3.308  -0.002  -0.871  1.00  0.00    -0.258 N 
HETATM    5  O1  UNL     1      -2.214  -0.268   1.123  1.00  0.00    -0.246 OA
ATOM      6  H2  UNL     1      -3.226   0.209  -1.866  1.00  0.00     0.191 HD
ATOM      7  H3  UNL     1      -0.862   0.469  -1.683  1.00  0.00     0.165 HD
BRANCH   4   8
HETATM    8  N1  UNL     1      -4.576  -0.265  -0.353  1.00  0.00    -0.341 N 
ATOM      9  H12 UNL     1      -4.640  -0.474   0.643  1.00  0.00     0.177 HD
ATOM     10  H11 UNL     1      -5.425  -0.257  -0.918  1.00  0.00     0.177 HD
ENDBRANCH   4   8
ENDBRANCH   1   2
BRANCH   1  11
HETATM   11  C3  UNL     1       0.965   1.599   0.015  1.00  0.00     0.263 C 
HETATM   12  N4  UNL     1       2.172   1.927   0.653  1.00  0.00    -0.060 NA
HETATM   13  O2  UNL     1       0.378   2.511  -0.634  1.00  0.00    -0.274 OA
ENDBRANCH   1  11
BRANCH   1  14
HETATM   14  C4  UNL     1       1.201  -0.821  -0.479  1.00  0.00     0.267 C 
HETATM   15  O3  UNL     1       0.780  -1.520  -1.463  1.00  0.00    -0.269 OA
HETATM   16  N5  UNL     1       2.464  -1.083   0.091  1.00  0.00    -0.274 N 
ATOM     17  H5  UNL     1       2.796  -0.524   0.877  1.00  0.00     0.189 HD
BRANCH  16  18
HETATM   18  N6  UNL     1       3.254  -2.102  -0.419  1.00  0.00    -0.343 N 
ATOM     19  H62 UNL     1       2.908  -2.652  -1.205  1.00  0.00     0.176 HD
ATOM     20  H61 UNL     1       4.168  -2.292  -0.007  1.00  0.00     0.176 HD
ENDBRANCH  16  18
ENDBRANCH   1  14
TORSDOF 5
