REMARK  3 active torsions:
REMARK  status: ('A' for Active; 'I' for Inactive)
REMARK    1  A    between atoms: C3_3  and  N1_4 
REMARK    2  A    between atoms: C3_3  and  C4_8 
REMARK    3  A    between atoms: N3_15  and  N4_16 
ROOT
HETATM    1  C1  UNL     1       3.569  -0.844  -1.387  1.00  0.00     0.014 C 
HETATM    2  C2  UNL     1       2.664  -0.885  -0.570  1.00  0.00    -0.080 C 
HETATM    3  C3  UNL     1       1.519  -0.946   0.414  1.00  0.00     0.291 C 
ENDROOT
BRANCH   3   4
HETATM    4  N1  UNL     1       2.352  -0.455   1.605  1.00  0.00    -0.061 N 
ATOM      5  H13 UNL     1       3.207  -0.962   1.833  1.00  0.00     0.276 HD
ATOM      6  H12 UNL     1       2.854   0.428   1.508  1.00  0.00     0.276 HD
ATOM      7  H11 UNL     1       1.579  -0.496   2.269  1.00  0.00     0.276 HD
ENDBRANCH   3   4
BRANCH   3   8
HETATM    8  C4  UNL     1       0.664   0.176   0.373  1.00  0.00    -0.019 C 
HETATM    9  C5  UNL     1      -0.606   0.071   0.043  1.00  0.00     0.060 A 
HETATM   10  C6  UNL     1      -1.616   1.028  -0.059  1.00  0.00     0.138 A 
HETATM   11  C8  UNL     1      -0.973  -1.229  -0.188  1.00  0.00     0.139 A 
HETATM   12  N2  UNL     1      -2.878   0.634  -0.367  1.00  0.00    -0.291 N 
HETATM   13  N6  UNL     1      -1.532   2.307   0.020  1.00  0.00    -0.289 N 
HETATM   14  C7  UNL     1      -3.174  -0.655  -0.579  1.00  0.00     0.348 A 
ATOM     15  H2  UNL     1      -3.616   1.334  -0.438  1.00  0.00     0.172 HD
HETATM   16  O1  UNL     1      -4.356  -1.024  -0.867  1.00  0.00    -0.245 OA
HETATM   17  N3  UNL     1      -2.249  -1.609  -0.498  1.00  0.00    -0.195 N 
HETATM   18  N7  UNL     1      -0.388   3.081   0.226  1.00  0.00    -0.335 N 
ATOM     19  H6  UNL     1      -2.408   2.820  -0.080  1.00  0.00     0.188 HD
HETATM   20  C9  UNL     1       0.961   2.611  -0.206  1.00  0.00     0.144 C 
ATOM     21  H7  UNL     1      -0.476   3.989   0.682  1.00  0.00     0.180 HD
HETATM   22  C10 UNL     1       1.281   1.530   0.739  1.00  0.00     0.059 C 
HETATM   23  N5  UNL     1      -0.094  -2.149  -0.163  1.00  0.00    -0.383 N 
ATOM     24  H52 UNL     1       0.858  -1.865   0.068  1.00  0.00     0.157 HD
ATOM     25  H51 UNL     1      -0.367  -3.117  -0.335  1.00  0.00     0.157 HD
BRANCH  17  26
HETATM   26  N4  UNL     1      -2.468  -2.957  -0.702  1.00  0.00    -0.333 N 
ATOM     27  H42 UNL     1      -3.420  -3.241  -0.933  1.00  0.00     0.177 HD
ATOM     28  H41 UNL     1      -1.759  -3.688  -0.640  1.00  0.00     0.177 HD
ENDBRANCH  17  26
ENDBRANCH   3   8
TORSDOF 3
