REMARK  3 active torsions:
REMARK  status: ('A' for Active; 'I' for Inactive)
REMARK    1  A    between atoms: N1_1  and  C1_4 
REMARK    2  A    between atoms: C5_14  and  N5_15 
REMARK    3  A    between atoms: C6_19  and  N6_20 
ROOT
HETATM    1  C1  UNL     1       3.650   1.944  -0.092  1.00  0.00     0.677 A 
HETATM    2  N2  UNL     1       2.437   2.515  -0.190  1.00  0.00    -0.201 N 
ATOM      3  H2  UNL     1       2.372   3.527  -0.300  1.00  0.00     0.183 HD
HETATM    4  C2  UNL     1       1.320   1.795  -0.147  1.00  0.00     0.123 A 
HETATM    5  C3  UNL     1       1.372   0.410   0.002  1.00  0.00     0.051 A 
HETATM    6  C4  UNL     1       2.607  -0.177   0.102  1.00  0.00     0.132 A 
HETATM    7  N3  UNL     1       3.706   0.612   0.052  1.00  0.00    -0.176 N 
ATOM      8  H3  UNL     1       4.623   0.171   0.128  1.00  0.00     0.186 HD
HETATM    9  N4  UNL     1       2.463  -1.473   0.236  1.00  0.00    -0.343 N 
ATOM     10  H4  UNL     1       3.228  -2.141   0.331  1.00  0.00     0.163 HD
HETATM   11  C5  UNL     1       1.073  -1.812   0.229  1.00  0.00     0.334 A 
HETATM   12  C6  UNL     1       0.403  -0.501   0.069  1.00  0.00     0.073 A 
ENDROOT
BRANCH  12  13
HETATM   13  N6  UNL     1      -0.994  -0.236  -0.002  1.00  0.00    -0.377 N 
HETATM   14  C7  UNL     1      -1.754  -0.372  -1.219  1.00  0.00     0.142 C 
HETATM   15  C8  UNL     1      -3.181  -0.698  -0.832  1.00  0.00     0.133 C 
HETATM   16  N7  UNL     1      -3.737   0.404  -0.126  1.00  0.00    -0.418 N 
HETATM   17  C9  UNL     1      -2.949   0.924   0.932  1.00  0.00     0.133 C 
ATOM     18  H7  UNL     1      -4.647   0.797  -0.366  1.00  0.00     0.153 HD
HETATM   19  C10 UNL     1      -1.674   0.186   1.196  1.00  0.00     0.142 C 
ENDBRANCH  12  13
BRANCH  11  20
HETATM   20  N5  UNL     1       0.830  -2.681  -0.917  1.00  0.00    -0.053 N 
ATOM     21  H53 UNL     1       1.141  -2.271  -1.797  1.00  0.00     0.277 HD
ATOM     22  H52 UNL     1       1.437  -3.501  -0.927  1.00  0.00     0.277 HD
ATOM     23  H51 UNL     1      -0.161  -2.923  -0.922  1.00  0.00     0.277 HD
ENDBRANCH  11  20
BRANCH   1  24
HETATM   24  N1  UNL     1       4.688   2.705  -0.141  1.00  0.00    -0.234 N 
ATOM     25  H12 UNL     1       4.645   3.718  -0.251  1.00  0.00     0.174 HD
ATOM     26  H11 UNL     1       5.608   2.272  -0.067  1.00  0.00     0.174 HD
ENDBRANCH   1  24
TORSDOF 3
