REMARK  9 active torsions:
REMARK  status: ('A' for Active; 'I' for Inactive)
REMARK    1  A    between atoms: N1_2  and  O1_3 
REMARK       I    between atoms: N1_2  and  C2_5 
REMARK    2  A    between atoms: C2_5  and  C3_7 
REMARK    3  A    between atoms: C3_7  and  C4_8 
REMARK    4  A    between atoms: N3_15  and  C8_16 
REMARK    5  A    between atoms: C9_19  and  C10_20 
REMARK    6  A    between atoms: C10_20  and  O4_21 
REMARK    7  A    between atoms: C10_20  and  C11_23 
REMARK    8  A    between atoms: C11_23  and  N5_24 
REMARK    9  A    between atoms: C11_23  and  O5_28 
ROOT
HETATM    1  C8  UNL     1      -0.882   0.796  -0.647  1.00  0.00     0.697 A 
HETATM    2  N4  UNL     1      -1.662  -0.292  -0.672  1.00  0.00    -0.177 N 
ATOM      3  H4  UNL     1      -1.255  -1.186  -0.945  1.00  0.00     0.185 HD
HETATM    4  C9  UNL     1      -2.970  -0.241  -0.347  1.00  0.00     0.146 A 
HETATM    5  N6  UNL     1      -3.491   0.937   0.010  1.00  0.00    -0.177 N 
ATOM      6  H6  UNL     1      -4.479   0.990   0.259  1.00  0.00     0.185 HD
HETATM    7  C12 UNL     1      -2.739   2.060   0.049  1.00  0.00     0.691 A 
HETATM    8  N7  UNL     1      -3.197   3.198   0.384  1.00  0.00    -0.234 N 
ATOM      9  H71 UNL     1      -2.630   4.045   0.413  1.00  0.00     0.174 HD
ATOM     10  H72 UNL     1      -4.183   3.267   0.636  1.00  0.00     0.174 HD
HETATM   11  N8  UNL     1      -1.416   1.967  -0.289  1.00  0.00    -0.022 N 
ATOM     12  H8  UNL     1      -0.831   2.802  -0.267  1.00  0.00     0.203 HD
ENDROOT
BRANCH   1  13
HETATM   13  N3  UNL     1       0.482   0.722  -0.985  1.00  0.00    -0.202 N 
HETATM   14  C4  UNL     1       1.519   1.068   0.008  1.00  0.00     0.203 C 
HETATM   15  C5  UNL     1       2.309   2.127  -0.626  1.00  0.00     0.241 C 
HETATM   16  O3  UNL     1       2.639   3.144   0.009  1.00  0.00    -0.271 OA
HETATM   17  N2  UNL     1       2.705   1.996  -1.977  1.00  0.00    -0.358 N 
HETATM   18  C6  UNL     1       2.186   0.914  -2.771  1.00  0.00     0.143 C 
ATOM     19  H2  UNL     1       3.356   2.666  -2.387  1.00  0.00     0.162 HD
HETATM   20  C7  UNL     1       0.920   0.309  -2.283  1.00  0.00     0.162 C 
BRANCH  14  21
HETATM   21  C3  UNL     1       2.262  -0.202   0.282  1.00  0.00     0.140 C 
BRANCH  21  22
HETATM   22  C2  UNL     1       3.422  -0.043   1.182  1.00  0.00     0.245 C 
HETATM   23  N1  UNL     1       4.227  -1.154   1.524  1.00  0.00    -0.233 N 
HETATM   24  C1  UNL     1       5.376  -1.052   2.398  1.00  0.00     0.188 C 
HETATM   25  O2  UNL     1       3.723   1.074   1.664  1.00  0.00    -0.271 OA
BRANCH  23  26
HETATM   26  O1  UNL     1       3.921  -2.382   1.017  1.00  0.00    -0.285 OA
ATOM     27  H1  UNL     1       3.167  -2.449   0.443  1.00  0.00     0.245 HD
ENDBRANCH  23  26
ENDBRANCH  21  22
ENDBRANCH  14  21
ENDBRANCH   1  13
BRANCH   4  28
HETATM   28  C10 UNL     1      -3.840  -1.433  -0.381  1.00  0.00     0.242 C 
BRANCH  28  29
HETATM   29  O4  UNL     1      -3.194  -2.534   0.222  1.00  0.00    -0.384 OA
ATOM     30  H4  UNL     1      -3.754  -3.301   0.200  1.00  0.00     0.210 HD
ENDBRANCH  28  29
BRANCH  28  31
HETATM   31  C11 UNL     1      -5.094  -1.149   0.378  1.00  0.00     0.352 C 
BRANCH  31  32
HETATM   32  N5  UNL     1      -5.964  -2.301   0.342  1.00  0.00    -0.050 N 
ATOM     33  H53 UNL     1      -6.155  -2.606  -0.612  1.00  0.00     0.277 HD
ATOM     34  H52 UNL     1      -5.497  -3.144   0.677  1.00  0.00     0.277 HD
ATOM     35  H51 UNL     1      -6.821  -2.107   0.861  1.00  0.00     0.277 HD
ENDBRANCH  31  32
BRANCH  31  36
HETATM   36  O5  UNL     1      -4.817  -0.890   1.727  1.00  0.00    -0.368 OA
ATOM     37  H5  UNL     1      -5.615  -0.709   2.210  1.00  0.00     0.212 HD
ENDBRANCH  31  36
ENDBRANCH  28  31
ENDBRANCH   4  28
TORSDOF 9
