REMARK  8 active torsions:
REMARK  status: ('A' for Active; 'I' for Inactive)
REMARK    1  A    between atoms: N1_1  and  N2_4 
REMARK       I    between atoms: N2_4  and  C1_6 
REMARK       I    between atoms: C1_6  and  N3_7 
REMARK       I    between atoms: C1_6  and  N10_28 
REMARK    2  A    between atoms: N3_7  and  C2_9 
REMARK    3  A    between atoms: C2_9  and  C3_10 
REMARK    4  A    between atoms: C3_10  and  N4_11 
REMARK    5  A    between atoms: C6_16  and  N6_17 
REMARK    6  A    between atoms: N6_17  and  N7_19 
REMARK    7  A    between atoms: N10_28  and  N11_30 
REMARK       I    between atoms: C9_32  and  N13_34 
REMARK    8  A    between atoms: N13_34  and  N14_36 
ROOT
HETATM    1  N2  UNL     1       2.352   1.879   0.483  1.00  0.00    -0.138 N 
ATOM      2  H2  UNL     1       3.105   2.227   1.077  1.00  0.00     0.205 HD
HETATM    3  C1  UNL     1       2.306   0.634   0.181  1.00  0.00     0.706 C 
HETATM    4  N3  UNL     1       1.251   0.165  -0.646  1.00  0.00    -0.222 N 
ATOM      5  H3  UNL     1       1.426  -0.045  -1.629  1.00  0.00     0.177 HD
HETATM    6  N10 UNL     1       3.267  -0.299   0.640  1.00  0.00    -0.129 N 
ATOM      7  H10 UNL     1       2.944  -1.216   0.948  1.00  0.00     0.205 HD
ENDROOT
BRANCH   4   8
HETATM    8  C2  UNL     1      -0.056  -0.011  -0.096  1.00  0.00     0.158 C 
BRANCH   8   9
HETATM    9  C3  UNL     1      -0.980  -0.510  -1.167  1.00  0.00     0.151 C 
BRANCH   9  10
HETATM   10  N4  UNL     1      -2.305  -0.702  -0.661  1.00  0.00    -0.326 N 
HETATM   11  C4  UNL     1      -2.825  -1.806  -0.115  1.00  0.00     0.185 A 
HETATM   12  N5  UNL     1      -4.098  -1.561   0.226  1.00  0.00    -0.346 N 
HETATM   13  C5  UNL     1      -4.428  -0.297  -0.091  1.00  0.00     0.123 A 
ATOM     14  H5  UNL     1      -4.726  -2.236   0.663  1.00  0.00     0.167 HD
HETATM   15  C6  UNL     1      -5.593   0.424   0.053  1.00  0.00     0.151 A 
HETATM   16  C8  UNL     1      -3.289   0.241  -0.651  1.00  0.00     0.140 A 
HETATM   17  N8  UNL     1      -5.582   1.694  -0.379  1.00  0.00    -0.336 N 
HETATM   18  C7  UNL     1      -4.484   2.258  -0.935  1.00  0.00     0.183 A 
ATOM     19  H8  UNL     1      -6.430   2.254  -0.285  1.00  0.00     0.168 HD
HETATM   20  N9  UNL     1      -3.364   1.521  -1.059  1.00  0.00    -0.336 N 
ATOM     21  H9  UNL     1      -2.539   1.950  -1.479  1.00  0.00     0.168 HD
BRANCH  15  22
HETATM   22  N6  UNL     1      -6.662  -0.067   0.575  1.00  0.00    -0.290 N 
ATOM     23  H6  UNL     1      -7.506   0.499   0.665  1.00  0.00     0.188 HD
BRANCH  22  24
HETATM   24  N7  UNL     1      -6.641  -1.386   1.013  1.00  0.00    -0.344 N 
ATOM     25  H72 UNL     1      -5.789  -1.939   0.916  1.00  0.00     0.176 HD
ATOM     26  H71 UNL     1      -7.488  -1.775   1.427  1.00  0.00     0.176 HD
ENDBRANCH  22  24
ENDBRANCH  15  22
ENDBRANCH   9  10
ENDBRANCH   8   9
ENDBRANCH   4   8
BRANCH   1  27
HETATM   27  N1  UNL     1       1.383   2.763   0.008  1.00  0.00    -0.331 N 
ATOM     28  H12 UNL     1       0.637   2.399  -0.585  1.00  0.00     0.177 HD
ATOM     29  H11 UNL     1       1.420   3.754   0.248  1.00  0.00     0.177 HD
ENDBRANCH   1  27
BRANCH   6  30
HETATM   30  N11 UNL     1       4.633  -0.025   0.692  1.00  0.00    -0.258 N 
HETATM   31  C9  UNL     1       5.488  -0.953   0.457  1.00  0.00     0.227 C 
HETATM   32  N12 UNL     1       5.011  -2.253   0.147  1.00  0.00    -0.060 NA
HETATM   33  N13 UNL     1       6.863  -0.615   0.524  1.00  0.00    -0.212 N 
ATOM     34  H13 UNL     1       7.497  -1.270   0.982  1.00  0.00     0.196 HD
ATOM     35  H11 UNL     1       4.954   0.916   0.918  1.00  0.00     0.190 HD
BRANCH  33  36
HETATM   36  N14 UNL     1       7.399   0.558   0.002  1.00  0.00    -0.036 N 
HETATM   37  O1  UNL     1       8.370   1.080   0.582  1.00  0.00    -0.516 OA
HETATM   38  O2  UNL     1       6.924   1.185  -1.124  1.00  0.00    -0.516 OA
ENDBRANCH  33  36
ENDBRANCH   6  30
TORSDOF 8
