REMARK  9 active torsions:
REMARK  status: ('A' for Active; 'I' for Inactive)
REMARK    1  A    between atoms: C2_2  and  N1_3 
REMARK    2  A    between atoms: C3_4  and  C4_5 
REMARK    3  A    between atoms: N2_7  and  N3_8 
REMARK    4  A    between atoms: N3_8  and  C6_10 
REMARK    5  A    between atoms: C6_10  and  C7_11 
REMARK    6  A    between atoms: C7_11  and  O1_12 
REMARK    7  A    between atoms: C7_11  and  C8_14 
REMARK       I    between atoms: C8_14  and  N4_16 
REMARK    8  A    between atoms: C12_30  and  N9_31 
REMARK    9  A    between atoms: N9_31  and  N10_33 
ROOT
HETATM    1  C8  UNL     1      -5.397   0.142   1.083  1.00  0.00     0.261 C 
HETATM    2  O2  UNL     1      -6.130   1.022   1.593  1.00  0.00    -0.270 OA
HETATM    3  N4  UNL     1      -5.966  -1.117   0.769  1.00  0.00    -0.262 N 
ATOM      4  H4  UNL     1      -5.372  -1.835   0.354  1.00  0.00     0.181 HD
HETATM    5  C9  UNL     1      -7.318  -1.414   1.008  1.00  0.00     0.184 C 
HETATM    6  N5  UNL     1      -8.446  -1.648   1.214  1.00  0.00    -0.172 NA
ENDROOT
BRANCH   1   7
HETATM    7  C7  UNL     1      -3.963   0.387   0.804  1.00  0.00     0.230 C 
BRANCH   7   8
HETATM    8  C6  UNL     1      -3.090  -0.607   1.539  1.00  0.00     0.181 C 
BRANCH   8   9
HETATM    9  N3  UNL     1      -1.704  -0.434   1.264  1.00  0.00    -0.323 N 
ATOM     10  H3  UNL     1      -1.165   0.063   1.974  1.00  0.00     0.180 HD
BRANCH   9  11
HETATM   11  N2  UNL     1      -0.996  -0.859   0.148  1.00  0.00    -0.220 N 
HETATM   12  C5  UNL     1       0.313  -0.473   0.036  1.00  0.00     0.142 A 
HETATM   13  C4  UNL     1       1.132  -0.844  -0.995  1.00  0.00     0.096 A 
HETATM   14  C11 UNL     1       0.532  -1.674  -1.968  1.00  0.00     0.264 A 
HETATM   15  N6  UNL     1      -0.733  -2.045  -1.857  1.00  0.00    -0.273 N 
HETATM   16  O4  UNL     1       1.239  -2.052  -2.949  1.00  0.00    -0.267 OA
HETATM   17  C10 UNL     1      -1.490  -1.642  -0.810  1.00  0.00     0.347 A 
ATOM     18  H6  UNL     1      -1.145  -2.645  -2.572  1.00  0.00     0.173 HD
HETATM   19  O3  UNL     1      -2.672  -2.056  -0.804  1.00  0.00    -0.245 OA
BRANCH  13  20
HETATM   20  C3  UNL     1       2.494  -0.445  -1.219  1.00  0.00     0.155 A 
HETATM   21  N1  UNL     1       3.251   0.559  -0.767  1.00  0.00    -0.164 N 
HETATM   22  C12 UNL     1       4.489   0.508  -1.344  1.00  0.00     0.714 A 
HETATM   23  N8  UNL     1       4.482  -0.555  -2.171  1.00  0.00    -0.129 N 
HETATM   24  N7  UNL     1       3.312  -1.111  -2.095  1.00  0.00    -0.270 N 
ATOM     25  H8  UNL     1       5.259  -0.868  -2.754  1.00  0.00     0.205 HD
ATOM     26  H7  UNL     1       3.035  -1.940  -2.621  1.00  0.00     0.189 HD
BRANCH  21  27
HETATM   27  C2  UNL     1       2.924   1.602   0.176  1.00  0.00     0.145 C 
HETATM   28  C1  UNL     1       3.354   1.226   1.553  1.00  0.00     0.027 C 
ENDBRANCH  21  27
BRANCH  22  29
HETATM   29  N9  UNL     1       5.501   1.229  -1.188  1.00  0.00    -0.137 N 
ATOM     30  H9  UNL     1       6.285   0.933  -1.769  1.00  0.00     0.205 HD
BRANCH  29  31
HETATM   31  N10 UNL     1       5.798   2.312  -0.426  1.00  0.00    -0.331 N 
ATOM     32 2H10 UNL     1       5.001   2.590   0.146  1.00  0.00     0.177 HD
ATOM     33 1H10 UNL     1       6.622   2.899  -0.299  1.00  0.00     0.177 HD
ENDBRANCH  29  31
ENDBRANCH  22  29
ENDBRANCH  13  20
ENDBRANCH   9  11
ENDBRANCH   8   9
ENDBRANCH   7   8
BRANCH   7  34
HETATM   34  O1  UNL     1      -3.626   1.707   1.200  1.00  0.00    -0.384 OA
ATOM     35  H1  UNL     1      -4.174   2.331   0.739  1.00  0.00     0.210 HD
ENDBRANCH   7  34
ENDBRANCH   1   7
TORSDOF 9
