REMARK  7 active torsions:
REMARK  status: ('A' for Active; 'I' for Inactive)
REMARK    1  A    between atoms: C2_2  and  N1_3 
REMARK    2  A    between atoms: C2_2  and  C7_12 
REMARK       I    between atoms: N1_3  and  C3_5 
REMARK    3  A    between atoms: C3_5  and  C4_7 
REMARK    4  A    between atoms: C4_7  and  C5_8 
REMARK       I    between atoms: C7_12  and  N2_14 
REMARK    5  A    between atoms: N2_14  and  C8_16 
REMARK       I    between atoms: N3_22  and  C14_23 
REMARK    6  A    between atoms: C14_23  and  C15_25 
REMARK    7  A    between atoms: N4_31  and  C21_32 
ROOT
HETATM    1  C8  UNL     1       2.186   0.326  -0.627  1.00  0.00     0.086 C 
HETATM    2  C9  UNL     1       1.498  -0.965  -0.256  1.00  0.00     0.036 C 
HETATM    3  C10 UNL     1       0.180  -0.282  -0.359  1.00  0.00    -0.020 C 
HETATM    4  C11 UNL     1      -0.614  -0.611  -1.608  1.00  0.00     0.013 C 
HETATM    5  C12 UNL     1      -1.166  -2.014  -1.463  1.00  0.00     0.021 C 
HETATM    6  C13 UNL     1      -2.018  -2.099  -0.215  1.00  0.00     0.126 C 
HETATM    7  N3  UNL     1      -2.001  -0.857   0.524  1.00  0.00    -0.351 N 
HETATM    8  C14 UNL     1      -3.121  -0.071   0.861  1.00  0.00     0.226 C 
HETATM    9  O3  UNL     1      -2.916   0.983   1.516  1.00  0.00    -0.273 OA
HETATM   10  C24 UNL     1      -0.633  -0.460   0.909  1.00  0.00     0.135 C 
HETATM   11  C25 UNL     1       0.860   1.034  -0.502  1.00  0.00     0.036 C 
ENDROOT
BRANCH   1  12
HETATM   12  N2  UNL     1       3.200   0.763   0.288  1.00  0.00    -0.355 N 
HETATM   13  C7  UNL     1       4.500   1.057  -0.186  1.00  0.00     0.240 C 
HETATM   14  O2  UNL     1       4.737   0.928  -1.410  1.00  0.00    -0.271 OA
ATOM     15  H2  UNL     1       2.984   0.862   1.280  1.00  0.00     0.162 HD
BRANCH  13  16
HETATM   16  C2  UNL     1       5.560   1.513   0.773  1.00  0.00     0.172 C 
HETATM   17  C1  UNL     1       5.092   2.688   1.571  1.00  0.00     0.042 C 
BRANCH  16  18
HETATM   18  N1  UNL     1       6.789   1.754   0.082  1.00  0.00    -0.348 N 
HETATM   19  C3  UNL     1       7.968   0.972   0.311  1.00  0.00     0.224 C 
HETATM   20  O1  UNL     1       7.918   0.037   1.154  1.00  0.00    -0.273 OA
ATOM     21  H1  UNL     1       6.828   2.512  -0.600  1.00  0.00     0.163 HD
BRANCH  19  22
HETATM   22  C4  UNL     1       9.228   1.231  -0.407  1.00  0.00     0.181 C 
BRANCH  22  23
HETATM   23  C5  UNL     1      10.306   0.267   0.011  1.00  0.00     0.248 C 
HETATM   24  C6  UNL     1       9.926  -1.162  -0.264  1.00  0.00     0.090 C 
HETATM   25  F1  UNL     1      11.482   0.537  -0.658  1.00  0.00    -0.206 F 
HETATM   26  F2  UNL     1      10.540   0.438   1.364  1.00  0.00    -0.206 F 
ENDBRANCH  22  23
ENDBRANCH  19  22
ENDBRANCH  16  18
ENDBRANCH  13  16
ENDBRANCH   1  12
BRANCH   8  27
HETATM   27  C15 UNL     1      -4.514  -0.385   0.508  1.00  0.00     0.113 C 
HETATM   28  C16 UNL     1      -4.805  -0.562  -0.944  1.00  0.00     0.052 C 
HETATM   29  C17 UNL     1      -6.131   0.157  -1.144  1.00  0.00     0.225 C 
HETATM   30  C18 UNL     1      -5.761   1.615  -1.399  1.00  0.00     0.038 C 
HETATM   31  N4  UNL     1      -6.673   0.300   0.193  1.00  0.00     0.102 N 
HETATM   32  C19 UNL     1      -5.183   1.980  -0.022  1.00  0.00     0.039 C 
HETATM   33  C20 UNL     1      -5.460   0.745   0.847  1.00  0.00     0.237 C 
BRANCH  31  34
HETATM   34  C21 UNL     1      -7.263  -0.887   0.674  1.00  0.00     0.216 C 
HETATM   35  C22 UNL     1      -8.444  -1.185  -0.269  1.00  0.00     0.042 C 
HETATM   36  C23 UNL     1      -7.838  -0.795   2.050  1.00  0.00     0.042 C 
ENDBRANCH  31  34
ENDBRANCH   8  27
TORSDOF 7
