REMARK  8 active torsions:
REMARK  status: ('A' for Active; 'I' for Inactive)
REMARK    1  A    between atoms: N1_6  and  C6_7 
REMARK    2  A    between atoms: C6_7  and  C7_8 
REMARK    3  A    between atoms: C7_8  and  N2_9 
REMARK       I    between atoms: N2_9  and  C8_11 
REMARK    4  A    between atoms: C8_11  and  C9_13 
REMARK       I    between atoms: N3_17  and  C13_18 
REMARK    5  A    between atoms: C13_18  and  C14_20 
REMARK    6  A    between atoms: C17_23  and  C18_24 
REMARK       I    between atoms: C18_24  and  N4_26 
REMARK    7  A    between atoms: N4_26  and  C19_28 
REMARK    8  A    between atoms: C19_28  and  C22_31 
ROOT
HETATM    1  C9  UNL     1      -1.458   2.431  -2.081  1.00  0.00     0.179 C 
HETATM    2  C10 UNL     1      -2.422   3.589  -1.948  1.00  0.00     0.037 C 
HETATM    3  C11 UNL     1      -2.300   4.072  -0.528  1.00  0.00     0.022 C 
HETATM    4  C12 UNL     1      -1.207   3.231   0.080  1.00  0.00     0.127 C 
HETATM    5  N3  UNL     1      -0.488   2.725  -1.056  1.00  0.00    -0.338 N 
HETATM    6  C13 UNL     1       0.911   2.557  -1.152  1.00  0.00     0.224 C 
HETATM    7  O2  UNL     1       1.447   2.113  -2.234  1.00  0.00    -0.273 OA
ENDROOT
BRANCH   6   8
HETATM    8  C14 UNL     1       1.838   2.873  -0.033  1.00  0.00     0.078 C 
HETATM    9  C15 UNL     1       1.598   1.895   1.095  1.00  0.00     0.015 C 
HETATM   10  C16 UNL     1       1.792   0.501   0.511  1.00  0.00     0.015 C 
HETATM   11  C17 UNL     1       3.187   0.375   0.002  1.00  0.00     0.078 C 
HETATM   12  C23 UNL     1       4.010   1.644   0.152  1.00  0.00     0.015 C 
HETATM   13  C24 UNL     1       3.274   2.807  -0.482  1.00  0.00     0.015 C 
BRANCH  11  14
HETATM   14  C18 UNL     1       3.889  -0.672   0.810  1.00  0.00     0.222 C 
HETATM   15  O3  UNL     1       3.303  -1.284   1.736  1.00  0.00    -0.273 OA
HETATM   16  N4  UNL     1       5.240  -0.974   0.521  1.00  0.00    -0.347 N 
ATOM     17  H4  UNL     1       5.699  -0.469  -0.237  1.00  0.00     0.163 HD
BRANCH  16  18
HETATM   18  C19 UNL     1       5.996  -1.958   1.244  1.00  0.00     0.084 C 
HETATM   19  C20 UNL     1       5.317  -3.301   1.172  1.00  0.00     0.044 C 
HETATM   20  C21 UNL     1       7.360  -2.066   0.552  1.00  0.00     0.044 C 
BRANCH  18  21
HETATM   21  C22 UNL     1       6.182  -1.533   2.659  1.00  0.00     0.380 C 
HETATM   22  F1  UNL     1       6.921  -2.482   3.374  1.00  0.00    -0.212 F 
HETATM   23  F2  UNL     1       6.858  -0.329   2.706  1.00  0.00    -0.212 F 
ENDBRANCH  18  21
ENDBRANCH  16  18
ENDBRANCH  11  14
ENDBRANCH   6   8
BRANCH   1  24
HETATM   24  C8  UNL     1      -2.157   1.144  -1.839  1.00  0.00     0.240 C 
HETATM   25  N2  UNL     1      -3.162   0.640  -2.695  1.00  0.00    -0.358 N 
ATOM     26  H2  UNL     1      -3.402   1.199  -3.514  1.00  0.00     0.162 HD
HETATM   27  O1  UNL     1      -1.849   0.465  -0.829  1.00  0.00    -0.271 OA
BRANCH  25  28
HETATM   28  C7  UNL     1      -3.878  -0.601  -2.508  1.00  0.00     0.152 C 
BRANCH  28  29
HETATM   29  C6  UNL     1      -4.661  -0.660  -1.245  1.00  0.00     0.292 C 
BRANCH  29  30
HETATM   30  N1  UNL     1      -5.403  -1.879  -1.033  1.00  0.00     0.094 N 
HETATM   31  C2  UNL     1      -6.198  -1.793   0.190  1.00  0.00     0.219 C 
HETATM   32  C1  UNL     1      -7.060  -3.013   0.315  1.00  0.00     0.043 C 
HETATM   33  C3  UNL     1      -5.157  -1.784   1.272  1.00  0.00     0.037 C 
HETATM   34  C4  UNL     1      -4.059  -2.647   0.709  1.00  0.00     0.032 C 
HETATM   35  C5  UNL     1      -4.509  -2.941  -0.705  1.00  0.00     0.273 C 
ENDBRANCH  29  30
ENDBRANCH  28  29
ENDBRANCH  25  28
ENDBRANCH   1  24
TORSDOF 8
