REMARK  7 active torsions:
REMARK  status: ('A' for Active; 'I' for Inactive)
REMARK    1  A    between atoms: C1_2  and  C2_3 
REMARK       I    between atoms: C1_2  and  N3_21 
REMARK    2  A    between atoms: C2_3  and  N1_4 
REMARK       I    between atoms: N1_4  and  C3_6 
REMARK    3  A    between atoms: C3_6  and  C4_8 
REMARK       I    between atoms: N2_12  and  C8_13 
REMARK    4  A    between atoms: C8_13  and  C9_15 
REMARK    5  A    between atoms: N3_21  and  C15_23 
REMARK    6  A    between atoms: N4_27  and  C19_28 
REMARK    7  A    between atoms: C19_28  and  C20_29 
ROOT
HETATM    1  C2  UNL     1      -0.330  -2.328  -1.903  1.00  0.00     0.225 C 
ENDROOT
BRANCH   1   2
HETATM    2  C1  UNL     1      -1.312  -2.122  -0.815  1.00  0.00     0.235 C 
HETATM    3  O1  UNL     1      -0.978  -2.192   0.384  1.00  0.00    -0.272 OA
HETATM    4  N3  UNL     1      -2.652  -1.842  -1.125  1.00  0.00    -0.353 N 
ATOM      5  H3  UNL     1      -2.919  -1.784  -2.108  1.00  0.00     0.163 HD
BRANCH   4   6
HETATM    6  C15 UNL     1      -3.677  -1.631  -0.120  1.00  0.00     0.113 C 
HETATM    7  C16 UNL     1      -4.824  -2.585  -0.243  1.00  0.00     0.029 C 
HETATM    8  C17 UNL     1      -5.840  -2.186   0.809  1.00  0.00     0.032 C 
HETATM    9  C18 UNL     1      -5.418  -0.951   1.573  1.00  0.00     0.272 C 
HETATM   10  N4  UNL     1      -5.151   0.170   0.705  1.00  0.00     0.090 N 
HETATM   11  C24 UNL     1      -4.220  -0.233  -0.304  1.00  0.00     0.297 C 
BRANCH  10  12
HETATM   12  C19 UNL     1      -6.404   0.645   0.147  1.00  0.00     0.277 C 
BRANCH  12  13
HETATM   13  C20 UNL     1      -6.129   1.839  -0.714  1.00  0.00     0.025 C 
HETATM   14  C21 UNL     1      -7.378   2.436  -1.367  1.00  0.00     0.085 C 
HETATM   15  C22 UNL     1      -6.854   3.802  -0.979  1.00  0.00     0.244 C 
HETATM   16  F1  UNL     1      -7.838   4.645  -0.445  1.00  0.00    -0.206 F 
HETATM   17  F2  UNL     1      -6.080   4.408  -1.959  1.00  0.00    -0.206 F 
HETATM   18  C23 UNL     1      -6.027   3.139   0.096  1.00  0.00     0.085 C 
ENDBRANCH  12  13
ENDBRANCH  10  12
ENDBRANCH   4   6
ENDBRANCH   1   2
BRANCH   1  19
HETATM   19  N1  UNL     1       1.002  -2.590  -1.474  1.00  0.00    -0.351 N 
HETATM   20  C3  UNL     1       1.800  -1.678  -0.702  1.00  0.00     0.241 C 
HETATM   21  O2  UNL     1       1.232  -0.601  -0.428  1.00  0.00    -0.271 OA
ATOM     22  H1  UNL     1       1.418  -3.485  -1.732  1.00  0.00     0.163 HD
BRANCH  20  23
HETATM   23  C4  UNL     1       3.142  -1.987  -0.281  1.00  0.00     0.179 C 
HETATM   24  C5  UNL     1       4.008  -2.633  -1.390  1.00  0.00     0.037 C 
HETATM   25  C6  UNL     1       5.389  -2.629  -0.710  1.00  0.00     0.022 C 
HETATM   26  C7  UNL     1       5.189  -1.918   0.627  1.00  0.00     0.127 C 
HETATM   27  N2  UNL     1       4.043  -1.042   0.209  1.00  0.00    -0.338 N 
HETATM   28  C8  UNL     1       4.108   0.330   0.361  1.00  0.00     0.224 C 
HETATM   29  O3  UNL     1       3.176   1.100   0.028  1.00  0.00    -0.273 OA
BRANCH  28  30
HETATM   30  C9  UNL     1       5.310   1.029   0.940  1.00  0.00     0.078 C 
HETATM   31  C10 UNL     1       4.881   2.444   1.289  1.00  0.00     0.014 C 
HETATM   32  C11 UNL     1       6.034   3.415   1.138  1.00  0.00     0.001 C 
HETATM   33  C12 UNL     1       7.362   2.796   1.530  1.00  0.00     0.000 C 
HETATM   34  C13 UNL     1       7.638   1.664   0.557  1.00  0.00     0.001 C 
HETATM   35  C14 UNL     1       6.390   1.201  -0.132  1.00  0.00     0.014 C 
ENDBRANCH  28  30
ENDBRANCH  20  23
ENDBRANCH   1  19
TORSDOF 7
