REMARK  7 active torsions:
REMARK  status: ('A' for Active; 'I' for Inactive)
REMARK    1  A    between atoms: C2_3  and  C3_4 
REMARK       I    between atoms: C3_4  and  N2_6 
REMARK    2  A    between atoms: N2_6  and  C4_8 
REMARK    3  A    between atoms: C4_8  and  C5_9 
REMARK       I    between atoms: N3_17  and  C13_18 
REMARK    4  A    between atoms: C13_18  and  C14_20 
REMARK    5  A    between atoms: C14_20  and  C15_21 
REMARK    6  A    between atoms: C15_21  and  C16_22 
REMARK    7  A    between atoms: C16_22  and  N4_23 
REMARK       I    between atoms: N4_23  and  C17_25 
REMARK       I    between atoms: C17_25  and  N5_27 
ROOT
HETATM    1  N1  UNL     1      -7.168   4.276  -0.858  1.00  0.00    -0.197 NA
HETATM    2  C1  UNL     1      -6.329   3.709  -0.304  1.00  0.00     0.068 C 
HETATM    3  C2  UNL     1      -5.263   3.010   0.382  1.00  0.00     0.226 C 
ENDROOT
BRANCH   3   4
HETATM    4  C3  UNL     1      -4.910   1.711  -0.296  1.00  0.00     0.231 C 
HETATM    5  O1  UNL     1      -5.595   1.402  -1.283  1.00  0.00    -0.273 OA
HETATM    6  N2  UNL     1      -3.838   0.949   0.237  1.00  0.00    -0.347 N 
ATOM      7  H2  UNL     1      -3.343   1.306   1.054  1.00  0.00     0.163 HD
BRANCH   6   8
HETATM    8  C4  UNL     1      -3.415  -0.324  -0.336  1.00  0.00     0.062 C 
HETATM    9  C11 UNL     1      -2.269  -0.939   0.398  1.00  0.00     0.056 C 
HETATM   10  C12 UNL     1      -1.161  -0.043   0.750  1.00  0.00     0.135 C 
HETATM   11  N3  UNL     1      -0.493   0.582  -0.381  1.00  0.00    -0.289 N 
HETATM   12  C13 UNL     1       0.940   0.425  -0.404  1.00  0.00     0.224 C 
HETATM   13  C22 UNL     1      -1.075   1.371  -1.403  1.00  0.00     0.326 C 
HETATM   14  O2  UNL     1       1.598   0.990  -1.302  1.00  0.00    -0.273 OA
HETATM   15  F1  UNL     1      -1.446   2.583  -0.737  1.00  0.00    -0.182 F 
HETATM   16  F2  UNL     1      -0.137   1.861  -2.331  1.00  0.00    -0.182 F 
HETATM   17  C23 UNL     1      -2.233   0.932  -2.188  1.00  0.00     0.107 C 
HETATM   18  C24 UNL     1      -3.052  -0.226  -1.791  1.00  0.00     0.044 C 
BRANCH   8  19
HETATM   19  C5  UNL     1      -4.578  -1.276  -0.201  1.00  0.00    -0.030 A 
HETATM   20  C6  UNL     1      -5.511  -1.037   0.791  1.00  0.00     0.010 A 
HETATM   21  C7  UNL     1      -6.586  -1.886   0.930  1.00  0.00     0.001 A 
HETATM   22  C8  UNL     1      -6.780  -2.980   0.114  1.00  0.00     0.000 A 
HETATM   23  C9  UNL     1      -5.843  -3.202  -0.867  1.00  0.00     0.001 A 
HETATM   24  C10 UNL     1      -4.747  -2.352  -1.020  1.00  0.00     0.010 A 
ENDBRANCH   8  19
BRANCH  12  25
HETATM   25  C14 UNL     1       1.700  -0.371   0.560  1.00  0.00     0.105 C 
BRANCH  25  26
HETATM   26  C15 UNL     1       2.317   0.438   1.650  1.00  0.00     0.029 C 
BRANCH  26  27
HETATM   27  C16 UNL     1       3.269   1.491   1.263  1.00  0.00     0.125 C 
BRANCH  27  28
HETATM   28  N4  UNL     1       4.462   1.078   0.572  1.00  0.00    -0.343 N 
HETATM   29  C17 UNL     1       5.413   0.174   1.164  1.00  0.00     0.318 C 
HETATM   30  O3  UNL     1       5.248  -0.303   2.292  1.00  0.00    -0.247 OA
HETATM   31  N5  UNL     1       6.603  -0.197   0.436  1.00  0.00    -0.334 N 
HETATM   32  C18 UNL     1       7.627  -1.084   0.891  1.00  0.00     0.127 C 
HETATM   33  C21 UNL     1       6.961   0.289  -0.876  1.00  0.00     0.127 C 
HETATM   34  C19 UNL     1       8.304  -1.648  -0.317  1.00  0.00     0.022 C 
HETATM   35  C20 UNL     1       7.872  -0.749  -1.435  1.00  0.00     0.022 C 
ATOM     36  H4  UNL     1       4.639   1.437  -0.366  1.00  0.00     0.164 HD
ENDBRANCH  27  28
ENDBRANCH  26  27
ENDBRANCH  25  26
ENDBRANCH  12  25
ENDBRANCH   6   8
ENDBRANCH   3   4
TORSDOF 7
