REMARK  7 active torsions:
REMARK  status: ('A' for Active; 'I' for Inactive)
REMARK    1  A    between atoms: O1_2  and  C2_3 
REMARK    2  A    between atoms: C2_3  and  C3_4 
REMARK    3  A    between atoms: C3_4  and  N1_5 
REMARK    4  A    between atoms: C5_7  and  C6_8 
REMARK    5  A    between atoms: C9_13  and  C10_14 
REMARK       I    between atoms: C10_14  and  N3_16 
REMARK    6  A    between atoms: N3_16  and  C11_18 
REMARK    7  A    between atoms: C16_23  and  C17_24 
ROOT
HETATM    1  C10 UNL     1       0.662   1.246  -0.017  1.00  0.00     0.240 C 
HETATM    2  O3  UNL     1       0.886   2.402  -0.424  1.00  0.00    -0.271 OA
HETATM    3  N3  UNL     1      -0.729   0.826  -0.081  1.00  0.00    -0.354 N 
ATOM      4  H3  UNL     1      -0.986  -0.107   0.241  1.00  0.00     0.162 HD
ENDROOT
BRANCH   1   5
HETATM    5  C9  UNL     1       1.693   0.369   0.487  1.00  0.00     0.175 C 
HETATM    6  N1  UNL     1       3.008   0.783   0.549  1.00  0.00    -0.377 N 
HETATM    7  C4  UNL     1       3.871  -0.148   1.251  1.00  0.00     0.136 C 
HETATM    8  C5  UNL     1       3.715  -1.574   0.875  1.00  0.00     0.093 C 
HETATM    9  C7  UNL     1       2.689  -1.872  -0.150  1.00  0.00     0.018 C 
HETATM   10  C8  UNL     1       1.501  -0.992  -0.169  1.00  0.00     0.036 C 
BRANCH   6  11
HETATM   11  C3  UNL     1       3.639   1.683  -0.279  1.00  0.00     0.085 C 
BRANCH  11  12
HETATM   12  C2  UNL     1       4.286   1.223  -1.545  1.00  0.00     0.211 C 
BRANCH  12  13
HETATM   13  O1  UNL     1       5.303   0.310  -1.322  1.00  0.00    -0.391 OA
HETATM   14  C1  UNL     1       5.898  -0.104  -2.511  1.00  0.00     0.201 C 
ENDBRANCH  12  13
ENDBRANCH  11  12
ENDBRANCH   6  11
BRANCH   8  15
HETATM   15  C6  UNL     1       3.513  -2.495   2.045  1.00  0.00     0.236 C 
HETATM   16  N2  UNL     1       2.397  -2.361   2.918  1.00  0.00    -0.062 NA
HETATM   17  O2  UNL     1       4.310  -3.429   2.321  1.00  0.00    -0.276 OA
ENDBRANCH   8  15
ENDBRANCH   1   5
BRANCH   3  18
HETATM   18  C11 UNL     1      -1.708   1.669  -0.571  1.00  0.00     0.092 C 
HETATM   19  C12 UNL     1      -2.609   1.211  -1.715  1.00  0.00     0.010 C 
HETATM   20  C13 UNL     1      -3.480   2.297  -1.231  1.00  0.00     0.013 C 
HETATM   21  C20 UNL     1      -2.994  -0.168  -1.795  1.00  0.00     0.027 C 
HETATM   22  C14 UNL     1      -2.971   1.996   0.138  1.00  0.00     0.010 C 
HETATM   23  C15 UNL     1      -3.636   1.062   1.001  1.00  0.00     0.018 C 
HETATM   24  C16 UNL     1      -4.453  -0.072   0.708  1.00  0.00    -0.011 C 
HETATM   25  C18 UNL     1      -3.765  -1.360   0.297  1.00  0.00     0.033 C 
HETATM   26  C21 UNL     1      -5.231  -0.260  -0.531  1.00  0.00     0.033 C 
HETATM   27  C19 UNL     1      -4.038  -0.877  -1.126  1.00  0.00     0.020 C 
HETATM   28 BR1  UNL     1      -4.522  -2.494  -2.157  1.00  0.00    -0.085 Br
BRANCH  24  29
HETATM   29  C17 UNL     1      -5.319  -0.434   1.944  1.00  0.00     0.231 C 
HETATM   30  F1  UNL     1      -4.467  -0.720   2.975  1.00  0.00    -0.255 F 
ENDBRANCH  24  29
ENDBRANCH   3  18
TORSDOF 7
