REMARK  8 active torsions:
REMARK  status: ('A' for Active; 'I' for Inactive)
REMARK    1  A    between atoms: C1_2  and  C2_3 
REMARK       I    between atoms: C1_2  and  N4_29 
REMARK    2  A    between atoms: C2_3  and  N1_4 
REMARK    3  A    between atoms: N1_4  and  C3_5 
REMARK    4  A    between atoms: N1_4  and  C10_16 
REMARK    5  A    between atoms: C4_6  and  O2_7 
REMARK    6  A    between atoms: C4_6  and  N2_9 
REMARK    7  A    between atoms: N2_9  and  C5_11 
REMARK    8  A    between atoms: N4_29  and  C19_31 
ROOT
HETATM    1  N1  UNL     1       0.447   0.926  -0.781  1.00  0.00    -0.325 N 
ENDROOT
BRANCH   1   2
HETATM    2  C2  UNL     1      -0.692   0.295  -1.295  1.00  0.00     0.170 C 
BRANCH   2   3
HETATM    3  C1  UNL     1      -1.250  -0.950  -0.905  1.00  0.00     0.257 C 
HETATM    4  O1  UNL     1      -0.846  -1.691  -0.008  1.00  0.00    -0.267 OA
HETATM    5  N4  UNL     1      -2.407  -1.419  -1.612  1.00  0.00    -0.352 N 
ATOM      6  H4  UNL     1      -2.797  -0.859  -2.370  1.00  0.00     0.163 HD
BRANCH   5   7
HETATM    7  C19 UNL     1      -3.022  -2.669  -1.263  1.00  0.00     0.084 C 
HETATM    8  C20 UNL     1      -4.509  -2.565  -1.085  1.00  0.00     0.025 C 
HETATM    9  C21 UNL     1      -4.969  -4.022  -1.087  1.00  0.00     0.002 C 
HETATM   10  C22 UNL     1      -3.928  -4.759  -1.911  1.00  0.00     0.002 C 
HETATM   11  C23 UNL     1      -2.925  -3.717  -2.358  1.00  0.00     0.025 C 
ENDBRANCH   5   7
ENDBRANCH   2   3
ENDBRANCH   1   2
BRANCH   1  12
HETATM   12  C3  UNL     1       1.823   0.692  -0.913  1.00  0.00     0.152 C 
HETATM   13  C4  UNL     1       2.662  -0.293  -0.370  1.00  0.00     0.152 C 
BRANCH  13  14
HETATM   14  O2  UNL     1       3.919  -0.199  -0.800  1.00  0.00    -0.345 OA
ATOM     15  H2  UNL     1       4.487  -0.866  -0.432  1.00  0.00     0.219 HD
ENDBRANCH  13  14
BRANCH  13  16
HETATM   16  N2  UNL     1       2.532  -1.363   0.521  1.00  0.00    -0.365 N 
ATOM     17  H2  UNL     1       1.616  -1.539   0.934  1.00  0.00     0.162 HD
BRANCH  16  18
HETATM   18  C5  UNL     1       3.641  -2.245   0.892  1.00  0.00     0.083 C 
HETATM   19  C6  UNL     1       3.269  -3.695   0.585  1.00  0.00     0.025 C 
HETATM   20  C7  UNL     1       4.240  -4.483   1.443  1.00  0.00     0.002 C 
HETATM   21  C8  UNL     1       4.235  -3.701   2.751  1.00  0.00     0.002 C 
HETATM   22  C9  UNL     1       3.830  -2.288   2.389  1.00  0.00     0.025 C 
ENDBRANCH  16  18
ENDBRANCH  13  16
ENDBRANCH   1  12
BRANCH   1  23
HETATM   23  C10 UNL     1       0.152   2.069   0.095  1.00  0.00     0.035 C 
HETATM   24  C11 UNL     1       0.585   1.968   1.330  1.00  0.00     0.001 C 
HETATM   25  C12 UNL     1       0.452   2.939   2.444  1.00  0.00     0.034 C 
HETATM   26  C13 UNL     1       0.740   4.350   2.003  1.00  0.00     0.048 C 
HETATM   27  C14 UNL     1       1.224   4.483   0.602  1.00  0.00     0.059 C 
HETATM   28  N3  UNL     1       0.176   4.451  -0.337  1.00  0.00    -0.376 N 
HETATM   29  C15 UNL     1      -0.559   5.656  -0.414  1.00  0.00     0.214 C 
HETATM   30  C18 UNL     1      -0.571   3.223  -0.439  1.00  0.00     0.143 C 
HETATM   31  C16 UNL     1      -1.592   5.680  -1.543  1.00  0.00     0.307 C 
HETATM   32  F1  UNL     1      -1.056   5.286  -2.741  1.00  0.00    -0.192 F 
HETATM   33  F2  UNL     1      -2.139   6.940  -1.569  1.00  0.00    -0.192 F 
HETATM   34  S1  UNL     1      -2.882   4.500  -0.972  1.00  0.00    -0.089 SA
HETATM   35  C17 UNL     1      -1.961   3.409   0.188  1.00  0.00     0.111 C 
ENDBRANCH   1  23
TORSDOF 8
