REMARK  9 active torsions:
REMARK  status: ('A' for Active; 'I' for Inactive)
REMARK    1  A    between atoms: C2_2  and  C3_3 
REMARK    2  A    between atoms: C4_4  and  N1_5 
REMARK    3  A    between atoms: N2_8  and  C5_9 
REMARK    4  A    between atoms: C5_9  and  C6_10 
REMARK    5  A    between atoms: C5_9  and  C7_19 
REMARK       I    between atoms: C6_10  and  N3_12 
REMARK    6  A    between atoms: N3_12  and  N4_14 
REMARK    7  A    between atoms: N4_14  and  N5_15 
REMARK    8  A    between atoms: N5_15  and  N6_16 
REMARK    9  A    between atoms: C12_33  and  C13_34 
REMARK       I    between atoms: C13_34  and  N11_35 
ROOT
HETATM    1  C3  UNL     1      -1.868   0.497   0.066  1.00  0.00     0.000 A 
HETATM    2  C4  UNL     1      -0.551   0.180   0.545  1.00  0.00     0.109 A 
HETATM    3  N2  UNL     1       0.350  -0.549  -0.096  1.00  0.00    -0.323 N 
HETATM    4  C9  UNL     1       0.011  -1.045  -1.298  1.00  0.00     0.124 A 
HETATM    5  C10 UNL     1      -1.214  -0.803  -1.843  1.00  0.00     0.062 A 
HETATM    6  N9  UNL     1      -1.527  -1.320  -3.024  1.00  0.00    -0.350 N 
ATOM      7  H9  UNL     1      -0.829  -1.887  -3.506  1.00  0.00     0.166 HD
HETATM    8  C11 UNL     1      -2.715  -1.134  -3.615  1.00  0.00     0.181 A 
HETATM    9  N10 UNL     1      -3.624  -0.402  -3.009  1.00  0.00    -0.347 N 
ATOM     10  H10 UNL     1      -4.528  -0.256  -3.458  1.00  0.00     0.167 HD
HETATM   11  C12 UNL     1      -3.378   0.178  -1.767  1.00  0.00     0.114 A 
HETATM   12  C14 UNL     1      -2.180  -0.015  -1.161  1.00  0.00     0.034 A 
ENDROOT
BRANCH   3  13
HETATM   13  C5  UNL     1       1.689  -0.844   0.374  1.00  0.00     0.231 C 
BRANCH  13  14
HETATM   14  C6  UNL     1       2.478   0.270   0.877  1.00  0.00     0.261 C 
HETATM   15  O1  UNL     1       3.116   0.314   1.982  1.00  0.00    -0.270 OA
HETATM   16  N3  UNL     1       2.578   1.442   0.078  1.00  0.00    -0.254 N 
ATOM     17  H3  UNL     1       2.086   1.455  -0.815  1.00  0.00     0.187 HD
BRANCH  16  18
HETATM   18  N4  UNL     1       3.306   2.573   0.439  1.00  0.00    -0.007 NA
BRANCH  18  19
HETATM   19  N5  UNL     1       4.524   2.693  -0.189  1.00  0.00    -0.016 NA
BRANCH  19  20
HETATM   20  N6  UNL     1       5.058   3.972  -0.157  1.00  0.00    -0.330 N 
ATOM     21  H62 UNL     1       4.576   4.748   0.298  1.00  0.00     0.173 HD
ATOM     22  H61 UNL     1       5.961   4.061  -0.623  1.00  0.00     0.173 HD
ENDBRANCH  19  20
ENDBRANCH  18  19
ENDBRANCH  16  18
ENDBRANCH  13  14
BRANCH  13  23
HETATM   23  C7  UNL     1       1.649  -2.067   1.237  1.00  0.00     0.278 C 
HETATM   24  N7  UNL     1       1.149  -3.191   0.423  1.00  0.00    -0.101 NA
HETATM   25  N8  UNL     1       2.311  -3.749  -0.137  1.00  0.00    -0.247 N 
HETATM   26  C8  UNL     1       3.382  -3.395   0.721  1.00  0.00     0.378 C 
ATOM     27  H8  UNL     1       2.372  -4.300  -0.993  1.00  0.00     0.188 HD
HETATM   28  O2  UNL     1       4.556  -3.838   0.620  1.00  0.00    -0.237 OA
HETATM   29  O3  UNL     1       2.925  -2.506   1.654  1.00  0.00    -0.277 OA
ENDBRANCH  13  23
ENDBRANCH   3  13
BRANCH   2  30
HETATM   30  N1  UNL     1      -0.315   0.646   1.711  1.00  0.00    -0.385 N 
ATOM     31  H12 UNL     1      -1.009   1.207   2.205  1.00  0.00     0.157 HD
ATOM     32  H11 UNL     1       0.620   0.421   2.051  1.00  0.00     0.157 HD
ENDBRANCH   2  30
BRANCH   1  33
HETATM   33  C2  UNL     1      -2.751   1.258   0.914  1.00  0.00     0.039 C 
HETATM   34  C1  UNL     1      -3.229   0.460   2.144  1.00  0.00     0.010 C 
ENDBRANCH   1  33
BRANCH  11  35
HETATM   35  C13 UNL     1      -4.421   1.036  -1.301  1.00  0.00     0.267 C 
HETATM   36  N11 UNL     1      -5.551   0.583  -0.664  1.00  0.00    -0.365 N 
ATOM     37 2H11 UNL     1      -5.647  -0.420  -0.503  1.00  0.00     0.159 HD
ATOM     38 1H11 UNL     1      -6.296   1.196  -0.331  1.00  0.00     0.159 HD
HETATM   39  O4  UNL     1      -4.303   2.272  -1.500  1.00  0.00    -0.266 OA
ENDBRANCH  11  35
TORSDOF 9
