REMARK  10 active torsions:
REMARK  status: ('A' for Active; 'I' for Inactive)
REMARK    1  A    between atoms: C2_7  and  O1_8 
REMARK    2  A    between atoms: O1_8  and  C3_9 
REMARK    3  A    between atoms: C6_16  and  O2_17 
REMARK    4  A    between atoms: O2_17  and  C7_18 
REMARK    5  A    between atoms: C7_18  and  C8_19 
REMARK    6  A    between atoms: C7_18  and  C9_24 
REMARK    7  A    between atoms: C8_19  and  N6_20 
REMARK       I    between atoms: C9_24  and  N7_26 
REMARK    8  A    between atoms: N7_26  and  N8_27 
REMARK    9  A    between atoms: C10_30  and  N9_31 
REMARK   10  A    between atoms: C12_39  and  N12_40 
REMARK       I    between atoms: N12_40  and  C13_42 
ROOT
HETATM    1  C3  UNL     1       2.356  -0.345   0.067  1.00  0.00     0.233 A 
HETATM    2  N4  UNL     1       1.630   0.017   1.167  1.00  0.00    -0.305 N 
ATOM      3  H4  UNL     1       2.027   0.180   2.092  1.00  0.00     0.171 HD
HETATM    4  C4  UNL     1       0.329   0.129   0.869  1.00  0.00     0.153 A 
HETATM    5  N5  UNL     1      -0.662   0.466   1.714  1.00  0.00    -0.346 N 
ATOM      6  H5  UNL     1      -0.429   0.386   2.704  1.00  0.00     0.167 HD
HETATM    7  C5  UNL     1      -1.902   0.888   1.460  1.00  0.00     0.130 C 
HETATM    8  C6  UNL     1      -2.712   0.395   0.393  1.00  0.00     0.129 C 
HETATM    9  C10 UNL     1      -2.214   0.057  -0.854  1.00  0.00     0.136 C 
HETATM   10  N10 UNL     1      -0.927  -0.194  -1.195  1.00  0.00    -0.324 N 
ATOM     11  H10 UNL     1      -0.804  -0.444  -2.176  1.00  0.00     0.169 HD
HETATM   12  C11 UNL     1       0.216  -0.178  -0.496  1.00  0.00     0.155 A 
HETATM   13  N11 UNL     1       1.458  -0.453  -0.924  1.00  0.00    -0.305 N 
ATOM     14  H11 UNL     1       1.690  -0.712  -1.883  1.00  0.00     0.171 HD
ENDROOT
BRANCH   1  15
HETATM   15  O1  UNL     1       3.724  -0.551   0.014  1.00  0.00    -0.256 OA
BRANCH  15  16
HETATM   16  C2  UNL     1       4.609   0.435  -0.377  1.00  0.00     0.213 A 
HETATM   17  N3  UNL     1       4.209   1.694  -0.758  1.00  0.00    -0.262 N 
HETATM   18  N2  UNL     1       5.281   2.385  -1.067  1.00  0.00    -0.237 N 
ATOM     19  H3  UNL     1       3.247   2.032  -0.794  1.00  0.00     0.190 HD
HETATM   20  N1  UNL     1       6.361   1.652  -0.909  1.00  0.00    -0.263 N 
ATOM     21  H2  UNL     1       5.277   3.354  -1.385  1.00  0.00     0.208 HD
HETATM   22  C1  UNL     1       7.730   2.047  -1.144  1.00  0.00     0.181 C 
HETATM   23  C12 UNL     1       5.966   0.417  -0.475  1.00  0.00     0.180 A 
BRANCH  23  24
HETATM   24  N12 UNL     1       6.856  -0.650  -0.183  1.00  0.00    -0.292 N 
HETATM   25  C13 UNL     1       6.599  -1.952   0.233  1.00  0.00     0.334 C 
HETATM   26  N13 UNL     1       7.703  -2.841   0.477  1.00  0.00    -0.040 NA
HETATM   27  O4  UNL     1       5.478  -2.433   0.418  1.00  0.00    -0.251 OA
ATOM     28  H12 UNL     1       7.844  -0.425  -0.297  1.00  0.00     0.172 HD
ENDBRANCH  23  24
ENDBRANCH  15  16
ENDBRANCH   1  15
BRANCH   9  29
HETATM   29  N9  UNL     1      -3.076  -0.026  -1.814  1.00  0.00    -0.383 N 
ATOM     30  H92 UNL     1      -4.045   0.163  -1.557  1.00  0.00     0.157 HD
ATOM     31  H91 UNL     1      -2.709  -0.275  -2.733  1.00  0.00     0.157 HD
ENDBRANCH   9  29
BRANCH   8  32
HETATM   32  O2  UNL     1      -3.994   0.271   0.646  1.00  0.00    -0.328 OA
BRANCH  32  33
HETATM   33  C7  UNL     1      -5.156  -0.119   0.125  1.00  0.00     0.263 C 
BRANCH  33  34
HETATM   34  C8  UNL     1      -6.089   1.076  -0.154  1.00  0.00     0.273 C 
BRANCH  34  35
HETATM   35  N6  UNL     1      -6.376   1.825   1.037  1.00  0.00    -0.076 N 
ATOM     36  H63 UNL     1      -6.753   1.224   1.770  1.00  0.00     0.274 HD
ATOM     37  H62 UNL     1      -5.519   2.125   1.501  1.00  0.00     0.274 HD
ATOM     38  H61 UNL     1      -6.993   2.616   0.852  1.00  0.00     0.274 HD
ENDBRANCH  34  35
ENDBRANCH  33  34
BRANCH  33  39
HETATM   39  C9  UNL     1      -5.964  -0.982   1.105  1.00  0.00     0.342 C 
HETATM   40  O3  UNL     1      -5.472  -1.315   2.176  1.00  0.00    -0.252 OA
HETATM   41  N7  UNL     1      -7.270  -1.313   0.634  1.00  0.00    -0.291 NA
BRANCH  41  42
HETATM   42  N8  UNL     1      -8.408  -1.602   0.223  1.00  0.00    -0.277 N 
ATOM     43  H82 UNL     1      -7.463  -1.386   0.540  1.00  0.00     0.191 HD
ATOM     44  H81 UNL     1      -9.341  -1.839  -0.114  1.00  0.00     0.191 HD
ENDBRANCH  41  42
ENDBRANCH  33  39
ENDBRANCH  32  33
ENDBRANCH   8  32
TORSDOF 10
