REMARK  18 active torsions:
REMARK  status: ('A' for Active; 'I' for Inactive)
REMARK    1  A    between atoms: N1_4  and  O1_5 
REMARK    2  A    between atoms: O1_5  and  C4_6 
REMARK    3  A    between atoms: C4_6  and  O2_7 
REMARK    4  A    between atoms: C4_6  and  N2_9 
REMARK    5  A    between atoms: N2_9  and  O3_11 
REMARK    6  A    between atoms: O3_11  and  C5_12 
REMARK    7  A    between atoms: C5_12  and  C6_13 
REMARK    8  A    between atoms: C9_21  and  O5_22 
REMARK    9  A    between atoms: C10_24  and  N5_25 
REMARK   10  A    between atoms: C11_30  and  S1_31 
REMARK   11  A    between atoms: S1_31  and  C12_32 
REMARK   12  A    between atoms: C14_36  and  N9_37 
REMARK   13  A    between atoms: N10_40  and  C15_41 
REMARK   14  A    between atoms: C15_41  and  O6_42 
REMARK   15  A    between atoms: N12_46  and  O7_47 
REMARK   16  A    between atoms: N13_49  and  O8_50 
REMARK   17  A    between atoms: O8_50  and  S2_51 
REMARK   18  A    between atoms: S2_51  and  N14_52 
ROOT
HETATM    1  C1  UNL     1      -2.169  -2.341  -0.614  1.00  0.00     0.067 C 
HETATM    2  C2  UNL     1      -2.337  -0.840  -0.564  1.00  0.00     0.151 C 
HETATM    3  C3  UNL     1      -3.422  -0.515  -1.525  1.00  0.00     0.067 C 
HETATM    4  N1  UNL     1      -2.717  -0.640   0.872  1.00  0.00    -0.206 N 
HETATM    5  C7  UNL     1      -1.549  -0.286   1.555  1.00  0.00     0.152 C 
HETATM    6  N4  UNL     1      -1.412  -0.056   2.806  1.00  0.00    -0.384 N 
ATOM      7  H41 UNL     1      -0.560   0.202   3.304  1.00  0.00     0.157 HD
ATOM      8  H42 UNL     1      -2.153  -0.079   3.507  1.00  0.00     0.157 HD
HETATM    9  C8  UNL     1      -0.472  -0.252   0.536  1.00  0.00     0.226 C 
HETATM   10  C9  UNL     1       0.723   0.585   0.834  1.00  0.00     0.216 C 
HETATM   11  C10 UNL     1       1.429  -0.692   1.136  1.00  0.00     0.264 C 
HETATM   12  N12 UNL     1       0.375  -1.410   0.455  1.00  0.00    -0.128 NA
HETATM   13  N13 UNL     1      -1.204  -0.041  -0.632  1.00  0.00    -0.207 N 
ENDROOT
BRANCH  10  14
HETATM   14  O5  UNL     1       0.605   1.331   2.013  1.00  0.00    -0.387 OA
ATOM     15  H5  UNL     1       1.367   1.865   2.203  1.00  0.00     0.210 HD
ENDBRANCH  10  14
BRANCH  12  16
HETATM   16  O7  UNL     1       0.825  -1.672  -0.804  1.00  0.00    -0.308 OA
ATOM     17  H7  UNL     1       1.385  -2.438  -0.858  1.00  0.00     0.237 HD
ENDBRANCH  12  16
BRANCH  13  18
HETATM   18  O8  UNL     1      -0.964   0.820  -1.512  1.00  0.00    -0.132 OA
BRANCH  18  19
HETATM   19  S2  UNL     1      -1.144   2.415  -1.405  1.00  0.00     0.376 S 
HETATM   20  O9  UNL     1      -1.596   2.973  -0.091  1.00  0.00    -0.174 OA
HETATM   21  O10 UNL     1       0.127   3.209  -1.724  1.00  0.00    -0.174 OA
BRANCH  19  22
HETATM   22  N14 UNL     1      -2.288   3.062  -2.576  1.00  0.00    -0.304 N 
ATOM     23 2H14 UNL     1      -2.779   2.472  -3.248  1.00  0.00     0.171 HD
ATOM     24 1H14 UNL     1      -2.402   4.073  -2.508  1.00  0.00     0.171 HD
ENDBRANCH  19  22
ENDBRANCH  18  19
ENDBRANCH  13  18
BRANCH   4  25
HETATM   25  O1  UNL     1      -3.949  -0.818   1.252  1.00  0.00    -0.219 OA
BRANCH  25  26
HETATM   26  C4  UNL     1      -4.794   0.239   1.392  1.00  0.00     0.415 C 
BRANCH  26  27
HETATM   27  O2  UNL     1      -4.298   1.507   1.043  1.00  0.00    -0.352 OA
ATOM     28  H2  UNL     1      -4.888   2.245   1.141  1.00  0.00     0.214 HD
ENDBRANCH  26  27
BRANCH  26  29
HETATM   29  N2  UNL     1      -5.952  -0.007   0.676  1.00  0.00    -0.248 N 
ATOM     30  H2  UNL     1      -6.086   0.419  -0.241  1.00  0.00     0.193 HD
BRANCH  29  31
HETATM   31  O3  UNL     1      -6.894  -0.804   1.188  1.00  0.00    -0.272 OA
BRANCH  31  32
HETATM   32  C5  UNL     1      -7.746  -0.986   0.052  1.00  0.00     0.300 C 
BRANCH  32  33
HETATM   33  C6  UNL     1      -9.087  -0.528   0.654  1.00  0.00     0.257 C 
HETATM   34  N3  UNL     1      -9.518   0.715   0.136  1.00  0.00    -0.060 NA
HETATM   35  O4  UNL     1      -9.605  -1.227   1.489  1.00  0.00    -0.274 OA
ENDBRANCH  32  33
ENDBRANCH  31  32
ENDBRANCH  29  31
ENDBRANCH  26  29
ENDBRANCH  25  26
ENDBRANCH   4  25
BRANCH  11  36
HETATM   36  N5  UNL     1       2.774  -0.891   0.596  1.00  0.00    -0.194 N 
HETATM   37  N6  UNL     1       3.590  -1.706   0.555  1.00  0.00    -0.222 N 
HETATM   38  N7  UNL     1       4.757  -1.430   0.072  1.00  0.00    -0.263 N 
ATOM     39  H6  UNL     1       3.390  -2.645   0.900  1.00  0.00     0.210 HD
HETATM   40  C11 UNL     1       4.625  -0.152  -0.282  1.00  0.00     0.182 A 
ATOM     41  H7  UNL     1       5.572  -2.037  -0.016  1.00  0.00     0.190 HD
HETATM   42  N11 UNL     1       3.360   0.305  -0.007  1.00  0.00    -0.259 N 
ATOM     43  H11 UNL     1       2.945   1.222  -0.176  1.00  0.00     0.191 HD
BRANCH  40  44
HETATM   44  S1  UNL     1       6.001   0.938  -0.772  1.00  0.00    -0.031 SA
BRANCH  44  45
HETATM   45  C12 UNL     1       7.530  -0.016  -0.479  1.00  0.00     0.114 A 
HETATM   46  C13 UNL     1       7.666  -1.330  -0.820  1.00  0.00     0.144 A 
HETATM   47  N8  UNL     1       8.860  -1.710  -0.394  1.00  0.00    -0.199 N 
HETATM   48  C14 UNL     1       9.450  -0.699   0.200  1.00  0.00     0.680 A 
ATOM     49  H8  UNL     1       9.259  -2.642  -0.509  1.00  0.00     0.183 HD
HETATM   50  N10 UNL     1       8.627   0.333   0.158  1.00  0.00    -0.154 N 
BRANCH  48  51
HETATM   51  N9  UNL     1      10.615  -0.664   0.833  1.00  0.00    -0.234 N 
ATOM     52  H92 UNL     1      11.251  -1.461   0.865  1.00  0.00     0.174 HD
ATOM     53  H91 UNL     1      11.073   0.122   1.295  1.00  0.00     0.174 HD
ENDBRANCH  48  51
BRANCH  50  54
HETATM   54  C15 UNL     1       8.849   1.625   0.818  1.00  0.00     0.315 C 
BRANCH  54  55
HETATM   55  O6  UNL     1       9.049   2.662  -0.087  1.00  0.00    -0.381 OA
ATOM     56  H6  UNL     1       9.193   3.498   0.340  1.00  0.00     0.211 HD
ENDBRANCH  54  55
ENDBRANCH  50  54
ENDBRANCH  44  45
ENDBRANCH  40  44
ENDBRANCH  11  36
TORSDOF 18
