REMARK  20 active torsions:
REMARK  status: ('A' for Active; 'I' for Inactive)
REMARK    1  A    between atoms: N4_7  and  C2_8 
REMARK    2  A    between atoms: C2_8  and  C3_9 
REMARK    3  A    between atoms: C3_9  and  N5_10 
REMARK    4  A    between atoms: N5_10  and  C4_13 
REMARK    5  A    between atoms: C4_13  and  C5_14 
REMARK    6  A    between atoms: C6_16  and  C7_17 
REMARK    7  A    between atoms: C7_17  and  O2_18 
REMARK    8  A    between atoms: N6_22  and  O3_24 
REMARK    9  A    between atoms: O3_24  and  C10_25 
REMARK   10  A    between atoms: C11_28  and  C12_29 
REMARK   11  A    between atoms: C12_29  and  O6_30 
REMARK   12  A    between atoms: C13_32  and  N7_33 
REMARK   13  A    between atoms: C14_35  and  C15_36 
REMARK   14  A    between atoms: C14_35  and  C16_39 
REMARK   15  A    between atoms: C17_40  and  O9_41 
REMARK   16  A    between atoms: C18_43  and  O10_44 
REMARK   17  A    between atoms: C19_46  and  N8_47 
REMARK   18  A    between atoms: N8_47  and  O11_48 
REMARK   19  A    between atoms: N8_47  and  O12_50 
REMARK   20  A    between atoms: C22_56  and  O14_57 
ROOT
HETATM    1  C1  UNL     1      -1.171  -0.164  -3.214  1.00  0.00     0.199 C 
HETATM    2  N1  UNL     1      -0.470   0.214  -1.993  1.00  0.00    -0.111 N 
HETATM    3  N2  UNL     1       0.900   0.249  -1.924  1.00  0.00    -0.211 N 
ATOM      4  H2  UNL     1       1.538   0.120  -2.709  1.00  0.00     0.210 HD
HETATM    5  N3  UNL     1       1.254   0.476  -0.679  1.00  0.00    -0.211 N 
ATOM      6  H3  UNL     1       2.218   0.553  -0.356  1.00  0.00     0.210 HD
HETATM    7  N4  UNL     1       0.215   0.588   0.080  1.00  0.00    -0.105 N 
HETATM    8  C13 UNL     1      -0.909   0.437  -0.756  1.00  0.00     0.718 A 
ENDROOT
BRANCH   8   9
HETATM    9  N7  UNL     1      -1.996   0.831  -0.315  1.00  0.00    -0.181 N 
HETATM   10  C14 UNL     1      -3.246   1.261  -0.472  1.00  0.00     0.141 C 
ATOM     11  H7  UNL     1      -1.867   0.821   0.697  1.00  0.00     0.184 HD
BRANCH  10  12
HETATM   12  C15 UNL     1      -3.565   1.686  -1.914  1.00  0.00     0.228 C 
HETATM   13  O7  UNL     1      -4.452   1.110  -2.582  1.00  0.00    -0.643 OA
HETATM   14  O8  UNL     1      -2.844   2.736  -2.435  1.00  0.00    -0.643 OA
ENDBRANCH  10  12
BRANCH  10  15
HETATM   15  C16 UNL     1      -4.490   0.842   0.107  1.00  0.00     0.069 C 
HETATM   16  C17 UNL     1      -4.606  -0.248   0.965  1.00  0.00     0.116 C 
HETATM   17  C18 UNL     1      -5.754  -0.978   1.196  1.00  0.00     0.130 C 
HETATM   18  C19 UNL     1      -7.087  -0.711   0.922  1.00  0.00     0.153 C 
HETATM   19  C20 UNL     1      -7.490   0.099  -0.149  1.00  0.00     0.227 C 
HETATM   20  O13 UNL     1      -8.496  -0.234  -0.792  1.00  0.00    -0.284 OA
HETATM   21  C21 UNL     1      -6.874   1.276  -0.591  1.00  0.00     0.132 C 
HETATM   22  N9  UNL     1      -7.614   2.111  -1.444  1.00  0.00    -0.095 NA
HETATM   23  C22 UNL     1      -5.574   1.666  -0.281  1.00  0.00     0.109 C 
BRANCH  16  24
HETATM   24  O9  UNL     1      -3.447  -0.557   1.594  1.00  0.00    -0.357 OA
ATOM     25  H9  UNL     1      -3.526  -1.301   2.180  1.00  0.00     0.217 HD
ENDBRANCH  16  24
BRANCH  17  26
HETATM   26  O10 UNL     1      -5.586  -2.217   1.807  1.00  0.00    -0.356 OA
ATOM     27  H10 UNL     1      -6.376  -2.720   1.966  1.00  0.00     0.218 HD
ENDBRANCH  17  26
BRANCH  18  28
HETATM   28  N8  UNL     1      -8.112  -1.227   1.738  1.00  0.00    -0.029 NA
BRANCH  28  29
HETATM   29  O11 UNL     1      -8.114  -0.672   2.960  1.00  0.00    -0.284 OA
ATOM     30  H11 UNL     1      -8.806  -1.020   3.511  1.00  0.00     0.240 HD
ENDBRANCH  28  29
BRANCH  28  31
HETATM   31  O12 UNL     1      -8.023  -2.552   1.846  1.00  0.00    -0.284 OA
ATOM     32  H12 UNL     1      -8.715  -2.900   2.397  1.00  0.00     0.240 HD
ENDBRANCH  28  31
ENDBRANCH  18  28
BRANCH  23  33
HETATM   33  O14 UNL     1      -5.380   3.031  -0.367  1.00  0.00    -0.358 OA
ATOM     34  H14 UNL     1      -6.107   3.584  -0.627  1.00  0.00     0.217 HD
ENDBRANCH  23  33
ENDBRANCH  10  15
ENDBRANCH   8   9
BRANCH   7  35
HETATM   35  C2  UNL     1       0.130   0.410   1.548  1.00  0.00     0.197 C 
BRANCH  35  36
HETATM   36  C3  UNL     1       1.293  -0.395   1.990  1.00  0.00     0.255 C 
BRANCH  36  37
HETATM   37  N5  UNL     1       1.833  -1.274   0.873  1.00  0.00    -0.068 N 
ATOM     38  H52 UNL     1       1.309  -2.128   0.679  1.00  0.00     0.277 HD
ATOM     39  H51 UNL     1       1.735  -0.909  -0.074  1.00  0.00     0.277 HD
BRANCH  37  40
HETATM   40  C4  UNL     1       3.211  -1.454   1.360  1.00  0.00     0.297 C 
BRANCH  40  41
HETATM   41  C5  UNL     1       4.314  -1.351   0.390  1.00  0.00     0.089 A 
HETATM   42  O1  UNL     1       4.549  -1.865  -0.759  1.00  0.00    -0.315 OA
HETATM   43  C6  UNL     1       5.645  -1.597  -1.472  1.00  0.00     0.079 A 
HETATM   44  C8  UNL     1       6.611  -0.701  -0.981  1.00  0.00     0.067 A 
HETATM   45  C9  UNL     1       6.454  -0.099   0.230  1.00  0.00     0.068 A 
HETATM   46  N6  UNL     1       6.996   0.911   0.724  1.00  0.00    -0.255 N 
HETATM   47  C11 UNL     1       5.303  -0.445   0.927  1.00  0.00     0.025 A 
ATOM     48  H6  UNL     1       6.618   1.093   1.654  1.00  0.00     0.195 HD
BRANCH  43  49
HETATM   49  C7  UNL     1       5.980  -2.199  -2.779  1.00  0.00     0.229 C 
BRANCH  49  50
HETATM   50  O2  UNL     1       5.339  -3.372  -3.025  1.00  0.00    -0.394 OA
ATOM     51  H2  UNL     1       5.554  -3.759  -3.865  1.00  0.00     0.209 HD
ENDBRANCH  49  50
ENDBRANCH  43  49
BRANCH  46  52
HETATM   52  O3  UNL     1       7.890   1.801   0.423  1.00  0.00    -0.172 OA
BRANCH  52  53
HETATM   53  C10 UNL     1       9.158   2.097   0.283  1.00  0.00     0.355 C 
HETATM   54  O4  UNL     1      10.002   1.164   0.521  1.00  0.00    -0.622 OA
HETATM   55  O5  UNL     1       9.609   3.390  -0.121  1.00  0.00    -0.622 OA
ENDBRANCH  52  53
ENDBRANCH  46  52
BRANCH  47  56
HETATM   56  C12 UNL     1       5.160  -0.041   2.346  1.00  0.00     0.207 C 
BRANCH  56  57
HETATM   57  O6  UNL     1       6.282   0.752   2.690  1.00  0.00    -0.396 OA
ATOM     58  H6  UNL     1       6.190   1.011   3.599  1.00  0.00     0.209 HD
ENDBRANCH  56  57
ENDBRANCH  47  56
ENDBRANCH  40  41
ENDBRANCH  37  40
ENDBRANCH  36  37
ENDBRANCH  35  36
ENDBRANCH   7  35
TORSDOF 20
