REMARK  22 active torsions:
REMARK  status: ('A' for Active; 'I' for Inactive)
REMARK    1  A    between atoms: C2_2  and  O1_3 
REMARK    2  A    between atoms: O1_3  and  C3_4 
REMARK    3  A    between atoms: C3_4  and  C4_6 
REMARK    4  A    between atoms: C5_7  and  O3_8 
REMARK    5  A    between atoms: O3_8  and  C6_9 
REMARK    6  A    between atoms: C6_9  and  C7_10 
REMARK    7  A    between atoms: C7_10  and  O4_11 
REMARK    8  A    between atoms: C7_10  and  C8_13 
REMARK    9  A    between atoms: C8_13  and  O5_14 
REMARK   10  A    between atoms: C8_13  and  C9_16 
REMARK   11  A    between atoms: C9_16  and  O6_17 
REMARK   12  A    between atoms: C9_16  and  C10_19 
REMARK   13  A    between atoms: C10_19  and  C11_20 
REMARK   14  A    between atoms: C10_19  and  N1_23 
REMARK   15  A    between atoms: C11_20  and  O7_21 
REMARK   16  A    between atoms: C12_25  and  C13_26 
REMARK   17  A    between atoms: C13_26  and  O9_27 
REMARK   18  A    between atoms: C13_26  and  O10_29 
REMARK   19  A    between atoms: C17_35  and  N2_36 
REMARK   20  A    between atoms: N2_36  and  O12_38 
REMARK   21  A    between atoms: C20_45  and  N4_46 
REMARK   22  A    between atoms: C23_55  and  O14_56 
ROOT
HETATM    1  C4  UNL     1      -2.793  -0.586  -0.557  1.00  0.00     0.094 A 
HETATM    2  C5  UNL     1      -1.620   0.004  -0.523  1.00  0.00     0.086 A 
HETATM    3  C16 UNL     1      -1.792   1.365   0.016  1.00  0.00     0.068 A 
HETATM    4  C17 UNL     1      -3.057   1.598   0.306  1.00  0.00     0.077 A 
HETATM    5  C18 UNL     1      -3.804   0.357  -0.040  1.00  0.00     0.179 A 
HETATM    6  O13 UNL     1      -4.704   0.625  -1.092  1.00  0.00    -0.294 OA
HETATM    7  C19 UNL     1      -5.919   1.261  -0.788  1.00  0.00     0.258 A 
HETATM    8  N3  UNL     1      -6.687   2.181  -1.398  1.00  0.00    -0.152 N 
ATOM      9  H3  UNL     1      -6.507   2.635  -2.293  1.00  0.00     0.188 HD
HETATM   10  C20 UNL     1      -7.740   2.380  -0.588  1.00  0.00     0.693 A 
HETATM   11  N5  UNL     1      -7.601   1.590   0.487  1.00  0.00    -0.126 N 
ATOM     12  H5  UNL     1      -8.253   1.532   1.269  1.00  0.00     0.206 HD
HETATM   13  N6  UNL     1      -6.487   0.902   0.369  1.00  0.00    -0.220 N 
HETATM   14  C21 UNL     1      -5.918  -0.071   1.271  1.00  0.00     0.251 C 
HETATM   15  C22 UNL     1      -6.276   0.253   2.668  1.00  0.00     0.089 C 
HETATM   16  N7  UNL     1      -6.563   0.488   3.765  1.00  0.00    -0.195 NA
HETATM   17  C23 UNL     1      -4.461  -0.264   1.156  1.00  0.00     0.203 C 
ENDROOT
BRANCH  17  18
HETATM   18  O14 UNL     1      -3.817   0.282   2.292  1.00  0.00    -0.389 OA
ATOM     19  H14 UNL     1      -4.233  -0.112   3.050  1.00  0.00     0.210 HD
ENDBRANCH  17  18
BRANCH  10  20
HETATM   20  N4  UNL     1      -8.724   3.211  -0.831  1.00  0.00    -0.233 N 
ATOM     21  H42 UNL     1      -8.830   3.812  -1.648  1.00  0.00     0.174 HD
ATOM     22  H41 UNL     1      -9.524   3.362  -0.216  1.00  0.00     0.174 HD
ENDBRANCH  10  20
BRANCH   1  23
HETATM   23  C3  UNL     1      -3.067  -1.928  -1.017  1.00  0.00     0.295 C 
HETATM   24  O2  UNL     1      -2.162  -2.704  -1.454  1.00  0.00    -0.259 OA
BRANCH  23  25
HETATM   25  O1  UNL     1      -4.355  -2.454  -1.009  1.00  0.00    -0.318 OA
BRANCH  25  26
HETATM   26  C2  UNL     1      -4.602  -3.783  -1.468  1.00  0.00     0.174 C 
HETATM   27  C1  UNL     1      -3.818  -4.747  -0.633  1.00  0.00     0.034 C 
ENDBRANCH  25  26
ENDBRANCH  23  25
ENDBRANCH   1  23
BRANCH   4  28
HETATM   28  N2  UNL     1      -3.580   2.805   0.844  1.00  0.00    -0.270 N 
ATOM     29  H2  UNL     1      -4.371   2.756   1.486  1.00  0.00     0.194 HD
BRANCH  28  30
HETATM   30  O12 UNL     1      -3.060   4.027   0.530  1.00  0.00    -0.290 OA
ATOM     31  H12 UNL     1      -3.410   4.834   0.890  1.00  0.00     0.244 HD
ENDBRANCH  28  30
ENDBRANCH   4  28
BRANCH   2  32
HETATM   32  O3  UNL     1      -0.415  -0.571  -0.932  1.00  0.00    -0.348 OA
BRANCH  32  33
HETATM   33  C6  UNL     1       0.821   0.023  -0.502  1.00  0.00     0.210 C 
BRANCH  33  34
HETATM   34  C7  UNL     1       1.945  -0.800  -1.090  1.00  0.00     0.173 C 
BRANCH  34  35
HETATM   35  O4  UNL     1       1.895  -0.806  -2.460  1.00  0.00    -0.391 OA
ATOM     36  H4  UNL     1       2.601  -1.323  -2.829  1.00  0.00     0.210 HD
ENDBRANCH  34  35
BRANCH  34  37
HETATM   37  C8  UNL     1       3.279  -0.438  -0.526  1.00  0.00     0.179 C 
BRANCH  37  38
HETATM   38  O5  UNL     1       4.244  -1.321  -0.941  1.00  0.00    -0.390 OA
ATOM     39  H5  UNL     1       5.093  -1.091  -0.582  1.00  0.00     0.210 HD
ENDBRANCH  37  38
BRANCH  37  40
HETATM   40  C9  UNL     1       3.623   1.017  -0.735  1.00  0.00     0.177 C 
BRANCH  40  41
HETATM   41  O6  UNL     1       3.874   1.206  -2.090  1.00  0.00    -0.391 OA
ATOM     42  H6  UNL     1       4.090   2.122  -2.222  1.00  0.00     0.210 HD
ENDBRANCH  40  41
BRANCH  40  43
HETATM   43  C10 UNL     1       4.795   1.484   0.070  1.00  0.00     0.173 C 
BRANCH  43  44
HETATM   44  C11 UNL     1       5.080   2.949  -0.176  1.00  0.00     0.194 C 
BRANCH  44  45
HETATM   45  O7  UNL     1       5.364   3.284  -1.469  1.00  0.00    -0.399 OA
ATOM     46  H7  UNL     1       5.543   4.204  -1.624  1.00  0.00     0.209 HD
ENDBRANCH  44  45
ENDBRANCH  43  44
BRANCH  43  47
HETATM   47  N1  UNL     1       5.933   0.635   0.018  1.00  0.00    -0.207 N 
HETATM   48  O8  UNL     1       6.317  -0.098   1.054  1.00  0.00    -0.231 OA
HETATM   49  C12 UNL     1       7.381  -0.766   0.769  1.00  0.00     0.136 A 
HETATM   50  C14 UNL     1       7.744  -0.477  -0.527  1.00  0.00     0.116 A 
HETATM   51  C15 UNL     1       6.787   0.430  -0.979  1.00  0.00     0.270 A 
HETATM   52  O11 UNL     1       6.776   0.924  -2.107  1.00  0.00    -0.266 OA
BRANCH  49  53
HETATM   53  C13 UNL     1       8.069  -1.690   1.723  1.00  0.00     0.315 C 
BRANCH  53  54
HETATM   54  O9  UNL     1       8.130  -1.008   2.946  1.00  0.00    -0.365 OA
ATOM     55  H9  UNL     1       8.567  -1.595   3.552  1.00  0.00     0.213 HD
ENDBRANCH  53  54
BRANCH  53  56
HETATM   56  O10 UNL     1       9.311  -2.072   1.265  1.00  0.00    -0.365 OA
ATOM     57  H10 UNL     1       9.748  -2.659   1.871  1.00  0.00     0.213 HD
ENDBRANCH  53  56
ENDBRANCH  49  53
ENDBRANCH  43  47
ENDBRANCH  40  43
ENDBRANCH  37  40
ENDBRANCH  34  37
ENDBRANCH  33  34
ENDBRANCH  32  33
ENDBRANCH   2  32
TORSDOF 22
