REMARK  20 active torsions:
REMARK  status: ('A' for Active; 'I' for Inactive)
REMARK    1  A    between atoms: S1_2  and  C2_3 
REMARK    2  A    between atoms: C3_6  and  N2_7 
REMARK    3  A    between atoms: N2_7  and  N3_9 
REMARK    4  A    between atoms: N3_9  and  C4_11 
REMARK    5  A    between atoms: N4_12  and  N5_13 
REMARK    6  A    between atoms: C5_16  and  N6_17 
REMARK       I    between atoms: N6_17  and  C6_19 
REMARK    7  A    between atoms: N8_24  and  C9_25 
REMARK    8  A    between atoms: C10_27  and  C11_28 
REMARK    9  A    between atoms: C11_28  and  O3_29 
REMARK   10  A    between atoms: C12_31  and  N9_32 
REMARK   11  A    between atoms: N9_32  and  C13_34 
REMARK   12  A    between atoms: C14_37  and  N11_38 
REMARK   13  A    between atoms: N11_38  and  C15_39 
REMARK   14  A    between atoms: N11_38  and  C17_43 
REMARK   15  A    between atoms: C15_39  and  C16_40 
REMARK   16  A    between atoms: C16_40  and  O4_41 
REMARK   17  A    between atoms: C17_43  and  C18_44 
REMARK   18  A    between atoms: C18_44  and  O5_45 
REMARK   19  A    between atoms: C19_49  and  N13_50 
REMARK   20  A    between atoms: C20_58  and  N16_59 
ROOT
HETATM    1  C4  UNL     1       3.585  -1.534   0.023  1.00  0.00     0.727 A 
HETATM    2  N4  UNL     1       4.444  -2.487  -0.361  1.00  0.00    -0.071 N 
HETATM    3  C5  UNL     1       3.757  -3.570  -0.866  1.00  0.00     0.190 A 
HETATM    4  C8  UNL     1       2.441  -3.236  -0.770  1.00  0.00     0.186 A 
HETATM    5  N7  UNL     1       1.311  -3.976  -1.157  1.00  0.00    -0.078 NA
HETATM    6  N8  UNL     1       2.379  -1.990  -0.222  1.00  0.00    -0.112 N 
ENDROOT
BRANCH   6   7
HETATM    7  C9  UNL     1       1.118  -1.301   0.061  1.00  0.00     0.398 C 
HETATM    8  O2  UNL     1       1.021  -1.164   1.433  1.00  0.00    -0.331 OA
HETATM    9  C10 UNL     1      -0.268  -1.529   1.824  1.00  0.00     0.199 C 
HETATM   10  C12 UNL     1      -1.011  -1.797   0.570  1.00  0.00     0.274 C 
HETATM   11  O6  UNL     1       0.033  -2.091  -0.326  1.00  0.00    -0.315 OA
BRANCH   9  12
HETATM   12  C11 UNL     1      -0.195  -2.701   2.784  1.00  0.00     0.200 C 
BRANCH  12  13
HETATM   13  O3  UNL     1       0.407  -3.825   2.243  1.00  0.00    -0.398 OA
ATOM     14  H3  UNL     1       0.453  -4.559   2.844  1.00  0.00     0.209 HD
ENDBRANCH  12  13
ENDBRANCH   9  12
BRANCH  10  15
HETATM   15  N9  UNL     1      -1.860  -0.773   0.072  1.00  0.00    -0.196 N 
ATOM     16  H9  UNL     1      -1.604  -0.361  -0.825  1.00  0.00     0.180 HD
BRANCH  15  17
HETATM   17  C13 UNL     1      -3.028  -0.265   0.696  1.00  0.00     0.709 A 
HETATM   18  N10 UNL     1      -3.745   0.731   0.090  1.00  0.00    -0.021 N 
HETATM   19  C14 UNL     1      -4.857   1.263   0.596  1.00  0.00     0.709 A 
ATOM     20  H10 UNL     1      -3.407   1.088  -0.804  1.00  0.00     0.203 HD
HETATM   21  N12 UNL     1      -5.272   0.754   1.797  1.00  0.00    -0.022 N 
HETATM   22  C19 UNL     1      -4.586  -0.220   2.406  1.00  0.00     0.705 A 
ATOM     23  H12 UNL     1      -6.117   1.123   2.234  1.00  0.00     0.203 HD
HETATM   24  N14 UNL     1      -3.464  -0.738   1.867  1.00  0.00    -0.022 N 
ATOM     25  H14 UNL     1      -2.955  -1.481   2.347  1.00  0.00     0.203 HD
BRANCH  19  26
HETATM   26  N11 UNL     1      -5.619   2.291  -0.013  1.00  0.00    -0.213 N 
BRANCH  26  27
HETATM   27  C15 UNL     1      -6.677   2.024  -0.970  1.00  0.00     0.167 C 
BRANCH  27  28
HETATM   28  C16 UNL     1      -6.850   0.553  -1.265  1.00  0.00     0.184 C 
BRANCH  28  29
HETATM   29  O4  UNL     1      -7.885   0.417  -2.189  1.00  0.00    -0.399 OA
ATOM     30  H4  UNL     1      -7.994  -0.508  -2.375  1.00  0.00     0.209 HD
ENDBRANCH  28  29
ENDBRANCH  27  28
ENDBRANCH  26  27
BRANCH  26  31
HETATM   31  C17 UNL     1      -5.354   3.655   0.333  1.00  0.00     0.167 C 
BRANCH  31  32
HETATM   32  C18 UNL     1      -4.779   4.481  -0.792  1.00  0.00     0.184 C 
BRANCH  32  33
HETATM   33  O5  UNL     1      -4.570   5.774  -0.327  1.00  0.00    -0.399 OA
ATOM     34  H5  UNL     1      -4.208   6.294  -1.035  1.00  0.00     0.209 HD
ENDBRANCH  32  33
ENDBRANCH  31  32
ENDBRANCH  26  31
ENDBRANCH  19  26
BRANCH  22  35
HETATM   35  N13 UNL     1      -4.992  -0.682   3.535  1.00  0.00    -0.234 N 
ATOM     36 2H13 UNL     1      -5.841  -0.290   3.943  1.00  0.00     0.174 HD
ATOM     37 1H13 UNL     1      -4.469  -1.425   3.999  1.00  0.00     0.174 HD
ENDBRANCH  22  35
ENDBRANCH  15  17
ENDBRANCH  10  15
ENDBRANCH   6   7
BRANCH   1  38
HETATM   38  N3  UNL     1       3.979  -0.390   0.531  1.00  0.00    -0.115 N 
ATOM     39  H3  UNL     1       4.987  -0.263   0.622  1.00  0.00     0.206 HD
BRANCH  38  40
HETATM   40  N2  UNL     1       3.210   0.638   0.947  1.00  0.00    -0.117 N 
ATOM     41  H2  UNL     1       2.344   0.437   1.447  1.00  0.00     0.206 HD
BRANCH  40  42
HETATM   42  C3  UNL     1       3.537   1.867   0.732  1.00  0.00     0.713 A 
HETATM   43  N1  UNL     1       2.794   2.918   1.133  1.00  0.00    -0.168 N 
HETATM   44  C2  UNL     1       3.212   4.171   0.866  1.00  0.00     0.174 A 
ATOM     45  H1  UNL     1       1.920   2.766   1.636  1.00  0.00     0.186 HD
HETATM   46  N17 UNL     1       4.379   4.355   0.194  1.00  0.00    -0.170 N 
HETATM   47  C20 UNL     1       5.124   3.320  -0.210  1.00  0.00     0.692 A 
ATOM     48  H17 UNL     1       4.694   5.304  -0.007  1.00  0.00     0.186 HD
HETATM   49  N15 UNL     1       4.698   2.085   0.062  1.00  0.00    -0.021 N 
ATOM     50  H15 UNL     1       5.257   1.287  -0.240  1.00  0.00     0.203 HD
BRANCH  44  51
HETATM   51  S1  UNL     1       2.302   5.616   1.356  1.00  0.00    -0.097 SA
HETATM   52  C1  UNL     1       3.150   7.121   0.843  1.00  0.00     0.099 C 
ENDBRANCH  44  51
BRANCH  47  53
HETATM   53  N16 UNL     1       6.220   3.517  -0.841  1.00  0.00    -0.234 N 
ATOM     54 2H16 UNL     1       6.788   2.728  -1.149  1.00  0.00     0.174 HD
ATOM     55 1H16 UNL     1       6.546   4.461  -1.049  1.00  0.00     0.174 HD
ENDBRANCH  47  53
ENDBRANCH  40  42
ENDBRANCH  38  40
ENDBRANCH   1  38
BRANCH   2  56
HETATM   56  N5  UNL     1       5.827  -2.418  -0.276  1.00  0.00    -0.322 N 
ATOM     57  H52 UNL     1       6.335  -1.617   0.098  1.00  0.00     0.178 HD
ATOM     58  H51 UNL     1       6.481  -3.144  -0.568  1.00  0.00     0.178 HD
ENDBRANCH   2  56
BRANCH   3  59
HETATM   59  N6  UNL     1       4.399  -4.729  -1.345  1.00  0.00    -0.309 N 
HETATM   60  C6  UNL     1       3.849  -5.862  -1.883  1.00  0.00     0.219 C 
HETATM   61  C7  UNL     1       4.794  -7.002  -2.324  1.00  0.00     0.117 C 
HETATM   62  O1  UNL     1       2.666  -6.148  -2.088  1.00  0.00    -0.274 OA
ATOM     63  H6  UNL     1       5.417  -4.723  -1.282  1.00  0.00     0.170 HD
ENDBRANCH   3  59
TORSDOF 20
