REMARK  1 active torsions:
REMARK  status: ('A' for Active; 'I' for Inactive)
REMARK    1  A    between atoms: C1_2  and  C2_4 
ROOT
HETATM    1  C2  UNL     1      -1.238  -0.337   0.228  1.00  0.00     0.138 A 
HETATM    2  N2  UNL     1      -0.859  -1.639   0.159  1.00  0.00    -0.293 N 
ATOM      3  H2  UNL     1      -1.580  -2.360   0.165  1.00  0.00     0.187 HD
HETATM    4  N3  UNL     1       0.409  -2.009   0.084  1.00  0.00    -0.283 N 
ATOM      5  H3  UNL     1       0.627  -3.004   0.034  1.00  0.00     0.188 HD
HETATM    6  C3  UNL     1       1.420  -1.124   0.071  1.00  0.00     0.152 A 
HETATM    7  N4  UNL     1       2.775  -1.215   0.003  1.00  0.00    -0.281 N 
ATOM      8  H4  UNL     1       3.299  -2.088  -0.057  1.00  0.00     0.188 HD
HETATM    9  N5  UNL     1       3.312  -0.017   0.025  1.00  0.00    -0.264 N 
ATOM     10  H5  UNL     1       4.309   0.195  -0.014  1.00  0.00     0.190 HD
HETATM   11  C4  UNL     1       2.310   0.884   0.108  1.00  0.00     0.276 A 
HETATM   12  O2  UNL     1       2.407   2.126   0.153  1.00  0.00    -0.266 OA
HETATM   13  C5  UNL     1       1.105   0.217   0.139  1.00  0.00     0.106 A 
HETATM   14  C6  UNL     1      -0.219   0.593   0.217  1.00  0.00     0.099 A 
HETATM   15  N6  UNL     1      -0.527   1.982   0.287  1.00  0.00    -0.099 NA
ENDROOT
BRANCH   1  16
HETATM   16  C1  UNL     1      -2.633   0.022   0.309  1.00  0.00     0.284 C 
HETATM   17  N1  UNL     1      -3.620  -0.986   0.316  1.00  0.00    -0.056 NA
HETATM   18  O1  UNL     1      -2.977   1.218   0.373  1.00  0.00    -0.269 OA
ENDBRANCH   1  16
TORSDOF 1
