REMARK  3 active torsions:
REMARK  status: ('A' for Active; 'I' for Inactive)
REMARK    1  A    between atoms: N1_2  and  C2_4 
REMARK    2  A    between atoms: C3_7  and  N3_8 
REMARK    3  A    between atoms: C5_13  and  N5_14 
ROOT
HETATM    1  C2  UNL     1      -1.062   0.120  -0.239  1.00  0.00     0.683 A 
HETATM    2  N2  UNL     1      -0.281   1.139   0.146  1.00  0.00    -0.169 N 
ATOM      3  H2  UNL     1      -0.689   2.071   0.218  1.00  0.00     0.186 HD
HETATM    4  C3  UNL     1       1.020   0.976   0.441  1.00  0.00     0.216 A 
HETATM    5  C4  UNL     1       1.542  -0.296   0.335  1.00  0.00     0.141 A 
HETATM    6  N4  UNL     1       2.903  -0.546   0.630  1.00  0.00    -0.094 NA
HETATM    7  C5  UNL     1       0.759  -1.363  -0.059  1.00  0.00     0.145 A 
HETATM    8  N6  UNL     1      -0.545  -1.114  -0.339  1.00  0.00    -0.171 N 
HETATM    9  C6  UNL     1      -1.402  -2.187  -0.753  1.00  0.00     0.177 C 
ENDROOT
BRANCH   1  10
HETATM   10  N1  UNL     1      -2.301   0.297  -0.516  1.00  0.00    -0.230 N 
HETATM   11  C1  UNL     1      -2.844   1.635  -0.404  1.00  0.00     0.165 C 
ATOM     12  H1  UNL     1      -2.889  -0.484  -0.808  1.00  0.00     0.177 HD
ENDBRANCH   1  10
BRANCH   4  13
HETATM   13  N3  UNL     1       1.840   2.085   0.852  1.00  0.00    -0.095 N 
HETATM   14  O1  UNL     1       1.307   3.207   0.927  1.00  0.00    -0.530 OA
HETATM   15  O2  UNL     1       3.155   1.950   1.156  1.00  0.00    -0.530 OA
ENDBRANCH   4  13
BRANCH   7  16
HETATM   16  N5  UNL     1       1.226  -2.573  -0.167  1.00  0.00    -0.383 N 
ATOM     17  H52 UNL     1       2.206  -2.760   0.044  1.00  0.00     0.157 HD
ATOM     18  H51 UNL     1       0.648  -3.361  -0.458  1.00  0.00     0.157 HD
ENDBRANCH   7  16
TORSDOF 3
