REMARK  3 active torsions:
REMARK  status: ('A' for Active; 'I' for Inactive)
REMARK    1  A    between atoms: N1_1  and  C1_4 
REMARK    2  A    between atoms: C3_9  and  S1_10 
REMARK    3  A    between atoms: S1_10  and  N4_11 
ROOT
HETATM    1  C1  UNL     1      -2.058  -1.125   0.494  1.00  0.00     0.144 A 
HETATM    2  N2  UNL     1      -1.859  -0.026  -0.226  1.00  0.00    -0.324 N 
ATOM      3  H2  UNL     1      -2.621   0.388  -0.763  1.00  0.00     0.169 HD
HETATM    4  C2  UNL     1      -0.675   0.511  -0.233  1.00  0.00     0.148 A 
HETATM    5  N3  UNL     1      -0.357   1.720  -0.993  1.00  0.00    -0.080 NA
HETATM    6  C3  UNL     1       0.310  -0.089   0.507  1.00  0.00     0.164 A 
HETATM    7  S2  UNL     1      -0.527  -1.414   1.186  1.00  0.00    -0.037 SA
ENDROOT
BRANCH   6   8
HETATM    8  S1  UNL     1       1.992   0.404   0.691  1.00  0.00     0.266 S 
HETATM    9  O1  UNL     1       2.539  -0.038   2.010  1.00  0.00    -0.200 OA
HETATM   10  O2  UNL     1       2.061   1.883   0.493  1.00  0.00    -0.200 OA
BRANCH   8  11
HETATM   11  N4  UNL     1       2.883  -0.386  -0.558  1.00  0.00    -0.324 N 
ATOM     12  H42 UNL     1       2.496  -1.015  -1.261  1.00  0.00     0.169 HD
ATOM     13  H41 UNL     1       3.856  -0.101  -0.452  1.00  0.00     0.169 HD
ENDBRANCH   8  11
ENDBRANCH   6   8
BRANCH   1  14
HETATM   14  N1  UNL     1      -3.169  -1.816   0.634  1.00  0.00    -0.380 N 
ATOM     15  H12 UNL     1      -4.085  -1.643   0.220  1.00  0.00     0.158 HD
ATOM     16  H11 UNL     1      -3.322  -2.660   1.187  1.00  0.00     0.158 HD
ENDBRANCH   1  14
TORSDOF 3
