REMARK  3 active torsions:
REMARK  status: ('A' for Active; 'I' for Inactive)
REMARK    1  A    between atoms: C5_11  and  N4_12 
REMARK    2  A    between atoms: C6_15  and  C7_16 
REMARK       I    between atoms: C7_16  and  N5_18 
REMARK    3  A    between atoms: N5_18  and  N6_20 
ROOT
HETATM    1  C1  UNL     1      -1.110  -1.969  -0.563  1.00  0.00     0.069 C 
HETATM    2  C2  UNL     1       0.036  -1.008  -0.382  1.00  0.00     0.029 A 
HETATM    3  N1  UNL     1       1.283  -1.513  -0.648  1.00  0.00    -0.324 N 
ATOM      4  H1  UNL     1       1.407  -2.470  -0.980  1.00  0.00     0.169 HD
HETATM    5  C3  UNL     1       2.319  -0.713  -0.458  1.00  0.00     0.239 A 
HETATM    6  N2  UNL     1       3.520  -1.144  -0.696  1.00  0.00    -0.258 N 
ATOM      7  H2  UNL     1       3.637  -2.101  -1.028  1.00  0.00     0.181 HD
HETATM    8  C4  UNL     1       4.653  -0.359  -0.518  1.00  0.00     0.185 C 
HETATM    9  N3  UNL     1       5.600   0.307  -0.359  1.00  0.00    -0.172 NA
HETATM   10  O1  UNL     1       2.183   0.517  -0.033  1.00  0.00    -0.261 OA
HETATM   11  C5  UNL     1       1.028   1.028   0.227  1.00  0.00     0.163 A 
HETATM   12  C6  UNL     1      -0.133   0.274   0.060  1.00  0.00     0.106 A 
ENDROOT
BRANCH  11  13
HETATM   13  N4  UNL     1       0.971   2.253   0.644  1.00  0.00    -0.379 N 
ATOM     14  H42 UNL     1       1.820   2.805   0.766  1.00  0.00     0.158 HD
ATOM     15  H41 UNL     1       0.057   2.657   0.850  1.00  0.00     0.158 HD
ENDBRANCH  11  13
BRANCH  12  16
HETATM   16  C7  UNL     1      -1.399   0.914   0.307  1.00  0.00     0.275 C 
HETATM   17  O2  UNL     1      -1.322   1.920   1.124  1.00  0.00    -0.266 OA
HETATM   18  N5  UNL     1      -2.674   0.628  -0.193  1.00  0.00    -0.272 N 
ATOM     19  H5  UNL     1      -2.804  -0.143  -0.848  1.00  0.00     0.189 HD
BRANCH  18  20
HETATM   20  N6  UNL     1      -3.786   1.410   0.211  1.00  0.00    -0.342 N 
ATOM     21  H62 UNL     1      -3.639   2.177   0.867  1.00  0.00     0.176 HD
ATOM     22  H61 UNL     1      -4.716   1.201  -0.154  1.00  0.00     0.176 HD
ENDBRANCH  18  20
ENDBRANCH  12  16
TORSDOF 3
