REMARK  1 active torsions:
REMARK  status: ('A' for Active; 'I' for Inactive)
REMARK       I    between atoms: N1_4  and  C4_5 
REMARK       I    between atoms: C4_5  and  N2_7 
REMARK    1  A    between atoms: N3_24  and  C20_25 
ROOT
HETATM    1  C1  UNL     1       5.054   3.382   0.107  1.00  0.00     0.070 C 
HETATM    2  C2  UNL     1       4.629   1.956   0.213  1.00  0.00     0.023 A 
HETATM    3  C3  UNL     1       3.443   1.559  -0.207  1.00  0.00     0.125 A 
HETATM    4  N1  UNL     1       2.991   0.188  -0.124  1.00  0.00    -0.282 N 
HETATM    5  C4  UNL     1       1.712  -0.111  -0.554  1.00  0.00     0.334 C 
HETATM    6  O1  UNL     1       0.989   0.915  -0.892  1.00  0.00    -0.246 OA
HETATM    7  N2  UNL     1       1.065  -1.328  -0.687  1.00  0.00    -0.276 N 
HETATM    8  C5  UNL     1       1.287  -2.712  -0.695  1.00  0.00     0.050 A 
HETATM    9  C6  UNL     1       2.106  -3.849  -0.649  1.00  0.00     0.030 A 
HETATM   10  C7  UNL     1       1.628  -5.135  -0.708  1.00  0.00     0.002 A 
HETATM   11  C8  UNL     1       0.275  -5.359  -0.819  1.00  0.00     0.001 A 
HETATM   12  C9  UNL     1      -0.543  -4.259  -0.866  1.00  0.00     0.012 A 
HETATM   13  C10 UNL     1      -0.042  -2.955  -0.806  1.00  0.00     0.006 A 
HETATM   14  C11 UNL     1      -0.410  -1.550  -0.844  1.00  0.00     0.146 A 
HETATM   15  C12 UNL     1      -1.182  -1.081   0.318  1.00  0.00     0.117 A 
HETATM   16  O2  UNL     1      -1.045  -1.499   1.557  1.00  0.00    -0.309 OA
HETATM   17  C13 UNL     1      -1.872  -0.887   2.330  1.00  0.00     0.088 A 
HETATM   18  C14 UNL     1      -2.057  -1.028   3.695  1.00  0.00     0.038 A 
HETATM   19  C15 UNL     1      -3.015  -0.255   4.313  1.00  0.00     0.003 A 
HETATM   20  C16 UNL     1      -3.758   0.630   3.556  1.00  0.00     0.001 A 
HETATM   21  C17 UNL     1      -3.580   0.777   2.189  1.00  0.00     0.017 A 
HETATM   22  C18 UNL     1      -2.629   0.010   1.580  1.00  0.00     0.028 A 
HETATM   23  C19 UNL     1      -2.177  -0.123   0.290  1.00  0.00     0.087 A 
HETATM   24  N3  UNL     1      -2.534   0.499  -0.924  1.00  0.00    -0.297 N 
HETATM   25  C26 UNL     1      -1.808   0.077  -2.102  1.00  0.00     0.103 C 
HETATM   26  N4  UNL     1      -1.993   0.788  -3.163  1.00  0.00    -0.387 N 
ATOM     27  H41 UNL     1      -1.481   0.490  -3.994  1.00  0.00     0.157 HD
ATOM     28  H42 UNL     1      -2.621   1.591  -3.134  1.00  0.00     0.157 HD
HETATM   29  C27 UNL     1      -0.908  -1.074  -2.143  1.00  0.00     0.200 C 
HETATM   30  C28 UNL     1      -1.545  -2.141  -2.930  1.00  0.00     0.075 C 
HETATM   31  N5  UNL     1      -2.054  -2.978  -3.573  1.00  0.00    -0.196 NA
HETATM   32  C29 UNL     1       3.899  -0.719   0.441  1.00  0.00     0.118 A 
HETATM   33  C30 UNL     1       5.109  -0.303   0.867  1.00  0.00     0.108 A 
HETATM   34  N6  UNL     1       5.532   1.035   0.777  1.00  0.00    -0.362 N 
HETATM   35  C31 UNL     1       6.840   1.411   1.252  1.00  0.00     0.155 C 
ENDROOT
BRANCH  24  36
HETATM   36  C20 UNL     1      -3.542   1.490  -1.026  1.00  0.00     0.041 A 
HETATM   37  C21 UNL     1      -4.867   1.224  -1.294  1.00  0.00     0.030 A 
HETATM   38  C22 UNL     1      -5.767   2.259  -1.407  1.00  0.00     0.002 A 
HETATM   39  C23 UNL     1      -5.361   3.567  -1.255  1.00  0.00     0.000 A 
HETATM   40  C24 UNL     1      -4.043   3.865  -0.987  1.00  0.00     0.002 A 
HETATM   41  C25 UNL     1      -3.171   2.811  -0.880  1.00  0.00     0.030 A 
ENDBRANCH  24  36
TORSDOF 1
