REMARK  1 active torsions:
REMARK  status: ('A' for Active; 'I' for Inactive)
REMARK       I    between atoms: N3_28  and  C24_29 
REMARK    1  A    between atoms: C24_29  and  C25_31 
ROOT
HETATM    1  C1  UNL     1       0.832  -3.535  -1.789  1.00  0.00     0.039 C 
HETATM    2  C2  UNL     1       0.445  -2.435  -0.840  1.00  0.00     0.047 C 
HETATM    3  C3  UNL     1       0.817  -2.861   0.581  1.00  0.00     0.039 C 
HETATM    4  C4  UNL     1       0.545  -4.343   0.736  1.00  0.00     0.080 C 
HETATM    5  C5  UNL     1      -0.792  -4.543   0.125  1.00  0.00     0.127 C 
HETATM    6  O1  UNL     1      -1.146  -5.634  -0.199  1.00  0.00    -0.298 OA
HETATM    7  C6  UNL     1      -1.713  -3.378  -0.093  1.00  0.00     0.090 C 
HETATM    8  C7  UNL     1      -1.048  -2.298  -0.924  1.00  0.00     0.056 C 
HETATM    9  C8  UNL     1      -1.689  -1.036  -0.634  1.00  0.00    -0.022 A 
HETATM   10  C9  UNL     1      -2.881  -1.190   0.041  1.00  0.00     0.040 A 
HETATM   11  C10 UNL     1      -3.681  -0.111   0.446  1.00  0.00     0.044 A 
HETATM   12  N1  UNL     1      -4.847  -0.057   1.099  1.00  0.00    -0.355 N 
ATOM     13  H1  UNL     1      -5.379  -0.862   1.431  1.00  0.00     0.166 HD
HETATM   14  C11 UNL     1      -5.204   1.230   1.247  1.00  0.00     0.043 A 
HETATM   15  C12 UNL     1      -6.280   1.873   1.826  1.00  0.00     0.030 A 
HETATM   16  C13 UNL     1      -6.402   3.257   1.838  1.00  0.00     0.002 A 
HETATM   17  C14 UNL     1      -5.407   4.000   1.248  1.00  0.00     0.001 A 
HETATM   18  C15 UNL     1      -4.324   3.400   0.664  1.00  0.00     0.014 A 
HETATM   19  C16 UNL     1      -4.212   2.025   0.657  1.00  0.00     0.003 A 
HETATM   20  C17 UNL     1      -3.241   1.160   0.146  1.00  0.00     0.005 A 
HETATM   21  C18 UNL     1      -2.063   1.388  -0.526  1.00  0.00     0.045 A 
HETATM   22  C19 UNL     1      -1.340   0.288  -0.887  1.00  0.00     0.048 A 
HETATM   23  N2  UNL     1      -0.190   0.652  -1.631  1.00  0.00    -0.308 N 
HETATM   24  C20 UNL     1      -0.112   1.774  -2.376  1.00  0.00     0.099 A 
HETATM   25  C21 UNL     1       1.131   1.785  -3.008  1.00  0.00     0.021 A 
HETATM   26  C22 UNL     1       1.816   0.653  -2.641  1.00  0.00     0.051 A 
HETATM   27  C23 UNL     1       0.950  -0.033  -1.773  1.00  0.00     0.117 A 
HETATM   28  N3  UNL     1       1.254  -1.299  -1.175  1.00  0.00    -0.287 N 
HETATM   29  C24 UNL     1       2.627  -1.397  -0.814  1.00  0.00     0.278 C 
HETATM   30  O2  UNL     1       3.123  -2.573  -0.986  1.00  0.00    -0.265 OA
ENDROOT
BRANCH  29  31
HETATM   31  C25 UNL     1       3.489  -0.382  -0.292  1.00  0.00     0.117 A 
HETATM   32  C26 UNL     1       4.831  -0.713  -0.041  1.00  0.00     0.123 A 
HETATM   33  N4  UNL     1       5.707   0.185   0.448  1.00  0.00    -0.362 N 
HETATM   34  C27 UNL     1       5.361   1.448   0.728  1.00  0.00     0.059 A 
ATOM     35  H4  UNL     1       6.670  -0.108   0.611  1.00  0.00     0.165 HD
HETATM   36  C28 UNL     1       6.236   2.380   1.228  1.00  0.00     0.032 A 
HETATM   37  C32 UNL     1       4.049   1.797   0.491  1.00  0.00     0.059 A 
HETATM   38  C29 UNL     1       5.873   3.682   1.515  1.00  0.00     0.002 A 
HETATM   39  C30 UNL     1       4.559   4.027   1.276  1.00  0.00     0.002 A 
HETATM   40  C31 UNL     1       3.667   3.096   0.772  1.00  0.00     0.032 A 
HETATM   41  N5  UNL     1       3.199   0.888   0.004  1.00  0.00    -0.349 N 
ATOM     42  H5  UNL     1       2.239   1.192  -0.157  1.00  0.00     0.166 HD
ENDBRANCH  29  31
TORSDOF 1
