REMARK  1 active torsions:
REMARK  status: ('A' for Active; 'I' for Inactive)
REMARK    1  A    between atoms: O1_2  and  C2_3 
ROOT
HETATM    1  C2  UNL     1       4.604  -0.912   0.691  1.00  0.00     0.102 A 
HETATM    2  C3  UNL     1       4.356  -2.267   0.658  1.00  0.00     0.040 A 
HETATM    3  C4  UNL     1       3.555  -2.689  -0.354  1.00  0.00     0.014 A 
HETATM    4  C5  UNL     1       2.979  -1.844  -1.352  1.00  0.00    -0.033 A 
HETATM    5  C6  UNL     1       3.260  -0.500  -1.282  1.00  0.00     0.051 A 
HETATM    6  C7  UNL     1       4.060  -0.055  -0.260  1.00  0.00     0.110 A 
HETATM    7  O2  UNL     1       4.454   1.293   0.033  1.00  0.00    -0.308 OA
HETATM    8  C8  UNL     1       3.407   2.321   0.131  1.00  0.00     0.076 A 
HETATM    9  C9  UNL     1       3.030   3.029  -0.972  1.00  0.00     0.040 A 
HETATM   10  C10 UNL     1       1.953   3.976  -0.858  1.00  0.00     0.040 A 
HETATM   11  C11 UNL     1       1.364   4.114   0.342  1.00  0.00     0.076 A 
HETATM   12  C12 UNL     1       1.726   3.457   1.439  1.00  0.00     0.040 A 
HETATM   13  C13 UNL     1       2.814   2.502   1.325  1.00  0.00     0.040 A 
HETATM   14  O3  UNL     1       0.178   5.035   0.394  1.00  0.00    -0.311 OA
HETATM   15  C14 UNL     1      -0.961   4.080  -0.005  1.00  0.00     0.076 A 
HETATM   16  C15 UNL     1      -1.683   3.463   0.940  1.00  0.00     0.038 A 
HETATM   17  C16 UNL     1      -2.662   2.515   0.476  1.00  0.00     0.015 A 
HETATM   18  C17 UNL     1      -2.869   2.236  -0.857  1.00  0.00    -0.020 A 
HETATM   19  C18 UNL     1      -2.139   2.903  -1.805  1.00  0.00     0.015 A 
HETATM   20  C19 UNL     1      -1.165   3.846  -1.314  1.00  0.00     0.038 A 
HETATM   21  C20 UNL     1      -3.636   1.030  -1.282  1.00  0.00     0.108 C 
HETATM   22  N1  UNL     1      -4.018  -0.051  -0.416  1.00  0.00    -0.329 N 
HETATM   23  C21 UNL     1      -5.358  -0.068  -0.163  1.00  0.00     0.097 A 
HETATM   24  C22 UNL     1      -6.014  -0.997   0.592  1.00  0.00     0.019 A 
HETATM   25  C23 UNL     1      -5.285  -2.002   1.150  1.00  0.00     0.017 A 
HETATM   26  C24 UNL     1      -3.906  -2.011   0.910  1.00  0.00     0.019 A 
HETATM   27  C25 UNL     1      -3.282  -3.064   1.558  1.00  0.00     0.074 A 
HETATM   28  N2  UNL     1      -3.953  -4.035   2.341  1.00  0.00    -0.100 NA
HETATM   29  C26 UNL     1      -1.921  -3.152   1.418  1.00  0.00     0.115 A 
HETATM   30  N3  UNL     1      -1.307  -2.254   0.694  1.00  0.00    -0.362 N 
ATOM     31  H3  UNL     1      -0.295  -2.357   0.615  1.00  0.00     0.165 HD
HETATM   32  C27 UNL     1      -1.866  -1.177   0.019  1.00  0.00     0.060 A 
HETATM   33  C28 UNL     1      -3.250  -1.041   0.127  1.00  0.00     0.077 A 
HETATM   34  C29 UNL     1      -0.859  -0.400  -0.624  1.00  0.00     0.032 C 
HETATM   35  C30 UNL     1      -0.095  -0.381  -1.690  1.00  0.00     0.002 C 
HETATM   36  C31 UNL     1       0.094  -1.258  -2.812  1.00  0.00     0.000 C 
HETATM   37  C32 UNL     1       1.019  -2.199  -3.027  1.00  0.00     0.001 C 
HETATM   38  C33 UNL     1       2.135  -2.665  -2.236  1.00  0.00     0.011 C 
ENDROOT
BRANCH   1  39
HETATM   39  O1  UNL     1       5.436  -0.486   1.742  1.00  0.00    -0.353 OA
HETATM   40  C1  UNL     1       5.956  -1.378   2.662  1.00  0.00     0.210 C 
ENDBRANCH   1  39
TORSDOF 1
