REMARK  0 active torsions:
REMARK  status: ('A' for Active; 'I' for Inactive)
ROOT
HETATM    1  O1  UNL     1      -3.192  -1.582   0.059  1.00  0.00    -0.247 OA
HETATM    2  C1  UNL     1      -2.178  -0.833   0.039  1.00  0.00     0.327 A 
HETATM    3  N1  UNL     1      -2.392   0.506   0.034  1.00  0.00    -0.274 N 
ATOM      4  H1  UNL     1      -3.336   0.891   0.046  1.00  0.00     0.173 HD
HETATM    5  C2  UNL     1      -1.315   1.304   0.013  1.00  0.00     0.278 A 
HETATM    6  O2  UNL     1      -1.491   2.549   0.008  1.00  0.00    -0.265 OA
HETATM    7  C3  UNL     1      -0.019   0.830  -0.005  1.00  0.00     0.134 A 
HETATM    8  N2  UNL     1       1.062   1.631  -0.026  1.00  0.00    -0.346 N 
ATOM      9  H2  UNL     1       0.915   2.640  -0.029  1.00  0.00     0.167 HD
HETATM   10  C4  UNL     1       2.323   1.172  -0.043  1.00  0.00     0.184 A 
HETATM   11  N3  UNL     1       2.491  -0.162  -0.038  1.00  0.00    -0.318 N 
ATOM     12  H3  UNL     1       3.438  -0.541  -0.051  1.00  0.00     0.169 HD
HETATM   13  C5  UNL     1       1.448  -1.012  -0.016  1.00  0.00     0.275 A 
HETATM   14  O3  UNL     1       1.586  -2.268  -0.011  1.00  0.00    -0.266 OA
HETATM   15  C6  UNL     1       0.143  -0.537   0.001  1.00  0.00     0.137 A 
HETATM   16  N4  UNL     1      -0.929  -1.333   0.023  1.00  0.00    -0.302 N 
ATOM     17  H4  UNL     1      -0.798  -2.345   0.028  1.00  0.00     0.171 HD
ENDROOT
TORSDOF 0
