REMARK  2 active torsions:
REMARK  status: ('A' for Active; 'I' for Inactive)
REMARK    1  A    between atoms: N1_1  and  C1_4 
REMARK    2  A    between atoms: N3_10  and  O1_11 
ROOT
HETATM    1  C1  UNL     1       2.138   0.221   0.288  1.00  0.00     0.704 A 
HETATM    2  N2  UNL     1       1.144   1.084   0.546  1.00  0.00    -0.164 N 
ATOM      3  H2  UNL     1       1.335   2.006   0.938  1.00  0.00     0.186 HD
HETATM    4  C2  UNL     1      -0.112   0.692   0.271  1.00  0.00     0.213 A 
HETATM    5  C3  UNL     1      -0.364  -0.561  -0.261  1.00  0.00     0.109 A 
HETATM    6  C4  UNL     1       0.674  -1.434  -0.520  1.00  0.00     0.176 A 
HETATM    7  N3  UNL     1       1.919  -1.013  -0.234  1.00  0.00    -0.062 N 
HETATM    8  N4  UNL     1      -1.697  -0.977  -0.554  1.00  0.00    -0.302 N 
ATOM      9  H4  UNL     1      -1.890  -1.898  -0.947  1.00  0.00     0.171 HD
HETATM   10  C5  UNL     1      -2.754  -0.050  -0.275  1.00  0.00     0.345 A 
HETATM   11  O2  UNL     1      -3.922  -0.378  -0.516  1.00  0.00    -0.245 OA
HETATM   12  N5  UNL     1      -2.467   1.232   0.272  1.00  0.00    -0.208 N 
ATOM     13  H5  UNL     1      -3.224   1.887   0.468  1.00  0.00     0.200 HD
HETATM   14  O3  UNL     1      -1.168   1.583   0.535  1.00  0.00    -0.213 OA
ENDROOT
BRANCH   1  15
HETATM   15  N1  UNL     1       3.388   0.499   0.516  1.00  0.00    -0.232 N 
ATOM     16  H12 UNL     1       3.553   1.426   0.908  1.00  0.00     0.174 HD
ATOM     17  H11 UNL     1       4.144  -0.157   0.320  1.00  0.00     0.174 HD
ENDBRANCH   1  15
BRANCH   7  18
HETATM   18  O1  UNL     1       2.974  -1.885  -0.490  1.00  0.00    -0.270 OA
ATOM     19  H1  UNL     1       2.821  -2.748  -0.855  1.00  0.00     0.245 HD
ENDBRANCH   7  18
TORSDOF 2
