REMARK  1 active torsions:
REMARK  status: ('A' for Active; 'I' for Inactive)
REMARK    1  A    between atoms: N1_1  and  C1_4 
ROOT
HETATM    1  C1  UNL     1      -2.026  -0.260  -0.011  1.00  0.00     0.680 A 
HETATM    2  N2  UNL     1      -1.847   1.070   0.084  1.00  0.00    -0.155 N 
ATOM      3  H2  UNL     1      -2.665   1.677   0.131  1.00  0.00     0.187 HD
HETATM    4  C2  UNL     1      -0.620   1.623   0.119  1.00  0.00     0.279 A 
HETATM    5  O1  UNL     1      -0.457   2.867   0.208  1.00  0.00    -0.266 OA
HETATM    6  C3  UNL     1       0.516   0.827   0.058  1.00  0.00     0.145 A 
HETATM    7  C4  UNL     1       1.789   1.355   0.091  1.00  0.00     0.265 A 
HETATM    8  O2  UNL     1       1.958   2.598   0.180  1.00  0.00    -0.267 OA
HETATM    9  N3  UNL     1       2.825   0.485   0.025  1.00  0.00    -0.319 N 
ATOM     10  H3  UNL     1       3.776   0.852   0.048  1.00  0.00     0.169 HD
HETATM   11  C5  UNL     1       2.648  -0.842  -0.070  1.00  0.00     0.184 A 
HETATM   12  N4  UNL     1       1.391  -1.320  -0.100  1.00  0.00    -0.337 N 
ATOM     13  H4  UNL     1       1.259  -2.329  -0.172  1.00  0.00     0.168 HD
HETATM   14  C6  UNL     1       0.290  -0.531  -0.039  1.00  0.00     0.143 A 
HETATM   15  N5  UNL     1      -0.950  -1.052  -0.072  1.00  0.00    -0.176 N 
ATOM     16  H5  UNL     1      -1.071  -2.062  -0.144  1.00  0.00     0.186 HD
ENDROOT
BRANCH   1  17
HETATM   17  N1  UNL     1      -3.235  -0.771  -0.044  1.00  0.00    -0.234 N 
ATOM     18  H12 UNL     1      -4.056  -0.167   0.003  1.00  0.00     0.174 HD
ATOM     19  H11 UNL     1      -3.371  -1.779  -0.116  1.00  0.00     0.174 HD
ENDBRANCH   1  17
TORSDOF 1
