REMARK  1 active torsions:
REMARK  status: ('A' for Active; 'I' for Inactive)
REMARK       I    between atoms: C3_3  and  N1_5 
REMARK       I    between atoms: N1_5  and  C4_7 
REMARK       I    between atoms: C4_7  and  N3_11 
REMARK       I    between atoms: C5_13  and  N5_15 
REMARK    1  A    between atoms: N5_15  and  N6_17 
ROOT
HETATM    1  C1  UNL     1       4.380  -0.411   1.879  1.00  0.00     0.022 C 
HETATM    2  C2  UNL     1       3.292  -0.410   1.357  1.00  0.00    -0.016 C 
HETATM    3  C3  UNL     1       1.999  -0.420   0.759  1.00  0.00     0.313 C 
HETATM    4  O1  UNL     1       1.808   0.163  -0.331  1.00  0.00    -0.257 OA
HETATM    5  N1  UNL     1       0.913  -1.081   1.376  1.00  0.00    -0.149 N 
ATOM      6  H1  UNL     1       1.077  -1.555   2.264  1.00  0.00     0.188 HD
HETATM    7  C4  UNL     1      -0.392  -1.120   0.824  1.00  0.00     0.681 C 
HETATM    8  N2  UNL     1      -1.320  -1.745   1.454  1.00  0.00    -0.234 N 
ATOM      9  H21 UNL     1      -2.259  -1.773   1.057  1.00  0.00     0.174 HD
ATOM     10  H22 UNL     1      -1.166  -2.221   2.343  1.00  0.00     0.174 HD
HETATM   11  N3  UNL     1      -0.606  -0.459  -0.412  1.00  0.00    -0.162 N 
ATOM     12  H3  UNL     1      -0.017  -0.671  -1.217  1.00  0.00     0.187 HD
HETATM   13  C5  UNL     1      -1.542   0.403  -0.508  1.00  0.00     0.222 C 
HETATM   14  N4  UNL     1      -2.351   0.683   0.620  1.00  0.00    -0.061 NA
HETATM   15  N5  UNL     1      -1.803   1.096  -1.718  1.00  0.00    -0.259 N 
ATOM     16  H5  UNL     1      -2.767   1.345  -1.939  1.00  0.00     0.191 HD
ENDROOT
BRANCH  15  17
HETATM   17  N6  UNL     1      -0.799   1.451  -2.618  1.00  0.00    -0.247 N 
HETATM   18  N7  UNL     1      -0.830   1.174  -3.851  1.00  0.00    -0.331 N 
ATOM     19  H72 UNL     1      -1.643   0.661  -4.191  1.00  0.00     0.178 HD
ATOM     20  H71 UNL     1      -0.096   1.434  -4.509  1.00  0.00     0.178 HD
ATOM     21  H6  UNL     1       0.007   1.964  -2.261  1.00  0.00     0.207 HD
ENDBRANCH  15  17
TORSDOF 1
