REMARK  2 active torsions:
REMARK  status: ('A' for Active; 'I' for Inactive)
REMARK    1  A    between atoms: N3_4  and  S1_6 
REMARK    2  A    between atoms: S1_6  and  N4_9 
ROOT
HETATM    1  S1  UNL     1      -0.066  -0.609   0.403  1.00  0.00     0.327 S 
HETATM    2  O1  UNL     1       0.521  -1.149   1.686  1.00  0.00    -0.182 OA
HETATM    3  O2  UNL     1      -0.764  -1.690  -0.366  1.00  0.00    -0.182 OA
ENDROOT
BRANCH   1   4
HETATM    4  N3  UNL     1      -1.185   0.615   0.830  1.00  0.00    -0.243 N 
HETATM    5  C1  UNL     1      -2.434   0.573   0.532  1.00  0.00     0.211 C 
HETATM    6  N1  UNL     1      -3.300   1.629   0.922  1.00  0.00    -0.066 NA
HETATM    7  N2  UNL     1      -2.957  -0.539  -0.193  1.00  0.00    -0.066 NA
ATOM      8  H3  UNL     1      -0.841   1.422   1.350  1.00  0.00     0.182 HD
ENDBRANCH   1   4
BRANCH   1   9
HETATM    9  N4  UNL     1       1.209  -0.005  -0.584  1.00  0.00    -0.243 N 
HETATM   10  C2  UNL     1       2.453  -0.100  -0.276  1.00  0.00     0.211 C 
HETATM   11  N5  UNL     1       3.401   0.442  -1.182  1.00  0.00    -0.066 NA
HETATM   12  N6  UNL     1       2.941  -0.709   0.905  1.00  0.00    -0.066 NA
ATOM     13  H4  UNL     1       0.963   0.453  -1.461  1.00  0.00     0.182 HD
ENDBRANCH   1   9
TORSDOF 2
