REMARK  1 active torsions:
REMARK  status: ('A' for Active; 'I' for Inactive)
REMARK       I    between atoms: N2_4  and  C1_6 
REMARK       I    between atoms: C1_6  and  N3_8 
REMARK    1  A    between atoms: N3_8  and  C2_10 
ROOT
HETATM    1  C2  UNL     1       0.086  -0.500   0.097  1.00  0.00     0.704 A 
HETATM    2  N4  UNL     1      -0.779  -0.977   1.014  1.00  0.00    -0.129 N 
ATOM      3  H4  UNL     1      -0.439  -1.655   1.696  1.00  0.00     0.205 HD
HETATM    4  N5  UNL     1      -2.042  -0.609   1.071  1.00  0.00    -0.247 N 
ATOM      5  H5  UNL     1      -2.666  -0.994   1.781  1.00  0.00     0.191 HD
HETATM    6  C3  UNL     1      -2.495   0.293   0.165  1.00  0.00     0.329 A 
HETATM    7  O2  UNL     1      -3.705   0.670   0.190  1.00  0.00    -0.261 OA
HETATM    8  C4  UNL     1      -1.643   0.807  -0.792  1.00  0.00     0.329 A 
HETATM    9  O3  UNL     1      -2.056   1.656  -1.650  1.00  0.00    -0.261 OA
HETATM   10  N6  UNL     1      -0.359   0.380  -0.786  1.00  0.00    -0.150 N 
ATOM     11  H6  UNL     1       0.287   0.748  -1.484  1.00  0.00     0.188 HD
ENDROOT
BRANCH   1  12
HETATM   12  N3  UNL     1       1.278  -0.902   0.109  1.00  0.00    -0.139 N 
HETATM   13  C1  UNL     1       2.338  -0.562  -0.721  1.00  0.00     0.352 C 
HETATM   14  N2  UNL     1       3.099   0.619  -0.688  1.00  0.00    -0.258 N 
HETATM   15  O1  UNL     1       2.667  -1.408  -1.616  1.00  0.00    -0.245 OA
HETATM   16  N1  UNL     1       3.377   1.295   0.320  1.00  0.00    -0.341 N 
ATOM     17  H2  UNL     1       3.460   0.957  -1.580  1.00  0.00     0.191 HD
ATOM     18  H12 UNL     1       3.007   0.942   1.203  1.00  0.00     0.177 HD
ATOM     19  H11 UNL     1       3.929   2.152   0.344  1.00  0.00     0.177 HD
ATOM     20  H3  UNL     1       1.499  -1.580   0.838  1.00  0.00     0.189 HD
ENDBRANCH   1  12
TORSDOF 1
