REMARK  8 active torsions:
REMARK  status: ('A' for Active; 'I' for Inactive)
REMARK    1  A    between atoms: S1_2  and  O3_5 
REMARK    2  A    between atoms: O3_5  and  C2_6 
REMARK    3  A    between atoms: C3_7  and  O4_8 
REMARK    4  A    between atoms: C5_12  and  O6_13 
REMARK    5  A    between atoms: O6_13  and  N1_14 
REMARK    6  A    between atoms: N1_14  and  N2_16 
REMARK    7  A    between atoms: N2_16  and  N3_17 
REMARK    8  A    between atoms: N2_16  and  O7_20 
ROOT
HETATM    1  C2  UNL     1       0.824  -0.148   1.003  1.00  0.00     0.230 C 
HETATM    2  C3  UNL     1       0.900   0.227   2.486  1.00  0.00     0.289 C 
HETATM    3  O5  UNL     1      -0.218  -0.279   3.087  1.00  0.00    -0.356 OA
HETATM    4  C4  UNL     1      -1.162  -0.575   2.143  1.00  0.00     0.208 C 
HETATM    5  C5  UNL     1      -0.689  -0.018   0.817  1.00  0.00     0.213 C 
ENDROOT
BRANCH   5   6
HETATM    6  O6  UNL     1      -1.156  -0.746  -0.278  1.00  0.00    -0.251 OA
BRANCH   6   7
HETATM    7  N1  UNL     1      -1.864  -0.095  -1.257  1.00  0.00    -0.165 N 
ATOM      8  H1  UNL     1      -1.378   0.548  -1.883  1.00  0.00     0.220 HD
BRANCH   7   9
HETATM    9  N2  UNL     1      -3.130  -0.281  -1.400  1.00  0.00    -0.081 N 
BRANCH   9  10
HETATM   10  N3  UNL     1      -3.861   0.367  -2.382  1.00  0.00    -0.302 N 
ATOM     11  H32 UNL     1      -3.373   1.008  -3.007  1.00  0.00     0.181 HD
ATOM     12  H31 UNL     1      -4.864   0.220  -2.495  1.00  0.00     0.181 HD
ENDBRANCH   9  10
BRANCH   9  13
HETATM   13  O7  UNL     1      -3.789  -1.147  -0.556  1.00  0.00    -0.252 OA
ATOM     14  H7  UNL     1      -4.723  -1.284  -0.662  1.00  0.00     0.248 HD
ENDBRANCH   9  13
ENDBRANCH   7   9
ENDBRANCH   6   7
ENDBRANCH   5   6
BRANCH   1  15
HETATM   15  O3  UNL     1       1.527   0.728   0.219  1.00  0.00    -0.263 OA
BRANCH  15  16
HETATM   16  S1  UNL     1       2.636  -0.160  -0.678  1.00  0.00     0.262 S 
HETATM   17  C1  UNL     1       2.760   0.500  -2.340  1.00  0.00     0.194 C 
HETATM   18  O1  UNL     1       3.958  -0.138   0.014  1.00  0.00    -0.199 OA
HETATM   19  O2  UNL     1       2.196  -1.589  -0.823  1.00  0.00    -0.199 OA
ENDBRANCH  15  16
ENDBRANCH   1  15
BRANCH   2  20
HETATM   20  O4  UNL     1       0.836   1.636   2.543  1.00  0.00    -0.368 OA
ATOM     21  H4  UNL     1       0.883   1.869   3.463  1.00  0.00     0.212 HD
ENDBRANCH   2  20
TORSDOF 8
