REMARK  5 active torsions:
REMARK  status: ('A' for Active; 'I' for Inactive)
REMARK    1  A    between atoms: C2_2  and  O2_4 
REMARK    2  A    between atoms: O2_4  and  C3_5 
REMARK    3  A    between atoms: C5_7  and  O3_8 
REMARK    4  A    between atoms: C6_10  and  O4_11 
REMARK    5  A    between atoms: O4_11  and  S1_12 
ROOT
HETATM    1  C3  UNL     1      -0.960   0.090   0.193  1.00  0.00     0.271 C 
HETATM    2  C4  UNL     1      -0.125  -0.842  -0.662  1.00  0.00     0.095 C 
HETATM    3  C5  UNL     1       1.082  -1.231   0.170  1.00  0.00     0.155 C 
HETATM    4  C6  UNL     1       1.796   0.083   0.476  1.00  0.00     0.197 C 
HETATM    5  C7  UNL     1       0.863   0.890   1.342  1.00  0.00     0.207 C 
HETATM    6  O8  UNL     1      -0.231   1.228   0.511  1.00  0.00    -0.358 OA
ENDROOT
BRANCH   4   7
HETATM    7  O4  UNL     1       3.048  -0.074   0.949  1.00  0.00    -0.247 OA
BRANCH   7   8
HETATM    8  S1  UNL     1       4.278   0.530   0.019  1.00  0.00     0.252 S 
HETATM    9  O5  UNL     1       4.644  -0.530  -0.986  1.00  0.00    -0.572 OA
HETATM   10  O6  UNL     1       5.503   0.876   0.770  1.00  0.00    -0.572 OA
HETATM   11  O7  UNL     1       3.794   1.886  -0.868  1.00  0.00    -0.572 OA
ENDBRANCH   7   8
ENDBRANCH   4   7
BRANCH   3  12
HETATM   12  O3  UNL     1       0.570  -1.807   1.346  1.00  0.00    -0.393 OA
ATOM     13  H3  UNL     1       1.326  -2.051   1.867  1.00  0.00     0.210 HD
ENDBRANCH   3  12
BRANCH   1  14
HETATM   14  O2  UNL     1      -2.147   0.446  -0.445  1.00  0.00    -0.290 OA
BRANCH  14  15
HETATM   15  C2  UNL     1      -3.418   0.204   0.030  1.00  0.00     0.257 C 
HETATM   16  C1  UNL     1      -4.607   0.645  -0.767  1.00  0.00     0.126 C 
HETATM   17  O1  UNL     1      -3.544  -0.382   1.121  1.00  0.00    -0.266 OA
ENDBRANCH  14  15
ENDBRANCH   1  14
TORSDOF 5
