REMARK  3 active torsions:
REMARK  status: ('A' for Active; 'I' for Inactive)
REMARK    1  A    between atoms: O1_2  and  C2_3 
REMARK    2  A    between atoms: C3_5  and  O3_6 
REMARK    3  A    between atoms: O3_6  and  S1_7 
ROOT
HETATM    1  C2  UNL     1      -1.115   1.061  -0.543  1.00  0.00     0.293 C 
HETATM    2  O2  UNL     1       0.158   1.258  -1.053  1.00  0.00    -0.326 OA
HETATM    3  C3  UNL     1       0.912   0.224  -0.455  1.00  0.00     0.309 C 
HETATM    4  C4  UNL     1       0.032  -0.975  -0.791  1.00  0.00     0.197 C 
HETATM    5  N1  UNL     1       0.309  -2.113   0.031  1.00  0.00    -0.086 NA
HETATM    6  O7  UNL     1      -0.850  -2.845   0.120  1.00  0.00    -0.260 OA
HETATM    7  C5  UNL     1      -1.740  -2.166   0.947  1.00  0.00     0.365 C 
HETATM    8  O8  UNL     1      -1.534  -0.790   0.939  1.00  0.00    -0.353 OA
HETATM    9  C6  UNL     1      -1.324  -0.420  -0.397  1.00  0.00     0.205 C 
ENDROOT
BRANCH   3  10
HETATM   10  O3  UNL     1       2.176   0.125  -0.957  1.00  0.00    -0.222 OA
BRANCH  10  11
HETATM   11  S1  UNL     1       3.358   0.318   0.244  1.00  0.00     0.254 S 
HETATM   12  O4  UNL     1       2.949  -0.366   1.512  1.00  0.00    -0.572 OA
HETATM   13  O5  UNL     1       3.556   1.794   0.472  1.00  0.00    -0.572 OA
HETATM   14  O6  UNL     1       4.790  -0.306  -0.377  1.00  0.00    -0.572 OA
ENDBRANCH  10  11
ENDBRANCH   3  10
BRANCH   1  15
HETATM   15  O1  UNL     1      -1.198   1.741   0.659  1.00  0.00    -0.363 OA
HETATM   16  C1  UNL     1      -2.186   2.716   0.529  1.00  0.00     0.204 C 
ENDBRANCH   1  15
TORSDOF 3
