REMARK  6 active torsions:
REMARK  status: ('A' for Active; 'I' for Inactive)
REMARK    1  A    between atoms: C2_2  and  O2_4 
REMARK    2  A    between atoms: O2_4  and  C3_5 
REMARK    3  A    between atoms: C5_8  and  C6_9 
REMARK    4  A    between atoms: C6_9  and  C7_11 
REMARK    5  A    between atoms: C7_11  and  C8_16 
REMARK    6  A    between atoms: N1_12  and  O5_14 
ROOT
HETATM    1  C3  UNL     1       1.848  -0.583  -0.083  1.00  0.00     0.179 C 
HETATM    2  C4  UNL     1       1.462   0.228  -1.303  1.00  0.00     0.206 C 
HETATM    3  O3  UNL     1       0.155  -0.142  -1.612  1.00  0.00    -0.351 OA
HETATM    4  C5  UNL     1      -0.739   0.260  -0.607  1.00  0.00     0.337 C 
HETATM    5  O7  UNL     1      -0.525  -0.637   0.440  1.00  0.00    -0.351 OA
HETATM    6  C9  UNL     1       0.752  -0.409   0.938  1.00  0.00     0.206 C 
ENDROOT
BRANCH   4   7
HETATM    7  C6  UNL     1      -2.115   0.167  -1.149  1.00  0.00     0.237 C 
HETATM    8  O4  UNL     1      -2.230  -0.282  -2.339  1.00  0.00    -0.285 OA
BRANCH   7   9
HETATM    9  C7  UNL     1      -3.323   0.535  -0.455  1.00  0.00     0.170 C 
HETATM   10  N1  UNL     1      -3.389   1.005   0.733  1.00  0.00    -0.261 N 
ATOM     11  H1  UNL     1      -4.325   1.215   1.079  1.00  0.00     0.194 HD
BRANCH  10  12
HETATM   12  O5  UNL     1      -2.376   1.257   1.583  1.00  0.00    -0.289 OA
ATOM     13  H5  UNL     1      -2.425   1.606   2.465  1.00  0.00     0.244 HD
ENDBRANCH  10  12
BRANCH   9  14
HETATM   14  C8  UNL     1      -4.605   0.365  -1.151  1.00  0.00     0.287 C 
HETATM   15  N2  UNL     1      -5.838   0.700  -0.546  1.00  0.00    -0.056 NA
HETATM   16  O6  UNL     1      -4.658  -0.091  -2.327  1.00  0.00    -0.269 OA
ENDBRANCH   9  14
ENDBRANCH   7   9
ENDBRANCH   4   7
BRANCH   1  17
HETATM   17  O2  UNL     1       3.053  -0.183   0.492  1.00  0.00    -0.312 OA
BRANCH  17  18
HETATM   18  C2  UNL     1       4.131  -1.039   0.653  1.00  0.00     0.255 C 
HETATM   19  C1  UNL     1       5.377  -0.567   1.264  1.00  0.00     0.126 C 
HETATM   20  O1  UNL     1       3.972  -2.225   0.248  1.00  0.00    -0.266 OA
ENDBRANCH  17  18
ENDBRANCH   1  17
TORSDOF 6
