REMARK  5 active torsions:
REMARK  status: ('A' for Active; 'I' for Inactive)
REMARK    1  A    between atoms: C4_5  and  N2_6 
REMARK    2  A    between atoms: C5_10  and  O1_11 
REMARK    3  A    between atoms: C6_13  and  C7_14 
REMARK    4  A    between atoms: C7_14  and  O2_15 
REMARK    5  A    between atoms: O2_15  and  N3_16 
ROOT
HETATM    1  N1  UNL     1      -3.432  -0.897  -2.461  1.00  0.00    -0.196 NA
HETATM    2  C1  UNL     1      -2.705  -0.162  -1.938  1.00  0.00     0.079 C 
HETATM    3  C2  UNL     1      -1.774   0.785  -1.295  1.00  0.00     0.217 C 
HETATM    4  C3  UNL     1      -2.072   0.831   0.178  1.00  0.00     0.070 C 
HETATM    5  C4  UNL     1      -1.456  -0.306   0.946  1.00  0.00     0.215 C 
HETATM    6  C5  UNL     1       0.048  -0.207   1.033  1.00  0.00     0.169 C 
HETATM    7  C6  UNL     1       0.601  -0.629  -0.309  1.00  0.00     0.166 C 
HETATM    8  S1  UNL     1      -0.097   0.324  -1.631  1.00  0.00     0.170 S 
HETATM    9  O5  UNL     1       0.721   1.551  -1.912  1.00  0.00    -0.226 OA
HETATM   10  O6  UNL     1      -0.088  -0.529  -2.864  1.00  0.00    -0.226 OA
ENDROOT
BRANCH   5  11
HETATM   11  N2  UNL     1      -1.980  -0.230   2.308  1.00  0.00    -0.072 N 
ATOM     12  H23 UNL     1      -1.830   0.679   2.746  1.00  0.00     0.274 HD
ATOM     13  H22 UNL     1      -2.999  -0.225   2.347  1.00  0.00     0.274 HD
ATOM     14  H21 UNL     1      -1.562  -1.001   2.829  1.00  0.00     0.274 HD
ENDBRANCH   5  11
BRANCH   7  15
HETATM   15  C7  UNL     1       2.106  -0.556  -0.357  1.00  0.00     0.230 C 
BRANCH  15  16
HETATM   16  O2  UNL     1       2.595   0.746  -0.120  1.00  0.00    -0.220 OA
BRANCH  16  17
HETATM   17  N3  UNL     1       3.942   0.936  -0.138  1.00  0.00     0.004 N 
HETATM   18  O3  UNL     1       4.454   1.559  -1.070  1.00  0.00    -0.511 OA
HETATM   19  O4  UNL     1       4.718   0.444   0.862  1.00  0.00    -0.511 OA
ENDBRANCH  16  17
ENDBRANCH  15  16
ENDBRANCH   7  15
BRANCH   6  20
HETATM   20  O1  UNL     1       0.463  -1.168   1.961  1.00  0.00    -0.392 OA
ATOM     21  H1  UNL     1       1.409  -1.106   2.016  1.00  0.00     0.210 HD
ENDBRANCH   6  20
TORSDOF 5
