REMARK  3 active torsions:
REMARK  status: ('A' for Active; 'I' for Inactive)
REMARK    1  A    between atoms: C1_2  and  N1_3 
REMARK    2  A    between atoms: C1_2  and  N2_11 
REMARK    3  A    between atoms: N2_11  and  C8_13 
ROOT
HETATM    1  S1  UNL     1       1.460   1.912   0.358  1.00  0.00    -0.041 SA
HETATM    2  C1  UNL     1       0.138   1.277  -0.348  1.00  0.00     0.173 C 
ENDROOT
BRANCH   2   3
HETATM    3  N1  UNL     1      -1.145   1.866  -0.229  1.00  0.00    -0.341 N 
HETATM    4  C2  UNL     1      -1.921   1.461   0.718  1.00  0.00    -0.011 C 
HETATM    5  C3  UNL     1      -3.270   2.132   0.783  1.00  0.00     0.052 C 
HETATM    6  C7  UNL     1      -1.581   0.421   1.704  1.00  0.00     0.052 C 
HETATM    7  C4  UNL     1      -4.157   1.148   1.552  1.00  0.00     0.006 C 
HETATM    8  C5  UNL     1      -3.840  -0.230   0.988  1.00  0.00     0.001 C 
HETATM    9  C6  UNL     1      -2.584  -0.710   1.718  1.00  0.00     0.006 C 
ATOM     10  H1  UNL     1      -1.448   2.593  -0.877  1.00  0.00     0.167 HD
ENDBRANCH   2   3
BRANCH   2  11
HETATM   11  N2  UNL     1       0.272   0.092  -1.103  1.00  0.00    -0.339 N 
ATOM     12  H2  UNL     1      -0.561  -0.307  -1.537  1.00  0.00     0.164 HD
BRANCH  11  13
HETATM   13  C8  UNL     1       1.522  -0.572  -1.286  1.00  0.00     0.286 C 
HETATM   14  C9  UNL     1       2.538   0.237  -2.036  1.00  0.00     0.054 C 
HETATM   15  C10 UNL     1       3.949  -0.004  -1.508  1.00  0.00     0.005 C 
HETATM   16  C11 UNL     1       4.055  -1.484  -1.206  1.00  0.00     0.028 C 
HETATM   17  C12 UNL     1       3.074  -1.902  -0.140  1.00  0.00     0.235 C 
HETATM   18  N3  UNL     1       2.004  -0.935   0.046  1.00  0.00    -0.054 N 
ATOM     19  H32 UNL     1       2.284  -0.129   0.605  1.00  0.00     0.279 HD
ATOM     20  H31 UNL     1       1.264  -1.269   0.663  1.00  0.00     0.279 HD
ENDBRANCH  11  13
ENDBRANCH   2  11
TORSDOF 3
