REMARK  4 active torsions:
REMARK  status: ('A' for Active; 'I' for Inactive)
REMARK    1  A    between atoms: C1_2  and  N1_3 
REMARK    2  A    between atoms: C1_2  and  N2_12 
REMARK    3  A    between atoms: N1_3  and  C2_5 
REMARK    4  A    between atoms: N2_12  and  C9_14 
ROOT
HETATM    1  S1  UNL     1      -0.395  -3.090  -1.154  1.00  0.00    -0.041 SA
HETATM    2  C1  UNL     1      -0.815  -1.849  -0.200  1.00  0.00     0.168 C 
ENDROOT
BRANCH   2   3
HETATM    3  N1  UNL     1       0.172  -1.098   0.459  1.00  0.00    -0.363 N 
ATOM      4  H1  UNL     1      -0.145  -0.339   1.062  1.00  0.00     0.162 HD
BRANCH   3   5
HETATM    5  C2  UNL     1       1.608  -1.311   0.355  1.00  0.00     0.083 C 
HETATM    6  C3  UNL     1       2.258  -0.380   1.366  1.00  0.00     0.025 C 
HETATM    7  C4  UNL     1       3.685  -0.067   1.092  1.00  0.00     0.002 C 
HETATM    8  C5  UNL     1       3.869   1.232   0.315  1.00  0.00     0.000 C 
HETATM    9  C6  UNL     1       3.390   1.152  -1.094  1.00  0.00     0.000 C 
HETATM   10  C7  UNL     1       2.033   0.506  -1.245  1.00  0.00     0.002 C 
HETATM   11  C8  UNL     1       2.144  -0.974  -1.027  1.00  0.00     0.025 C 
ENDBRANCH   3   5
ENDBRANCH   2   3
BRANCH   2  12
HETATM   12  N2  UNL     1      -2.193  -1.567  -0.051  1.00  0.00    -0.363 N 
ATOM     13  H2  UNL     1      -2.859  -2.152  -0.555  1.00  0.00     0.162 HD
BRANCH  12  14
HETATM   14  C9  UNL     1      -2.712  -0.504   0.769  1.00  0.00     0.083 C 
HETATM   15  C10 UNL     1      -4.222  -0.555   0.726  1.00  0.00     0.025 C 
HETATM   16  C11 UNL     1      -4.624   0.896   0.849  1.00  0.00     0.002 C 
HETATM   17  C12 UNL     1      -3.661   1.541  -0.150  1.00  0.00     0.002 C 
HETATM   18  C13 UNL     1      -2.376   0.824   0.104  1.00  0.00     0.025 C 
ENDBRANCH  12  14
ENDBRANCH   2  12
TORSDOF 4
