REMARK  0 active torsions:
REMARK  status: ('A' for Active; 'I' for Inactive)
ROOT
HETATM    1  N1  UNL     1       3.627  -1.484   1.717  1.00  0.00    -0.405 N 
ATOM      2  H11 UNL     1       3.606  -1.799   2.687  1.00  0.00     0.155 HD
ATOM      3  H12 UNL     1       4.536  -1.942   1.778  1.00  0.00     0.155 HD
HETATM    4  C1  UNL     1       2.909  -0.861   0.882  1.00  0.00    -0.011 C 
HETATM    5  C2  UNL     1       2.939  -0.415  -0.492  1.00  0.00     0.036 C 
HETATM    6  C3  UNL     1       3.074   1.125  -0.172  1.00  0.00     0.016 C 
HETATM    7  C4  UNL     1       1.791   1.296   0.661  1.00  0.00    -0.002 C 
HETATM    8  C5  UNL     1       0.622   1.923  -0.121  1.00  0.00     0.038 C 
HETATM    9  C6  UNL     1      -0.649   1.088  -0.082  1.00  0.00     0.190 C 
HETATM   10  N2  UNL     1      -1.823   1.785   0.498  1.00  0.00    -0.070 N 
ATOM     11  H21 UNL     1      -2.407   2.196  -0.230  1.00  0.00     0.277 HD
ATOM     12  H22 UNL     1      -1.545   2.639   0.982  1.00  0.00     0.277 HD
HETATM   13  C7  UNL     1      -2.596   0.915   1.366  1.00  0.00     0.233 C 
HETATM   14  C8  UNL     1      -2.195  -0.533   1.433  1.00  0.00     0.032 C 
HETATM   15  C9  UNL     1      -1.907  -1.223   0.129  1.00  0.00    -0.012 C 
HETATM   16  C10 UNL     1      -2.403  -0.273  -0.935  1.00  0.00     0.011 C 
HETATM   17  C11 UNL     1      -1.112   0.491  -1.314  1.00  0.00     0.017 C 
HETATM   18  C12 UNL     1      -0.438  -0.606  -2.036  1.00  0.00     0.011 C 
HETATM   19  C13 UNL     1       0.444  -1.361  -0.998  1.00  0.00    -0.008 C 
HETATM   20  C14 UNL     1      -0.612  -1.882  -0.063  1.00  0.00     0.010 C 
HETATM   21  C15 UNL     1       1.484  -0.483  -0.662  1.00  0.00     0.009 C 
HETATM   22  C16 UNL     1       1.556  -0.180   0.791  1.00  0.00     0.040 C 
ENDROOT
TORSDOF 0
