REMARK  3 active torsions:
REMARK  status: ('A' for Active; 'I' for Inactive)
REMARK    1  A    between atoms: C4_4  and  C5_5 
REMARK    2  A    between atoms: C11_11  and  N1_12 
REMARK    3  A    between atoms: N1_12  and  C12_14 
ROOT
HETATM    1  C1  UNL     1       1.556  -2.429  -0.954  1.00  0.00     0.012 C 
HETATM    2  C2  UNL     1       0.793  -1.180  -1.345  1.00  0.00     0.004 C 
HETATM    3  C3  UNL     1      -0.537  -1.225  -0.649  1.00  0.00     0.011 C 
HETATM    4  C4  UNL     1      -1.345   0.020  -0.839  1.00  0.00    -0.007 C 
HETATM    5  C9  UNL     1      -0.551   1.146  -1.443  1.00  0.00     0.007 C 
HETATM    6  C10 UNL     1       0.841   1.285  -0.872  1.00  0.00     0.026 C 
HETATM    7  C11 UNL     1       1.630   0.009  -0.967  1.00  0.00     0.087 C 
ENDROOT
BRANCH   7   8
HETATM    8  N1  UNL     1       2.368  -0.226   0.253  1.00  0.00    -0.364 N 
ATOM      9  H1  UNL     1       2.228  -1.120   0.724  1.00  0.00     0.162 HD
BRANCH   8  10
HETATM   10  C12 UNL     1       3.270   0.691   0.843  1.00  0.00     0.181 C 
HETATM   11  N2  UNL     1       3.967   0.403   2.050  1.00  0.00    -0.070 NA
HETATM   12  S1  UNL     1       3.504   2.124   0.092  1.00  0.00    -0.044 SA
ENDBRANCH   8  10
ENDBRANCH   7   8
BRANCH   4  13
HETATM   13  C5  UNL     1      -2.050   0.376   0.422  1.00  0.00    -0.048 C 
HETATM   14  C6  UNL     1      -2.963  -0.805   0.775  1.00  0.00     0.015 C 
HETATM   15  C7  UNL     1      -1.199   0.646   1.611  1.00  0.00     0.015 C 
HETATM   16  C8  UNL     1      -2.963   1.584   0.240  1.00  0.00     0.015 C 
ENDBRANCH   4  13
TORSDOF 3
