REMARK  3 active torsions:
REMARK  status: ('A' for Active; 'I' for Inactive)
REMARK    1  A    between atoms: C2_2  and  N1_5 
REMARK    2  A    between atoms: N1_5  and  C5_7 
REMARK    3  A    between atoms: C5_7  and  C6_11 
ROOT
HETATM    1  C6  UNL     1      -0.428  -0.393  -0.306  1.00  0.00     0.061 C 
HETATM    2  C7  UNL     1      -1.361  -1.409   0.245  1.00  0.00    -0.002 C 
HETATM    3  C8  UNL     1      -2.107  -1.000   1.481  1.00  0.00     0.010 C 
HETATM    4  C9  UNL     1      -2.844   0.300   1.262  1.00  0.00    -0.013 C 
HETATM    5  C10 UNL     1      -3.869   0.101   0.187  1.00  0.00     0.009 C 
HETATM    6  C11 UNL     1      -3.151  -0.317  -1.078  1.00  0.00    -0.013 C 
HETATM    7  C12 UNL     1      -2.443  -1.611  -0.844  1.00  0.00     0.010 C 
HETATM    8  C13 UNL     1      -2.207   0.784  -1.462  1.00  0.00     0.010 C 
HETATM    9  C14 UNL     1      -1.140   0.936  -0.371  1.00  0.00    -0.002 C 
HETATM   10  C15 UNL     1      -1.801   1.337   0.915  1.00  0.00     0.010 C 
ENDROOT
BRANCH   1  11
HETATM   11  C5  UNL     1       0.882  -0.330   0.322  1.00  0.00     0.076 C 
HETATM   12  N2  UNL     1       1.177  -1.148   1.258  1.00  0.00    -0.389 N 
ATOM     13  H22 UNL     1       2.096  -1.104   1.699  1.00  0.00     0.157 HD
ATOM     14  H21 UNL     1       0.482  -1.834   1.552  1.00  0.00     0.157 HD
BRANCH  11  15
HETATM   15  N1  UNL     1       1.867   0.642  -0.095  1.00  0.00    -0.372 N 
ATOM     16  H1  UNL     1       1.538   1.555  -0.411  1.00  0.00     0.161 HD
BRANCH  15  17
HETATM   17  C2  UNL     1       3.266   0.399  -0.090  1.00  0.00     0.020 C 
HETATM   18  C1  UNL     1       3.579  -0.785  -1.003  1.00  0.00     0.037 C 
HETATM   19  C3  UNL     1       3.993   1.586  -0.689  1.00  0.00     0.037 C 
HETATM   20  C4  UNL     1       3.849   0.193   1.286  1.00  0.00     0.037 C 
ENDBRANCH  15  17
ENDBRANCH  11  15
ENDBRANCH   1  11
TORSDOF 3
