REMARK  4 active torsions:
REMARK  status: ('A' for Active; 'I' for Inactive)
REMARK    1  A    between atoms: C1_2  and  N1_3 
REMARK    2  A    between atoms: C1_2  and  N2_11 
REMARK    3  A    between atoms: N1_3  and  C2_5 
REMARK    4  A    between atoms: N2_11  and  C8_13 
ROOT
HETATM    1  S1  UNL     1      -0.043   0.677  -1.559  1.00  0.00    -0.041 SA
HETATM    2  C1  UNL     1      -0.092   0.662   0.060  1.00  0.00     0.168 C 
ENDROOT
BRANCH   2   3
HETATM    3  N1  UNL     1       1.120   0.633   0.822  1.00  0.00    -0.363 N 
ATOM      4  H1  UNL     1       1.056   0.647   1.840  1.00  0.00     0.162 HD
BRANCH   3   5
HETATM    5  C2  UNL     1       2.410   0.586   0.221  1.00  0.00     0.083 C 
HETATM    6  C3  UNL     1       3.458   0.718   1.321  1.00  0.00     0.025 C 
HETATM    7  C4  UNL     1       4.853   0.728   0.768  1.00  0.00     0.002 C 
HETATM    8  C5  UNL     1       5.126  -0.513  -0.074  1.00  0.00     0.000 C 
HETATM    9  C6  UNL     1       4.076  -0.564  -1.153  1.00  0.00     0.002 C 
HETATM   10  C7  UNL     1       2.714  -0.732  -0.469  1.00  0.00     0.025 C 
ENDBRANCH   3   5
ENDBRANCH   2   3
BRANCH   2  11
HETATM   11  N2  UNL     1      -1.362   0.702   0.700  1.00  0.00    -0.363 N 
ATOM     12  H2  UNL     1      -1.386   0.714   1.720  1.00  0.00     0.162 HD
BRANCH  11  13
HETATM   13  C8  UNL     1      -2.618   0.727  -0.011  1.00  0.00     0.083 C 
HETATM   14  C9  UNL     1      -3.715   0.870   0.974  1.00  0.00     0.025 C 
HETATM   15  C10 UNL     1      -5.013   0.234   0.650  1.00  0.00     0.002 C 
HETATM   16  C11 UNL     1      -4.702  -1.256   0.433  1.00  0.00     0.000 C 
HETATM   17  C12 UNL     1      -3.917  -1.297  -0.834  1.00  0.00     0.002 C 
HETATM   18  C13 UNL     1      -2.684  -0.487  -0.879  1.00  0.00     0.025 C 
ENDBRANCH  11  13
ENDBRANCH   2  11
TORSDOF 4
