REMARK  8 active torsions:
REMARK  status: ('A' for Active; 'I' for Inactive)
REMARK    1  A    between atoms: C2_2  and  C3_3 
REMARK    2  A    between atoms: C3_3  and  C4_4 
REMARK    3  A    between atoms: C4_4  and  C5_5 
REMARK    4  A    between atoms: C5_5  and  C6_6 
REMARK    5  A    between atoms: C6_6  and  C7_7 
REMARK       I    between atoms: C7_7  and  N1_9 
REMARK    6  A    between atoms: C10_12  and  C11_13 
REMARK    7  A    between atoms: C11_13  and  N2_14 
REMARK       I    between atoms: N2_14  and  C12_16 
REMARK       I    between atoms: C12_16  and  N3_18 
REMARK    8  A    between atoms: N3_18  and  C13_20 
ROOT
HETATM    1  C7  UNL     1       3.613  -0.326  -0.556  1.00  0.00     0.219 C 
HETATM    2  O1  UNL     1       3.787   0.496  -1.485  1.00  0.00    -0.273 OA
HETATM    3  N1  UNL     1       2.310  -0.602  -0.115  1.00  0.00    -0.352 N 
HETATM    4  C8  UNL     1       2.079  -1.556   0.951  1.00  0.00     0.126 C 
HETATM    5  C9  UNL     1       1.189  -0.871   1.945  1.00  0.00     0.030 C 
HETATM    6  C10 UNL     1      -0.118  -0.360   1.338  1.00  0.00     0.027 C 
HETATM    7  C19 UNL     1      -0.124  -0.417  -0.126  1.00  0.00     0.030 C 
HETATM    8  C20 UNL     1       1.195   0.079  -0.737  1.00  0.00     0.126 C 
ENDROOT
BRANCH   6   9
HETATM    9  C11 UNL     1      -1.232  -1.009   2.062  1.00  0.00     0.070 C 
BRANCH   9  10
HETATM   10  N2  UNL     1      -2.545  -0.663   1.682  1.00  0.00    -0.322 N 
HETATM   11  C12 UNL     1      -3.304  -0.896   0.544  1.00  0.00     0.320 C 
HETATM   12  O2  UNL     1      -2.943  -1.556  -0.429  1.00  0.00    -0.247 OA
HETATM   13  N3  UNL     1      -4.633  -0.337   0.449  1.00  0.00    -0.338 N 
ATOM     14  H3  UNL     1      -4.984   0.219   1.229  1.00  0.00     0.164 HD
ATOM     15  H2  UNL     1      -3.042  -0.128   2.394  1.00  0.00     0.169 HD
BRANCH  13  16
HETATM   16  C13 UNL     1      -5.484  -0.529  -0.694  1.00  0.00     0.086 C 
HETATM   17  C14 UNL     1      -5.729   0.812  -1.349  1.00  0.00     0.025 C 
HETATM   18  C15 UNL     1      -6.874   1.565  -0.700  1.00  0.00     0.002 C 
HETATM   19  C16 UNL     1      -8.170   0.795  -0.766  1.00  0.00     0.000 C 
HETATM   20  C17 UNL     1      -7.953  -0.665  -1.080  1.00  0.00     0.002 C 
HETATM   21  C18 UNL     1      -6.761  -1.236  -0.344  1.00  0.00     0.025 C 
ENDBRANCH  13  16
ENDBRANCH   9  10
ENDBRANCH   6   9
BRANCH   1  22
HETATM   22  C6  UNL     1       4.757  -0.999   0.071  1.00  0.00     0.103 C 
BRANCH  22  23
HETATM   23  C5  UNL     1       6.104  -0.619  -0.423  1.00  0.00     0.010 C 
BRANCH  23  24
HETATM   24  C4  UNL     1       6.474   0.824  -0.229  1.00  0.00     0.004 C 
BRANCH  24  25
HETATM   25  C3  UNL     1       7.889   1.069  -0.777  1.00  0.00     0.026 C 
BRANCH  25  26
HETATM   26  C2  UNL     1       8.198   2.498  -0.561  1.00  0.00    -0.037 C 
HETATM   27  C1  UNL     1       9.224   2.858   0.179  1.00  0.00     0.007 C 
ENDBRANCH  25  26
ENDBRANCH  24  25
ENDBRANCH  23  24
ENDBRANCH  22  23
ENDBRANCH   1  22
TORSDOF 8
