REMARK  10 active torsions:
REMARK  status: ('A' for Active; 'I' for Inactive)
REMARK    1  A    between atoms: N1_2  and  C2_3 
REMARK    2  A    between atoms: N1_2  and  C15_22 
REMARK    3  A    between atoms: C2_3  and  N2_5 
REMARK    4  A    between atoms: N2_5  and  C3_7 
REMARK    5  A    between atoms: C3_7  and  C4_8 
REMARK    6  A    between atoms: C4_8  and  C5_9 
REMARK    7  A    between atoms: C5_9  and  C6_10 
REMARK    8  A    between atoms: C6_10  and  C7_11 
REMARK    9  A    between atoms: C7_11  and  N3_12 
REMARK       I    between atoms: N3_12  and  C8_14 
REMARK   10  A    between atoms: C8_14  and  C9_16 
ROOT
HETATM    1  C4  UNL     1      -0.444   0.969   1.374  1.00  0.00     0.020 C 
ENDROOT
BRANCH   1   2
HETATM    2  C3  UNL     1      -1.841   0.595   0.972  1.00  0.00     0.122 C 
BRANCH   2   3
HETATM    3  N2  UNL     1      -2.105  -0.773   1.268  1.00  0.00    -0.367 N 
ATOM      4  H2  UNL     1      -1.315  -1.289   1.655  1.00  0.00     0.161 HD
BRANCH   3   5
HETATM    5  C2  UNL     1      -3.280  -1.521   1.111  1.00  0.00     0.169 C 
HETATM    6  S1  UNL     1      -3.115  -3.135   1.588  1.00  0.00    -0.041 SA
BRANCH   5   7
HETATM    7  N1  UNL     1      -4.527  -1.143   0.632  1.00  0.00    -0.358 N 
HETATM    8  C1  UNL     1      -5.589  -2.180   0.586  1.00  0.00     0.152 C 
BRANCH   7   9
HETATM    9  C15 UNL     1      -4.918   0.135   0.196  1.00  0.00     0.086 C 
HETATM   10  C16 UNL     1      -5.959   0.764   1.155  1.00  0.00     0.025 C 
HETATM   11  C17 UNL     1      -6.398   1.951   0.305  1.00  0.00     0.002 C 
HETATM   12  C18 UNL     1      -6.224   1.523  -1.139  1.00  0.00     0.002 C 
HETATM   13  C19 UNL     1      -5.861   0.033  -1.046  1.00  0.00     0.025 C 
ENDBRANCH   7   9
ENDBRANCH   5   7
ENDBRANCH   3   5
ENDBRANCH   2   3
ENDBRANCH   1   2
BRANCH   1  14
HETATM   14  C5  UNL     1       0.563   0.096   0.621  1.00  0.00     0.007 C 
BRANCH  14  15
HETATM   15  C6  UNL     1       0.498   0.206  -0.837  1.00  0.00     0.044 C 
BRANCH  15  16
HETATM   16  C7  UNL     1       1.410  -0.624  -1.638  1.00  0.00     0.064 C 
BRANCH  16  17
HETATM   17  N3  UNL     1       2.792  -0.463  -1.455  1.00  0.00    -0.340 N 
HETATM   18  C8  UNL     1       3.620  -0.811  -0.399  1.00  0.00     0.225 C 
HETATM   19  O1  UNL     1       3.254  -1.399   0.640  1.00  0.00    -0.273 OA
ATOM     20  H3  UNL     1       3.270  -0.011  -2.234  1.00  0.00     0.167 HD
BRANCH  18  21
HETATM   21  C9  UNL     1       5.092  -0.452  -0.509  1.00  0.00     0.078 C 
HETATM   22  C10 UNL     1       5.229   1.060  -0.673  1.00  0.00     0.014 C 
HETATM   23  C11 UNL     1       6.631   1.284  -1.253  1.00  0.00     0.001 C 
HETATM   24  C12 UNL     1       7.597   0.336  -0.593  1.00  0.00     0.000 C 
HETATM   25  C13 UNL     1       7.144  -0.075   0.790  1.00  0.00     0.001 C 
HETATM   26  C14 UNL     1       5.820  -0.803   0.769  1.00  0.00     0.014 C 
ENDBRANCH  18  21
ENDBRANCH  16  17
ENDBRANCH  15  16
ENDBRANCH  14  15
ENDBRANCH   1  14
TORSDOF 10
