REMARK  10 active torsions:
REMARK  status: ('A' for Active; 'I' for Inactive)
REMARK       I    between atoms: N1_2  and  C2_3 
REMARK    1  A    between atoms: N1_2  and  C14_21 
REMARK    2  A    between atoms: C2_3  and  C3_5 
REMARK    3  A    between atoms: C3_5  and  C4_6 
REMARK    4  A    between atoms: C4_6  and  C5_7 
REMARK    5  A    between atoms: C5_7  and  C6_8 
REMARK    6  A    between atoms: C6_8  and  C7_9 
REMARK    7  A    between atoms: C7_9  and  N2_10 
REMARK    8  A    between atoms: N2_10  and  C8_12 
REMARK    9  A    between atoms: C8_12  and  N3_14 
REMARK   10  A    between atoms: N3_14  and  C9_16 
ROOT
HETATM    1  C6  UNL     1       0.200  -1.031   0.477  1.00  0.00     0.020 C 
ENDROOT
BRANCH   1   2
HETATM    2  C5  UNL     1       0.037   0.460   0.313  1.00  0.00     0.002 C 
BRANCH   2   3
HETATM    3  C4  UNL     1      -0.474   1.141   1.530  1.00  0.00     0.009 C 
BRANCH   3   4
HETATM    4  C3  UNL     1      -1.796   0.708   2.033  1.00  0.00     0.103 C 
BRANCH   4   5
HETATM    5  C2  UNL     1      -2.938   0.879   1.141  1.00  0.00     0.219 C 
HETATM    6  N1  UNL     1      -4.226   0.399   1.503  1.00  0.00    -0.352 N 
HETATM    7  C1  UNL     1      -4.357  -0.262   2.785  1.00  0.00     0.153 C 
HETATM    8  O1  UNL     1      -2.746   1.472   0.028  1.00  0.00    -0.273 OA
BRANCH   6   9
HETATM    9  C14 UNL     1      -5.372   0.559   0.630  1.00  0.00     0.086 C 
HETATM   10  C15 UNL     1      -5.698   1.980   0.314  1.00  0.00     0.025 C 
HETATM   11  C16 UNL     1      -5.954   1.997  -1.179  1.00  0.00     0.002 C 
HETATM   12  C17 UNL     1      -6.271   0.540  -1.537  1.00  0.00     0.002 C 
HETATM   13  C18 UNL     1      -5.226  -0.181  -0.676  1.00  0.00     0.025 C 
ENDBRANCH   6   9
ENDBRANCH   4   5
ENDBRANCH   3   4
ENDBRANCH   2   3
ENDBRANCH   1   2
BRANCH   1  14
HETATM   14  C7  UNL     1       1.150  -1.407   1.556  1.00  0.00     0.122 C 
BRANCH  14  15
HETATM   15  N2  UNL     1       2.494  -0.924   1.403  1.00  0.00    -0.367 N 
ATOM     16  H2  UNL     1       2.816  -0.203   2.049  1.00  0.00     0.161 HD
BRANCH  15  17
HETATM   17  C8  UNL     1       3.406  -1.381   0.414  1.00  0.00     0.167 C 
HETATM   18  S1  UNL     1       2.947  -2.558  -0.611  1.00  0.00    -0.041 SA
BRANCH  17  19
HETATM   19  N3  UNL     1       4.712  -0.858   0.312  1.00  0.00    -0.363 N 
ATOM     20  H3  UNL     1       4.985  -0.140   0.983  1.00  0.00     0.162 HD
BRANCH  19  21
HETATM   21  C9  UNL     1       5.693  -1.261  -0.669  1.00  0.00     0.083 C 
HETATM   22  C10 UNL     1       5.217  -0.847  -2.027  1.00  0.00     0.025 C 
HETATM   23  C11 UNL     1       6.456  -0.605  -2.828  1.00  0.00     0.002 C 
HETATM   24  C12 UNL     1       7.317   0.147  -1.805  1.00  0.00     0.002 C 
HETATM   25  C13 UNL     1       6.997  -0.555  -0.489  1.00  0.00     0.025 C 
ENDBRANCH  19  21
ENDBRANCH  17  19
ENDBRANCH  15  17
ENDBRANCH  14  15
ENDBRANCH   1  14
TORSDOF 10
