REMARK  10 active torsions:
REMARK  status: ('A' for Active; 'I' for Inactive)
REMARK    1  A    between atoms: C2_2  and  N1_3 
REMARK    2  A    between atoms: C2_2  and  C3_7 
REMARK    3  A    between atoms: C3_7  and  O2_9 
REMARK    4  A    between atoms: O2_9  and  C4_10 
REMARK    5  A    between atoms: C12_18  and  O3_19 
REMARK    6  A    between atoms: C16_24  and  C17_25 
REMARK    7  A    between atoms: C17_25  and  C19_27 
REMARK    8  A    between atoms: C19_27  and  C20_28 
REMARK    9  A    between atoms: C20_28  and  C21_29 
REMARK   10  A    between atoms: C27_37  and  O5_38 
ROOT
HETATM    1  C4  UNL     1       3.964   0.398   0.693  1.00  0.00     0.160 C 
HETATM    2  C5  UNL     1       3.988  -1.133   0.663  1.00  0.00     0.036 C 
HETATM    3  C6  UNL     1       3.135  -1.628   1.732  1.00  0.00     0.012 C 
HETATM    4  C7  UNL     1       1.747  -1.982   1.594  1.00  0.00    -0.040 C 
HETATM    5  C8  UNL     1       1.371  -2.325   3.071  1.00  0.00     0.015 C 
HETATM    6  C9  UNL     1       1.663  -3.384   0.951  1.00  0.00     0.010 C 
HETATM    7  C10 UNL     1       0.198  -3.660   1.293  1.00  0.00     0.008 C 
HETATM    8  C11 UNL     1      -0.421  -2.372   0.860  1.00  0.00     0.019 C 
HETATM    9  C12 UNL     1      -1.701  -1.998   1.440  1.00  0.00     0.123 C 
HETATM   10  C13 UNL     1      -2.474  -1.146   0.408  1.00  0.00     0.042 C 
HETATM   11  C14 UNL     1      -1.854   0.126   0.055  1.00  0.00    -0.034 C 
HETATM   12  C15 UNL     1      -1.800   1.084   1.276  1.00  0.00     0.016 C 
HETATM   13  C16 UNL     1      -2.676   0.884  -0.922  1.00  0.00    -0.002 C 
HETATM   14  C22 UNL     1      -2.318   0.350  -2.302  1.00  0.00     0.006 C 
HETATM   15  C23 UNL     1      -0.901  -0.072  -2.131  1.00  0.00     0.006 C 
HETATM   16  C24 UNL     1      -0.558   0.142  -0.667  1.00  0.00    -0.001 C 
HETATM   17  C25 UNL     1       0.652  -0.565  -0.242  1.00  0.00    -0.002 C 
HETATM   18  C26 UNL     1       1.852   0.257  -0.630  1.00  0.00     0.039 C 
HETATM   19  C27 UNL     1       2.567   0.919   0.517  1.00  0.00     0.148 C 
HETATM   20  C28 UNL     1       0.663  -1.270   1.039  1.00  0.00     0.005 C 
ENDROOT
BRANCH   1  21
HETATM   21  O2  UNL     1       4.949   0.986  -0.058  1.00  0.00    -0.312 OA
BRANCH  21  22
HETATM   22  C3  UNL     1       6.027   1.708   0.373  1.00  0.00     0.289 C 
HETATM   23  O1  UNL     1       6.103   1.834   1.595  1.00  0.00    -0.263 OA
BRANCH  22  24
HETATM   24  C2  UNL     1       6.994   2.268  -0.607  1.00  0.00     0.278 C 
HETATM   25  C1  UNL     1       7.157   3.745  -0.428  1.00  0.00     0.050 C 
BRANCH  24  26
HETATM   26  N1  UNL     1       6.579   1.943  -1.970  1.00  0.00    -0.066 N 
ATOM     27  H13 UNL     1       5.734   2.448  -2.235  1.00  0.00     0.275 HD
ATOM     28  H12 UNL     1       7.219   2.336  -2.660  1.00  0.00     0.275 HD
ATOM     29  H11 UNL     1       6.468   0.936  -2.092  1.00  0.00     0.275 HD
ENDBRANCH  24  26
ENDBRANCH  22  24
ENDBRANCH  21  22
ENDBRANCH   1  21
BRANCH  19  30
HETATM   30  O5  UNL     1       2.640   2.305   0.388  1.00  0.00    -0.393 OA
ATOM     31  H5  UNL     1       1.756   2.635   0.277  1.00  0.00     0.210 HD
ENDBRANCH  19  30
BRANCH   9  32
HETATM   32  O3  UNL     1      -2.474  -3.140   1.659  1.00  0.00    -0.395 OA
ATOM     33  H3  UNL     1      -3.310  -2.896   2.038  1.00  0.00     0.210 HD
ENDBRANCH   9  32
BRANCH  13  34
HETATM   34  C17 UNL     1      -4.132   1.081  -0.776  1.00  0.00    -0.010 C 
HETATM   35  C18 UNL     1      -4.445   2.054  -1.982  1.00  0.00     0.010 C 
BRANCH  34  36
HETATM   36  C19 UNL     1      -5.041  -0.065  -1.034  1.00  0.00     0.037 C 
BRANCH  36  37
HETATM   37  C20 UNL     1      -6.506   0.151  -0.835  1.00  0.00     0.044 C 
BRANCH  37  38
HETATM   38  C21 UNL     1      -7.278   1.022  -1.662  1.00  0.00     0.250 C 
HETATM   39  N2  UNL     1      -8.258   1.905  -1.069  1.00  0.00    -0.058 NA
HETATM   40  O4  UNL     1      -7.204   1.109  -2.908  1.00  0.00    -0.272 OA
ENDBRANCH  37  38
ENDBRANCH  36  37
ENDBRANCH  34  36
ENDBRANCH  13  34
TORSDOF 10
