REMARK  6 active torsions:
REMARK  status: ('A' for Active; 'I' for Inactive)
REMARK    1  A    between atoms: C2_2  and  C3_3 
REMARK    2  A    between atoms: C7_10  and  C8_11 
REMARK    3  A    between atoms: C14_23  and  C15_24 
REMARK    4  A    between atoms: C15_24  and  C16_25 
REMARK    5  A    between atoms: C23_35  and  C24_36 
REMARK    6  A    between atoms: C24_36  and  C25_37 
ROOT
HETATM    1  C3  UNL     1      -1.883   1.634  -0.779  1.00  0.00     0.131 C 
HETATM    2  C4  UNL     1      -2.932   1.034  -1.723  1.00  0.00     0.034 C 
HETATM    3  C5  UNL     1      -4.283   0.914  -1.100  1.00  0.00     0.030 C 
HETATM    4  C6  UNL     1      -4.350   0.023   0.098  1.00  0.00     0.233 C 
HETATM    5  N1  UNL     1      -4.568  -1.373  -0.254  1.00  0.00    -0.069 N 
ATOM      6  H11 UNL     1      -4.169  -1.621  -1.159  1.00  0.00     0.277 HD
ATOM      7  H12 UNL     1      -5.542  -1.579  -0.476  1.00  0.00     0.277 HD
HETATM    8  C7  UNL     1      -4.055  -2.181   0.828  1.00  0.00     0.214 C 
HETATM    9  C11 UNL     1      -2.562  -2.358   0.748  1.00  0.00     0.265 C 
HETATM   10  N2  UNL     1      -1.993  -2.493   2.074  1.00  0.00    -0.072 N 
ATOM     11  H21 UNL     1      -1.527  -3.391   2.204  1.00  0.00     0.277 HD
ATOM     12  H22 UNL     1      -2.710  -2.595   2.792  1.00  0.00     0.277 HD
HETATM   13  C12 UNL     1      -1.109  -1.374   2.338  1.00  0.00     0.259 C 
HETATM   14  C13 UNL     1       0.115  -1.494   1.448  1.00  0.00     0.260 C 
HETATM   15  N3  UNL     1       0.788  -0.215   1.318  1.00  0.00    -0.061 N 
ATOM     16  H31 UNL     1       0.562   0.417   2.086  1.00  0.00     0.278 HD
ATOM     17  H32 UNL     1       0.409   0.342   0.552  1.00  0.00     0.278 HD
HETATM   18  C14 UNL     1       2.227  -0.424   1.184  1.00  0.00     0.277 C 
HETATM   19  C22 UNL     1       2.898   0.877   0.959  1.00  0.00     0.249 C 
HETATM   20  O1  UNL     1       3.977   1.040   1.618  1.00  0.00    -0.271 OA
HETATM   21  N4  UNL     1       2.475   1.924   0.114  1.00  0.00    -0.345 N 
ATOM     22  H4  UNL     1       3.199   2.332  -0.478  1.00  0.00     0.163 HD
HETATM   23  C23 UNL     1       1.168   2.492  -0.026  1.00  0.00     0.184 C 
HETATM   24  C28 UNL     1       0.532   1.987  -1.297  1.00  0.00     0.282 C 
HETATM   25  O2  UNL     1       1.330   1.554  -2.169  1.00  0.00    -0.263 OA
HETATM   26  O3  UNL     1      -0.791   1.964  -1.568  1.00  0.00    -0.314 OA
ENDROOT
BRANCH  18  27
HETATM   27  C15 UNL     1       2.512  -1.319   0.013  1.00  0.00     0.047 C 
BRANCH  27  28
HETATM   28  C16 UNL     1       3.932  -1.640  -0.249  1.00  0.00    -0.012 C 
HETATM   29  C17 UNL     1       4.655  -2.357   0.857  1.00  0.00     0.005 C 
HETATM   30  C18 UNL     1       6.104  -2.513   0.496  1.00  0.00     0.000 C 
HETATM   31  C19 UNL     1       6.348  -2.787  -0.950  1.00  0.00     0.000 C 
HETATM   32  C20 UNL     1       5.125  -3.427  -1.539  1.00  0.00     0.000 C 
HETATM   33  C21 UNL     1       4.017  -2.402  -1.560  1.00  0.00     0.005 C 
ENDBRANCH  27  28
ENDBRANCH  18  27
BRANCH  23  34
HETATM   34  C24 UNL     1       1.237   3.985  -0.195  1.00  0.00     0.039 C 
BRANCH  34  35
HETATM   35  C25 UNL     1       1.822   4.784   0.894  1.00  0.00    -0.020 C 
HETATM   36  C26 UNL     1       1.737   6.277   0.464  1.00  0.00     0.009 C 
HETATM   37  C27 UNL     1       3.277   4.571   1.204  1.00  0.00     0.009 C 
ENDBRANCH  34  35
ENDBRANCH  23  34
BRANCH   8  38
HETATM   38  C8  UNL     1      -4.721  -3.524   0.928  1.00  0.00     0.010 C 
HETATM   39  C9  UNL     1      -6.216  -3.364   1.162  1.00  0.00     0.011 C 
HETATM   40  C10 UNL     1      -4.505  -4.374  -0.288  1.00  0.00     0.011 C 
ENDBRANCH   8  38
BRANCH   1  41
HETATM   41  C2  UNL     1      -2.490   2.852  -0.112  1.00  0.00     0.028 C 
HETATM   42  C1  UNL     1      -2.906   3.900  -1.092  1.00  0.00     0.007 C 
ENDBRANCH   1  41
TORSDOF 6
