REMARK  10 active torsions:
REMARK  status: ('A' for Active; 'I' for Inactive)
REMARK    1  A    between atoms: O1_2  and  C2_3 
REMARK    2  A    between atoms: C2_3  and  C3_5 
REMARK    3  A    between atoms: C3_5  and  C4_6 
REMARK    4  A    between atoms: C4_6  and  C5_7 
REMARK    5  A    between atoms: C5_7  and  N1_8 
REMARK    6  A    between atoms: N1_8  and  C7_10 
REMARK    7  A    between atoms: C12_15  and  O3_16 
REMARK    8  A    between atoms: C20_25  and  O4_26 
REMARK    9  A    between atoms: C20_25  and  C21_28 
REMARK   10  A    between atoms: C27_36  and  O7_37 
ROOT
HETATM    1  C7  UNL     1       2.704   0.798  -0.766  1.00  0.00     0.251 C 
HETATM    2  C8  UNL     1       2.213   1.097   0.610  1.00  0.00     0.044 C 
HETATM    3  C9  UNL     1       1.042   0.271   1.041  1.00  0.00    -0.003 C 
HETATM    4  C10 UNL     1       0.166   1.094   1.975  1.00  0.00     0.014 C 
HETATM    5  C11 UNL     1      -1.011   0.981   0.996  1.00  0.00     0.030 C 
HETATM    6  C12 UNL     1      -2.194   0.267   1.524  1.00  0.00     0.066 C 
HETATM    7  C13 UNL     1      -3.332   1.209   1.801  1.00  0.00     0.039 C 
HETATM    8  C14 UNL     1      -4.703   0.610   1.720  1.00  0.00     0.016 C 
HETATM    9  C15 UNL     1      -5.008  -0.249   0.576  1.00  0.00     0.002 C 
HETATM   10  C16 UNL     1      -5.476  -1.618   1.087  1.00  0.00     0.019 C 
HETATM   11  C17 UNL     1      -3.746  -0.551  -0.271  1.00  0.00     0.004 C 
HETATM   12  C18 UNL     1      -3.607   0.571  -1.181  1.00  0.00     0.009 C 
HETATM   13  C19 UNL     1      -4.972   1.283  -1.181  1.00  0.00     0.050 C 
HETATM   14  C20 UNL     1      -5.883   0.275  -0.513  1.00  0.00     0.153 C 
HETATM   15  C22 UNL     1      -2.689  -0.883   0.707  1.00  0.00     0.025 C 
HETATM   16  C23 UNL     1      -1.564  -1.736   0.179  1.00  0.00     0.009 C 
HETATM   17  C24 UNL     1      -0.519  -0.973  -0.532  1.00  0.00     0.011 C 
HETATM   18  C25 UNL     1      -0.102   0.324   0.060  1.00  0.00    -0.028 C 
HETATM   19  C26 UNL     1       0.314   1.278  -1.058  1.00  0.00     0.044 C 
HETATM   20  C27 UNL     1       1.558   0.845  -1.763  1.00  0.00     0.152 C 
ENDROOT
BRANCH   1  21
HETATM   21  N1  UNL     1       3.407  -0.459  -0.912  1.00  0.00     0.091 N 
HETATM   22  C6  UNL     1       3.942  -0.441  -2.285  1.00  0.00     0.310 C 
BRANCH  21  23
HETATM   23  C5  UNL     1       4.613  -0.466  -0.069  1.00  0.00     0.273 C 
BRANCH  23  24
HETATM   24  C4  UNL     1       5.359  -1.752  -0.200  1.00  0.00     0.040 C 
BRANCH  24  25
HETATM   25  C3  UNL     1       6.588  -1.756   0.652  1.00  0.00     0.113 C 
BRANCH  25  26
HETATM   26  C2  UNL     1       7.599  -0.750   0.317  1.00  0.00     0.258 C 
HETATM   27  O2  UNL     1       7.535   0.018  -0.669  1.00  0.00    -0.265 OA
BRANCH  26  28
HETATM   28  O1  UNL     1       8.750  -0.582   1.119  1.00  0.00    -0.326 OA
HETATM   29  C1  UNL     1       9.720   0.387   0.794  1.00  0.00     0.213 C 
ENDBRANCH  26  28
ENDBRANCH  25  26
ENDBRANCH  24  25
ENDBRANCH  23  24
ENDBRANCH  21  23
ENDBRANCH   1  21
BRANCH  20  30
HETATM   30  O7  UNL     1       1.380  -0.363  -2.440  1.00  0.00    -0.393 OA
ATOM     31  H7  UNL     1       0.664  -0.334  -3.063  1.00  0.00     0.210 HD
ENDBRANCH  20  30
BRANCH   6  32
HETATM   32  O3  UNL     1      -1.816  -0.263   2.788  1.00  0.00    -0.389 OA
ATOM     33  H3  UNL     1      -2.576  -0.722   3.127  1.00  0.00     0.210 HD
ENDBRANCH   6  32
BRANCH  14  34
HETATM   34  O4  UNL     1      -5.990  -0.797  -1.441  1.00  0.00    -0.378 OA
ATOM     35  H4  UNL     1      -6.547  -0.463  -2.134  1.00  0.00     0.211 HD
ENDBRANCH  14  34
BRANCH  14  36
HETATM   36  C21 UNL     1      -7.200   0.733  -0.172  1.00  0.00     0.209 C 
HETATM   37  O5  UNL     1      -7.419   1.721   0.548  1.00  0.00    -0.646 OA
HETATM   38  O6  UNL     1      -8.317   0.059  -0.654  1.00  0.00    -0.646 OA
ENDBRANCH  14  36
TORSDOF 10
