REMARK  8 active torsions:
REMARK  status: ('A' for Active; 'I' for Inactive)
REMARK    1  A    between atoms: C2_2  and  N1_3 
REMARK    2  A    between atoms: C2_2  and  C17_26 
REMARK       I    between atoms: N1_3  and  C3_5 
REMARK    3  A    between atoms: C3_5  and  O2_7 
REMARK    4  A    between atoms: O2_7  and  C4_8 
REMARK    5  A    between atoms: C7_11  and  O3_12 
REMARK    6  A    between atoms: C8_15  and  C9_16 
REMARK    7  A    between atoms: C9_16  and  O5_19 
REMARK       I    between atoms: C17_26  and  N2_28 
REMARK    8  A    between atoms: N2_28  and  C18_30 
ROOT
HETATM    1  N1  UNL     1      -1.223  -0.819   1.872  1.00  0.00    -0.324 N 
ATOM      2  H1  UNL     1      -1.386  -0.152   2.626  1.00  0.00     0.165 HD
HETATM    3  C3  UNL     1       0.053  -0.923   1.270  1.00  0.00     0.361 C 
HETATM    4  O1  UNL     1       0.228  -1.746   0.350  1.00  0.00    -0.238 OA
ENDROOT
BRANCH   3   5
HETATM    5  O2  UNL     1       1.138  -0.149   1.650  1.00  0.00    -0.298 OA
BRANCH   5   6
HETATM    6  C4  UNL     1       2.431  -0.255   1.040  1.00  0.00     0.138 C 
HETATM    7  C5  UNL     1       3.373  -0.764   2.054  1.00  0.00     0.038 C 
HETATM    8  C6  UNL     1       4.650  -0.015   2.224  1.00  0.00     0.071 C 
HETATM    9  C7  UNL     1       5.138   0.309   0.797  1.00  0.00     0.166 C 
HETATM   10  O4  UNL     1       6.428   0.664   0.884  1.00  0.00    -0.347 OA
HETATM   11  C14 UNL     1       4.199   1.418   0.371  1.00  0.00     0.054 C 
HETATM   12  C8  UNL     1       6.984   1.541   0.014  1.00  0.00     0.158 C 
HETATM   13  C12 UNL     1       6.088   2.498  -0.685  1.00  0.00     0.036 C 
HETATM   14  C13 UNL     1       4.682   2.014  -0.927  1.00  0.00     0.013 C 
HETATM   15  C15 UNL     1       2.787   0.994   0.311  1.00  0.00     0.020 C 
HETATM   16  C16 UNL     1       2.298   0.924  -1.145  1.00  0.00     0.013 C 
BRANCH   9  17
HETATM   17  O3  UNL     1       4.884  -0.868   0.081  1.00  0.00    -0.365 OA
ATOM     18  H3  UNL     1       5.185  -0.668  -0.798  1.00  0.00     0.213 HD
ENDBRANCH   9  17
BRANCH  12  19
HETATM   19  C9  UNL     1       7.997   0.888  -0.927  1.00  0.00     0.077 C 
HETATM   20  C10 UNL     1       9.168   0.328  -0.134  1.00  0.00     0.048 C 
HETATM   21  C11 UNL     1       7.438  -0.213  -1.758  1.00  0.00     0.048 C 
BRANCH  19  22
HETATM   22  O5  UNL     1       8.530   1.841  -1.796  1.00  0.00    -0.388 OA
ATOM     23  H5  UNL     1       9.159   1.435  -2.381  1.00  0.00     0.210 HD
ENDBRANCH  19  22
ENDBRANCH  12  19
ENDBRANCH   5   6
ENDBRANCH   3   5
BRANCH   1  24
HETATM   24  C2  UNL     1      -2.291  -1.670   1.404  1.00  0.00     0.174 C 
HETATM   25  C1  UNL     1      -2.692  -2.570   2.575  1.00  0.00     0.042 C 
BRANCH  24  26
HETATM   26  C17 UNL     1      -3.465  -0.870   0.943  1.00  0.00     0.240 C 
HETATM   27  O6  UNL     1      -3.428   0.376   0.995  1.00  0.00    -0.271 OA
HETATM   28  N2  UNL     1      -4.636  -1.496   0.442  1.00  0.00    -0.350 N 
ATOM     29  H2  UNL     1      -4.648  -2.515   0.408  1.00  0.00     0.163 HD
BRANCH  28  30
HETATM   30  C18 UNL     1      -5.806  -0.803  -0.021  1.00  0.00     0.034 C 
HETATM   31  C19 UNL     1      -5.545   0.118  -1.181  1.00  0.00     0.035 C 
HETATM   32  C20 UNL     1      -6.838   0.752  -1.621  1.00  0.00    -0.012 C 
HETATM   33  C21 UNL     1      -7.447   1.534  -0.481  1.00  0.00     0.009 C 
HETATM   34  C25 UNL     1      -7.795  -0.284  -2.132  1.00  0.00     0.009 C 
HETATM   35  C22 UNL     1      -7.764   0.563   0.628  1.00  0.00    -0.012 C 
HETATM   36  C23 UNL     1      -8.740  -0.471   0.162  1.00  0.00     0.009 C 
HETATM   37  C27 UNL     1      -6.464  -0.036   1.112  1.00  0.00     0.035 C 
HETATM   38  C24 UNL     1      -8.095  -1.221  -0.981  1.00  0.00    -0.012 C 
HETATM   39  C26 UNL     1      -6.820  -1.826  -0.497  1.00  0.00     0.035 C 
ENDBRANCH  28  30
ENDBRANCH  24  26
ENDBRANCH   1  24
TORSDOF 8
