REMARK  9 active torsions:
REMARK  status: ('A' for Active; 'I' for Inactive)
REMARK    1  A    between atoms: C2_2  and  C3_3 
REMARK    2  A    between atoms: C3_3  and  C4_4 
REMARK    3  A    between atoms: C4_4  and  C5_5 
REMARK       I    between atoms: C5_5  and  N1_7 
REMARK    4  A    between atoms: N1_7  and  C6_9 
REMARK    5  A    between atoms: C7_10  and  O2_11 
REMARK    6  A    between atoms: C8_13  and  O3_14 
REMARK    7  A    between atoms: C17_25  and  C18_26 
REMARK    8  A    between atoms: C18_26  and  C19_28 
REMARK    9  A    between atoms: C19_28  and  O6_29 
ROOT
HETATM    1  C6  UNL     1       2.467  -1.557   0.101  1.00  0.00     0.120 C 
HETATM    2  C7  UNL     1       2.618  -3.031   0.259  1.00  0.00     0.170 C 
HETATM    3  C8  UNL     1       1.300  -3.611   0.636  1.00  0.00     0.154 C 
HETATM    4  C9  UNL     1       0.197  -2.589   0.747  1.00  0.00     0.033 C 
HETATM    5  C10 UNL     1      -0.998  -3.346   1.258  1.00  0.00     0.086 C 
HETATM    6  C11 UNL     1      -1.791  -2.486   2.159  1.00  0.00     0.127 C 
HETATM    7  O4  UNL     1      -2.137  -2.978   3.198  1.00  0.00    -0.298 OA
HETATM    8  C12 UNL     1      -2.204  -1.088   1.924  1.00  0.00     0.083 C 
HETATM    9  C13 UNL     1      -2.180  -0.816   0.405  1.00  0.00     0.002 C 
HETATM   10  C14 UNL     1      -3.268   0.133   0.132  1.00  0.00    -0.001 C 
HETATM   11  C15 UNL     1      -4.065  -0.238  -1.126  1.00  0.00     0.006 C 
HETATM   12  C16 UNL     1      -4.644   1.068  -1.613  1.00  0.00     0.013 C 
HETATM   13  C17 UNL     1      -4.117   2.148  -0.694  1.00  0.00     0.066 C 
HETATM   14  C20 UNL     1      -2.858   1.536  -0.172  1.00  0.00    -0.030 C 
HETATM   15  C21 UNL     1      -2.248   2.259   0.992  1.00  0.00     0.016 C 
HETATM   16  C22 UNL     1      -1.887   1.408  -1.337  1.00  0.00     0.011 C 
HETATM   17  C23 UNL     1      -0.663   0.623  -1.013  1.00  0.00     0.006 C 
HETATM   18  C24 UNL     1      -0.797  -0.486  -0.031  1.00  0.00    -0.001 C 
HETATM   19  C25 UNL     1       0.000  -1.744  -0.448  1.00  0.00    -0.028 C 
HETATM   20  C26 UNL     1      -0.629  -2.418  -1.619  1.00  0.00     0.016 C 
HETATM   21  C27 UNL     1       1.377  -1.261  -0.896  1.00  0.00     0.016 C 
HETATM   22  C28 UNL     1       1.778  -1.745  -2.249  1.00  0.00     0.013 C 
ENDROOT
BRANCH   1  23
HETATM   23  N1  UNL     1       3.693  -0.960  -0.406  1.00  0.00    -0.353 N 
HETATM   24  C5  UNL     1       4.364   0.103   0.293  1.00  0.00     0.217 C 
HETATM   25  O1  UNL     1       3.836   0.486   1.362  1.00  0.00    -0.274 OA
ATOM     26  H1  UNL     1       4.088  -1.305  -1.281  1.00  0.00     0.163 HD
BRANCH  24  27
HETATM   27  C4  UNL     1       5.604   0.699  -0.230  1.00  0.00     0.103 C 
BRANCH  27  28
HETATM   28  C3  UNL     1       6.168   1.825   0.550  1.00  0.00     0.009 C 
BRANCH  28  29
HETATM   29  C2  UNL     1       5.278   3.036   0.670  1.00  0.00    -0.004 C 
HETATM   30  C1  UNL     1       6.011   4.080   1.493  1.00  0.00     0.005 C 
ENDBRANCH  28  29
ENDBRANCH  27  28
ENDBRANCH  24  27
ENDBRANCH   1  23
BRANCH   2  31
HETATM   31  O2  UNL     1       3.583  -3.254   1.275  1.00  0.00    -0.391 OA
ATOM     32  H2  UNL     1       3.679  -4.194   1.376  1.00  0.00     0.210 HD
ENDBRANCH   2  31
BRANCH   3  33
HETATM   33  O3  UNL     1       0.927  -4.676  -0.208  1.00  0.00    -0.393 OA
ATOM     34  H3  UNL     1       0.086  -5.046   0.033  1.00  0.00     0.210 HD
ENDBRANCH   3  33
BRANCH  13  35
HETATM   35  C18 UNL     1      -5.073   2.560   0.350  1.00  0.00     0.154 C 
HETATM   36  O5  UNL     1      -4.859   2.462   1.546  1.00  0.00    -0.295 OA
BRANCH  35  37
HETATM   37  C19 UNL     1      -6.377   3.129  -0.072  1.00  0.00     0.242 C 
BRANCH  37  38
HETATM   38  O6  UNL     1      -7.162   3.476   1.051  1.00  0.00    -0.394 OA
ATOM     39  H6  UNL     1      -7.997   3.840   0.781  1.00  0.00     0.209 HD
ENDBRANCH  37  38
ENDBRANCH  35  37
ENDBRANCH  13  35
TORSDOF 9
