REMARK  5 active torsions:
REMARK  status: ('A' for Active; 'I' for Inactive)
REMARK    1  A    between atoms: C4_4  and  C5_5 
REMARK    2  A    between atoms: C5_5  and  O1_6 
REMARK    3  A    between atoms: O1_6  and  C6_7 
REMARK    4  A    between atoms: C9_10  and  C10_11 
REMARK    5  A    between atoms: C12_13  and  C13_14 
ROOT
HETATM    1  C10 UNL     1      -1.301   0.023  -1.032  1.00  0.00    -0.024 A 
HETATM    2  C11 UNL     1      -2.227  -0.016  -0.029  1.00  0.00     0.025 A 
HETATM    3  C12 UNL     1      -3.597  -0.061  -0.298  1.00  0.00    -0.014 A 
HETATM    4  C19 UNL     1      -4.094  -0.072  -1.577  1.00  0.00    -0.015 A 
HETATM    5  C20 UNL     1      -5.426  -0.130  -1.905  1.00  0.00     0.013 A 
HETATM    6  C21 UNL     1      -5.866  -0.147  -3.219  1.00  0.00     0.001 A 
HETATM    7  C22 UNL     1      -4.926  -0.106  -4.217  1.00  0.00     0.001 A 
HETATM    8  C23 UNL     1      -3.590  -0.049  -3.897  1.00  0.00     0.012 A 
HETATM    9  C24 UNL     1      -3.133  -0.031  -2.596  1.00  0.00    -0.024 A 
HETATM   10  C25 UNL     1      -1.772   0.015  -2.323  1.00  0.00     0.024 A 
ENDROOT
BRANCH   1  11
HETATM   11  C9  UNL     1       0.147   0.072  -0.761  1.00  0.00    -0.026 A 
HETATM   12  C8  UNL     1       1.015   0.716  -1.615  1.00  0.00     0.015 A 
HETATM   13  C7  UNL     1       2.379   0.763  -1.359  1.00  0.00     0.037 A 
HETATM   14  C6  UNL     1       2.897   0.156  -0.227  1.00  0.00     0.069 A 
HETATM   15  C27 UNL     1       2.029  -0.480   0.614  1.00  0.00     0.037 A 
HETATM   16  C26 UNL     1       0.684  -0.526   0.361  1.00  0.00     0.015 A 
BRANCH  14  17
HETATM   17  O1  UNL     1       4.259   0.223  -0.005  1.00  0.00    -0.347 OA
BRANCH  17  18
HETATM   18  C5  UNL     1       4.900  -0.351   1.103  1.00  0.00     0.214 C 
BRANCH  18  19
HETATM   19  C4  UNL     1       6.345  -0.077   1.004  1.00  0.00    -0.034 A 
HETATM   20  C3  UNL     1       7.169  -0.959   0.351  1.00  0.00     0.009 A 
HETATM   21  C2  UNL     1       8.519  -0.735   0.240  1.00  0.00     0.001 A 
HETATM   22  C1  UNL     1       9.082   0.395   0.789  1.00  0.00     0.000 A 
HETATM   23  C29 UNL     1       8.251   1.291   1.452  1.00  0.00     0.001 A 
HETATM   24  C28 UNL     1       6.879   1.050   1.558  1.00  0.00     0.009 A 
ENDBRANCH  18  19
ENDBRANCH  17  18
ENDBRANCH  14  17
ENDBRANCH   1  11
BRANCH   3  25
HETATM   25  C13 UNL     1      -4.545  -0.053   0.830  1.00  0.00    -0.025 A 
HETATM   26  C14 UNL     1      -4.475  -1.066   1.781  1.00  0.00     0.012 A 
HETATM   27  C15 UNL     1      -5.298  -1.099   2.888  1.00  0.00     0.001 A 
HETATM   28  C16 UNL     1      -6.220  -0.078   3.043  1.00  0.00     0.000 A 
HETATM   29  C17 UNL     1      -6.302   0.932   2.111  1.00  0.00     0.001 A 
HETATM   30  C18 UNL     1      -5.470   0.934   1.024  1.00  0.00     0.012 A 
ENDBRANCH   3  25
TORSDOF 5
