REMARK  5 active torsions:
REMARK  status: ('A' for Active; 'I' for Inactive)
REMARK    1  A    between atoms: C5_6  and  C6_7 
REMARK    2  A    between atoms: C9_10  and  C10_11 
REMARK    3  A    between atoms: C11_12  and  C12_13 
REMARK    4  A    between atoms: C15_16  and  C16_17 
REMARK    5  A    between atoms: C17_18  and  C18_19 
ROOT
HETATM    1  N1  UNL     1      12.220   0.713   0.286  1.00  0.00    -0.191 NA
HETATM    2  C1  UNL     1      11.062   0.599   0.271  1.00  0.00     0.099 C 
HETATM    3  C2  UNL     1       9.623   0.438   0.262  1.00  0.00     0.044 A 
HETATM    4  C3  UNL     1       9.040  -0.508  -0.556  1.00  0.00     0.023 A 
HETATM    5  C4  UNL     1       7.674  -0.694  -0.595  1.00  0.00     0.014 A 
HETATM    6  C5  UNL     1       6.843   0.082   0.201  1.00  0.00    -0.026 A 
HETATM    7  C28 UNL     1       7.448   1.021   1.010  1.00  0.00     0.014 A 
HETATM    8  C29 UNL     1       8.810   1.220   1.062  1.00  0.00     0.023 A 
ENDROOT
BRANCH   6   9
HETATM    9  C6  UNL     1       5.400  -0.122   0.153  1.00  0.00    -0.026 A 
HETATM   10  C7  UNL     1       4.832  -1.355  -0.094  1.00  0.00     0.013 A 
HETATM   11  C8  UNL     1       3.477  -1.532  -0.137  1.00  0.00     0.012 A 
HETATM   12  C9  UNL     1       2.630  -0.442   0.073  1.00  0.00    -0.036 A 
HETATM   13  C26 UNL     1       3.147   0.780   0.317  1.00  0.00     0.012 A 
HETATM   14  C27 UNL     1       4.537   0.930   0.355  1.00  0.00     0.013 A 
BRANCH  12  15
HETATM   15  C10 UNL     1       1.199  -0.661   0.022  1.00  0.00     0.012 C 
HETATM   16  C11 UNL     1       0.352   0.318   0.210  1.00  0.00     0.012 C 
BRANCH  16  17
HETATM   17  C12 UNL     1      -1.076   0.068   0.153  1.00  0.00    -0.036 A 
HETATM   18  C13 UNL     1      -1.931   1.137   0.358  1.00  0.00     0.012 A 
HETATM   19  C14 UNL     1      -3.311   0.941   0.312  1.00  0.00     0.012 A 
HETATM   20  C15 UNL     1      -3.840  -0.303   0.066  1.00  0.00    -0.036 A 
HETATM   21  C24 UNL     1      -2.978  -1.378  -0.141  1.00  0.00     0.012 A 
HETATM   22  C25 UNL     1      -1.621  -1.162  -0.091  1.00  0.00     0.012 A 
BRANCH  20  23
HETATM   23  C16 UNL     1      -5.285  -0.488   0.023  1.00  0.00     0.012 C 
HETATM   24  C17 UNL     1      -6.127   0.486   0.210  1.00  0.00     0.012 C 
BRANCH  24  25
HETATM   25  C18 UNL     1      -7.560   0.248   0.157  1.00  0.00    -0.036 A 
HETATM   26  C19 UNL     1      -8.153  -0.966  -0.084  1.00  0.00     0.011 A 
HETATM   27  C20 UNL     1      -9.548  -1.108  -0.118  1.00  0.00     0.001 A 
HETATM   28  C21 UNL     1     -10.391  -0.041   0.089  1.00  0.00     0.000 A 
HETATM   29  C22 UNL     1      -9.803   1.181   0.332  1.00  0.00     0.001 A 
HETATM   30  C23 UNL     1      -8.440   1.318   0.364  1.00  0.00     0.011 A 
ENDBRANCH  24  25
ENDBRANCH  20  23
ENDBRANCH  16  17
ENDBRANCH  12  15
ENDBRANCH   6   9
TORSDOF 5
