REMARK  5 active torsions:
REMARK  status: ('A' for Active; 'I' for Inactive)
REMARK    1  A    between atoms: C4_4  and  C5_5 
REMARK    2  A    between atoms: C5_5  and  N1_6 
REMARK    3  A    between atoms: C7_8  and  C8_9 
REMARK    4  A    between atoms: C14_15  and  C15_16 
REMARK    5  A    between atoms: C21_22  and  C22_23 
ROOT
HETATM    1  N1  UNL     1       0.987  -0.465   1.215  1.00  0.00    -0.350 N 
HETATM    2  C6  UNL     1       0.192  -1.572   1.263  1.00  0.00     0.105 A 
HETATM    3  C7  UNL     1      -1.009  -1.285   0.631  1.00  0.00     0.003 A 
HETATM    4  C14 UNL     1      -0.905   0.013   0.209  1.00  0.00     0.014 A 
HETATM    5  C21 UNL     1       0.346   0.522   0.577  1.00  0.00     0.057 A 
ENDROOT
BRANCH   1   6
HETATM    6  C5  UNL     1       2.311  -0.404   1.779  1.00  0.00     0.167 C 
BRANCH   6   7
HETATM    7  C4  UNL     1       3.372  -0.808   0.800  1.00  0.00    -0.040 A 
HETATM    8  C3  UNL     1       4.055   0.100   0.021  1.00  0.00     0.009 A 
HETATM    9  C2  UNL     1       5.006  -0.321  -0.857  1.00  0.00     0.001 A 
HETATM   10  C1  UNL     1       5.344  -1.646  -1.022  1.00  0.00     0.000 A 
HETATM   11  C29 UNL     1       4.652  -2.555  -0.234  1.00  0.00     0.001 A 
HETATM   12  C28 UNL     1       3.686  -2.163   0.661  1.00  0.00     0.009 A 
ENDBRANCH   6   7
ENDBRANCH   1   6
BRANCH   5  13
HETATM   13  C22 UNL     1       0.783   1.877   0.283  1.00  0.00    -0.008 A 
HETATM   14  C23 UNL     1       0.959   2.373  -0.992  1.00  0.00     0.014 A 
HETATM   15  C24 UNL     1       1.372   3.667  -1.212  1.00  0.00     0.001 A 
HETATM   16  C25 UNL     1       1.627   4.523  -0.146  1.00  0.00     0.000 A 
HETATM   17  C26 UNL     1       1.451   4.030   1.145  1.00  0.00     0.001 A 
HETATM   18  C27 UNL     1       1.036   2.730   1.336  1.00  0.00     0.014 A 
ENDBRANCH   5  13
BRANCH   3  19
HETATM   19  C8  UNL     1      -2.129  -2.193   0.465  1.00  0.00    -0.024 A 
HETATM   20  C9  UNL     1      -2.491  -2.767  -0.730  1.00  0.00     0.012 A 
HETATM   21  C10 UNL     1      -3.555  -3.614  -0.859  1.00  0.00     0.001 A 
HETATM   22  C11 UNL     1      -4.302  -3.909   0.257  1.00  0.00     0.000 A 
HETATM   23  C12 UNL     1      -3.991  -3.364   1.494  1.00  0.00     0.001 A 
HETATM   24  C13 UNL     1      -2.909  -2.516   1.571  1.00  0.00     0.012 A 
ENDBRANCH   3  19
BRANCH   4  25
HETATM   25  C15 UNL     1      -1.914   0.776  -0.510  1.00  0.00    -0.023 A 
HETATM   26  C16 UNL     1      -2.580   1.792   0.175  1.00  0.00     0.012 A 
HETATM   27  C17 UNL     1      -3.539   2.551  -0.453  1.00  0.00     0.001 A 
HETATM   28  C18 UNL     1      -3.834   2.289  -1.779  1.00  0.00     0.000 A 
HETATM   29  C19 UNL     1      -3.201   1.297  -2.489  1.00  0.00     0.001 A 
HETATM   30  C20 UNL     1      -2.245   0.552  -1.836  1.00  0.00     0.012 A 
ENDBRANCH   4  25
TORSDOF 5
