REMARK  5 active torsions:
REMARK  status: ('A' for Active; 'I' for Inactive)
REMARK    1  A    between atoms: C2_2  and  C3_3 
REMARK    2  A    between atoms: C2_2  and  C20_21 
REMARK    3  A    between atoms: C5_5  and  O1_6 
REMARK    4  A    between atoms: O1_6  and  C6_7 
REMARK    5  A    between atoms: C6_7  and  C7_8 
ROOT
HETATM    1  C3  UNL     1       1.022  -0.099   1.439  1.00  0.00    -0.022 A 
HETATM    2  C4  UNL     1       0.072  -0.034   0.460  1.00  0.00     0.050 A 
HETATM    3  C5  UNL     1      -1.137  -0.694   0.510  1.00  0.00     0.081 A 
HETATM    4  C13 UNL     1      -1.347  -1.470   1.668  1.00  0.00     0.007 A 
HETATM    5  C14 UNL     1      -2.542  -2.176   1.791  1.00  0.00     0.015 A 
HETATM    6  C15 UNL     1      -2.732  -2.928   2.916  1.00  0.00     0.001 A 
HETATM    7  C16 UNL     1      -1.772  -3.009   3.932  1.00  0.00     0.001 A 
HETATM    8  C17 UNL     1      -0.595  -2.317   3.814  1.00  0.00     0.012 A 
HETATM    9  C18 UNL     1      -0.404  -1.543   2.656  1.00  0.00    -0.022 A 
HETATM   10  C19 UNL     1       0.802  -0.870   2.586  1.00  0.00     0.024 A 
ENDROOT
BRANCH   1  11
HETATM   11  C2  UNL     1       2.291   0.584   1.382  1.00  0.00    -0.024 C 
HETATM   12  C1  UNL     1       2.636   1.273   2.462  1.00  0.00     0.025 C 
BRANCH  11  13
HETATM   13  C20 UNL     1       3.211   0.520   0.267  1.00  0.00    -0.015 A 
HETATM   14  C21 UNL     1       3.725  -0.754  -0.044  1.00  0.00     0.013 A 
HETATM   15  C22 UNL     1       4.617  -0.837  -1.062  1.00  0.00     0.002 A 
HETATM   16  C23 UNL     1       5.032   0.273  -1.799  1.00  0.00     0.012 A 
HETATM   17  C24 UNL     1       4.493   1.521  -1.454  1.00  0.00    -0.025 A 
HETATM   18  C25 UNL     1       4.907   2.605  -2.206  1.00  0.00     0.012 A 
HETATM   19  C29 UNL     1       3.590   1.647  -0.433  1.00  0.00    -0.015 A 
HETATM   20  C26 UNL     1       4.375   3.861  -1.896  1.00  0.00     0.001 A 
HETATM   21  C27 UNL     1       3.465   3.991  -0.871  1.00  0.00     0.001 A 
HETATM   22  C28 UNL     1       3.059   2.905  -0.128  1.00  0.00     0.013 A 
ENDBRANCH  11  13
ENDBRANCH   1  11
BRANCH   3  23
HETATM   23  O1  UNL     1      -2.137  -0.674  -0.416  1.00  0.00    -0.346 OA
BRANCH  23  24
HETATM   24  C6  UNL     1      -2.286  -0.069  -1.631  1.00  0.00     0.214 C 
BRANCH  24  25
HETATM   25  C7  UNL     1      -3.652  -0.335  -2.136  1.00  0.00    -0.034 A 
HETATM   26  C8  UNL     1      -4.031  -1.486  -2.740  1.00  0.00     0.009 A 
HETATM   27  C9  UNL     1      -5.338  -1.622  -3.151  1.00  0.00     0.001 A 
HETATM   28  C10 UNL     1      -6.281  -0.603  -2.962  1.00  0.00     0.000 A 
HETATM   29  C11 UNL     1      -5.904   0.570  -2.350  1.00  0.00     0.001 A 
HETATM   30  C12 UNL     1      -4.571   0.673  -1.945  1.00  0.00     0.009 A 
ENDBRANCH  24  25
ENDBRANCH  23  24
ENDBRANCH   3  23
TORSDOF 5
