REMARK  6 active torsions:
REMARK  status: ('A' for Active; 'I' for Inactive)
REMARK    1  A    between atoms: C2_2  and  N1_3 
REMARK    2  A    between atoms: N4_12  and  C6_13 
REMARK    3  A    between atoms: C6_13  and  C7_14 
REMARK    4  A    between atoms: C10_17  and  C11_18 
REMARK       I    between atoms: C11_18  and  N5_20 
REMARK    5  A    between atoms: N5_20  and  C12_22 
REMARK    6  A    between atoms: C16_26  and  C17_27 
ROOT
HETATM    1  C7  UNL     1      -1.477  -0.064   0.943  1.00  0.00    -0.038 A 
HETATM    2  C8  UNL     1      -1.302   0.936   0.044  1.00  0.00     0.010 A 
HETATM    3  C9  UNL     1      -0.202   1.031  -0.814  1.00  0.00     0.017 A 
HETATM    4  C10 UNL     1       0.781   0.071  -0.771  1.00  0.00     0.032 A 
HETATM    5  C22 UNL     1       0.620  -0.954   0.136  1.00  0.00     0.017 A 
HETATM    6  C23 UNL     1      -0.467  -1.039   0.977  1.00  0.00     0.010 A 
ENDROOT
BRANCH   4   7
HETATM    7  C11 UNL     1       1.944   0.142  -1.656  1.00  0.00     0.257 C 
HETATM    8  O2  UNL     1       2.053   1.086  -2.465  1.00  0.00    -0.267 OA
HETATM    9  N5  UNL     1       2.939  -0.860  -1.588  1.00  0.00    -0.309 N 
ATOM     10  H5  UNL     1       2.760  -1.792  -1.961  1.00  0.00     0.170 HD
BRANCH   9  11
HETATM   11  C12 UNL     1       4.080  -0.579  -1.046  1.00  0.00     0.108 A 
HETATM   12  C13 UNL     1       5.056  -1.554  -0.977  1.00  0.00     0.049 A 
HETATM   13  C14 UNL     1       6.279  -1.275  -0.404  1.00  0.00     0.018 A 
HETATM   14  C15 UNL     1       6.544  -0.026   0.106  1.00  0.00     0.004 A 
HETATM   15  C16 UNL     1       7.745   0.307   0.687  1.00  0.00     0.014 A 
HETATM   16  C21 UNL     1       5.545   0.959   0.031  1.00  0.00     0.044 A 
HETATM   17  C18 UNL     1       7.930   1.617   1.182  1.00  0.00     0.015 A 
HETATM   18  C19 UNL     1       6.967   2.570   1.111  1.00  0.00     0.003 A 
HETATM   19  C20 UNL     1       5.774   2.223   0.529  1.00  0.00     0.030 A 
HETATM   20  N6  UNL     1       4.378   0.620  -0.540  1.00  0.00    -0.342 N 
ATOM     21  H6  UNL     1       3.657   1.340  -0.592  1.00  0.00     0.167 HD
BRANCH  15  22
HETATM   22  C17 UNL     1       8.832  -0.637   0.817  1.00  0.00     0.271 C 
HETATM   23  O3  UNL     1       8.905  -1.825   0.502  1.00  0.00    -0.301 OA
ENDBRANCH  15  22
ENDBRANCH   9  11
ENDBRANCH   4   7
BRANCH   1  24
HETATM   24  C6  UNL     1      -2.617  -0.202   1.853  1.00  0.00     0.188 C 
BRANCH  24  25
HETATM   25  N4  UNL     1      -3.604  -1.130   1.331  1.00  0.00    -0.281 N 
HETATM   26  N3  UNL     1      -3.520  -2.470   1.462  1.00  0.00    -0.307 N 
HETATM   27  C5  UNL     1      -4.535  -3.078   0.855  1.00  0.00     0.139 A 
ATOM     28  H3  UNL     1      -2.774  -2.954   1.962  1.00  0.00     0.186 HD
HETATM   29  C4  UNL     1      -5.336  -2.109   0.292  1.00  0.00     0.087 A 
HETATM   30  N2  UNL     1      -6.475  -2.199  -0.412  1.00  0.00    -0.305 N 
HETATM   31  C24 UNL     1      -4.716  -0.910   0.616  1.00  0.00     0.147 A 
HETATM   32  C3  UNL     1      -7.038  -1.054  -0.822  1.00  0.00     0.330 A 
ATOM     33  H2  UNL     1      -6.896  -3.103  -0.627  1.00  0.00     0.171 HD
HETATM   34  N1  UNL     1      -6.476   0.130  -0.532  1.00  0.00    -0.265 N 
HETATM   35  O1  UNL     1      -8.102  -1.097  -1.483  1.00  0.00    -0.246 OA
HETATM   36  C25 UNL     1      -5.319   0.241   0.183  1.00  0.00     0.282 A 
HETATM   37  O4  UNL     1      -4.833   1.358   0.432  1.00  0.00    -0.265 OA
BRANCH  34  38
HETATM   38  C2  UNL     1      -7.117   1.341  -0.994  1.00  0.00     0.133 C 
HETATM   39  C1  UNL     1      -6.621   1.751  -2.370  1.00  0.00     0.027 C 
ENDBRANCH  34  38
ENDBRANCH  24  25
ENDBRANCH   1  24
TORSDOF 6
