REMARK  6 active torsions:
REMARK  status: ('A' for Active; 'I' for Inactive)
REMARK    1  A    between atoms: C6_6  and  N1_7 
REMARK    2  A    between atoms: N1_7  and  C7_9 
REMARK    3  A    between atoms: C12_18  and  C13_19 
REMARK    4  A    between atoms: N4_21  and  C15_22 
REMARK    5  A    between atoms: C15_22  and  C16_23 
REMARK       I    between atoms: C16_23  and  N5_25 
REMARK    6  A    between atoms: C22_35  and  C23_36 
ROOT
HETATM    1  C1  UNL     1      -9.189  -1.519  -1.095  1.00  0.00     0.018 C 
HETATM    2  C2  UNL     1      -7.997  -1.281  -1.009  1.00  0.00    -0.077 C 
HETATM    3  C3  UNL     1      -6.590  -1.005  -0.934  1.00  0.00     0.023 A 
HETATM    4  C4  UNL     1      -5.709  -1.950  -1.418  1.00  0.00     0.023 A 
HETATM    5  C5  UNL     1      -4.357  -1.685  -1.347  1.00  0.00     0.031 A 
HETATM    6  C6  UNL     1      -3.891  -0.487  -0.796  1.00  0.00     0.041 A 
HETATM    7  C22 UNL     1      -4.764   0.462  -0.310  1.00  0.00    -0.011 A 
HETATM    8  C25 UNL     1      -6.112   0.185  -0.387  1.00  0.00    -0.034 A 
HETATM    9  C26 UNL     1      -7.067   1.203   0.135  1.00  0.00     0.050 C 
ENDROOT
BRANCH   7  10
HETATM   10  C23 UNL     1      -4.265   1.749   0.283  1.00  0.00     0.165 C 
HETATM   11  C24 UNL     1      -3.826   2.666  -0.773  1.00  0.00     0.063 C 
HETATM   12  N7  UNL     1      -3.479   3.416  -1.608  1.00  0.00    -0.197 NA
ENDBRANCH   7  10
BRANCH   6  13
HETATM   13  N1  UNL     1      -2.508  -0.298  -0.770  1.00  0.00    -0.341 N 
ATOM     14  H1  UNL     1      -2.109   0.132  -1.605  1.00  0.00     0.167 HD
BRANCH  13  15
HETATM   15  C7  UNL     1      -1.678  -0.585   0.144  1.00  0.00     0.119 A 
HETATM   16  N2  UNL     1      -1.976  -1.150   1.315  1.00  0.00    -0.332 N 
HETATM   17  C8  UNL     1      -1.004  -1.401   2.193  1.00  0.00     0.079 A 
ATOM     18  H2  UNL     1      -2.942  -1.389   1.538  1.00  0.00     0.168 HD
HETATM   19  C9  UNL     1      -1.377  -2.032   3.488  1.00  0.00     0.089 C 
HETATM   20  N3  UNL     1       0.302  -1.103   1.948  1.00  0.00    -0.345 N 
HETATM   21  C10 UNL     1       0.649  -0.538   0.793  1.00  0.00     0.048 A 
ATOM     22  H3  UNL     1       1.014  -1.312   2.648  1.00  0.00     0.167 HD
HETATM   23  C11 UNL     1       1.966  -0.209   0.484  1.00  0.00     0.043 A 
HETATM   24  C21 UNL     1      -0.340  -0.269  -0.130  1.00  0.00     0.035 A 
HETATM   25  C12 UNL     1       2.278   0.377  -0.731  1.00  0.00    -0.017 A 
HETATM   26  C19 UNL     1       1.297   0.651  -1.663  1.00  0.00     0.013 A 
HETATM   27  C20 UNL     1       0.000   0.321  -1.342  1.00  0.00     0.018 A 
BRANCH  25  28
HETATM   28  C13 UNL     1       3.642   0.718  -1.062  1.00  0.00     0.061 A 
HETATM   29  C14 UNL     1       4.600   1.334  -0.289  1.00  0.00     0.128 A 
HETATM   30  N4  UNL     1       5.709   1.437  -1.026  1.00  0.00    -0.291 N 
HETATM   31  N6  UNL     1       5.498   0.921  -2.216  1.00  0.00    -0.264 N 
HETATM   32  C18 UNL     1       4.251   0.471  -2.278  1.00  0.00     0.272 A 
ATOM     33  H6  UNL     1       6.183   0.874  -2.971  1.00  0.00     0.190 HD
HETATM   34  O2  UNL     1       3.742  -0.081  -3.290  1.00  0.00    -0.266 OA
BRANCH  30  35
HETATM   35  C15 UNL     1       6.952   2.023  -0.588  1.00  0.00     0.250 C 
BRANCH  35  36
HETATM   36  C16 UNL     1       7.855   1.046   0.032  1.00  0.00     0.236 C 
HETATM   37  O1  UNL     1       8.971   1.430   0.459  1.00  0.00    -0.272 OA
HETATM   38  N5  UNL     1       7.440  -0.308   0.129  1.00  0.00    -0.364 N 
HETATM   39  C17 UNL     1       8.329  -1.292   0.744  1.00  0.00     0.149 C 
ATOM     40  H5  UNL     1       6.528  -0.592  -0.228  1.00  0.00     0.161 HD
ENDBRANCH  35  36
ENDBRANCH  30  35
ENDBRANCH  25  28
ENDBRANCH  13  15
ENDBRANCH   6  13
TORSDOF 6
