REMARK  6 active torsions:
REMARK  status: ('A' for Active; 'I' for Inactive)
REMARK    1  A    between atoms: C3_3  and  C4_4 
REMARK    2  A    between atoms: C4_4  and  C5_5 
REMARK    3  A    between atoms: C8_8  and  N1_9 
REMARK       I    between atoms: N1_9  and  C9_11 
REMARK    4  A    between atoms: C9_11  and  C10_13 
REMARK    5  A    between atoms: C10_13  and  N2_14 
REMARK    6  A    between atoms: C13_21  and  C14_22 
ROOT
HETATM    1  N2  UNL     1       2.273   0.657  -2.778  1.00  0.00    -0.258 N 
HETATM    2  C11 UNL     1       2.158   1.767  -3.546  1.00  0.00     0.219 A 
HETATM    3  N3  UNL     1       3.201   2.581  -3.294  1.00  0.00    -0.184 N 
ATOM      4  H3  UNL     1       3.381   3.489  -3.723  1.00  0.00     0.185 HD
HETATM    5  C12 UNL     1       3.968   1.962  -2.358  1.00  0.00     0.705 A 
HETATM    6  N4  UNL     1       5.103   2.080  -1.612  1.00  0.00    -0.188 N 
ATOM      7  H4  UNL     1       5.752   2.867  -1.629  1.00  0.00     0.184 HD
HETATM    8  C13 UNL     1       5.217   0.985  -0.854  1.00  0.00     0.079 A 
HETATM    9  C21 UNL     1       4.139   0.180  -1.136  1.00  0.00     0.166 A 
HETATM   10  N7  UNL     1       3.377   0.809  -2.074  1.00  0.00    -0.092 N 
ENDROOT
BRANCH   1  11
HETATM   11  C10 UNL     1       1.323  -0.421  -2.800  1.00  0.00     0.254 C 
BRANCH  11  12
HETATM   12  C9  UNL     1       0.259  -0.119  -1.756  1.00  0.00     0.242 C 
HETATM   13  N1  UNL     1      -0.760  -1.055  -1.624  1.00  0.00    -0.326 N 
ATOM     14  H1  UNL     1      -0.719  -1.875  -2.229  1.00  0.00     0.169 HD
HETATM   15  O1  UNL     1       0.400   0.943  -1.115  1.00  0.00    -0.271 OA
BRANCH  13  16
HETATM   16  C8  UNL     1      -1.839  -0.972  -0.732  1.00  0.00     0.034 A 
HETATM   17  C7  UNL     1      -2.589  -2.141  -0.490  1.00  0.00     0.030 A 
HETATM   18  C6  UNL     1      -3.659  -2.091   0.359  1.00  0.00     0.013 A 
HETATM   19  C5  UNL     1      -4.053  -0.931   1.007  1.00  0.00    -0.035 A 
HETATM   20  C23 UNL     1      -3.298   0.190   0.747  1.00  0.00     0.013 A 
HETATM   21  C22 UNL     1      -2.196   0.188  -0.114  1.00  0.00     0.030 A 
BRANCH  19  22
HETATM   22  C4  UNL     1      -5.151  -0.916   1.926  1.00  0.00     0.025 C 
BRANCH  22  23
HETATM   23  C3  UNL     1      -6.425  -0.676   1.689  1.00  0.00    -0.008 A 
HETATM   24  C2  UNL     1      -7.121  -0.371   0.543  1.00  0.00     0.034 A 
HETATM   25  C1  UNL     1      -6.660  -0.237  -0.675  1.00  0.00     0.044 C 
HETATM   26  N8  UNL     1      -8.454  -0.208   0.809  1.00  0.00    -0.361 N 
HETATM   27  C25 UNL     1      -8.597  -0.408   2.120  1.00  0.00     0.091 A 
HETATM   28  C26 UNL     1      -9.527   0.116  -0.105  1.00  0.00     0.155 C 
HETATM   29  C24 UNL     1      -7.413  -0.694   2.705  1.00  0.00     0.031 A 
ENDBRANCH  22  23
ENDBRANCH  19  22
ENDBRANCH  13  16
ENDBRANCH  11  12
ENDBRANCH   1  11
BRANCH   8  30
HETATM   30  C14 UNL     1       6.260   0.651   0.105  1.00  0.00     0.010 A 
HETATM   31  C15 UNL     1       7.328   1.515   0.344  1.00  0.00     0.017 A 
HETATM   32  C16 UNL     1       8.283   1.144   1.262  1.00  0.00     0.032 A 
HETATM   33  C17 UNL     1       8.237  -0.057   1.971  1.00  0.00     0.057 A 
HETATM   34  C18 UNL     1       9.068  -0.617   2.917  1.00  0.00     0.050 A 
HETATM   35  N6  UNL     1       7.196  -0.867   1.719  1.00  0.00    -0.267 N 
HETATM   36  C19 UNL     1       8.487  -1.818   3.239  1.00  0.00     0.110 A 
HETATM   37  N5  UNL     1       7.373  -1.932   2.504  1.00  0.00    -0.305 N 
ATOM     38  H5  UNL     1       6.740  -2.731   2.540  1.00  0.00     0.186 HD
HETATM   39  C20 UNL     1       6.251  -0.524   0.824  1.00  0.00     0.130 A 
ENDBRANCH   8  30
TORSDOF 6
