REMARK  6 active torsions:
REMARK  status: ('A' for Active; 'I' for Inactive)
REMARK       I    between atoms: C1_2  and  N1_3 
REMARK    1  A    between atoms: C1_2  and  C8_14 
REMARK    2  A    between atoms: N1_3  and  C2_5 
REMARK    3  A    between atoms: C2_5  and  C3_6 
REMARK    4  A    between atoms: C3_6  and  C4_7 
REMARK    5  A    between atoms: C4_7  and  N2_8 
REMARK    6  A    between atoms: N6_29  and  O3_30 
ROOT
HETATM    1  C8  UNL     1       1.360   0.319  -1.940  1.00  0.00     0.175 A 
HETATM    2  N4  UNL     1       0.693   0.834  -2.982  1.00  0.00    -0.336 N 
ATOM      3  H4  UNL     1       1.091   1.122  -3.876  1.00  0.00     0.168 HD
HETATM    4  C9  UNL     1      -0.591   0.898  -2.627  1.00  0.00     0.061 A 
HETATM    5  C10 UNL     1      -1.694   1.340  -3.306  1.00  0.00     0.032 A 
HETATM    6  C11 UNL     1      -2.915   1.294  -2.696  1.00  0.00     0.011 A 
HETATM    7  C12 UNL     1      -3.068   0.800  -1.378  1.00  0.00    -0.037 A 
HETATM    8  C13 UNL     1      -1.963   0.361  -0.709  1.00  0.00     0.051 A 
HETATM    9  C14 UNL     1      -0.710   0.409  -1.335  1.00  0.00     0.075 A 
HETATM   10  N5  UNL     1       0.506   0.050  -0.912  1.00  0.00    -0.335 N 
ATOM     11  H5  UNL     1       0.747  -0.346  -0.003  1.00  0.00     0.168 HD
HETATM   12  C15 UNL     1      -2.074  -0.172   0.642  1.00  0.00     0.197 A 
HETATM   13  O2  UNL     1      -1.129  -0.587   1.317  1.00  0.00    -0.286 OA
HETATM   14  C16 UNL     1      -3.412  -0.216   1.242  1.00  0.00     0.040 A 
HETATM   15  C17 UNL     1      -3.599  -0.726   2.514  1.00  0.00     0.139 A 
HETATM   16  N6  UNL     1      -4.799  -0.811   3.114  1.00  0.00    -0.234 N 
HETATM   17  C18 UNL     1      -5.877  -0.373   2.432  1.00  0.00     0.072 A 
HETATM   18  C19 UNL     1      -7.155  -0.435   2.993  1.00  0.00     0.033 A 
HETATM   19  C20 UNL     1      -8.277   0.002   2.321  1.00  0.00     0.002 A 
HETATM   20  C21 UNL     1      -8.095   0.511   1.053  1.00  0.00     0.001 A 
HETATM   21  C22 UNL     1      -6.850   0.595   0.448  1.00  0.00     0.014 A 
HETATM   22  C23 UNL     1      -5.766   0.145   1.166  1.00  0.00     0.001 A 
HETATM   23  C24 UNL     1      -4.497   0.232   0.541  1.00  0.00    -0.026 A 
HETATM   24  C25 UNL     1      -4.394   0.795  -0.780  1.00  0.00     0.080 A 
ENDROOT
BRANCH   1  25
HETATM   25  C1  UNL     1       2.799   0.058  -1.856  1.00  0.00     0.285 C 
HETATM   26  O1  UNL     1       3.520   0.327  -2.832  1.00  0.00    -0.264 OA
HETATM   27  N1  UNL     1       3.389  -0.493  -0.692  1.00  0.00    -0.354 N 
ATOM     28  H1  UNL     1       2.806  -0.718   0.114  1.00  0.00     0.162 HD
BRANCH  27  29
HETATM   29  C2  UNL     1       4.825  -0.741  -0.640  1.00  0.00     0.124 C 
BRANCH  29  30
HETATM   30  C3  UNL     1       5.222  -1.329   0.697  1.00  0.00     0.040 C 
BRANCH  30  31
HETATM   31  C4  UNL     1       6.692  -1.597   0.772  1.00  0.00     0.130 C 
BRANCH  31  32
HETATM   32  N2  UNL     1       7.512  -0.413   0.599  1.00  0.00    -0.352 N 
HETATM   33  C5  UNL     1       7.983   0.055  -0.552  1.00  0.00     0.108 A 
HETATM   34  C6  UNL     1       8.712   1.192  -0.296  1.00  0.00     0.106 A 
HETATM   35  N3  UNL     1       8.657   1.376   1.024  1.00  0.00    -0.361 N 
HETATM   36  C7  UNL     1       7.922   0.395   1.576  1.00  0.00     0.182 A 
ATOM     37  H3  UNL     1       9.102   2.140   1.533  1.00  0.00     0.166 HD
ENDBRANCH  31  32
ENDBRANCH  30  31
ENDBRANCH  29  30
ENDBRANCH  27  29
ENDBRANCH   1  25
BRANCH  16  38
HETATM   38  O3  UNL     1      -4.988  -1.317   4.377  1.00  0.00    -0.283 OA
ATOM     39  H3  UNL     1      -5.836  -1.377   4.801  1.00  0.00     0.245 HD
ENDBRANCH  16  38
TORSDOF 6
