REMARK  6 active torsions:
REMARK  status: ('A' for Active; 'I' for Inactive)
REMARK    1  A    between atoms: C2_3  and  N2_4 
REMARK    2  A    between atoms: N2_4  and  C3_6 
REMARK    3  A    between atoms: C3_6  and  N3_8 
REMARK       I    between atoms: N3_8  and  C4_10 
REMARK    4  A    between atoms: C4_10  and  C5_12 
REMARK    5  A    between atoms: N5_23  and  C13_24 
REMARK    6  A    between atoms: C13_24  and  C14_25 
ROOT
HETATM    1  C1  UNL     1       0.575   1.130  -2.281  1.00  0.00     0.180 C 
HETATM    2  N1  UNL     1       0.591   0.460  -0.988  1.00  0.00    -0.276 N 
HETATM    3  C2  UNL     1      -0.248   0.804   0.008  1.00  0.00     0.153 A 
HETATM    4  C9  UNL     1      -0.002  -0.003   1.098  1.00  0.00     0.106 A 
HETATM    5  N4  UNL     1      -0.334  -0.314   2.365  1.00  0.00    -0.361 N 
ATOM      6  H4  UNL     1      -1.062   0.144   2.914  1.00  0.00     0.165 HD
HETATM    7  C10 UNL     1       0.447  -1.326   2.795  1.00  0.00     0.091 A 
HETATM    8  C11 UNL     1       1.294  -1.656   1.760  1.00  0.00     0.050 A 
HETATM    9  C12 UNL     1       1.035  -0.840   0.678  1.00  0.00     0.083 A 
HETATM   10  N5  UNL     1       1.366  -0.527  -0.594  1.00  0.00    -0.282 N 
ENDROOT
BRANCH   3  11
HETATM   11  N2  UNL     1      -1.135   1.729  -0.050  1.00  0.00    -0.316 N 
ATOM     12  H2  UNL     1      -1.208   2.245  -0.927  1.00  0.00     0.170 HD
BRANCH  11  13
HETATM   13  C3  UNL     1      -2.009   2.096   0.973  1.00  0.00     0.180 C 
HETATM   14  S1  UNL     1      -1.484   3.198   2.082  1.00  0.00    -0.040 SA
BRANCH  13  15
HETATM   15  N3  UNL     1      -3.319   1.577   1.113  1.00  0.00    -0.298 N 
HETATM   16  C4  UNL     1      -3.855   0.626   0.207  1.00  0.00     0.281 C 
HETATM   17  O1  UNL     1      -3.175   0.214  -0.757  1.00  0.00    -0.265 OA
ATOM     18  H3  UNL     1      -3.896   1.897   1.891  1.00  0.00     0.171 HD
BRANCH  16  19
HETATM   19  C5  UNL     1      -5.205   0.099   0.362  1.00  0.00     0.142 A 
HETATM   20  C6  UNL     1      -6.072   0.462   1.379  1.00  0.00     0.045 A 
HETATM   21  C7  UNL     1      -7.229  -0.238   1.187  1.00  0.00     0.027 A 
HETATM   22  C8  UNL     1      -7.025  -1.004   0.059  1.00  0.00     0.143 A 
HETATM   23  O2  UNL     1      -5.831  -0.761  -0.370  1.00  0.00    -0.317 OA
ENDBRANCH  16  19
ENDBRANCH  13  15
ENDBRANCH  11  13
ENDBRANCH   3  11
BRANCH  10  24
HETATM   24  C13 UNL     1       2.380  -1.178  -1.351  1.00  0.00     0.188 C 
BRANCH  24  25
HETATM   25  C14 UNL     1       3.720  -0.608  -1.224  1.00  0.00    -0.038 A 
HETATM   26  C15 UNL     1       4.165   0.318  -2.135  1.00  0.00     0.009 A 
HETATM   27  C16 UNL     1       5.441   0.886  -2.040  1.00  0.00     0.001 A 
HETATM   28  C17 UNL     1       6.275   0.521  -1.022  1.00  0.00     0.000 A 
HETATM   29  C18 UNL     1       5.846  -0.408  -0.097  1.00  0.00     0.001 A 
HETATM   30  C19 UNL     1       4.593  -0.956  -0.203  1.00  0.00     0.009 A 
ENDBRANCH  24  25
ENDBRANCH  10  24
TORSDOF 6
