REMARK  5 active torsions:
REMARK  status: ('A' for Active; 'I' for Inactive)
REMARK    1  A    between atoms: C2_2  and  N1_3 
REMARK    2  A    between atoms: N1_3  and  C3_5 
REMARK    3  A    between atoms: C4_8  and  C5_9 
REMARK       I    between atoms: C5_9  and  N3_11 
REMARK    4  A    between atoms: N3_11  and  C6_13 
REMARK    5  A    between atoms: C13_23  and  C14_24 
ROOT
HETATM    1  C3  UNL     1      -0.375   0.858   0.913  1.00  0.00     0.679 A 
HETATM    2  N2  UNL     1       0.853   0.382   0.861  1.00  0.00    -0.185 N 
ATOM      3  H2  UNL     1       1.584   0.907   1.340  1.00  0.00     0.184 HD
HETATM    4  C4  UNL     1       1.222  -0.774   0.206  1.00  0.00     0.129 A 
HETATM    5  C9  UNL     1       0.202  -1.437  -0.421  1.00  0.00     0.025 A 
HETATM    6  C10 UNL     1       0.480  -2.610  -1.089  1.00  0.00     0.016 A 
HETATM    7  C11 UNL     1      -0.574  -3.269  -1.704  1.00  0.00     0.002 A 
HETATM    8  C12 UNL     1      -1.847  -2.793  -1.664  1.00  0.00     0.014 A 
HETATM    9  C13 UNL     1      -2.138  -1.610  -0.993  1.00  0.00     0.004 A 
HETATM   10  C19 UNL     1      -1.119  -0.931  -0.370  1.00  0.00     0.073 A 
HETATM   11  N6  UNL     1      -1.373   0.216   0.305  1.00  0.00    -0.190 N 
ATOM     12  H6  UNL     1      -2.322   0.586   0.348  1.00  0.00     0.184 HD
ENDROOT
BRANCH   4  13
HETATM   13  C5  UNL     1       2.601  -1.175   0.232  1.00  0.00     0.275 C 
HETATM   14  O1  UNL     1       3.109  -2.156  -0.286  1.00  0.00    -0.266 OA
HETATM   15  N3  UNL     1       3.551  -0.335   0.956  1.00  0.00    -0.302 N 
ATOM     16  H3  UNL     1       3.410  -0.047   1.924  1.00  0.00     0.171 HD
BRANCH  15  17
HETATM   17  C6  UNL     1       4.607   0.020   0.251  1.00  0.00     0.151 A 
HETATM   18  N4  UNL     1       5.627   0.781   0.661  1.00  0.00    -0.346 N 
HETATM   19  C7  UNL     1       6.594   1.026  -0.195  1.00  0.00     0.097 A 
ATOM     20  H4  UNL     1       5.654   1.159   1.608  1.00  0.00     0.167 HD
HETATM   21  C8  UNL     1       6.492   0.486  -1.447  1.00  0.00     0.070 A 
HETATM   22  S1  UNL     1       5.013  -0.355  -1.357  1.00  0.00    -0.064 SA
ENDBRANCH  15  17
ENDBRANCH   4  13
BRANCH   1  23
HETATM   23  N1  UNL     1      -0.680   1.957   1.546  1.00  0.00    -0.226 N 
ATOM     24  H1  UNL     1      -1.651   2.269   1.547  1.00  0.00     0.177 HD
BRANCH  23  25
HETATM   25  C2  UNL     1       0.298   2.742   2.240  1.00  0.00     0.133 C 
HETATM   26  C1  UNL     1      -0.031   4.210   2.066  1.00  0.00     0.027 C 
ENDBRANCH  23  25
ENDBRANCH   1  23
BRANCH   9  27
HETATM   27  C14 UNL     1      -3.518  -1.106  -1.015  1.00  0.00    -0.008 A 
HETATM   28  C15 UNL     1      -4.574  -1.841  -0.514  1.00  0.00     0.015 A 
HETATM   29  C16 UNL     1      -5.877  -1.359  -0.594  1.00  0.00     0.018 A 
HETATM   30  C17 UNL     1      -6.132  -0.134  -1.177  1.00  0.00     0.087 A 
HETATM   31  N5  UNL     1      -5.098   0.571  -1.659  1.00  0.00    -0.374 N 
HETATM   32  C18 UNL     1      -3.821   0.105  -1.584  1.00  0.00     0.100 A 
ATOM     33  H5  UNL     1      -5.272   1.478  -2.092  1.00  0.00     0.164 HD
ENDBRANCH   9  27
TORSDOF 5
