REMARK  4 active torsions:
REMARK  status: ('A' for Active; 'I' for Inactive)
REMARK       I    between atoms: C1_2  and  N1_3 
REMARK    1  A    between atoms: C1_2  and  C9_19 
REMARK    2  A    between atoms: N1_3  and  C2_5 
REMARK    3  A    between atoms: N5_27  and  C17_28 
REMARK    4  A    between atoms: C17_28  and  C18_29 
ROOT
HETATM    1  O1  UNL     1       0.339  -2.142   0.656  1.00  0.00    -0.266 OA
HETATM    2  C1  UNL     1       0.496  -0.983   0.141  1.00  0.00     0.274 C 
HETATM    3  N1  UNL     1       1.786  -0.572  -0.309  1.00  0.00    -0.307 N 
ATOM      4  H1  UNL     1       1.956  -0.519  -1.313  1.00  0.00     0.170 HD
ENDROOT
BRANCH   2   5
HETATM    5  C9  UNL     1      -0.611  -0.050  -0.006  1.00  0.00     0.105 A 
HETATM    6  C10 UNL     1      -0.475   1.216  -0.556  1.00  0.00     0.049 A 
HETATM    7  C11 UNL     1      -1.702   1.847  -0.550  1.00  0.00    -0.007 A 
HETATM    8  C12 UNL     1      -2.100   3.102  -0.979  1.00  0.00     0.014 A 
HETATM    9  C16 UNL     1      -2.580   0.948   0.010  1.00  0.00     0.045 A 
HETATM   10  C13 UNL     1      -3.400   3.496  -0.859  1.00  0.00     0.001 A 
HETATM   11  C14 UNL     1      -4.320   2.607  -0.294  1.00  0.00     0.002 A 
HETATM   12  C15 UNL     1      -3.893   1.364   0.124  1.00  0.00     0.030 A 
HETATM   13  N5  UNL     1      -1.896  -0.178   0.325  1.00  0.00    -0.336 N 
BRANCH  13  14
HETATM   14  C17 UNL     1      -2.532  -1.309   0.923  1.00  0.00     0.194 C 
BRANCH  14  15
HETATM   15  C18 UNL     1      -3.078  -2.288  -0.067  1.00  0.00     0.070 A 
HETATM   16  C19 UNL     1      -4.378  -2.234  -0.587  1.00  0.00     0.036 A 
HETATM   17  C20 UNL     1      -4.530  -3.283  -1.461  1.00  0.00     0.027 A 
HETATM   18  C21 UNL     1      -3.320  -3.945  -1.450  1.00  0.00     0.142 A 
HETATM   19  O3  UNL     1      -2.537  -3.324  -0.633  1.00  0.00    -0.325 OA
ENDBRANCH  14  15
ENDBRANCH  13  14
ENDBRANCH   2   5
BRANCH   3  20
HETATM   20  C2  UNL     1       2.748  -0.264   0.494  1.00  0.00     0.126 A 
HETATM   21  N2  UNL     1       2.528  -0.332   1.817  1.00  0.00    -0.351 N 
HETATM   22  C3  UNL     1       3.515  -0.016   2.674  1.00  0.00     0.092 A 
ATOM     23  H2  UNL     1       1.616  -0.622   2.170  1.00  0.00     0.166 HD
HETATM   24  C4  UNL     1       4.748   0.377   2.163  1.00  0.00     0.048 A 
HETATM   25  C5  UNL     1       4.965   0.445   0.803  1.00  0.00     0.053 A 
HETATM   26  N3  UNL     1       6.156   0.824   0.314  1.00  0.00    -0.351 N 
HETATM   27  C8  UNL     1       3.942   0.117  -0.081  1.00  0.00     0.103 A 
HETATM   28  C6  UNL     1       6.347   0.884  -1.013  1.00  0.00     0.183 A 
ATOM     29  H3  UNL     1       6.915   1.066   0.950  1.00  0.00     0.166 HD
HETATM   30  N4  UNL     1       5.347   0.563  -1.886  1.00  0.00    -0.319 N 
HETATM   31  C7  UNL     1       4.144   0.180  -1.429  1.00  0.00     0.262 A 
ATOM     32  H4  UNL     1       5.515   0.615  -2.891  1.00  0.00     0.169 HD
HETATM   33  O2  UNL     1       3.193  -0.125  -2.191  1.00  0.00    -0.267 OA
ENDBRANCH   3  20
TORSDOF 4
