REMARK  5 active torsions:
REMARK  status: ('A' for Active; 'I' for Inactive)
REMARK       I    between atoms: C1_2  and  N1_3 
REMARK       I    between atoms: C1_2  and  N3_12 
REMARK    1  A    between atoms: N1_3  and  C2_5 
REMARK    2  A    between atoms: N3_12  and  C7_14 
REMARK    3  A    between atoms: C10_17  and  N4_18 
REMARK    4  A    between atoms: C13_21  and  C14_22 
REMARK    5  A    between atoms: N5_23  and  N6_25 
ROOT
HETATM    1  C7  UNL     1      -2.909   1.014  -0.740  1.00  0.00     0.036 A 
HETATM    2  C8  UNL     1      -2.117   2.103  -0.549  1.00  0.00     0.032 A 
HETATM    3  C9  UNL     1      -0.717   1.987  -0.605  1.00  0.00     0.032 A 
HETATM    4  C10 UNL     1      -0.099   0.783  -0.851  1.00  0.00     0.038 A 
HETATM    5  C21 UNL     1      -0.935  -0.290  -1.039  1.00  0.00     0.032 A 
HETATM    6  C22 UNL     1      -2.295  -0.230  -0.994  1.00  0.00     0.032 A 
ENDROOT
BRANCH   4   7
HETATM    7  N4  UNL     1       1.328   0.715  -0.898  1.00  0.00    -0.332 N 
HETATM    8  C11 UNL     1       2.170   1.677  -1.317  1.00  0.00     0.097 A 
HETATM    9  C12 UNL     1       3.476   1.251  -1.217  1.00  0.00     0.032 A 
HETATM   10  C13 UNL     1       3.445  -0.053  -0.704  1.00  0.00    -0.002 A 
HETATM   11  C20 UNL     1       2.102  -0.320  -0.531  1.00  0.00     0.109 A 
BRANCH  10  12
HETATM   12  C14 UNL     1       4.590  -0.902  -0.430  1.00  0.00     0.120 C 
HETATM   13  N5  UNL     1       5.763  -0.459  -0.663  1.00  0.00    -0.305 N 
ATOM     14  H5  UNL     1       5.877   0.483  -1.038  1.00  0.00     0.186 HD
BRANCH  13  15
HETATM   15  N6  UNL     1       6.889  -1.234  -0.416  1.00  0.00    -0.279 N 
HETATM   16  C15 UNL     1       7.822  -1.441  -1.364  1.00  0.00     0.119 A 
HETATM   17  C16 UNL     1       8.948  -2.200  -1.160  1.00  0.00     0.074 A 
HETATM   18  C17 UNL     1       9.124  -2.771   0.070  1.00  0.00     0.174 A 
HETATM   19  O2  UNL     1      10.155  -3.482   0.301  1.00  0.00    -0.288 OA
HETATM   20  C18 UNL     1       8.168  -2.557   1.036  1.00  0.00     0.074 A 
HETATM   21  C19 UNL     1       7.060  -1.794   0.793  1.00  0.00     0.119 A 
ENDBRANCH  13  15
ENDBRANCH  10  12
ENDBRANCH   4   7
BRANCH   1  22
HETATM   22  N3  UNL     1      -4.300   1.049  -0.674  1.00  0.00    -0.309 N 
HETATM   23  C1  UNL     1      -5.040   2.053  -0.058  1.00  0.00     0.326 C 
HETATM   24  O1  UNL     1      -4.610   3.052   0.524  1.00  0.00    -0.247 OA
HETATM   25  N1  UNL     1      -6.485   1.941  -0.087  1.00  0.00    -0.294 N 
ATOM     26  H1  UNL     1      -7.048   2.458  -0.762  1.00  0.00     0.172 HD
ATOM     27  H3  UNL     1      -4.813   0.283  -1.109  1.00  0.00     0.170 HD
BRANCH  25  28
HETATM   28  C2  UNL     1      -7.020   1.161   0.776  1.00  0.00     0.108 A 
HETATM   29  C3  UNL     1      -8.403   1.050   0.753  1.00  0.00     0.049 A 
HETATM   30  C4  UNL     1      -8.988   0.214   1.678  1.00  0.00     0.005 A 
HETATM   31  C5  UNL     1      -8.209  -0.470   2.574  1.00  0.00     0.017 A 
HETATM   32  C6  UNL     1      -6.843  -0.337   2.570  1.00  0.00     0.089 A 
HETATM   33  N2  UNL     1      -6.277   0.479   1.667  1.00  0.00    -0.352 N 
ATOM     34  H2  UNL     1      -5.263   0.584   1.656  1.00  0.00     0.166 HD
ENDBRANCH  25  28
ENDBRANCH   1  22
TORSDOF 5
