REMARK  4 active torsions:
REMARK  status: ('A' for Active; 'I' for Inactive)
REMARK    1  A    between atoms: C2_5  and  N3_6 
REMARK    2  A    between atoms: N3_6  and  C3_8 
REMARK    3  A    between atoms: C3_8  and  C4_9 
REMARK    4  A    between atoms: C4_9  and  C5_10 
ROOT
HETATM    1  N3  UNL     1      -0.934   1.139  -1.100  1.00  0.00    -0.376 N 
ATOM      2  H3  UNL     1      -1.050   2.084  -1.467  1.00  0.00     0.161 HD
ENDROOT
BRANCH   1   3
HETATM    3  C2  UNL     1      -1.971   0.556  -0.606  1.00  0.00     0.104 A 
HETATM    4  N2  UNL     1      -3.164   1.185  -0.581  1.00  0.00    -0.317 N 
HETATM    5  C1  UNL     1      -4.270   0.621  -0.078  1.00  0.00     0.193 A 
ATOM      6  H2  UNL     1      -3.227   2.130  -0.961  1.00  0.00     0.170 HD
HETATM    7  N1  UNL     1      -5.533   1.284  -0.050  1.00  0.00    -0.063 NA
HETATM    8  N4  UNL     1      -4.242  -0.627   0.438  1.00  0.00    -0.340 N 
HETATM    9  C12 UNL     1      -3.076  -1.321   0.447  1.00  0.00     0.094 A 
ATOM     10  H4  UNL     1      -5.091  -1.045   0.818  1.00  0.00     0.167 HD
HETATM   11  C11 UNL     1      -1.958  -0.713  -0.078  1.00  0.00     0.065 A 
ENDBRANCH   1   3
BRANCH   1  12
HETATM   12  C3  UNL     1       0.367   0.553  -1.169  1.00  0.00     0.126 C 
BRANCH  12  13
HETATM   13  C4  UNL     1       1.033   0.786   0.193  1.00  0.00     0.058 C 
BRANCH  13  14
HETATM   14  C5  UNL     1       2.387   0.222   0.241  1.00  0.00    -0.057 A 
HETATM   15  C6  UNL     1       3.468   0.995  -0.133  1.00  0.00     0.007 A 
HETATM   16  C7  UNL     1       4.717   0.421  -0.071  1.00  0.00     0.001 A 
HETATM   17  C8  UNL     1       4.875  -0.894   0.355  1.00  0.00     0.000 A 
HETATM   18  C9  UNL     1       3.787  -1.658   0.727  1.00  0.00     0.001 A 
HETATM   19  C10 UNL     1       2.532  -1.090   0.667  1.00  0.00     0.007 A 
ENDBRANCH  13  14
ENDBRANCH  12  13
ENDBRANCH   1  12
TORSDOF 4
