REMARK  4 active torsions:
REMARK  status: ('A' for Active; 'I' for Inactive)
REMARK    1  A    between atoms: C5_6  and  N2_7 
REMARK    2  A    between atoms: N2_7  and  C6_9 
REMARK    3  A    between atoms: C6_9  and  C7_10 
REMARK    4  A    between atoms: C7_10  and  C8_11 
ROOT
HETATM    1  N1  UNL     1       6.480   1.109   0.189  1.00  0.00    -0.191 NA
HETATM    2  C1  UNL     1       5.396   0.678   0.231  1.00  0.00     0.101 C 
HETATM    3  C2  UNL     1       4.069   0.135   0.299  1.00  0.00     0.060 A 
HETATM    4  C3  UNL     1       3.889  -1.232   0.241  1.00  0.00     0.028 A 
HETATM    5  C4  UNL     1       2.625  -1.779   0.304  1.00  0.00     0.050 A 
HETATM    6  C5  UNL     1       1.538  -0.942   0.427  1.00  0.00     0.100 A 
HETATM    7  N5  UNL     1       1.719   0.397   0.484  1.00  0.00    -0.351 N 
ATOM      8  H5  UNL     1       0.907   1.008   0.575  1.00  0.00     0.166 HD
HETATM    9  C11 UNL     1       2.958   0.943   0.422  1.00  0.00     0.112 A 
ENDROOT
BRANCH   6  10
HETATM   10  N2  UNL     1       0.379  -1.476   0.483  1.00  0.00    -0.376 N 
ATOM     11  H2  UNL     1       0.339  -2.494   0.433  1.00  0.00     0.161 HD
BRANCH  10  12
HETATM   12  C6  UNL     1      -0.866  -0.788   0.609  1.00  0.00     0.127 C 
BRANCH  12  13
HETATM   13  C7  UNL     1      -1.388  -0.239  -0.701  1.00  0.00     0.078 C 
BRANCH  13  14
HETATM   14  C8  UNL     1      -2.684   0.442  -0.390  1.00  0.00     0.027 A 
HETATM   15  C9  UNL     1      -3.951  -0.149  -0.404  1.00  0.00     0.114 A 
HETATM   16  N3  UNL     1      -4.872   0.774  -0.073  1.00  0.00    -0.360 N 
HETATM   17  C10 UNL     1      -4.222   1.930   0.150  1.00  0.00     0.180 A 
ATOM     18  H3  UNL     1      -5.879   0.624  -0.004  1.00  0.00     0.166 HD
HETATM   19  N4  UNL     1      -2.910   1.715  -0.045  1.00  0.00    -0.355 N 
ATOM     20  H4  UNL     1      -2.185   2.425   0.056  1.00  0.00     0.166 HD
ENDBRANCH  13  14
ENDBRANCH  12  13
ENDBRANCH  10  12
ENDBRANCH   6  10
TORSDOF 4
