REMARK  7 active torsions:
REMARK  status: ('A' for Active; 'I' for Inactive)
REMARK    1  A    between atoms: N1_1  and  N2_4 
REMARK    2  A    between atoms: N3_6  and  C1_8 
REMARK    3  A    between atoms: C1_8  and  C2_9 
REMARK    4  A    between atoms: C2_9  and  N4_10 
REMARK    5  A    between atoms: N4_10  and  C3_12 
REMARK    6  A    between atoms: C3_12  and  N5_14 
REMARK    7  A    between atoms: N5_14  and  C4_16 
ROOT
HETATM    1  C3  UNL     1       0.441   0.173  -0.237  1.00  0.00     0.173 C 
HETATM    2  S1  UNL     1       0.662   0.580  -1.796  1.00  0.00    -0.041 SA
ENDROOT
BRANCH   1   3
HETATM    3  N4  UNL     1       1.117  -0.891   0.383  1.00  0.00    -0.365 N 
ATOM      4  H4  UNL     1       0.894  -1.071   1.362  1.00  0.00     0.161 HD
BRANCH   3   5
HETATM    5  C2  UNL     1       2.097  -1.753  -0.232  1.00  0.00     0.143 C 
BRANCH   5   6
HETATM    6  C1  UNL     1       3.345  -0.953  -0.494  1.00  0.00     0.160 C 
BRANCH   6   7
HETATM    7  N3  UNL     1       3.815  -0.457   0.807  1.00  0.00    -0.321 N 
HETATM    8  N2  UNL     1       4.360   0.643   0.863  1.00  0.00    -0.254 N 
ATOM      9  H2  UNL     1       5.055   0.555   0.122  1.00  0.00     0.207 HD
ATOM     10  H3  UNL     1       3.691  -1.017   1.650  1.00  0.00     0.181 HD
BRANCH   8  11
HETATM   11  N1  UNL     1       4.585   1.789   1.263  1.00  0.00    -0.331 N 
ATOM     12  H12 UNL     1       3.874   1.829   1.993  1.00  0.00     0.178 HD
ATOM     13  H11 UNL     1       5.037   2.702   1.309  1.00  0.00     0.178 HD
ENDBRANCH   8  11
ENDBRANCH   6   7
ENDBRANCH   5   6
ENDBRANCH   3   5
ENDBRANCH   1   3
BRANCH   1  14
HETATM   14  N5  UNL     1      -0.494   0.938   0.503  1.00  0.00    -0.318 N 
ATOM     15  H5  UNL     1      -0.129   1.570   1.216  1.00  0.00     0.170 HD
BRANCH  14  16
HETATM   16  C4  UNL     1      -1.765   0.895   0.343  1.00  0.00     0.121 A 
HETATM   17  C5  UNL     1      -2.374   0.085  -0.583  1.00  0.00     0.051 A 
HETATM   18  C6  UNL     1      -3.744   0.082  -0.708  1.00  0.00     0.022 A 
HETATM   19  C7  UNL     1      -4.461   0.911   0.121  1.00  0.00     0.107 A 
HETATM   20  N6  UNL     1      -3.798   1.667   0.993  1.00  0.00    -0.310 N 
HETATM   21  N7  UNL     1      -2.505   1.699   1.143  1.00  0.00    -0.286 N 
ATOM     22  H6  UNL     1      -4.351   2.275   1.597  1.00  0.00     0.186 HD
ATOM     23  H7  UNL     1      -2.067   2.306   1.836  1.00  0.00     0.188 HD
ENDBRANCH  14  16
ENDBRANCH   1  14
TORSDOF 7
