REMARK  12 active torsions:
REMARK  status: ('A' for Active; 'I' for Inactive)
REMARK    1  A    between atoms: C2_2  and  C3_3 
REMARK    2  A    between atoms: C3_3  and  C4_4 
REMARK    3  A    between atoms: C4_4  and  C5_5 
REMARK    4  A    between atoms: C5_5  and  C6_6 
REMARK    5  A    between atoms: C6_6  and  C7_7 
REMARK    6  A    between atoms: C7_7  and  N1_8 
REMARK       I    between atoms: C8_10  and  N3_12 
REMARK    7  A    between atoms: N3_12  and  C9_14 
REMARK    8  A    between atoms: C9_14  and  C10_15 
REMARK    9  A    between atoms: C10_15  and  N4_16 
REMARK   10  A    between atoms: N4_16  and  C13_19 
REMARK   11  A    between atoms: C13_19  and  C14_20 
REMARK   12  A    between atoms: C19_30  and  N8_31 
ROOT
HETATM    1  C9  UNL     1      -1.580  -0.054  -0.460  1.00  0.00     0.108 C 
HETATM    2  C15 UNL     1      -0.943  -1.202  -1.340  1.00  0.00     0.065 C 
HETATM    3  C16 UNL     1      -1.561  -2.398  -0.641  1.00  0.00     0.242 C 
HETATM    4  N7  UNL     1      -1.544  -2.108   0.762  1.00  0.00    -0.048 N 
HETATM    5  C17 UNL     1      -2.701  -2.527   1.470  1.00  0.00     0.274 C 
HETATM    6  C18 UNL     1      -0.432  -2.883   1.346  1.00  0.00     0.274 C 
HETATM    7  C19 UNL     1      -1.254  -0.686   0.829  1.00  0.00     0.361 C 
ENDROOT
BRANCH   1   8
HETATM    8  N3  UNL     1      -0.725   1.056  -0.825  1.00  0.00    -0.350 N 
HETATM    9  C8  UNL     1       0.607   1.266  -0.438  1.00  0.00     0.184 C 
HETATM   10  N1  UNL     1       1.554   0.913  -1.232  1.00  0.00    -0.365 N 
HETATM   11  N2  UNL     1       0.963   1.862   0.791  1.00  0.00    -0.064 NA
ATOM     12  H1  UNL     1       1.310   0.480  -2.123  1.00  0.00     0.162 HD
ATOM     13  H3  UNL     1      -1.137   1.765  -1.432  1.00  0.00     0.163 HD
BRANCH  10  14
HETATM   14  C7  UNL     1       2.954   1.106  -0.913  1.00  0.00     0.122 C 
BRANCH  14  15
HETATM   15  C6  UNL     1       3.488   0.007  -0.034  1.00  0.00     0.020 C 
BRANCH  15  16
HETATM   16  C5  UNL     1       4.937   0.176   0.317  1.00  0.00     0.002 C 
BRANCH  16  17
HETATM   17  C4  UNL     1       5.791   0.186  -0.910  1.00  0.00     0.000 C 
BRANCH  17  18
HETATM   18  C3  UNL     1       7.260   0.351  -0.548  1.00  0.00    -0.000 C 
BRANCH  18  19
HETATM   19  C2  UNL     1       7.748  -0.768   0.341  1.00  0.00    -0.005 C 
HETATM   20  C1  UNL     1       7.613  -2.109  -0.303  1.00  0.00     0.005 C 
ENDBRANCH  18  19
ENDBRANCH  17  18
ENDBRANCH  16  17
ENDBRANCH  15  16
ENDBRANCH  14  15
ENDBRANCH  10  14
ENDBRANCH   1   8
BRANCH   1  21
HETATM   21  C10 UNL     1      -2.938   0.013  -0.975  1.00  0.00     0.272 C 
BRANCH  21  22
HETATM   22  N4  UNL     1      -3.860   1.039  -0.704  1.00  0.00    -0.066 N 
HETATM   23  C11 UNL     1      -3.391   2.301  -0.255  1.00  0.00     0.272 C 
HETATM   24  C12 UNL     1      -4.556   1.346  -1.981  1.00  0.00     0.272 C 
BRANCH  22  25
HETATM   25  C13 UNL     1      -4.955   0.608   0.166  1.00  0.00     0.308 C 
BRANCH  25  26
HETATM   26  C14 UNL     1      -6.008   1.608   0.386  1.00  0.00     0.113 C 
HETATM   27  N5  UNL     1      -6.259   2.044   1.600  1.00  0.00    -0.390 N 
ATOM     28  H52 UNL     1      -5.669   1.635   2.325  1.00  0.00     0.157 HD
ATOM     29  H51 UNL     1      -6.990   2.738   1.753  1.00  0.00     0.157 HD
HETATM   30  N6  UNL     1      -6.830   2.178  -0.624  1.00  0.00    -0.086 NA
ENDBRANCH  25  26
ENDBRANCH  22  25
ENDBRANCH  21  22
ENDBRANCH   1  21
BRANCH   7  31
HETATM   31  N8  UNL     1      -1.657  -0.083   2.038  1.00  0.00    -0.168 N 
HETATM   32  N9  UNL     1      -2.338  -0.260   3.106  1.00  0.00    -0.207 N 
HETATM   33  N10 UNL     1      -1.770   0.889   3.032  1.00  0.00    -0.207 N 
ATOM     34  H9  UNL     1      -2.931  -0.888   3.649  1.00  0.00     0.211 HD
ATOM     35  H10 UNL     1      -1.560   1.812   3.412  1.00  0.00     0.211 HD
ENDBRANCH   7  31
TORSDOF 12
