REMARK  14 active torsions:
REMARK  status: ('A' for Active; 'I' for Inactive)
REMARK    1  A    between atoms: C4_6  and  C5_7 
REMARK    2  A    between atoms: C5_7  and  C6_8 
REMARK    3  A    between atoms: C6_8  and  C7_9 
REMARK    4  A    between atoms: C7_9  and  C8_10 
REMARK    5  A    between atoms: C8_10  and  C9_11 
REMARK    6  A    between atoms: C9_11  and  C10_12 
REMARK    7  A    between atoms: C10_12  and  C11_13 
REMARK    8  A    between atoms: C11_13  and  C12_14 
REMARK    9  A    between atoms: C12_14  and  C13_15 
REMARK   10  A    between atoms: C16_22  and  C17_23 
REMARK   11  A    between atoms: C17_23  and  C18_24 
REMARK   12  A    between atoms: C18_24  and  C19_25 
REMARK   13  A    between atoms: C18_24  and  N4_29 
REMARK   14  A    between atoms: C19_25  and  S1_26 
ROOT
HETATM    1  C1  UNL     1       1.698  -3.011   0.728  1.00  0.00     0.045 C 
HETATM    2  C2  UNL     1       1.807  -1.877   0.059  1.00  0.00     0.053 A 
HETATM    3  N1  UNL     1       0.775  -1.241  -0.520  1.00  0.00    -0.339 N 
ATOM      4  H1  UNL     1      -0.196  -1.554  -0.511  1.00  0.00     0.167 HD
HETATM    5  C3  UNL     1       1.231  -0.125  -1.113  1.00  0.00     0.140 A 
HETATM    6  C4  UNL     1       0.846   0.966  -1.854  1.00  0.00     0.057 A 
HETATM    7  C15 UNL     1       2.038   1.683  -2.073  1.00  0.00     0.270 A 
HETATM    8  O1  UNL     1       2.079   2.755  -2.725  1.00  0.00    -0.266 OA
HETATM    9  N2  UNL     1       3.031   1.012  -1.477  1.00  0.00    -0.257 N 
ATOM     10  H2  UNL     1       4.008   1.305  -1.477  1.00  0.00     0.191 HD
HETATM   11  N3  UNL     1       2.576  -0.085  -0.887  1.00  0.00    -0.234 N 
HETATM   12  C16 UNL     1       2.977  -1.147  -0.167  1.00  0.00     0.082 A 
ENDROOT
BRANCH  12  13
HETATM   13  C17 UNL     1       4.168  -1.509   0.274  1.00  0.00     0.034 C 
BRANCH  13  14
HETATM   14  C18 UNL     1       5.419  -0.739   0.040  1.00  0.00     0.135 C 
BRANCH  14  15
HETATM   15  C19 UNL     1       6.504  -1.289   0.982  1.00  0.00     0.139 C 
BRANCH  15  16
HETATM   16  S1  UNL     1       8.026  -0.398   0.740  1.00  0.00     0.013 S 
HETATM   17  C20 UNL     1       7.805   1.333   1.080  1.00  0.00     0.127 C 
HETATM   18  O2  UNL     1       9.142  -1.074   1.830  1.00  0.00    -0.258 OA
ENDBRANCH  15  16
ENDBRANCH  14  15
BRANCH  14  19
HETATM   19  N4  UNL     1       5.899  -1.036  -1.282  1.00  0.00    -0.334 N 
HETATM   20  N5  UNL     1       6.595  -0.247  -1.949  1.00  0.00    -0.349 N 
ATOM     21  H52 UNL     1       6.827   0.650  -1.521  1.00  0.00     0.176 HD
ATOM     22  H51 UNL     1       6.936  -0.458  -2.887  1.00  0.00     0.176 HD
ATOM     23  H4  UNL     1       5.658  -1.937  -1.694  1.00  0.00     0.180 HD
ENDBRANCH  14  19
ENDBRANCH  13  14
ENDBRANCH  12  13
BRANCH   6  24
HETATM   24  C5  UNL     1      -0.469   1.420  -2.352  1.00  0.00     0.048 C 
BRANCH  24  25
HETATM   25  C6  UNL     1      -1.335   2.118  -1.379  1.00  0.00     0.005 C 
BRANCH  25  26
HETATM   26  C7  UNL     1      -1.827   1.372  -0.202  1.00  0.00     0.000 C 
BRANCH  26  27
HETATM   27  C8  UNL     1      -2.731   0.214  -0.550  1.00  0.00     0.000 C 
BRANCH  27  28
HETATM   28  C9  UNL     1      -3.969   0.675  -1.291  1.00  0.00     0.000 C 
BRANCH  28  29
HETATM   29  C10 UNL     1      -4.797   1.640  -0.496  1.00  0.00     0.000 C 
BRANCH  29  30
HETATM   30  C11 UNL     1      -5.286   1.056   0.802  1.00  0.00     0.000 C 
BRANCH  30  31
HETATM   31  C12 UNL     1      -6.150  -0.173   0.576  1.00  0.00    -0.000 C 
BRANCH  31  32
HETATM   32  C13 UNL     1      -6.588  -0.681   1.948  1.00  0.00    -0.005 C 
HETATM   33  C14 UNL     1      -7.466  -1.923   1.783  1.00  0.00     0.005 C 
ENDBRANCH  31  32
ENDBRANCH  30  31
ENDBRANCH  29  30
ENDBRANCH  28  29
ENDBRANCH  27  28
ENDBRANCH  26  27
ENDBRANCH  25  26
ENDBRANCH  24  25
ENDBRANCH   6  24
TORSDOF 14
