REMARK  12 active torsions:
REMARK  status: ('A' for Active; 'I' for Inactive)
REMARK    1  A    between atoms: C2_2  and  C3_3 
REMARK    2  A    between atoms: C3_3  and  C4_4 
REMARK    3  A    between atoms: C4_4  and  N1_5 
REMARK    4  A    between atoms: N1_5  and  C5_6 
REMARK    5  A    between atoms: N1_5  and  C7_8 
REMARK    6  A    between atoms: C7_8  and  C8_9 
REMARK    7  A    between atoms: C8_9  and  C9_10 
REMARK    8  A    between atoms: C9_10  and  C10_11 
REMARK    9  A    between atoms: C10_11  and  N2_12 
REMARK       I    between atoms: N2_12  and  C11_14 
REMARK       I    between atoms: C11_14  and  N3_15 
REMARK       I    between atoms: C11_14  and  N9_30 
REMARK   10  A    between atoms: N3_15  and  C12_17 
REMARK   11  A    between atoms: C12_17  and  C13_18 
REMARK   12  A    between atoms: C13_18  and  C14_19 
REMARK       I    between atoms: C14_19  and  N4_21 
REMARK       I    between atoms: C15_23  and  N6_25 
ROOT
HETATM    1  N2  UNL     1       1.001  -0.170   1.599  1.00  0.00    -0.206 N 
ATOM      2  H2  UNL     1       1.765  -0.803   1.363  1.00  0.00     0.183 HD
HETATM    3  C11 UNL     1       1.265   0.809   0.937  1.00  0.00     0.674 C 
HETATM    4  N3  UNL     1       2.439   0.833   0.089  1.00  0.00    -0.226 N 
ATOM      5  H3  UNL     1       3.336   0.536   0.473  1.00  0.00     0.177 HD
HETATM    6  N9  UNL     1       0.487   1.991   0.940  1.00  0.00    -0.227 N 
HETATM    7  C17 UNL     1       0.511   2.860   2.073  1.00  0.00     0.168 C 
HETATM    8  C18 UNL     1      -0.328   2.321  -0.203  1.00  0.00     0.168 C 
ENDROOT
BRANCH   1   9
HETATM    9  C10 UNL     1       0.274  -0.908   2.473  1.00  0.00     0.079 C 
BRANCH   9  10
HETATM   10  C9  UNL     1      -1.233  -0.767   2.495  1.00  0.00     0.046 C 
BRANCH  10  11
HETATM   11  C8  UNL     1      -1.903  -1.102   1.198  1.00  0.00     0.025 C 
BRANCH  11  12
HETATM   12  C7  UNL     1      -3.384  -0.931   1.392  1.00  0.00     0.122 C 
BRANCH  12  13
HETATM   13  N1  UNL     1      -4.162  -1.189   0.240  1.00  0.00    -0.394 N 
BRANCH  13  14
HETATM   14  C4  UNL     1      -5.553  -1.055   0.437  1.00  0.00     0.122 C 
BRANCH  14  15
HETATM   15  C3  UNL     1      -6.229  -0.406  -0.771  1.00  0.00     0.019 C 
BRANCH  15  16
HETATM   16  C2  UNL     1      -7.732  -0.277  -0.520  1.00  0.00    -0.003 C 
HETATM   17  C1  UNL     1      -8.401   0.363  -1.714  1.00  0.00     0.005 C 
ENDBRANCH  15  16
ENDBRANCH  14  15
ENDBRANCH  13  14
BRANCH  13  18
HETATM   18  C5  UNL     1      -3.691  -2.088  -0.725  1.00  0.00     0.054 C 
HETATM   19  C6  UNL     1      -3.868  -3.542  -0.493  1.00  0.00     0.054 C 
ENDBRANCH  13  18
ENDBRANCH  12  13
ENDBRANCH  11  12
ENDBRANCH  10  11
ENDBRANCH   9  10
ENDBRANCH   1   9
BRANCH   4  20
HETATM   20  C12 UNL     1       2.371   1.263  -1.274  1.00  0.00     0.147 C 
BRANCH  20  21
HETATM   21  C13 UNL     1       3.736   1.119  -1.921  1.00  0.00     0.123 C 
BRANCH  21  22
HETATM   22  C14 UNL     1       4.775   1.913  -1.239  1.00  0.00     0.225 C 
HETATM   23  O1  UNL     1       4.453   2.617  -0.241  1.00  0.00    -0.273 OA
HETATM   24  N4  UNL     1       6.131   1.928  -1.648  1.00  0.00    -0.301 N 
HETATM   25  C15 UNL     1       6.853   0.888  -1.462  1.00  0.00     0.197 C 
ATOM     26  H4  UNL     1       6.528   2.759  -2.086  1.00  0.00     0.171 HD
HETATM   27  N5  UNL     1       6.321  -0.269  -0.859  1.00  0.00    -0.063 NA
HETATM   28  N6  UNL     1       8.223   0.853  -1.865  1.00  0.00    -0.307 N 
HETATM   29  C16 UNL     1       9.127   0.203  -1.229  1.00  0.00     0.203 C 
ATOM     30  H6  UNL     1       8.496   1.371  -2.700  1.00  0.00     0.170 HD
HETATM   31  N7  UNL     1      10.459   0.222  -1.694  1.00  0.00    -0.066 NA
HETATM   32  N8  UNL     1       8.750  -0.519  -0.060  1.00  0.00    -0.066 NA
ENDBRANCH  21  22
ENDBRANCH  20  21
ENDBRANCH   4  20
TORSDOF 12
