REMARK  12 active torsions:
REMARK  status: ('A' for Active; 'I' for Inactive)
REMARK    1  A    between atoms: C2_2  and  C3_3 
REMARK    2  A    between atoms: C3_3  and  N1_4 
REMARK    3  A    between atoms: C5_9  and  C6_10 
REMARK    4  A    between atoms: C6_10  and  C7_11 
REMARK    5  A    between atoms: C9_16  and  C10_17 
REMARK       I    between atoms: C10_17  and  N5_19 
REMARK    6  A    between atoms: N5_19  and  C12_21 
REMARK    7  A    between atoms: C12_21  and  C14_23 
REMARK    8  A    between atoms: C12_21  and  C20_30 
REMARK    9  A    between atoms: C14_23  and  C15_24 
REMARK   10  A    between atoms: C15_24  and  C16_25 
REMARK   11  A    between atoms: C16_25  and  N6_26 
REMARK   12  A    between atoms: C20_30  and  N7_31 
ROOT
HETATM    1  C10 UNL     1      -1.120  -0.479  -0.928  1.00  0.00     0.254 C 
HETATM    2  O1  UNL     1      -1.292  -1.715  -1.005  1.00  0.00    -0.271 OA
HETATM    3  N5  UNL     1       0.143   0.139  -0.798  1.00  0.00    -0.341 N 
HETATM    4  C11 UNL     1       0.217   1.583  -0.739  1.00  0.00     0.154 C 
ENDROOT
BRANCH   1   5
HETATM    5  C9  UNL     1      -2.385   0.339  -0.984  1.00  0.00     0.311 C 
HETATM    6  C3  UNL     1      -3.279   0.120   0.237  1.00  0.00     0.115 C 
HETATM    7  C5  UNL     1      -4.318  -0.189  -0.749  1.00  0.00     0.221 C 
HETATM    8  N4  UNL     1      -3.343  -0.356  -1.831  1.00  0.00    -0.052 N 
ATOM      9  H42 UNL     1      -3.135  -1.277  -2.217  1.00  0.00     0.278 HD
ATOM     10  H41 UNL     1      -3.544  -0.032  -2.777  1.00  0.00     0.278 HD
BRANCH   6  11
HETATM   11  C2  UNL     1      -3.355   1.360   1.036  1.00  0.00    -0.002 C 
HETATM   12  C1  UNL     1      -4.385   1.731   1.759  1.00  0.00     0.009 C 
ENDBRANCH   6  11
BRANCH   6  13
HETATM   13  N1  UNL     1      -2.762  -0.947   1.029  1.00  0.00    -0.350 N 
HETATM   14  C4  UNL     1      -3.293  -1.826   1.723  1.00  0.00     0.198 C 
HETATM   15  N2  UNL     1      -2.453  -2.764   2.402  1.00  0.00    -0.067 NA
HETATM   16  N3  UNL     1      -4.679  -1.984   1.900  1.00  0.00    -0.067 NA
ATOM     17  H1  UNL     1      -1.743  -0.997   1.023  1.00  0.00     0.163 HD
ENDBRANCH   6  13
BRANCH   7  18
HETATM   18  C6  UNL     1      -5.358   0.771  -1.160  1.00  0.00     0.036 C 
BRANCH  18  19
HETATM   19  C7  UNL     1      -4.876   2.052  -1.791  1.00  0.00    -0.002 C 
HETATM   20  C8  UNL     1      -6.131   2.852  -2.129  1.00  0.00     0.005 C 
ENDBRANCH  18  19
ENDBRANCH   7  18
ENDBRANCH   1   5
BRANCH   3  21
HETATM   21  C12 UNL     1       1.323  -0.734  -0.800  1.00  0.00     0.063 C 
HETATM   22  C13 UNL     1       1.031  -1.818   0.252  1.00  0.00     0.044 C 
BRANCH  21  23
HETATM   23  C14 UNL     1       2.550  -0.040  -0.319  1.00  0.00     0.038 C 
BRANCH  23  24
HETATM   24  C15 UNL     1       2.511   0.475   1.091  1.00  0.00     0.031 C 
BRANCH  24  25
HETATM   25  C16 UNL     1       3.735   1.174   1.535  1.00  0.00     0.236 C 
BRANCH  25  26
HETATM   26  N6  UNL     1       4.964   0.473   1.555  1.00  0.00    -0.079 N 
HETATM   27  C17 UNL     1       5.646   0.460   0.264  1.00  0.00     0.271 C 
HETATM   28  C18 UNL     1       5.850   1.211   2.468  1.00  0.00     0.271 C 
HETATM   29  C19 UNL     1       4.880  -0.876   2.067  1.00  0.00     0.271 C 
ENDBRANCH  25  26
ENDBRANCH  24  25
ENDBRANCH  23  24
ENDBRANCH  21  23
BRANCH  21  30
HETATM   30  C20 UNL     1       1.502  -1.313  -2.170  1.00  0.00     0.086 C 
BRANCH  30  31
HETATM   31  N7  UNL     1       2.557  -2.195  -2.443  1.00  0.00    -0.404 N 
HETATM   32  C21 UNL     1       3.888  -1.763  -2.541  1.00  0.00     0.145 C 
ATOM     33  H7  UNL     1       2.350  -3.185  -2.575  1.00  0.00     0.158 HD
ENDBRANCH  30  31
ENDBRANCH  21  30
ENDBRANCH   3  21
TORSDOF 12
