REMARK  15 active torsions:
REMARK  status: ('A' for Active; 'I' for Inactive)
REMARK    1  A    between atoms: C2_2  and  C5_5 
REMARK    2  A    between atoms: C5_5  and  N1_6 
REMARK    3  A    between atoms: N2_9  and  C8_10 
REMARK    4  A    between atoms: C8_10  and  C9_11 
REMARK       I    between atoms: C9_11  and  N3_13 
REMARK    5  A    between atoms: N3_13  and  S1_15 
REMARK    6  A    between atoms: S1_15  and  N4_18 
REMARK    7  A    between atoms: N4_18  and  C10_20 
REMARK    8  A    between atoms: C10_20  and  C11_21 
REMARK    9  A    between atoms: C11_21  and  C12_22 
REMARK   10  A    between atoms: C12_22  and  C13_23 
REMARK   11  A    between atoms: C13_23  and  C14_24 
REMARK   12  A    between atoms: C14_24  and  C15_25 
REMARK   13  A    between atoms: C15_25  and  C16_26 
REMARK   14  A    between atoms: C16_26  and  C17_27 
REMARK   15  A    between atoms: C17_27  and  N5_28 
REMARK       I    between atoms: N5_28  and  C18_30 
ROOT
HETATM    1  S1  UNL     1       1.941  -0.179  -1.088  1.00  0.00     0.321 S 
HETATM    2  O2  UNL     1       1.821   1.331  -1.156  1.00  0.00    -0.182 OA
HETATM    3  O3  UNL     1       2.753  -0.605  -2.297  1.00  0.00    -0.182 OA
ENDROOT
BRANCH   1   4
HETATM    4  N3  UNL     1       0.373  -0.829  -1.260  1.00  0.00    -0.236 N 
HETATM    5  C9  UNL     1      -0.821  -0.136  -0.875  1.00  0.00     0.258 C 
HETATM    6  O1  UNL     1      -0.641   1.007  -0.391  1.00  0.00    -0.271 OA
ATOM      7  H3  UNL     1       0.280  -1.763  -1.659  1.00  0.00     0.183 HD
BRANCH   5   8
HETATM    8  C8  UNL     1      -2.117  -0.804  -1.073  1.00  0.00     0.340 C 
BRANCH   8   9
HETATM    9  N2  UNL     1      -3.271  -0.068  -0.672  1.00  0.00    -0.054 N 
HETATM   10  C7  UNL     1      -3.215   0.337   0.719  1.00  0.00     0.266 C 
HETATM   11  C6  UNL     1      -4.672   0.476   1.188  1.00  0.00     0.265 C 
HETATM   12  N1  UNL     1      -5.452   1.075   0.090  1.00  0.00    -0.061 N 
HETATM   13  C20 UNL     1      -4.494   1.957  -0.594  1.00  0.00     0.265 C 
HETATM   14  C22 UNL     1      -5.712   0.010  -0.818  1.00  0.00     0.265 C 
HETATM   15  C19 UNL     1      -3.516   1.137  -1.441  1.00  0.00     0.266 C 
HETATM   16  C21 UNL     1      -4.479  -0.875  -0.837  1.00  0.00     0.266 C 
BRANCH  12  17
HETATM   17  C5  UNL     1      -6.491   1.845   0.589  1.00  0.00     0.245 C 
BRANCH  17  18
HETATM   18  C2  UNL     1      -7.902   1.374   0.551  1.00  0.00    -0.027 C 
HETATM   19  C1  UNL     1      -8.693   2.533   1.201  1.00  0.00     0.016 C 
HETATM   20  C3  UNL     1      -8.185   0.176   1.419  1.00  0.00     0.016 C 
HETATM   21  C4  UNL     1      -8.476   1.231  -0.834  1.00  0.00     0.016 C 
ENDBRANCH  17  18
ENDBRANCH  12  17
ENDBRANCH   8   9
ENDBRANCH   5   8
ENDBRANCH   1   4
BRANCH   1  22
HETATM   22  N4  UNL     1       2.715  -0.661   0.361  1.00  0.00    -0.302 N 
ATOM     23  H4  UNL     1       2.678  -0.172   1.256  1.00  0.00     0.173 HD
BRANCH  22  24
HETATM   24  C10 UNL     1       3.441  -1.905   0.082  1.00  0.00     0.137 C 
BRANCH  24  25
HETATM   25  C11 UNL     1       4.153  -2.384   1.342  1.00  0.00     0.047 C 
BRANCH  25  26
HETATM   26  C12 UNL     1       4.896  -3.623   1.137  1.00  0.00    -0.025 C 
BRANCH  26  27
HETATM   27  C13 UNL     1       5.954  -3.837   0.176  1.00  0.00    -0.004 C 
BRANCH  27  28
HETATM   28  C14 UNL     1       7.250  -3.259   0.039  1.00  0.00    -0.004 C 
BRANCH  28  29
HETATM   29  C15 UNL     1       7.583  -1.883  -0.288  1.00  0.00    -0.025 C 
BRANCH  29  30
HETATM   30  C16 UNL     1       7.244  -0.712   0.527  1.00  0.00     0.047 C 
BRANCH  30  31
HETATM   31  C17 UNL     1       7.913   0.514  -0.181  1.00  0.00     0.126 C 
BRANCH  31  32
HETATM   32  N5  UNL     1       7.604   1.686   0.590  1.00  0.00    -0.365 N 
HETATM   33  C18 UNL     1       8.081   2.953   0.187  1.00  0.00     0.181 C 
HETATM   34  N6  UNL     1       8.026   3.286  -1.075  1.00  0.00    -0.374 N 
HETATM   35  N7  UNL     1       8.626   3.902   1.081  1.00  0.00    -0.064 NA
ATOM     36  H62 UNL     1       7.633   2.601  -1.720  1.00  0.00     0.158 HD
ATOM     37  H61 UNL     1       8.370   4.201  -1.366  1.00  0.00     0.158 HD
ATOM     38  H5  UNL     1       7.037   1.603   1.434  1.00  0.00     0.162 HD
ENDBRANCH  31  32
ENDBRANCH  30  31
ENDBRANCH  29  30
ENDBRANCH  28  29
ENDBRANCH  27  28
ENDBRANCH  26  27
ENDBRANCH  25  26
ENDBRANCH  24  25
ENDBRANCH  22  24
ENDBRANCH   1  22
TORSDOF 15
