REMARK  15 active torsions:
REMARK  status: ('A' for Active; 'I' for Inactive)
REMARK    1  A    between atoms: C2_2  and  N1_3 
REMARK       I    between atoms: C3_5  and  N3_7 
REMARK    2  A    between atoms: N3_7  and  C4_9 
REMARK    3  A    between atoms: C4_9  and  C5_10 
REMARK    4  A    between atoms: N4_13  and  C9_15 
REMARK    5  A    between atoms: C9_15  and  C10_16 
REMARK    6  A    between atoms: C10_16  and  C11_17 
REMARK    7  A    between atoms: C11_17  and  C12_18 
REMARK       I    between atoms: C12_18  and  N5_20 
REMARK    8  A    between atoms: C13_22  and  C14_23 
REMARK       I    between atoms: C14_23  and  N6_25 
REMARK    9  A    between atoms: N6_25  and  C16_27 
REMARK   10  A    between atoms: C16_27  and  C17_28 
REMARK   11  A    between atoms: C17_28  and  C18_29 
REMARK   12  A    between atoms: C18_29  and  C19_30 
REMARK   13  A    between atoms: C19_30  and  C20_31 
REMARK   14  A    between atoms: C20_31  and  C21_32 
REMARK   15  A    between atoms: C21_32  and  N7_33 
REMARK       I    between atoms: N7_33  and  C22_35 
ROOT
HETATM    1  C12 UNL     1       0.640  -0.562  -0.842  1.00  0.00     0.221 C 
HETATM    2  O1  UNL     1       0.714  -0.420  -2.078  1.00  0.00    -0.273 OA
HETATM    3  N5  UNL     1       1.339  -1.678  -0.292  1.00  0.00    -0.332 N 
ATOM      4  H5  UNL     1       0.941  -2.617  -0.309  1.00  0.00     0.168 HD
HETATM    5  C13 UNL     1       2.505  -1.444   0.232  1.00  0.00     0.165 C 
ENDROOT
BRANCH   1   6
HETATM    6  C11 UNL     1      -0.118   0.356   0.042  1.00  0.00     0.105 C 
BRANCH   6   7
HETATM    7  C10 UNL     1      -0.985   1.243  -0.794  1.00  0.00     0.037 C 
BRANCH   7   8
HETATM    8  C9  UNL     1      -2.039   0.619  -1.615  1.00  0.00     0.237 C 
BRANCH   8   9
HETATM    9  N4  UNL     1      -3.081  -0.107  -0.953  1.00  0.00    -0.071 N 
HETATM   10  C7  UNL     1      -3.547   0.511   0.255  1.00  0.00     0.237 C 
HETATM   11  C6  UNL     1      -4.593  -0.332   0.920  1.00  0.00     0.034 C 
HETATM   12  C5  UNL     1      -5.710  -0.774   0.039  1.00  0.00     0.006 C 
HETATM   13  C24 UNL     1      -5.425  -0.795  -1.418  1.00  0.00     0.034 C 
HETATM   14  C23 UNL     1      -4.233  -0.054  -1.884  1.00  0.00     0.237 C 
HETATM   15  C8  UNL     1      -2.748  -1.492  -0.862  1.00  0.00     0.272 C 
BRANCH  12  16
HETATM   16  C4  UNL     1      -6.964   0.049   0.370  1.00  0.00     0.127 C 
BRANCH  16  17
HETATM   17  N3  UNL     1      -8.074  -0.346  -0.432  1.00  0.00    -0.364 N 
HETATM   18  C3  UNL     1      -9.359   0.217  -0.363  1.00  0.00     0.183 C 
HETATM   19  N1  UNL     1      -9.667   1.239   0.268  1.00  0.00    -0.365 N 
HETATM   20  N2  UNL     1     -10.445  -0.437  -1.084  1.00  0.00    -0.064 NA
ATOM     21  H1  UNL     1     -10.660   1.453   0.172  1.00  0.00     0.162 HD
ATOM     22  H3  UNL     1      -7.924  -1.095  -1.108  1.00  0.00     0.162 HD
BRANCH  19  23
HETATM   23  C2  UNL     1      -9.015   2.178   1.078  1.00  0.00     0.118 C 
HETATM   24  C1  UNL     1     -10.016   3.135   1.730  1.00  0.00     0.026 C 
ENDBRANCH  19  23
ENDBRANCH  16  17
ENDBRANCH  12  16
ENDBRANCH   8   9
ENDBRANCH   7   8
ENDBRANCH   6   7
ENDBRANCH   1   6
BRANCH   5  25
HETATM   25  C14 UNL     1       3.227  -2.566   0.793  1.00  0.00     0.258 C 
HETATM   26  O2  UNL     1       2.717  -3.710   0.756  1.00  0.00    -0.267 OA
HETATM   27  N6  UNL     1       4.501  -2.359   1.374  1.00  0.00    -0.352 N 
HETATM   28  C15 UNL     1       5.272  -3.484   1.924  1.00  0.00     0.152 C 
BRANCH  27  29
HETATM   29  C16 UNL     1       5.038  -1.032   1.459  1.00  0.00     0.125 C 
BRANCH  29  30
HETATM   30  C17 UNL     1       5.802  -0.640   0.241  1.00  0.00     0.020 C 
BRANCH  30  31
HETATM   31  C18 UNL     1       6.959  -1.573  -0.002  1.00  0.00     0.002 C 
BRANCH  31  32
HETATM   32  C19 UNL     1       7.723  -1.152  -1.237  1.00  0.00     0.002 C 
BRANCH  32  33
HETATM   33  C20 UNL     1       8.306   0.217  -1.161  1.00  0.00     0.020 C 
BRANCH  33  34
HETATM   34  C21 UNL     1       9.281   0.294   0.017  1.00  0.00     0.122 C 
BRANCH  34  35
HETATM   35  N7  UNL     1       9.818   1.628   0.059  1.00  0.00    -0.365 N 
HETATM   36  C22 UNL     1       8.992   2.720   0.401  1.00  0.00     0.181 C 
HETATM   37  N8  UNL     1       8.461   2.769   1.582  1.00  0.00    -0.374 N 
HETATM   38  N9  UNL     1       8.723   3.771  -0.510  1.00  0.00    -0.064 NA
ATOM     39  H82 UNL     1       8.655   2.012   2.238  1.00  0.00     0.158 HD
ATOM     40  H81 UNL     1       7.864   3.558   1.829  1.00  0.00     0.158 HD
ATOM     41  H7  UNL     1      10.802   1.786  -0.160  1.00  0.00     0.162 HD
ENDBRANCH  34  35
ENDBRANCH  33  34
ENDBRANCH  32  33
ENDBRANCH  31  32
ENDBRANCH  30  31
ENDBRANCH  29  30
ENDBRANCH  27  29
ENDBRANCH   5  25
TORSDOF 15
