REMARK  12 active torsions:
REMARK  status: ('A' for Active; 'I' for Inactive)
REMARK    1  A    between atoms: C3_3  and  C4_4 
REMARK    2  A    between atoms: C4_4  and  C5_5 
REMARK    3  A    between atoms: C4_4  and  C8_8 
REMARK    4  A    between atoms: C8_8  and  O1_9 
REMARK    5  A    between atoms: C9_11  and  C10_12 
REMARK    6  A    between atoms: C9_11  and  C13_17 
REMARK    7  A    between atoms: C10_12  and  C11_13 
REMARK    8  A    between atoms: C11_13  and  C12_14 
REMARK    9  A    between atoms: C22_26  and  O4_27 
REMARK   10  A    between atoms: O4_27  and  S1_28 
REMARK   11  A    between atoms: S1_28  and  N1_31 
REMARK       I    between atoms: N1_31  and  C23_33 
REMARK   12  A    between atoms: C24_38  and  O7_39 
ROOT
HETATM    1  C1  UNL     1      -7.544   3.943  -1.564  1.00  0.00     0.012 C 
HETATM    2  C2  UNL     1      -6.956   3.187  -0.851  1.00  0.00    -0.117 C 
HETATM    3  C3  UNL     1      -6.226   2.334   0.018  1.00  0.00     0.104 C 
ENDROOT
BRANCH   3   4
HETATM    4  C4  UNL     1      -5.360   1.245  -0.680  1.00  0.00     0.057 C 
BRANCH   4   5
HETATM    5  C5  UNL     1      -6.153   0.266  -1.435  1.00  0.00    -0.012 C 
HETATM    6  C6  UNL     1      -5.424  -0.797  -2.188  1.00  0.00     0.010 C 
HETATM    7  C7  UNL     1      -7.214   0.785  -2.378  1.00  0.00     0.010 C 
ENDBRANCH   4   5
BRANCH   4   8
HETATM    8  C8  UNL     1      -4.313   0.873   0.256  1.00  0.00     0.051 C 
HETATM    9  C9  UNL     1      -3.668  -0.308   0.720  1.00  0.00    -0.045 C 
BRANCH   8  10
HETATM   10  O1  UNL     1      -3.504   2.082   0.551  1.00  0.00    -0.364 OA
ATOM     11  H1  UNL     1      -2.819   1.839   1.163  1.00  0.00     0.217 HD
ENDBRANCH   8  10
BRANCH   9  12
HETATM   12  C10 UNL     1      -4.658  -1.237   1.431  1.00  0.00     0.047 C 
BRANCH  12  13
HETATM   13  C11 UNL     1      -5.352  -0.582   2.636  1.00  0.00     0.117 C 
BRANCH  13  14
HETATM   14  C12 UNL     1      -6.235  -1.646   3.283  1.00  0.00     0.172 C 
HETATM   15  O2  UNL     1      -6.280  -2.778   2.819  1.00  0.00    -0.648 OA
HETATM   16  O3  UNL     1      -6.955  -1.282   4.382  1.00  0.00    -0.648 OA
ENDBRANCH  13  14
ENDBRANCH  12  13
ENDBRANCH   9  12
BRANCH   9  17
HETATM   17  C13 UNL     1      -2.664  -1.114  -0.016  1.00  0.00     0.025 C 
HETATM   18  C14 UNL     1      -2.123  -2.315   0.779  1.00  0.00     0.010 C 
HETATM   19  C15 UNL     1      -0.976  -1.782   1.577  1.00  0.00     0.006 C 
HETATM   20  C16 UNL     1      -0.532  -0.459   0.920  1.00  0.00    -0.001 C 
HETATM   21  C17 UNL     1       0.987  -0.609   0.717  1.00  0.00    -0.005 C 
HETATM   22  C31 UNL     1      -1.320  -0.475  -0.340  1.00  0.00    -0.033 C 
HETATM   23  C18 UNL     1       1.766  -0.154   1.900  1.00  0.00     0.006 C 
HETATM   24  C28 UNL     1       1.467  -0.052  -0.576  1.00  0.00    -0.001 C 
HETATM   25  C19 UNL     1       2.823   0.839   1.710  1.00  0.00     0.006 C 
HETATM   26  C20 UNL     1       3.469   0.959   0.355  1.00  0.00    -0.003 C 
HETATM   27  C21 UNL     1       4.937   1.101   0.403  1.00  0.00     0.041 C 
HETATM   28  C26 UNL     1       2.933  -0.015  -0.672  1.00  0.00    -0.034 C 
HETATM   29  C22 UNL     1       5.746  -0.034  -0.042  1.00  0.00     0.173 C 
HETATM   30  C24 UNL     1       5.128  -0.924  -1.037  1.00  0.00     0.149 C 
HETATM   31  C25 UNL     1       3.702  -1.280  -0.676  1.00  0.00     0.044 C 
HETATM   32  C27 UNL     1       3.233   0.652  -2.038  1.00  0.00     0.016 C 
HETATM   33  C29 UNL     1       0.785  -0.823  -1.676  1.00  0.00     0.006 C 
HETATM   34  C30 UNL     1      -0.518  -1.468  -1.238  1.00  0.00     0.010 C 
HETATM   35  C32 UNL     1      -1.385   0.748  -1.169  1.00  0.00     0.016 C 
BRANCH  29  36
HETATM   36  O4  UNL     1       7.033   0.382  -0.470  1.00  0.00    -0.251 OA
BRANCH  36  37
HETATM   37  S1  UNL     1       8.298  -0.197   0.389  1.00  0.00     0.364 S 
HETATM   38  O5  UNL     1       7.828  -0.660   1.736  1.00  0.00    -0.175 OA
HETATM   39  O6  UNL     1       8.976  -1.382  -0.256  1.00  0.00    -0.175 OA
BRANCH  37  40
HETATM   40  N1  UNL     1       9.515   1.009   0.674  1.00  0.00    -0.235 N 
HETATM   41  C23 UNL     1      10.496   1.211  -0.337  1.00  0.00     0.197 C 
HETATM   42  N2  UNL     1      11.208   2.292  -0.398  1.00  0.00    -0.373 N 
HETATM   43  N3  UNL     1      10.763   0.247  -1.353  1.00  0.00    -0.063 NA
ATOM     44  H22 UNL     1      11.017   2.982   0.329  1.00  0.00     0.158 HD
ATOM     45  H21 UNL     1      11.911   2.437  -1.123  1.00  0.00     0.158 HD
ATOM     46  H1  UNL     1       9.526   1.554   1.536  1.00  0.00     0.183 HD
ENDBRANCH  37  40
ENDBRANCH  36  37
ENDBRANCH  29  36
BRANCH  30  47
HETATM   47  O7  UNL     1       5.829  -2.154  -0.982  1.00  0.00    -0.393 OA
ATOM     48  H7  UNL     1       5.430  -2.729  -1.625  1.00  0.00     0.210 HD
ENDBRANCH  30  47
ENDBRANCH   9  17
ENDBRANCH   4   8
ENDBRANCH   3   4
TORSDOF 12
