REMARK  14 active torsions:
REMARK  status: ('A' for Active; 'I' for Inactive)
REMARK    1  A    between atoms: C2_2  and  C3_3 
REMARK    2  A    between atoms: C3_3  and  N1_4 
REMARK    3  A    between atoms: N1_4  and  C4_5 
REMARK    4  A    between atoms: N1_4  and  C12_20 
REMARK    5  A    between atoms: C4_5  and  C5_6 
REMARK       I    between atoms: C5_6  and  N2_8 
REMARK    6  A    between atoms: N2_8  and  C6_10 
REMARK    7  A    between atoms: C6_10  and  C7_11 
REMARK    8  A    between atoms: C7_11  and  N3_12 
REMARK    9  A    between atoms: N3_12  and  C8_14 
REMARK   10  A    between atoms: C8_14  and  C9_15 
REMARK   11  A    between atoms: C9_15  and  N4_17 
REMARK   12  A    between atoms: C20_28  and  O2_29 
REMARK   13  A    between atoms: C21_31  and  C22_32 
REMARK   14  A    between atoms: C30_41  and  O3_42 
ROOT
HETATM    1  C12 UNL     1       0.625  -2.210   0.381  1.00  0.00     0.113 C 
HETATM    2  C13 UNL     1      -0.426  -1.460  -0.442  1.00  0.00     0.035 C 
HETATM    3  C14 UNL     1      -1.596  -1.225   0.370  1.00  0.00     0.026 C 
HETATM    4  C15 UNL     1      -2.791  -2.162   0.214  1.00  0.00    -0.011 C 
HETATM    5  C16 UNL     1      -3.120  -2.472  -1.189  1.00  0.00     0.018 C 
HETATM    6  C17 UNL     1      -2.437  -3.426   0.941  1.00  0.00    -0.005 C 
HETATM    7  C18 UNL     1      -2.541  -3.371   2.419  1.00  0.00     0.011 C 
HETATM    8  C19 UNL     1      -1.170  -3.969   0.395  1.00  0.00     0.039 C 
HETATM    9  C20 UNL     1       0.116  -3.492   0.921  1.00  0.00     0.141 C 
HETATM   10  C21 UNL     1      -3.802  -1.299   0.951  1.00  0.00     0.112 C 
HETATM   11  N5  UNL     1      -3.557  -0.042   0.405  1.00  0.00    -0.386 N 
HETATM   12  C24 UNL     1      -4.479   1.005   0.389  1.00  0.00     0.034 C 
HETATM   13  C25 UNL     1      -4.921   1.275   1.838  1.00  0.00     0.039 C 
HETATM   14  C26 UNL     1      -5.697   0.667  -0.387  1.00  0.00     0.036 C 
HETATM   15  C27 UNL     1      -6.266   1.675  -1.315  1.00  0.00     0.041 C 
HETATM   16  C28 UNL     1      -5.963   3.069  -1.032  1.00  0.00    -0.049 A 
HETATM   17  C29 UNL     1      -6.858   4.052  -1.366  1.00  0.00     0.044 A 
HETATM   18  C30 UNL     1      -6.587   5.367  -1.110  1.00  0.00     0.066 A 
HETATM   19  C31 UNL     1      -5.396   5.702  -0.508  1.00  0.00     0.037 A 
HETATM   20  C32 UNL     1      -4.517   4.697  -0.184  1.00  0.00     0.011 A 
HETATM   21  C33 UNL     1      -4.762   3.345  -0.431  1.00  0.00    -0.045 A 
HETATM   22  C34 UNL     1      -3.791   2.278  -0.062  1.00  0.00     0.047 C 
HETATM   23  C35 UNL     1      -2.847   2.039  -1.191  1.00  0.00     0.014 C 
HETATM   24  C36 UNL     1      -1.908   0.885  -0.997  1.00  0.00     0.031 C 
HETATM   25  C37 UNL     1      -2.189   0.182   0.308  1.00  0.00     0.030 C 
HETATM   26  C38 UNL     1      -1.496   0.965   1.386  1.00  0.00     0.039 C 
ENDROOT
BRANCH   1  27
HETATM   27  N1  UNL     1       1.845  -2.161  -0.288  1.00  0.00    -0.374 N 
BRANCH  27  28
HETATM   28  C3  UNL     1       2.071  -2.712  -1.540  1.00  0.00     0.086 C 
BRANCH  28  29
HETATM   29  C2  UNL     1       2.403  -4.181  -1.574  1.00  0.00     0.007 C 
HETATM   30  C1  UNL     1       1.628  -5.010  -2.248  1.00  0.00     0.012 C 
ENDBRANCH  28  29
ENDBRANCH  27  28
BRANCH  27  31
HETATM   31  C4  UNL     1       2.927  -2.042   0.620  1.00  0.00     0.225 C 
BRANCH  31  32
HETATM   32  C5  UNL     1       3.976  -1.069   0.292  1.00  0.00     0.235 C 
HETATM   33  O1  UNL     1       3.900  -0.395  -0.748  1.00  0.00    -0.272 OA
HETATM   34  N2  UNL     1       5.062  -0.907   1.165  1.00  0.00    -0.355 N 
ATOM     35  H2  UNL     1       5.070  -1.482   2.008  1.00  0.00     0.162 HD
BRANCH  34  36
HETATM   36  C6  UNL     1       6.183   0.011   0.976  1.00  0.00     0.167 C 
BRANCH  36  37
HETATM   37  C7  UNL     1       6.994  -0.277  -0.236  1.00  0.00     0.079 C 
BRANCH  37  38
HETATM   38  N3  UNL     1       8.118   0.473  -0.527  1.00  0.00    -0.379 N 
ATOM     39  H3  UNL     1       9.020   0.013  -0.402  1.00  0.00     0.164 HD
BRANCH  38  40
HETATM   40  C8  UNL     1       8.145   1.772  -0.967  1.00  0.00     0.084 C 
BRANCH  40  41
HETATM   41  C9  UNL     1       7.750   2.834   0.004  1.00  0.00     0.110 C 
HETATM   42  C10 UNL     1       7.889   4.201  -0.698  1.00  0.00     0.037 C 
BRANCH  41  43
HETATM   43  N4  UNL     1       8.559   2.780   1.174  1.00  0.00    -0.417 N 
HETATM   44  C11 UNL     1       9.959   3.012   0.979  1.00  0.00     0.140 C 
ATOM     45  H4  UNL     1       8.166   2.588   2.095  1.00  0.00     0.153 HD
ENDBRANCH  41  43
ENDBRANCH  40  41
ENDBRANCH  38  40
ENDBRANCH  37  38
ENDBRANCH  36  37
ENDBRANCH  34  36
ENDBRANCH  31  32
ENDBRANCH  27  31
ENDBRANCH   1  27
BRANCH   9  46
HETATM   46  O2  UNL     1       0.096  -3.513   2.330  1.00  0.00    -0.393 OA
ATOM     47  H2  UNL     1      -0.230  -4.335   2.676  1.00  0.00     0.210 HD
ENDBRANCH   9  46
BRANCH  10  48
HETATM   48  C22 UNL     1      -5.128  -1.812   1.112  1.00  0.00    -0.012 C 
HETATM   49  C23 UNL     1      -5.784  -2.806   0.569  1.00  0.00     0.009 C 
ENDBRANCH  10  48
BRANCH  18  50
HETATM   50  O3  UNL     1      -7.526   6.354  -1.464  1.00  0.00    -0.361 OA
ATOM     51  H3  UNL     1      -7.338   7.268  -1.286  1.00  0.00     0.217 HD
ENDBRANCH  18  50
TORSDOF 14
