REMARK  16 active torsions:
REMARK  status: ('A' for Active; 'I' for Inactive)
REMARK    1  A    between atoms: C2_2  and  N1_3 
REMARK    2  A    between atoms: N1_3  and  C3_6 
REMARK    3  A    between atoms: C3_6  and  C4_7 
REMARK    4  A    between atoms: C4_7  and  C5_8 
REMARK    5  A    between atoms: C5_8  and  N2_9 
REMARK       I    between atoms: N2_9  and  C6_11 
REMARK    6  A    between atoms: C6_11  and  C7_13 
REMARK    7  A    between atoms: C7_13  and  C8_14 
REMARK    8  A    between atoms: C9_15  and  C10_16 
REMARK    9  A    between atoms: C9_15  and  C15_23 
REMARK   10  A    between atoms: C10_16  and  O2_17 
REMARK   11  A    between atoms: C10_16  and  C11_19 
REMARK   12  A    between atoms: C11_19  and  C13_21 
REMARK   13  A    between atoms: C27_35  and  O3_36 
REMARK   14  A    between atoms: C28_38  and  C29_39 
REMARK   15  A    between atoms: C29_39  and  O4_40 
REMARK   16  A    between atoms: C35_47  and  O5_48 
ROOT
HETATM    1  C15 UNL     1      -0.886  -1.075   0.120  1.00  0.00    -0.051 C 
HETATM    2  C16 UNL     1      -0.978  -0.936   1.583  1.00  0.00    -0.015 C 
HETATM    3  C17 UNL     1      -0.119  -0.029   2.359  1.00  0.00     0.020 C 
HETATM    4  C18 UNL     1      -1.105  -2.281   2.210  1.00  0.00     0.018 C 
HETATM    5  C19 UNL     1      -2.171  -2.412   3.269  1.00  0.00    -0.018 C 
HETATM    6  C20 UNL     1      -1.743  -3.433   4.298  1.00  0.00     0.010 C 
HETATM    7  C21 UNL     1      -2.393  -1.102   3.990  1.00  0.00     0.005 C 
HETATM    8  C22 UNL     1      -2.824  -0.028   2.975  1.00  0.00     0.006 C 
HETATM    9  C23 UNL     1      -2.410  -0.277   1.592  1.00  0.00     0.004 C 
HETATM   10  C24 UNL     1      -2.078   0.884   0.720  1.00  0.00     0.016 C 
HETATM   11  C25 UNL     1      -3.053   1.921   0.411  1.00  0.00    -0.008 C 
HETATM   12  C26 UNL     1      -2.420   3.315   0.490  1.00  0.00     0.019 C 
HETATM   13  C27 UNL     1      -4.312   2.056   1.176  1.00  0.00     0.134 C 
HETATM   14  C28 UNL     1      -5.194   2.956   0.297  1.00  0.00     0.047 C 
HETATM   15  C30 UNL     1      -4.951   2.455  -1.057  1.00  0.00    -0.035 C 
HETATM   16  C31 UNL     1      -6.098   1.506  -1.421  1.00  0.00     0.016 C 
HETATM   17  C32 UNL     1      -5.025   3.553  -2.127  1.00  0.00     0.016 C 
HETATM   18  C33 UNL     1      -3.627   1.823  -1.010  1.00  0.00     0.007 C 
HETATM   19  C34 UNL     1      -3.807   0.353  -1.269  1.00  0.00     0.039 C 
HETATM   20  C35 UNL     1      -2.382  -0.098  -1.575  1.00  0.00     0.131 C 
HETATM   21  C36 UNL     1      -1.394   0.186  -0.493  1.00  0.00     0.012 C 
HETATM   22  C37 UNL     1      -0.331   1.055  -1.066  1.00  0.00     0.023 C 
ENDROOT
BRANCH   1  23
HETATM   23  C9  UNL     1       0.323  -1.754  -0.467  1.00  0.00    -0.029 C 
HETATM   24  C8  UNL     1       1.407  -2.002   0.213  1.00  0.00    -0.008 C 
BRANCH  24  25
HETATM   25  C7  UNL     1       2.686  -2.645   0.077  1.00  0.00     0.130 C 
BRANCH  25  26
HETATM   26  C6  UNL     1       3.849  -1.737   0.448  1.00  0.00     0.221 C 
HETATM   27  N2  UNL     1       5.180  -2.102   0.150  1.00  0.00    -0.361 N 
ATOM     28  H2  UNL     1       5.348  -2.985  -0.333  1.00  0.00     0.162 HD
HETATM   29  O1  UNL     1       3.592  -0.674   1.017  1.00  0.00    -0.273 OA
BRANCH  27  30
HETATM   30  C5  UNL     1       6.291  -1.294   0.493  1.00  0.00     0.124 C 
BRANCH  30  31
HETATM   31  C4  UNL     1       6.323   0.102  -0.069  1.00  0.00     0.047 C 
BRANCH  31  32
HETATM   32  C3  UNL     1       7.616   0.768   0.422  1.00  0.00     0.234 C 
BRANCH  32  33
HETATM   33  N1  UNL     1       8.766   0.054  -0.081  1.00  0.00    -0.075 N 
ATOM     34  H12 UNL     1       8.808   0.063  -1.100  1.00  0.00     0.277 HD
ATOM     35  H11 UNL     1       8.682  -0.954   0.054  1.00  0.00     0.277 HD
BRANCH  33  36
HETATM   36  C2  UNL     1       9.961   0.582   0.515  1.00  0.00     0.228 C 
HETATM   37  C1  UNL     1      10.281   1.971   0.100  1.00  0.00     0.034 C 
ENDBRANCH  33  36
ENDBRANCH  32  33
ENDBRANCH  31  32
ENDBRANCH  30  31
ENDBRANCH  27  30
ENDBRANCH  25  26
ENDBRANCH  24  25
BRANCH  23  38
HETATM   38  C10 UNL     1       0.217  -2.222  -1.859  1.00  0.00     0.154 C 
BRANCH  38  39
HETATM   39  O2  UNL     1      -0.720  -3.310  -1.930  1.00  0.00    -0.391 OA
ATOM     40  H2  UNL     1      -0.788  -3.612  -2.828  1.00  0.00     0.210 HD
ENDBRANCH  38  39
BRANCH  38  41
HETATM   41  C11 UNL     1       1.339  -2.645  -2.686  1.00  0.00     0.014 C 
HETATM   42  C12 UNL     1       0.691  -3.069  -4.098  1.00  0.00     0.012 C 
BRANCH  41  43
HETATM   43  C13 UNL     1       2.266  -1.554  -3.190  1.00  0.00     0.002 C 
HETATM   44  C14 UNL     1       1.597  -0.527  -4.050  1.00  0.00     0.005 C 
ENDBRANCH  41  43
ENDBRANCH  38  41
ENDBRANCH  23  38
ENDBRANCH   1  23
BRANCH  20  45
HETATM   45  O5  UNL     1      -2.133   0.610  -2.786  1.00  0.00    -0.394 OA
ATOM     46  H5  UNL     1      -1.246   0.329  -2.977  1.00  0.00     0.210 HD
ENDBRANCH  20  45
BRANCH  13  47
HETATM   47  O3  UNL     1      -4.187   2.913   2.301  1.00  0.00    -0.394 OA
ATOM     48  H3  UNL     1      -4.995   3.000   2.792  1.00  0.00     0.210 HD
ENDBRANCH  13  47
BRANCH  14  49
HETATM   49  C29 UNL     1      -6.642   2.882   0.749  1.00  0.00     0.172 C 
BRANCH  49  50
HETATM   50  O4  UNL     1      -6.680   3.325   2.074  1.00  0.00    -0.400 OA
ATOM     51  H4  UNL     1      -7.586   3.279   2.357  1.00  0.00     0.209 HD
ENDBRANCH  49  50
ENDBRANCH  14  49
TORSDOF 16
