REMARK  4 active torsions:
REMARK  status: ('A' for Active; 'I' for Inactive)
REMARK    1  A    between atoms: N2_5  and  C3_6 
REMARK    2  A    between atoms: C7_10  and  C8_11 
REMARK    3  A    between atoms: C12_15  and  C13_16 
REMARK    4  A    between atoms: C15_19  and  N3_20 
ROOT
HETATM    1  C1  UNL     1       1.974  -2.582  -1.820  1.00  0.00     0.070 C 
HETATM    2  C2  UNL     1       1.009  -1.667  -1.123  1.00  0.00     0.036 A 
HETATM    3  N1  UNL     1      -0.306  -1.824  -1.141  1.00  0.00    -0.301 N 
ATOM      4  H1  UNL     1      -0.784  -2.570  -1.646  1.00  0.00     0.187 HD
HETATM    5  N2  UNL     1      -0.947  -0.868  -0.402  1.00  0.00    -0.286 N 
HETATM    6  C7  UNL     1       0.008  -0.090   0.087  1.00  0.00     0.048 A 
HETATM    7  C12 UNL     1       1.274  -0.582  -0.358  1.00  0.00     0.039 A 
ENDROOT
BRANCH   7   8
HETATM    8  C13 UNL     1       2.609   0.065  -0.193  1.00  0.00     0.055 A 
HETATM    9  C14 UNL     1       3.312   0.386  -1.352  1.00  0.00     0.083 A 
HETATM   10  S1  UNL     1       4.662   1.206  -0.760  1.00  0.00    -0.064 SA
HETATM   11  C15 UNL     1       4.288   1.112   0.939  1.00  0.00     0.142 A 
HETATM   12  N4  UNL     1       3.151   0.457   0.937  1.00  0.00    -0.336 N 
ATOM     13  H4  UNL     1       2.684   0.251   1.820  1.00  0.00     0.168 HD
BRANCH  11  14
HETATM   14  N3  UNL     1       5.036   1.579   1.893  1.00  0.00    -0.380 N 
ATOM     15  H32 UNL     1       5.920   2.088   1.895  1.00  0.00     0.158 HD
ATOM     16  H31 UNL     1       4.817   1.524   2.888  1.00  0.00     0.158 HD
ENDBRANCH  11  14
ENDBRANCH   7   8
BRANCH   6  17
HETATM   17  C8  UNL     1       0.008   1.062   0.975  1.00  0.00     0.038 C 
HETATM   18  C9  UNL     1       0.026   2.362   0.086  1.00  0.00     0.011 C 
HETATM   19  C10 UNL     1      -0.509   3.042   1.359  1.00  0.00     0.001 C 
HETATM   20  C11 UNL     1      -1.279   1.673   1.492  1.00  0.00     0.011 C 
ENDBRANCH   6  17
BRANCH   5  21
HETATM   21  C3  UNL     1      -2.399  -0.939  -0.257  1.00  0.00     0.043 C 
HETATM   22  C4  UNL     1      -2.907  -1.046   1.147  1.00  0.00     0.039 C 
HETATM   23  C5  UNL     1      -2.743  -2.403  -0.790  1.00  0.00     0.039 C 
HETATM   24  C6  UNL     1      -3.191  -0.093  -1.197  1.00  0.00     0.039 C 
ENDBRANCH   5  21
TORSDOF 4
