REMARK  7 active torsions:
REMARK  status: ('A' for Active; 'I' for Inactive)
REMARK    1  A    between atoms: S1_2  and  C2_3 
REMARK    2  A    between atoms: C2_3  and  N2_7 
REMARK    3  A    between atoms: C3_9  and  N3_10 
REMARK    4  A    between atoms: C3_9  and  O1_20 
REMARK    5  A    between atoms: N3_10  and  N4_12 
REMARK    6  A    between atoms: C4_14  and  C5_15 
REMARK    7  A    between atoms: O1_20  and  C9_21 
ROOT
HETATM    1  N2  UNL     1      -1.975   0.599  -0.535  1.00  0.00    -0.302 N 
ATOM      2  H2  UNL     1      -2.674  -0.103  -0.294  1.00  0.00     0.171 HD
HETATM    3  C3  UNL     1      -0.717   0.332  -0.479  1.00  0.00     0.241 C 
ENDROOT
BRANCH   3   4
HETATM    4  N3  UNL     1       0.283   1.292  -0.809  1.00  0.00    -0.265 N 
ATOM      5  H3  UNL     1       0.026   2.145  -1.305  1.00  0.00     0.190 HD
BRANCH   4   6
HETATM    6  N4  UNL     1       1.609   1.067  -0.456  1.00  0.00    -0.308 N 
HETATM    7  C4  UNL     1       2.214  -0.022  -0.747  1.00  0.00     0.126 C 
ATOM      8  H4  UNL     1       2.115   1.793   0.051  1.00  0.00     0.186 HD
BRANCH   7   9
HETATM    9  C5  UNL     1       3.622  -0.167  -0.330  1.00  0.00     0.021 A 
HETATM   10  C6  UNL     1       4.387   0.744   0.350  1.00  0.00     0.021 A 
HETATM   11  C7  UNL     1       5.652   0.401   0.627  1.00  0.00     0.008 A 
HETATM   12  C8  UNL     1       6.075  -0.835   0.206  1.00  0.00     0.050 A 
HETATM   13  S2  UNL     1       4.690  -1.469  -0.560  1.00  0.00    -0.101 SA
ENDBRANCH   7   9
ENDBRANCH   4   6
ENDBRANCH   3   4
BRANCH   3  14
HETATM   14  O1  UNL     1      -0.422  -0.958  -0.073  1.00  0.00    -0.311 OA
BRANCH  14  15
HETATM   15  C9  UNL     1      -1.329  -1.966   0.136  1.00  0.00     0.060 C 
HETATM   16  C10 UNL     1      -2.378  -1.741   1.169  1.00  0.00     0.046 C 
HETATM   17  C11 UNL     1      -0.546  -3.214   0.571  1.00  0.00     0.046 C 
HETATM   18  C12 UNL     1      -2.039  -2.375  -1.160  1.00  0.00     0.046 C 
ENDBRANCH  14  15
ENDBRANCH   3  14
BRANCH   1  19
HETATM   19  C2  UNL     1      -2.357   1.905  -0.944  1.00  0.00     0.140 C 
HETATM   20  N1  UNL     1      -2.583   2.202  -2.178  1.00  0.00    -0.380 N 
ATOM     21  H12 UNL     1      -2.857   3.140  -2.472  1.00  0.00     0.158 HD
ATOM     22  H11 UNL     1      -2.478   1.457  -2.866  1.00  0.00     0.158 HD
BRANCH  19  23
HETATM   23  S1  UNL     1      -2.542   3.220   0.270  1.00  0.00    -0.099 SA
HETATM   24  C1  UNL     1      -3.027   4.757  -0.508  1.00  0.00     0.099 C 
ENDBRANCH  19  23
ENDBRANCH   1  19
TORSDOF 7
