REMARK  12 active torsions:
REMARK  status: ('A' for Active; 'I' for Inactive)
REMARK    1  A    between atoms: C2_2  and  C3_4 
REMARK    2  A    between atoms: C3_4  and  N1_5 
REMARK    3  A    between atoms: C3_4  and  C4_9 
REMARK    4  A    between atoms: C4_9  and  C5_10 
REMARK       I    between atoms: C5_10  and  N2_12 
REMARK    5  A    between atoms: N2_12  and  C6_14 
REMARK    6  A    between atoms: N4_20  and  C9_21 
REMARK    7  A    between atoms: C9_21  and  O3_22 
REMARK    8  A    between atoms: C10_24  and  N5_25 
REMARK    9  A    between atoms: C10_24  and  C25_44 
REMARK       I    between atoms: N5_25  and  C11_26 
REMARK   10  A    between atoms: C11_26  and  O5_28 
REMARK   11  A    between atoms: O5_28  and  C12_29 
REMARK   12  A    between atoms: C12_29  and  C13_30 
ROOT
HETATM    1  C9  UNL     1       1.607  -0.196   1.537  1.00  0.00     0.177 C 
HETATM    2  C10 UNL     1       0.626  -0.528   0.528  1.00  0.00     0.144 C 
ENDROOT
BRANCH   1   3
HETATM    3  N4  UNL     1       2.916  -0.269   1.839  1.00  0.00    -0.334 N 
HETATM    4  C8  UNL     1       3.383   0.316   3.155  1.00  0.00     0.358 C 
HETATM    5  N3  UNL     1       4.378   1.313   2.816  1.00  0.00    -0.057 N 
HETATM    6  C7  UNL     1       4.414   1.682   1.416  1.00  0.00     0.261 C 
ATOM      7  H32 UNL     1       5.302   1.011   3.126  1.00  0.00     0.279 HD
ATOM      8  H31 UNL     1       4.260   2.143   3.397  1.00  0.00     0.279 HD
HETATM    9  C6  UNL     1       4.712   0.510   0.498  1.00  0.00     0.128 C 
HETATM   10  C28 UNL     1       4.046  -0.745   1.100  1.00  0.00     0.153 C 
BRANCH   9  11
HETATM   11  N2  UNL     1       6.107   0.370   0.240  1.00  0.00    -0.353 N 
HETATM   12  C5  UNL     1       6.659   0.268  -1.069  1.00  0.00     0.220 C 
HETATM   13  O2  UNL     1       5.881   0.286  -2.044  1.00  0.00    -0.274 OA
ATOM     14  H2  UNL     1       6.744   0.341   1.036  1.00  0.00     0.163 HD
BRANCH  12  15
HETATM   15  C4  UNL     1       8.129   0.146  -1.201  1.00  0.00     0.143 C 
BRANCH  15  16
HETATM   16  C3  UNL     1       8.609  -0.097  -2.597  1.00  0.00     0.260 C 
BRANCH  16  17
HETATM   17  C2  UNL     1      10.111  -0.156  -2.517  1.00  0.00     0.153 C 
HETATM   18  C1  UNL     1      10.882   1.062  -2.084  1.00  0.00     0.093 C 
HETATM   19  O1  UNL     1      10.736  -1.151  -2.792  1.00  0.00    -0.296 OA
ENDBRANCH  16  17
BRANCH  16  20
HETATM   20  N1  UNL     1       8.183  -1.400  -3.091  1.00  0.00    -0.068 N 
ATOM     21  H13 UNL     1       8.627  -1.668  -3.969  1.00  0.00     0.275 HD
ATOM     22  H12 UNL     1       8.531  -2.180  -2.534  1.00  0.00     0.275 HD
ATOM     23  H11 UNL     1       7.165  -1.360  -3.145  1.00  0.00     0.275 HD
ENDBRANCH  16  20
ENDBRANCH  15  16
ENDBRANCH  12  15
ENDBRANCH   9  11
ENDBRANCH   1   3
BRANCH   1  24
HETATM   24  O3  UNL     1       0.931   0.440   2.561  1.00  0.00    -0.344 OA
ATOM     25  H3  UNL     1       0.007   0.492   2.348  1.00  0.00     0.219 HD
ENDBRANCH   1  24
BRANCH   2  26
HETATM   26  N5  UNL     1      -0.592   0.122   0.758  1.00  0.00    -0.345 NA
HETATM   27  C11 UNL     1      -1.781   0.757   0.983  1.00  0.00     0.440 C 
HETATM   28  O4  UNL     1      -2.074   1.920   0.534  1.00  0.00    -0.221 OA
BRANCH  27  29
HETATM   29  O5  UNL     1      -2.822   0.211   1.728  1.00  0.00    -0.290 OA
BRANCH  29  30
HETATM   30  C12 UNL     1      -4.062   0.685   2.056  1.00  0.00     0.220 C 
BRANCH  30  31
HETATM   31  C13 UNL     1      -4.968   1.059   0.899  1.00  0.00     0.087 A 
HETATM   32  C14 UNL     1      -4.971   2.574   0.632  1.00  0.00     0.048 A 
HETATM   33  C15 UNL     1      -6.187   1.886   1.196  1.00  0.00     0.026 A 
HETATM   34  C16 UNL     1      -7.266   1.736   0.174  1.00  0.00     0.012 C 
HETATM   35  C17 UNL     1      -8.288   0.695   0.400  1.00  0.00    -0.012 C 
HETATM   36  C18 UNL     1      -7.990  -0.331   1.437  1.00  0.00     0.011 C 
HETATM   37  C24 UNL     1      -8.521  -0.039  -0.910  1.00  0.00     0.026 C 
HETATM   38  C19 UNL     1      -7.658  -1.593   0.706  1.00  0.00     0.007 C 
HETATM   39  C20 UNL     1      -6.158  -1.809   0.892  1.00  0.00     0.038 C 
HETATM   40  C23 UNL     1      -7.786  -1.334  -0.772  1.00  0.00     0.024 C 
HETATM   41  C21 UNL     1      -5.473  -1.026  -0.135  1.00  0.00     0.124 C 
HETATM   42  C22 UNL     1      -6.395  -1.324  -1.358  1.00  0.00     0.053 C 
HETATM   43  O6  UNL     1      -5.275   0.259  -0.113  1.00  0.00    -0.372 OA
HETATM   44 BR1  UNL     1      -8.863  -2.704  -1.645  1.00  0.00    -0.085 Br
ENDBRANCH  30  31
ENDBRANCH  29  30
ENDBRANCH  27  29
ENDBRANCH   2  26
BRANCH   2  45
HETATM   45  C25 UNL     1       0.993  -0.645  -0.917  1.00  0.00     0.046 C 
HETATM   46  C26 UNL     1      -0.323  -0.880  -1.728  1.00  0.00     0.017 C 
HETATM   47  C27 UNL     1       1.800  -1.916  -1.236  1.00  0.00     0.017 C 
ENDBRANCH   2  45
TORSDOF 12
