REMARK  14 active torsions:
REMARK  status: ('A' for Active; 'I' for Inactive)
REMARK    1  A    between atoms: C2_2  and  C3_3 
REMARK    2  A    between atoms: C3_3  and  C4_4 
REMARK    3  A    between atoms: C6_6  and  O1_7 
REMARK    4  A    between atoms: C12_14  and  O2_15 
REMARK    5  A    between atoms: C15_19  and  O3_20 
REMARK    6  A    between atoms: C20_27  and  O5_28 
REMARK    7  A    between atoms: C24_34  and  C25_35 
REMARK    8  A    between atoms: C25_35  and  C26_36 
REMARK       I    between atoms: C26_36  and  N1_38 
REMARK    9  A    between atoms: N1_38  and  C27_40 
REMARK   10  A    between atoms: C27_40  and  C28_41 
REMARK   11  A    between atoms: C28_41  and  C29_43 
REMARK   12  A    between atoms: C29_43  and  N2_44 
REMARK   13  A    between atoms: C29_43  and  C30_48 
REMARK   14  A    between atoms: C30_48  and  C31_49 
ROOT
HETATM    1  C4  UNL     1      -1.523   0.639   0.421  1.00  0.00     0.010 C 
HETATM    2  C5  UNL     1      -1.950  -0.028  -0.772  1.00  0.00     0.030 C 
HETATM    3  C6  UNL     1      -2.322  -1.385  -1.059  1.00  0.00     0.054 C 
HETATM    4  C7  UNL     1      -2.715  -2.682  -0.594  1.00  0.00     0.073 C 
HETATM    5  C8  UNL     1      -4.124  -3.073  -1.139  1.00  0.00     0.010 C 
HETATM    6  C9  UNL     1      -4.080  -4.464  -1.760  1.00  0.00     0.014 C 
HETATM    7  C10 UNL     1      -5.131  -3.013  -0.052  1.00  0.00    -0.020 C 
HETATM    8  C11 UNL     1      -6.125  -2.237   0.201  1.00  0.00     0.028 C 
HETATM    9  C12 UNL     1      -6.772  -1.100  -0.346  1.00  0.00     0.043 C 
HETATM   10  C13 UNL     1      -6.359   0.363  -0.336  1.00  0.00     0.067 C 
HETATM   11  C14 UNL     1      -4.944   0.382  -0.665  1.00  0.00     0.053 C 
HETATM   12  C15 UNL     1      -4.085   1.503  -1.002  1.00  0.00     0.126 C 
HETATM   13  C16 UNL     1      -2.901   0.787  -1.639  1.00  0.00     0.193 C 
HETATM   14  O4  UNL     1      -2.784   0.907  -2.835  1.00  0.00    -0.289 OA
HETATM   15  C17 UNL     1      -3.407   2.367  -0.045  1.00  0.00     0.031 C 
HETATM   16  C18 UNL     1      -4.495   3.054   0.784  1.00  0.00     0.014 C 
HETATM   17  C19 UNL     1      -2.269   1.922   0.763  1.00  0.00     0.037 C 
HETATM   18  C20 UNL     1      -1.361   3.096   1.039  1.00  0.00     0.142 C 
HETATM   19  C21 UNL     1      -0.423   3.436  -0.046  1.00  0.00     0.115 C 
HETATM   20 CL1  UNL     1       0.940   4.352   0.620  1.00  0.00    -0.122 Cl
HETATM   21  C22 UNL     1       0.074   2.129  -0.747  1.00  0.00     0.011 C 
HETATM   22  C23 UNL     1       1.296   2.531  -1.441  1.00  0.00     0.012 C 
HETATM   23  C24 UNL     1      -0.007   1.095   0.261  1.00  0.00     0.033 C 
ENDROOT
BRANCH  23  24
HETATM   24  C25 UNL     1       0.799  -0.131   0.280  1.00  0.00     0.054 C 
BRANCH  24  25
HETATM   25  C26 UNL     1       2.256  -0.167   0.146  1.00  0.00     0.241 C 
HETATM   26  O6  UNL     1       3.090   0.734  -0.000  1.00  0.00    -0.269 OA
HETATM   27  N1  UNL     1       2.911  -1.479   0.185  1.00  0.00    -0.330 N 
ATOM     28  H1  UNL     1       2.314  -2.295   0.319  1.00  0.00     0.168 HD
BRANCH  27  29
HETATM   29  C27 UNL     1       4.289  -1.707   0.054  1.00  0.00     0.143 C 
BRANCH  29  30
HETATM   30  C28 UNL     1       5.199  -1.071   0.994  1.00  0.00     0.195 C 
HETATM   31  O7  UNL     1       4.886  -0.329   1.898  1.00  0.00    -0.289 OA
BRANCH  30  32
HETATM   32  C29 UNL     1       6.678  -1.340   0.848  1.00  0.00     0.258 C 
BRANCH  32  33
HETATM   33  N2  UNL     1       6.902  -2.618   0.211  1.00  0.00    -0.068 N 
ATOM     34  H23 UNL     1       6.426  -3.375   0.703  1.00  0.00     0.275 HD
ATOM     35  H22 UNL     1       6.415  -2.686  -0.682  1.00  0.00     0.275 HD
ATOM     36  H21 UNL     1       7.901  -2.800   0.112  1.00  0.00     0.275 HD
ENDBRANCH  32  33
BRANCH  32  37
HETATM   37  C30 UNL     1       7.169  -0.251  -0.100  1.00  0.00     0.045 C 
BRANCH  37  38
HETATM   38  C31 UNL     1       8.622  -0.307  -0.408  1.00  0.00    -0.020 C 
HETATM   39  C32 UNL     1       9.480  -0.163   0.802  1.00  0.00     0.009 C 
HETATM   40  C33 UNL     1       8.960  -1.517  -1.263  1.00  0.00     0.009 C 
ENDBRANCH  37  38
ENDBRANCH  32  37
ENDBRANCH  30  32
ENDBRANCH  29  30
ENDBRANCH  27  29
ENDBRANCH  24  25
ENDBRANCH  23  24
BRANCH   1  41
HETATM   41  C3  UNL     1      -1.450  -0.056   1.761  1.00  0.00     0.042 C 
BRANCH  41  42
HETATM   42  C2  UNL     1      -2.705  -0.488   2.415  1.00  0.00    -0.036 C 
HETATM   43  C1  UNL     1      -3.095  -0.106   3.620  1.00  0.00     0.007 C 
ENDBRANCH  41  42
ENDBRANCH   1  41
BRANCH   3  44
HETATM   44  O1  UNL     1      -2.308  -1.558  -2.353  1.00  0.00    -0.364 OA
ATOM     45  H1  UNL     1      -2.554  -2.456  -2.543  1.00  0.00     0.217 HD
ENDBRANCH   3  44
BRANCH  18  46
HETATM   46  O5  UNL     1      -2.159   4.256   1.223  1.00  0.00    -0.394 OA
ATOM     47  H5  UNL     1      -1.588   4.995   1.397  1.00  0.00     0.210 HD
ENDBRANCH  18  46
BRANCH  12  48
HETATM   48  O3  UNL     1      -4.643   2.336  -1.998  1.00  0.00    -0.381 OA
ATOM     49  H3  UNL     1      -4.081   3.069  -2.219  1.00  0.00     0.211 HD
ENDBRANCH  12  48
BRANCH   9  50
HETATM   50  O2  UNL     1      -7.901  -1.320  -0.955  1.00  0.00    -0.365 OA
ATOM     51  H2  UNL     1      -8.334  -0.558  -1.321  1.00  0.00     0.217 HD
ENDBRANCH   9  50
TORSDOF 14
