REMARK  5 active torsions:
REMARK  status: ('A' for Active; 'I' for Inactive)
REMARK    1  A    between atoms: C2_2  and  N1_3 
REMARK       I    between atoms: C3_5  and  N2_6 
REMARK       I    between atoms: C3_5  and  N7_22 
REMARK    2  A    between atoms: C5_11  and  N4_12 
REMARK    3  A    between atoms: N7_22  and  C10_24 
REMARK    4  A    between atoms: C10_24  and  C13_27 
REMARK    5  A    between atoms: C13_27  and  O2_28 
ROOT
HETATM    1  N1  UNL     1      -2.647  -1.080  -0.161  1.00  0.00    -0.227 N 
ATOM      2  H1  UNL     1      -3.549  -0.842   0.253  1.00  0.00     0.177 HD
HETATM    3  C3  UNL     1      -1.949  -0.180  -0.733  1.00  0.00     0.677 C 
HETATM    4  N2  UNL     1      -0.705  -0.515  -1.303  1.00  0.00    -0.153 N 
ATOM      5  H2  UNL     1      -0.642  -0.810  -2.277  1.00  0.00     0.188 HD
HETATM    6  C4  UNL     1       0.347  -0.442  -0.573  1.00  0.00     0.276 A 
HETATM    7  N3  UNL     1       1.635  -0.723  -0.935  1.00  0.00    -0.151 N 
ATOM      8  H3  UNL     1       1.935  -1.036  -1.858  1.00  0.00     0.188 HD
HETATM    9  C5  UNL     1       2.437  -0.523   0.113  1.00  0.00     0.704 A 
HETATM   10  N6  UNL     1       1.657  -0.123   1.115  1.00  0.00    -0.088 N 
ATOM     11  H6  UNL     1       1.968   0.112   2.057  1.00  0.00     0.214 HD
HETATM   12  O1  UNL     1       0.421  -0.083   0.683  1.00  0.00    -0.185 OA
HETATM   13  N7  UNL     1      -2.408   1.153  -0.804  1.00  0.00    -0.216 N 
ATOM     14  H7  UNL     1      -1.839   1.857  -1.274  1.00  0.00     0.178 HD
ENDROOT
BRANCH   1  15
HETATM   15  C2  UNL     1      -2.157  -2.439  -0.100  1.00  0.00     0.133 C 
HETATM   16  C1  UNL     1      -3.333  -3.365  -0.187  1.00  0.00     0.027 C 
ENDBRANCH   1  15
BRANCH  13  17
HETATM   17  C10 UNL     1      -3.675   1.532  -0.219  1.00  0.00     0.061 C 
HETATM   18  C11 UNL     1      -3.680   1.250   1.284  1.00  0.00     0.041 C 
HETATM   19  C12 UNL     1      -4.845   0.836  -0.899  1.00  0.00     0.041 C 
BRANCH  17  20
HETATM   20  C13 UNL     1      -3.880   3.018  -0.373  1.00  0.00     0.194 C 
BRANCH  20  21
HETATM   21  O2  UNL     1      -5.084   3.426   0.175  1.00  0.00    -0.398 OA
ATOM     22  H2  UNL     1      -5.213   4.362   0.078  1.00  0.00     0.209 HD
ENDBRANCH  20  21
ENDBRANCH  17  20
ENDBRANCH  13  17
BRANCH   9  23
HETATM   23  N4  UNL     1       3.832  -0.702   0.144  1.00  0.00    -0.210 N 
HETATM   24  C6  UNL     1       4.595  -1.145  -1.012  1.00  0.00     0.161 C 
HETATM   25  C7  UNL     1       5.871  -0.383  -1.181  1.00  0.00     0.139 C 
HETATM   26  N5  UNL     1       6.067   0.702  -0.292  1.00  0.00    -0.399 N 
HETATM   27  C8  UNL     1       5.634   0.579   1.031  1.00  0.00     0.075 C 
ATOM     28  H5  UNL     1       6.517   1.559  -0.612  1.00  0.00     0.158 HD
HETATM   29  C9  UNL     1       4.625  -0.459   1.336  1.00  0.00     0.185 C 
ENDBRANCH   9  23
TORSDOF 5
