REMARK  6 active torsions:
REMARK  status: ('A' for Active; 'I' for Inactive)
REMARK    1  A    between atoms: C2_2  and  C11_20 
REMARK    2  A    between atoms: N1_3  and  N2_5 
REMARK    3  A    between atoms: N2_5  and  C3_7 
REMARK    4  A    between atoms: C3_7  and  N3_9 
REMARK    5  A    between atoms: N3_9  and  C4_11 
REMARK    6  A    between atoms: C4_11  and  C6_13 
REMARK       I    between atoms: C6_13  and  N4_15 
ROOT
HETATM    1  N2  UNL     1      -2.028  -0.964  -0.766  1.00  0.00    -0.276 N 
ATOM      2  H2  UNL     1      -2.120  -1.958  -0.975  1.00  0.00     0.189 HD
ENDROOT
BRANCH   1   3
HETATM    3  N1  UNL     1      -3.104  -0.134  -1.030  1.00  0.00    -0.299 N 
HETATM    4  C2  UNL     1      -4.245  -0.347  -0.493  1.00  0.00     0.067 C 
HETATM    5  C1  UNL     1      -4.450  -1.491   0.431  1.00  0.00     0.074 C 
ATOM      6  H1  UNL     1      -2.985   0.658  -1.661  1.00  0.00     0.186 HD
BRANCH   4   7
HETATM    7  C11 UNL     1      -5.369   0.561  -0.799  1.00  0.00     0.144 A 
HETATM    8  N5  UNL     1      -6.618   0.480  -0.325  1.00  0.00    -0.335 N 
HETATM    9  C12 UNL     1      -7.375   1.486  -0.826  1.00  0.00     0.199 A 
ATOM     10  H5  UNL     1      -6.952  -0.236   0.320  1.00  0.00     0.168 HD
HETATM   11  N6  UNL     1      -6.556   2.195  -1.628  1.00  0.00    -0.295 N 
HETATM   12  N7  UNL     1      -5.340   1.633  -1.610  1.00  0.00    -0.283 N 
ATOM     13  H6  UNL     1      -6.819   3.024  -2.161  1.00  0.00     0.187 HD
ATOM     14  H7  UNL     1      -4.525   1.964  -2.127  1.00  0.00     0.188 HD
ENDBRANCH   4   7
ENDBRANCH   1   3
BRANCH   1  15
HETATM   15  C3  UNL     1      -0.802  -0.499  -0.218  1.00  0.00     0.187 C 
HETATM   16  S1  UNL     1      -0.698   1.101   0.105  1.00  0.00    -0.040 SA
BRANCH  15  17
HETATM   17  N3  UNL     1       0.253  -1.404   0.026  1.00  0.00    -0.353 N 
ATOM     18  H3  UNL     1       0.104  -2.387  -0.200  1.00  0.00     0.162 HD
BRANCH  17  19
HETATM   19  C4  UNL     1       1.533  -1.020   0.578  1.00  0.00     0.172 C 
HETATM   20  C5  UNL     1       1.391  -0.363   1.931  1.00  0.00     0.042 C 
BRANCH  19  21
HETATM   21  C6  UNL     1       2.284  -0.232  -0.405  1.00  0.00     0.242 C 
HETATM   22  O1  UNL     1       1.745   0.018  -1.532  1.00  0.00    -0.271 OA
HETATM   23  N4  UNL     1       3.602   0.293  -0.209  1.00  0.00    -0.350 N 
HETATM   24  C7  UNL     1       4.386   1.072  -1.141  1.00  0.00     0.126 C 
HETATM   25  C10 UNL     1       4.371   0.100   1.000  1.00  0.00     0.126 C 
HETATM   26  C8  UNL     1       5.364   1.802  -0.258  1.00  0.00     0.021 C 
HETATM   27  C9  UNL     1       5.742   0.692   0.710  1.00  0.00     0.021 C 
ENDBRANCH  19  21
ENDBRANCH  17  19
ENDBRANCH  15  17
ENDBRANCH   1  15
TORSDOF 6
