REMARK  10 active torsions:
REMARK  status: ('A' for Active; 'I' for Inactive)
REMARK    1  A    between atoms: O1_2  and  C2_3 
REMARK    2  A    between atoms: C2_3  and  C3_4 
REMARK    3  A    between atoms: C3_4  and  C4_5 
REMARK    4  A    between atoms: C4_5  and  N1_6 
REMARK    5  A    between atoms: C4_5  and  C22_33 
REMARK       I    between atoms: N1_6  and  C5_8 
REMARK    6  A    between atoms: C5_8  and  C6_10 
REMARK    7  A    between atoms: C8_12  and  C9_13 
REMARK    8  A    between atoms: C9_13  and  O3_14 
REMARK    9  A    between atoms: C9_13  and  N2_16 
REMARK   10  A    between atoms: C22_33  and  C23_35 
ROOT
HETATM    1  C6  UNL     1      -0.893  -1.061   1.052  1.00  0.00     0.044 C 
HETATM    2  C7  UNL     1      -0.053   0.154   0.800  1.00  0.00     0.037 C 
HETATM    3  C8  UNL     1       1.333   0.007   1.355  1.00  0.00     0.028 C 
HETATM    4  C15 UNL     1       2.012  -1.289   0.986  1.00  0.00     0.029 C 
HETATM    5  C16 UNL     1       1.015  -2.307   1.574  1.00  0.00    -0.020 C 
HETATM    6  C17 UNL     1       1.618  -3.648   1.762  1.00  0.00     0.017 C 
HETATM    7  C18 UNL     1      -0.133  -2.303   0.558  1.00  0.00     0.030 C 
HETATM    8  C19 UNL     1       0.511  -1.646   2.805  1.00  0.00     0.046 C 
HETATM    9 CL1  UNL     1       0.755  -2.589   4.275  1.00  0.00    -0.118 Cl
HETATM   10  C20 UNL     1      -0.971  -1.395   2.537  1.00  0.00     0.045 C 
HETATM   11  C21 UNL     1       1.150  -0.283   2.880  1.00  0.00     0.044 C 
ENDROOT
BRANCH   1  12
HETATM   12  C5  UNL     1      -2.245  -1.003   0.498  1.00  0.00     0.227 C 
HETATM   13  N1  UNL     1      -2.564  -0.843  -0.862  1.00  0.00    -0.349 N 
ATOM     14  H1  UNL     1      -1.800  -0.751  -1.532  1.00  0.00     0.163 HD
HETATM   15  O2  UNL     1      -3.239  -1.107   1.297  1.00  0.00    -0.273 OA
BRANCH  13  16
HETATM   16  C4  UNL     1      -3.925  -0.802  -1.359  1.00  0.00     0.165 C 
BRANCH  16  17
HETATM   17  C3  UNL     1      -4.309   0.509  -1.980  1.00  0.00     0.059 C 
BRANCH  17  18
HETATM   18  C2  UNL     1      -4.199   1.668  -1.026  1.00  0.00     0.169 C 
BRANCH  18  19
HETATM   19  O1  UNL     1      -2.941   1.876  -0.530  1.00  0.00    -0.396 OA
HETATM   20  C1  UNL     1      -2.849   2.933   0.338  1.00  0.00     0.201 C 
ENDBRANCH  18  19
ENDBRANCH  17  18
ENDBRANCH  16  17
BRANCH  16  21
HETATM   21  C22 UNL     1      -4.167  -1.971  -2.245  1.00  0.00     0.255 C 
HETATM   22  O5  UNL     1      -3.225  -2.761  -2.398  1.00  0.00    -0.286 OA
BRANCH  21  23
HETATM   23  C23 UNL     1      -5.465  -2.194  -2.920  1.00  0.00     0.453 C 
HETATM   24  F1  UNL     1      -5.453  -3.444  -3.528  1.00  0.00    -0.163 F 
HETATM   25  F2  UNL     1      -6.476  -2.062  -2.003  1.00  0.00    -0.163 F 
HETATM   26  F3  UNL     1      -5.673  -1.245  -3.930  1.00  0.00    -0.163 F 
ENDBRANCH  21  23
ENDBRANCH  16  21
ENDBRANCH  13  16
ENDBRANCH   1  12
BRANCH   3  27
HETATM   27  C9  UNL     1       2.163   1.198   1.201  1.00  0.00     0.122 C 
BRANCH  27  28
HETATM   28  O3  UNL     1       2.345   1.868   2.311  1.00  0.00    -0.349 OA
ATOM     29  H3  UNL     1       2.885   2.643   2.211  1.00  0.00     0.219 HD
ENDBRANCH  27  28
BRANCH  27  30
HETATM   30  N2  UNL     1       2.787   1.750   0.101  1.00  0.00    -0.356 N 
HETATM   31  C10 UNL     1       2.740   1.130  -1.185  1.00  0.00     0.127 C 
HETATM   32  C11 UNL     1       4.101   0.482  -1.449  1.00  0.00     0.039 C 
HETATM   33  C12 UNL     1       4.961   1.498  -2.147  1.00  0.00     0.124 C 
HETATM   34  N3  UNL     1       5.486   2.480  -1.215  1.00  0.00    -0.360 N 
HETATM   35  C13 UNL     1       4.912   2.956   0.005  1.00  0.00     0.235 C 
ATOM     36  H3  UNL     1       6.388   2.886  -1.465  1.00  0.00     0.162 HD
HETATM   37  O4  UNL     1       5.716   3.346   0.882  1.00  0.00    -0.272 OA
HETATM   38  C14 UNL     1       3.488   3.036   0.337  1.00  0.00     0.227 C 
ENDBRANCH  27  30
ENDBRANCH   3  27
TORSDOF 10
