REMARK  7 active torsions:
REMARK  status: ('A' for Active; 'I' for Inactive)
REMARK    1  A    between atoms: N1_2  and  C2_3 
REMARK    2  A    between atoms: N1_2  and  S1_19 
REMARK    3  A    between atoms: C2_3  and  C3_4 
REMARK    4  A    between atoms: C3_4  and  C4_5 
REMARK    5  A    between atoms: C4_5  and  N2_6 
REMARK       I    between atoms: N2_6  and  C5_8 
REMARK    6  A    between atoms: C5_8  and  C6_10 
REMARK    7  A    between atoms: S1_19  and  C10_22 
ROOT
HETATM    1  C3  UNL     1      -0.345  -1.707  -0.905  1.00  0.00     0.040 C 
ENDROOT
BRANCH   1   2
HETATM    2  C2  UNL     1      -1.016  -0.408  -0.534  1.00  0.00     0.136 C 
BRANCH   2   3
HETATM    3  N1  UNL     1      -1.746  -0.452   0.684  1.00  0.00    -0.310 N 
HETATM    4  C1  UNL     1      -1.427   0.551   1.632  1.00  0.00     0.163 C 
BRANCH   3   5
HETATM    5  S1  UNL     1      -3.368  -0.896   0.596  1.00  0.00     0.278 S 
HETATM    6  O2  UNL     1      -3.564  -2.104  -0.251  1.00  0.00    -0.199 OA
HETATM    7  O3  UNL     1      -3.786  -1.313   2.006  1.00  0.00    -0.199 OA
BRANCH   5   8
HETATM    8  C10 UNL     1      -4.442   0.392   0.136  1.00  0.00     0.181 A 
HETATM    9  C11 UNL     1      -4.103   1.696  -0.153  1.00  0.00     0.153 A 
HETATM   10  N4  UNL     1      -5.219   2.389  -0.467  1.00  0.00    -0.295 N 
HETATM   11  N5  UNL     1      -6.206   1.524  -0.369  1.00  0.00    -0.242 N 
ATOM     12  H4  UNL     1      -5.283   3.374  -0.725  1.00  0.00     0.187 HD
HETATM   13  N6  UNL     1      -5.777   0.331  -0.013  1.00  0.00    -0.273 N 
ATOM     14  H5  UNL     1      -7.185   1.750  -0.547  1.00  0.00     0.208 HD
ATOM     15  H6  UNL     1      -6.357  -0.496   0.126  1.00  0.00     0.189 HD
ENDBRANCH   5   8
ENDBRANCH   3   5
ENDBRANCH   2   3
ENDBRANCH   1   2
BRANCH   1  16
HETATM   16  C4  UNL     1       0.639  -2.182   0.099  1.00  0.00     0.124 C 
BRANCH  16  17
HETATM   17  N2  UNL     1       1.738  -1.309   0.382  1.00  0.00    -0.356 N 
HETATM   18  C5  UNL     1       2.678  -0.913  -0.589  1.00  0.00     0.270 C 
HETATM   19  O1  UNL     1       2.525  -1.373  -1.782  1.00  0.00    -0.266 OA
ATOM     20  H2  UNL     1       1.845  -0.957   1.333  1.00  0.00     0.162 HD
BRANCH  18  21
HETATM   21  C6  UNL     1       3.812  -0.035  -0.397  1.00  0.00     0.125 A 
HETATM   22  N3  UNL     1       4.696   0.312  -1.376  1.00  0.00    -0.343 N 
HETATM   23  C7  UNL     1       5.635   1.128  -0.918  1.00  0.00     0.099 A 
ATOM     24  H3  UNL     1       4.641  -0.016  -2.340  1.00  0.00     0.167 HD
HETATM   25 BR1  UNL     1       7.104   1.901  -1.889  1.00  0.00    -0.030 Br
HETATM   26  C8  UNL     1       5.410   1.362   0.412  1.00  0.00     0.069 A 
HETATM   27 BR2  UNL     1       6.395   2.439   1.628  1.00  0.00    -0.046 Br
HETATM   28  C9  UNL     1       4.269   0.626   0.711  1.00  0.00     0.086 A 
HETATM   29 CL1  UNL     1       3.555   0.586   2.303  1.00  0.00    -0.080 Cl
ENDBRANCH  18  21
ENDBRANCH  16  17
ENDBRANCH   1  16
TORSDOF 7
