REMARK  8 active torsions:
REMARK  status: ('A' for Active; 'I' for Inactive)
REMARK    1  A    between atoms: C1_2  and  C2_4 
REMARK    2  A    between atoms: C2_4  and  C3_5 
REMARK    3  A    between atoms: C3_5  and  C4_6 
REMARK    4  A    between atoms: C4_6  and  N1_7 
REMARK    5  A    between atoms: C4_6  and  C20_32 
REMARK       I    between atoms: N1_7  and  C5_9 
REMARK    6  A    between atoms: C5_9  and  C6_11 
REMARK       I    between atoms: N2_15  and  C10_16 
REMARK    7  A    between atoms: C10_16  and  C11_18 
REMARK       I    between atoms: N3_24  and  C17_25 
REMARK    8  A    between atoms: C17_25  and  C18_27 
ROOT
HETATM    1  C6  UNL     1      -1.167  -1.447   0.060  1.00  0.00     0.096 C 
HETATM    2  C7  UNL     1      -0.893  -2.326   1.241  1.00  0.00     0.017 C 
HETATM    3  C8  UNL     1       0.494  -2.158   1.763  1.00  0.00     0.021 C 
HETATM    4  C9  UNL     1       1.351  -1.233   0.924  1.00  0.00     0.126 C 
HETATM    5  N2  UNL     1       0.669  -0.033   0.551  1.00  0.00    -0.351 N 
HETATM    6  C10 UNL     1       1.395   1.142   0.273  1.00  0.00     0.224 C 
HETATM    7  O4  UNL     1       0.758   2.201  -0.050  1.00  0.00    -0.273 OA
HETATM    8  C19 UNL     1      -0.767  -0.022   0.460  1.00  0.00     0.139 C 
ENDROOT
BRANCH   6   9
HETATM    9  C11 UNL     1       2.882   1.215   0.336  1.00  0.00     0.080 C 
HETATM   10  C12 UNL     1       3.320   2.645   0.087  1.00  0.00     0.016 C 
HETATM   11  C13 UNL     1       4.837   2.737   0.076  1.00  0.00     0.028 C 
HETATM   12  C14 UNL     1       5.313   1.974  -1.114  1.00  0.00     0.111 A 
HETATM   13  C15 UNL     1       4.548   0.861  -1.523  1.00  0.00     0.111 A 
HETATM   14  N3  UNL     1       5.940   0.704  -0.974  1.00  0.00    -0.334 N 
HETATM   15  C16 UNL     1       3.505   0.266  -0.657  1.00  0.00     0.041 C 
HETATM   16  C17 UNL     1       7.006  -0.146  -0.629  1.00  0.00     0.292 C 
HETATM   17  O5  UNL     1       6.870  -1.407  -0.778  1.00  0.00    -0.267 OA
BRANCH  16  18
HETATM   18  C18 UNL     1       8.256   0.394  -0.107  1.00  0.00     0.336 C 
HETATM   19  F1  UNL     1       8.835   1.315  -0.990  1.00  0.00    -0.196 F 
HETATM   20 CL1  UNL     1       8.074   1.203   1.459  1.00  0.00    -0.056 Cl
HETATM   21 CL2  UNL     1       9.464  -0.898   0.114  1.00  0.00    -0.056 Cl
ENDBRANCH  16  18
ENDBRANCH   6   9
BRANCH   1  22
HETATM   22  C5  UNL     1      -2.540  -1.530  -0.419  1.00  0.00     0.224 C 
HETATM   23  N1  UNL     1      -3.617  -1.198   0.437  1.00  0.00    -0.346 N 
ATOM     24  H1  UNL     1      -3.420  -0.902   1.393  1.00  0.00     0.163 HD
HETATM   25  O3  UNL     1      -2.778  -1.895  -1.593  1.00  0.00    -0.273 OA
BRANCH  23  26
HETATM   26  C4  UNL     1      -5.010  -1.270  -0.018  1.00  0.00     0.186 C 
BRANCH  26  27
HETATM   27  C3  UNL     1      -5.524   0.143   0.055  1.00  0.00     0.046 C 
BRANCH  27  28
HETATM   28  C2  UNL     1      -6.940   0.302  -0.373  1.00  0.00     0.116 C 
BRANCH  28  29
HETATM   29  C1  UNL     1      -7.374   1.744  -0.294  1.00  0.00     0.172 C 
HETATM   30  O1  UNL     1      -6.534   2.579   0.101  1.00  0.00    -0.648 OA
HETATM   31  O2  UNL     1      -8.672   2.071  -0.662  1.00  0.00    -0.648 OA
ENDBRANCH  28  29
ENDBRANCH  27  28
ENDBRANCH  26  27
BRANCH  26  32
HETATM   32  C20 UNL     1      -5.779  -2.213   0.795  1.00  0.00     0.196 C 
HETATM   33  O6  UNL     1      -5.192  -2.790   1.766  1.00  0.00    -0.646 OA
HETATM   34  O7  UNL     1      -7.090  -2.536   0.602  1.00  0.00    -0.646 OA
ENDBRANCH  26  32
ENDBRANCH  23  26
ENDBRANCH   1  22
TORSDOF 8
