REMARK  7 active torsions:
REMARK  status: ('A' for Active; 'I' for Inactive)
REMARK    1  A    between atoms: C3_3  and  C4_4 
REMARK    2  A    between atoms: C4_4  and  C5_5 
REMARK    3  A    between atoms: C5_5  and  C6_6 
REMARK       I    between atoms: C6_6  and  N1_8 
REMARK    4  A    between atoms: N1_8  and  C7_10 
REMARK    5  A    between atoms: C7_10  and  C9_12 
REMARK       I    between atoms: C9_12  and  N2_14 
REMARK    6  A    between atoms: N2_14  and  C10_16 
REMARK    7  A    between atoms: C10_16  and  C11_17 
REMARK       I    between atoms: C11_17  and  N3_19 
ROOT
HETATM    1  C1  UNL     1       9.631   0.016  -1.261  1.00  0.00     0.019 C 
HETATM    2  C2  UNL     1       8.746   0.337  -0.522  1.00  0.00    -0.066 C 
HETATM    3  C3  UNL     1       7.625   0.725   0.379  1.00  0.00     0.108 C 
HETATM    4  C21 UNL     1       7.869   1.815   1.058  1.00  0.00     0.189 C 
HETATM    5  F1  UNL     1       9.102   2.404   0.817  1.00  0.00    -0.196 F 
HETATM    6 BR1  UNL     1       6.766   2.617   2.326  1.00  0.00    -0.015 Br
ENDROOT
BRANCH   3   7
HETATM    7  C4  UNL     1       6.437  -0.088   0.348  1.00  0.00    -0.098 C 
BRANCH   7   8
HETATM    8  C5  UNL     1       5.470  -0.750   0.323  1.00  0.00     0.131 C 
BRANCH   8   9
HETATM    9  C6  UNL     1       4.166  -0.525   1.058  1.00  0.00     0.249 C 
HETATM   10  O1  UNL     1       4.053   0.414   1.853  1.00  0.00    -0.268 OA
HETATM   11  N1  UNL     1       3.070  -1.374   0.860  1.00  0.00    -0.344 N 
ATOM     12  H1  UNL     1       3.230  -2.090   0.151  1.00  0.00     0.163 HD
BRANCH  11  13
HETATM   13  C7  UNL     1       1.788  -1.436   1.447  1.00  0.00     0.172 C 
HETATM   14  C8  UNL     1       1.659  -0.228   2.440  1.00  0.00     0.042 C 
BRANCH  13  15
HETATM   15  C9  UNL     1       0.626  -1.270   0.549  1.00  0.00     0.241 C 
HETATM   16  O2  UNL     1       0.856  -0.910  -0.626  1.00  0.00    -0.271 OA
HETATM   17  N2  UNL     1      -0.637  -1.508   1.055  1.00  0.00    -0.341 N 
ATOM     18  H2  UNL     1      -0.678  -1.841   2.018  1.00  0.00     0.163 HD
BRANCH  17  19
HETATM   19  C10 UNL     1      -1.932  -1.339   0.373  1.00  0.00     0.116 C 
HETATM   20  C18 UNL     1      -2.900  -2.332   0.844  1.00  0.00     0.057 C 
HETATM   21  C19 UNL     1      -2.248  -3.344  -0.131  1.00  0.00     0.064 C 
HETATM   22  S2  UNL     1      -0.910  -4.270   0.586  1.00  0.00    -0.092 SA
HETATM   23  C20 UNL     1      -1.924  -2.123  -0.960  1.00  0.00     0.057 C 
BRANCH  19  24
HETATM   24  C11 UNL     1      -2.232   0.043   0.113  1.00  0.00     0.250 C 
HETATM   25  O3  UNL     1      -1.221   0.841   0.064  1.00  0.00    -0.270 OA
HETATM   26  N3  UNL     1      -3.488   0.725  -0.101  1.00  0.00    -0.322 N 
HETATM   27  C12 UNL     1      -4.759   0.061  -0.093  1.00  0.00     0.202 C 
HETATM   28  C16 UNL     1      -3.561   2.170  -0.285  1.00  0.00     0.213 C 
HETATM   29  S1  UNL     1      -5.936   1.354  -0.617  1.00  0.00    -0.137 SA
HETATM   30  C13 UNL     1      -4.663   2.535  -1.212  1.00  0.00     0.036 C 
HETATM   31  C14 UNL     1      -5.187   3.920  -0.991  1.00  0.00     0.030 C 
HETATM   32  C15 UNL     1      -4.387   2.307  -2.670  1.00  0.00     0.030 C 
HETATM   33  C17 UNL     1      -3.766   2.803   1.034  1.00  0.00     0.086 C 
HETATM   34  N4  UNL     1      -3.919   3.283   2.081  1.00  0.00    -0.195 NA
ENDBRANCH  19  24
ENDBRANCH  17  19
ENDBRANCH  13  15
ENDBRANCH  11  13
ENDBRANCH   8   9
ENDBRANCH   7   8
ENDBRANCH   3   7
TORSDOF 7
