REMARK  6 active torsions:
REMARK  status: ('A' for Active; 'I' for Inactive)
REMARK    1  A    between atoms: C6_7  and  C7_8 
REMARK    2  A    between atoms: C9_12  and  N1_13 
REMARK       I    between atoms: N1_13  and  C10_15 
REMARK    3  A    between atoms: C10_15  and  C11_17 
REMARK    4  A    between atoms: C15_21  and  C16_22 
REMARK    5  A    between atoms: C16_22  and  O4_23 
REMARK       I    between atoms: N2_25  and  C17_26 
REMARK    6  A    between atoms: C17_26  and  C18_28 
ROOT
HETATM    1  C11 UNL     1       0.091  -1.159  -0.726  1.00  0.00     0.183 C 
HETATM    2  C12 UNL     1       0.098  -2.652  -0.869  1.00  0.00     0.016 C 
HETATM    3  C13 UNL     1      -1.087  -3.249  -1.544  1.00  0.00     0.012 C 
HETATM    4  C14 UNL     1       0.194  -3.043   0.597  1.00  0.00     0.034 C 
HETATM    5  C15 UNL     1       1.331  -2.087   1.029  1.00  0.00     0.112 C 
HETATM    6  N2  UNL     1       1.196  -0.937   0.202  1.00  0.00    -0.331 N 
HETATM    7  C17 UNL     1       1.927   0.268   0.201  1.00  0.00     0.226 C 
HETATM    8  O5  UNL     1       1.665   1.199  -0.635  1.00  0.00    -0.273 OA
ENDROOT
BRANCH   1   9
HETATM    9  C10 UNL     1      -1.170  -0.650  -0.103  1.00  0.00     0.243 C 
HETATM   10  N1  UNL     1      -2.358  -0.566  -0.833  1.00  0.00    -0.323 N 
ATOM     11  H1  UNL     1      -2.321  -0.868  -1.806  1.00  0.00     0.165 HD
HETATM   12  O3  UNL     1      -1.132  -0.297   1.096  1.00  0.00    -0.271 OA
BRANCH  10  13
HETATM   13  C9  UNL     1      -3.621  -0.099  -0.353  1.00  0.00     0.247 C 
HETATM   14  C4  UNL     1      -4.642  -0.203  -1.472  1.00  0.00     0.182 C 
HETATM   15  O1  UNL     1      -4.272   0.558  -2.566  1.00  0.00    -0.379 OA
HETATM   16  C5  UNL     1      -6.012   0.096  -0.955  1.00  0.00     0.071 C 
HETATM   17  C3  UNL     1      -4.279   1.885  -2.217  1.00  0.00     0.201 C 
HETATM   18  C2  UNL     1      -3.407   2.203  -1.019  1.00  0.00     0.208 C 
HETATM   19  C1  UNL     1      -3.876   3.574  -0.514  1.00  0.00     0.042 C 
HETATM   20  N3  UNL     1      -3.588   1.278   0.056  1.00  0.00    -0.038 N 
ATOM     21  H32 UNL     1      -2.877   1.421   0.774  1.00  0.00     0.281 HD
ATOM     22  H31 UNL     1      -4.424   1.512   0.592  1.00  0.00     0.281 HD
HETATM   23  C6  UNL     1      -6.300  -0.928   0.149  1.00  0.00     0.152 C 
HETATM   24  O2  UNL     1      -5.405  -0.636   1.173  1.00  0.00    -0.379 OA
HETATM   25  C8  UNL     1      -4.129  -0.958   0.784  1.00  0.00     0.232 C 
BRANCH  23  26
HETATM   26  C7  UNL     1      -7.739  -0.755   0.566  1.00  0.00     0.254 C 
HETATM   27  F1  UNL     1      -8.507  -0.990  -0.580  1.00  0.00    -0.253 F 
ENDBRANCH  23  26
ENDBRANCH  10  13
ENDBRANCH   1   9
BRANCH   5  28
HETATM   28  C16 UNL     1       2.585  -2.881   0.869  1.00  0.00     0.189 C 
BRANCH  28  29
HETATM   29  O4  UNL     1       2.559  -3.971   1.764  1.00  0.00    -0.399 OA
ATOM     30  H4  UNL     1       3.357  -4.476   1.662  1.00  0.00     0.209 HD
ENDBRANCH  28  29
ENDBRANCH   5  28
BRANCH   7  31
HETATM   31  C18 UNL     1       3.021   0.554   1.134  1.00  0.00     0.089 C 
HETATM   32  C19 UNL     1       2.653   1.881   1.812  1.00  0.00     0.052 C 
HETATM   33  C20 UNL     1       3.251   2.931   0.943  1.00  0.00     0.175 C 
HETATM   34  F2  UNL     1       3.568   4.064   1.695  1.00  0.00    -0.249 F 
HETATM   35  C21 UNL     1       4.493   2.298   0.401  1.00  0.00     0.025 C 
HETATM   36  C22 UNL     1       5.648   2.862   1.212  1.00  0.00     0.014 C 
HETATM   37  C23 UNL     1       4.342   0.840   0.516  1.00  0.00    -0.022 C 
HETATM   38  C24 UNL     1       5.486   0.163   1.237  1.00  0.00     0.011 C 
HETATM   39  C27 UNL     1       4.452   0.225  -0.880  1.00  0.00     0.011 C 
HETATM   40  C25 UNL     1       6.496  -0.220   0.194  1.00  0.00     0.001 C 
HETATM   41  C26 UNL     1       5.969   0.328  -1.119  1.00  0.00     0.001 C 
ENDBRANCH   7  31
TORSDOF 6
