REMARK  10 active torsions:
REMARK  status: ('A' for Active; 'I' for Inactive)
REMARK    1  A    between atoms: C2_2  and  C3_5 
REMARK    2  A    between atoms: C17_19  and  C18_20 
REMARK    3  A    between atoms: C18_20  and  O1_21 
REMARK    4  A    between atoms: N1_23  and  C19_24 
REMARK    5  A    between atoms: N1_23  and  C21_28 
REMARK    6  A    between atoms: C19_24  and  C20_25 
REMARK    7  A    between atoms: C20_25  and  O2_26 
REMARK    8  A    between atoms: C21_28  and  C22_29 
REMARK       I    between atoms: C22_29  and  N2_31 
REMARK    9  A    between atoms: N2_31  and  C23_33 
REMARK   10  A    between atoms: C26_38  and  O6_39 
ROOT
HETATM    1  C18 UNL     1      -0.666  -0.529   1.311  1.00  0.00     0.125 C 
HETATM    2  N1  UNL     1       0.593  -0.434   1.809  1.00  0.00    -0.354 N 
ENDROOT
BRANCH   1   3
HETATM    3  C17 UNL     1      -1.263  -1.008  -0.006  1.00  0.00     0.049 C 
HETATM    4  C3  UNL     1      -0.819  -2.319  -0.436  1.00  0.00     0.042 C 
HETATM    5  C4  UNL     1      -1.907  -3.389  -0.202  1.00  0.00     0.009 C 
HETATM    6  C5  UNL     1      -3.159  -2.539  -0.265  1.00  0.00     0.006 C 
HETATM    7  C6  UNL     1      -2.735  -1.253   0.386  1.00  0.00     0.004 C 
HETATM    8  C7  UNL     1      -3.673  -0.147   0.298  1.00  0.00     0.010 C 
HETATM    9  C8  UNL     1      -3.666   0.726  -0.944  1.00  0.00    -0.013 C 
HETATM   10  C9  UNL     1      -3.960   2.119  -0.628  1.00  0.00     0.005 C 
HETATM   11  C16 UNL     1      -2.498   0.345  -1.787  1.00  0.00     0.023 C 
HETATM   12  C10 UNL     1      -3.194   3.284  -1.031  1.00  0.00     0.001 C 
HETATM   13  C11 UNL     1      -2.829   4.255   0.126  1.00  0.00     0.012 C 
HETATM   14  C12 UNL     1      -1.612   3.642   0.903  1.00  0.00     0.094 C 
HETATM   15  C13 UNL     1      -1.368   2.353   0.327  1.00  0.00    -0.106 C 
HETATM   16  C14 UNL     1      -1.262   1.396  -0.168  1.00  0.00    -0.101 C 
HETATM   17  C15 UNL     1      -1.227   0.158  -0.914  1.00  0.00     0.082 C 
BRANCH   4  18
HETATM   18  C2  UNL     1      -0.162  -2.714  -1.659  1.00  0.00     0.114 C 
HETATM   19  C1  UNL     1       0.492  -4.100  -1.386  1.00  0.00     0.051 C 
HETATM   20 CL1  UNL     1      -1.329  -3.222  -2.971  1.00  0.00    -0.102 Cl
HETATM   21 CL2  UNL     1       1.034  -1.781  -2.466  1.00  0.00    -0.102 Cl
ENDBRANCH   4  18
ENDBRANCH   1   3
BRANCH   1  22
HETATM   22  O1  UNL     1      -1.553  -0.101   2.192  1.00  0.00    -0.349 OA
ATOM     23  H1  UNL     1      -1.181   0.198   3.013  1.00  0.00     0.219 HD
ENDBRANCH   1  22
BRANCH   2  24
HETATM   24  C19 UNL     1       0.750   0.072   3.205  1.00  0.00     0.151 C 
BRANCH  24  25
HETATM   25  C20 UNL     1       0.743  -1.054   4.192  1.00  0.00     0.183 C 
BRANCH  25  26
HETATM   26  O2  UNL     1      -0.411  -1.801   4.182  1.00  0.00    -0.399 OA
ATOM     27  H2  UNL     1      -0.415  -2.515   4.808  1.00  0.00     0.209 HD
ENDBRANCH  25  26
ENDBRANCH  24  25
ENDBRANCH   2  24
BRANCH   2  28
HETATM   28  C21 UNL     1       1.820  -0.728   1.177  1.00  0.00     0.227 C 
BRANCH  28  29
HETATM   29  C22 UNL     1       2.555   0.355   0.527  1.00  0.00     0.236 C 
HETATM   30  O3  UNL     1       2.155   1.524   0.538  1.00  0.00    -0.272 OA
HETATM   31  N2  UNL     1       3.770   0.088  -0.146  1.00  0.00    -0.350 N 
ATOM     32  H2  UNL     1       4.107  -0.874  -0.160  1.00  0.00     0.163 HD
BRANCH  31  33
HETATM   33  C23 UNL     1       4.561   1.092  -0.813  1.00  0.00     0.149 C 
HETATM   34  C24 UNL     1       4.800   0.812  -2.263  1.00  0.00     0.141 C 
HETATM   35  C25 UNL     1       6.284   0.742  -2.371  1.00  0.00     0.263 C 
HETATM   36  O4  UNL     1       6.974   0.875  -3.440  1.00  0.00    -0.265 OA
HETATM   37  O5  UNL     1       6.768   0.507  -1.091  1.00  0.00    -0.288 OA
HETATM   38  C26 UNL     1       5.929   1.256  -0.200  1.00  0.00     0.289 C 
BRANCH  38  39
HETATM   39  O6  UNL     1       6.387   2.572  -0.254  1.00  0.00    -0.369 OA
ATOM     40  H6  UNL     1       7.249   2.675   0.132  1.00  0.00     0.212 HD
ENDBRANCH  38  39
ENDBRANCH  31  33
ENDBRANCH  28  29
ENDBRANCH   2  28
TORSDOF 10
