REMARK  9 active torsions:
REMARK  status: ('A' for Active; 'I' for Inactive)
REMARK    1  A    between atoms: N1_2  and  C2_3 
REMARK    2  A    between atoms: N1_2  and  C4_8 
REMARK    3  A    between atoms: C2_3  and  O1_4 
REMARK    4  A    between atoms: C8_15  and  C9_16 
REMARK       I    between atoms: C9_16  and  N3_18 
REMARK    5  A    between atoms: N3_18  and  C10_20 
REMARK    6  A    between atoms: C10_20  and  C11_21 
REMARK    7  A    between atoms: C11_21  and  C12_22 
REMARK    8  A    between atoms: C17_31  and  C18_32 
REMARK    9  A    between atoms: C18_32  and  C19_33 
ROOT
HETATM    1  C9  UNL     1      -2.524   0.620  -0.577  1.00  0.00     0.225 C 
HETATM    2  O2  UNL     1      -2.089   1.248  -1.563  1.00  0.00    -0.273 OA
HETATM    3  N3  UNL     1      -1.781   0.581   0.618  1.00  0.00    -0.361 N 
ATOM      4  H3  UNL     1      -2.169   0.072   1.412  1.00  0.00     0.162 HD
ENDROOT
BRANCH   3   5
HETATM    5  C10 UNL     1      -0.507   1.219   0.778  1.00  0.00     0.125 C 
BRANCH   5   6
HETATM    6  C11 UNL     1       0.503   0.604  -0.151  1.00  0.00     0.052 C 
BRANCH   6   7
HETATM    7  C12 UNL     1       1.890   1.237  -0.044  1.00  0.00     0.132 C 
HETATM    8  C13 UNL     1       2.472   1.116   1.314  1.00  0.00     0.108 C 
HETATM    9  C14 UNL     1       2.897  -0.307   1.575  1.00  0.00     0.088 A 
HETATM   10  N4  UNL     1       2.803  -1.150   2.604  1.00  0.00    -0.339 N 
HETATM   11  N5  UNL     1       3.496  -0.871   0.503  1.00  0.00    -0.317 N 
HETATM   12  C15 UNL     1       3.353  -2.326   2.225  1.00  0.00     0.096 A 
ATOM     13  H4  UNL     1       2.390  -0.945   3.514  1.00  0.00     0.168 HD
HETATM   14 BR1  UNL     1       3.522  -3.928   3.254  1.00  0.00    -0.030 Br
HETATM   15  C16 UNL     1       3.769  -2.139   0.944  1.00  0.00     0.132 A 
HETATM   16  C17 UNL     1       3.685  -0.146  -0.700  1.00  0.00     0.229 C 
HETATM   17  O3  UNL     1       2.630   0.685  -1.058  1.00  0.00    -0.360 OA
BRANCH  16  18
HETATM   18  C18 UNL     1       4.925   0.623  -0.897  1.00  0.00     0.062 C 
BRANCH  18  19
HETATM   19  C19 UNL     1       6.239  -0.034  -0.880  1.00  0.00    -0.047 C 
HETATM   20  C20 UNL     1       6.433  -1.128  -1.900  1.00  0.00     0.014 C 
HETATM   21  C21 UNL     1       7.286   1.043  -1.323  1.00  0.00     0.014 C 
HETATM   22  C22 UNL     1       6.704  -0.477   0.471  1.00  0.00     0.014 C 
ENDBRANCH  18  19
ENDBRANCH  16  18
ENDBRANCH   6   7
ENDBRANCH   5   6
ENDBRANCH   3   5
BRANCH   1  23
HETATM   23  C8  UNL     1      -3.842  -0.079  -0.710  1.00  0.00     0.126 C 
HETATM   24  C4  UNL     1      -4.697   0.214   0.469  1.00  0.00     0.102 C 
HETATM   25  C5  UNL     1      -4.907  -0.905   1.436  1.00  0.00     0.054 C 
HETATM   26  C6  UNL     1      -4.366  -2.231   1.054  1.00  0.00     0.234 C 
HETATM   27  N2  UNL     1      -3.165  -2.154   0.241  1.00  0.00    -0.074 N 
HETATM   28  C7  UNL     1      -3.574  -1.519  -1.000  1.00  0.00     0.248 C 
ATOM     29  H22 UNL     1      -2.386  -1.685   0.704  1.00  0.00     0.277 HD
ATOM     30  H21 UNL     1      -2.702  -3.053   0.108  1.00  0.00     0.277 HD
BRANCH  24  31
HETATM   31  N1  UNL     1      -6.009   0.801   0.058  1.00  0.00    -0.360 N 
HETATM   32  C1  UNL     1      -6.894  -0.009  -0.751  1.00  0.00     0.152 C 
BRANCH  31  33
HETATM   33  C2  UNL     1      -6.359   2.099   0.441  1.00  0.00     0.149 C 
HETATM   34  C3  UNL     1      -7.537   2.877   0.135  1.00  0.00     0.140 C 
HETATM   35 CL1  UNL     1      -8.701   2.208  -0.990  1.00  0.00    -0.092 Cl
BRANCH  33  36
HETATM   36  O1  UNL     1      -5.480   2.698   1.192  1.00  0.00    -0.346 OA
ATOM     37  H1  UNL     1      -5.718   3.580   1.452  1.00  0.00     0.219 HD
ENDBRANCH  33  36
ENDBRANCH  31  33
ENDBRANCH  24  31
ENDBRANCH   1  23
TORSDOF 9
