REMARK  7 active torsions:
REMARK  status: ('A' for Active; 'I' for Inactive)
REMARK    1  A    between atoms: O1_2  and  C2_3 
REMARK    2  A    between atoms: C13_14  and  C14_15 
REMARK    3  A    between atoms: C16_18  and  C17_19 
REMARK    4  A    between atoms: C16_18  and  C19_26 
REMARK    5  A    between atoms: C17_19  and  N1_20 
REMARK    6  A    between atoms: N1_20  and  S1_22 
REMARK    7  A    between atoms: C22_31  and  O5_32 
ROOT
HETATM    1  C2  UNL     1      -1.360   0.318  -1.280  1.00  0.00     0.076 C 
HETATM    2  C3  UNL     1      -0.844   1.356  -2.281  1.00  0.00     0.047 C 
HETATM    3  C4  UNL     1      -1.825   0.883  -0.015  1.00  0.00     0.033 C 
HETATM    4  C5  UNL     1      -1.561   0.136   1.290  1.00  0.00     0.018 C 
HETATM    5  C6  UNL     1      -0.935  -1.158   0.979  1.00  0.00    -0.030 C 
HETATM    6  C7  UNL     1      -2.024  -1.728   0.046  1.00  0.00     0.016 C 
HETATM    7  C8  UNL     1      -1.177  -2.117  -1.056  1.00  0.00     0.005 C 
HETATM    8  C9  UNL     1      -0.447  -3.318  -0.509  1.00  0.00     0.006 C 
HETATM    9  C10 UNL     1      -0.492  -3.501   0.972  1.00  0.00     0.005 C 
HETATM   10  C11 UNL     1      -0.817  -2.289   1.874  1.00  0.00    -0.010 C 
HETATM   11  C12 UNL     1      -2.161  -2.598   2.574  1.00  0.00     0.011 C 
HETATM   12  C13 UNL     1      -0.310  -0.820  -1.142  1.00  0.00     0.053 C 
HETATM   13  C15 UNL     1       0.309  -0.872   0.169  1.00  0.00     0.028 C 
HETATM   14  C16 UNL     1       1.378  -0.011   0.618  1.00  0.00     0.041 C 
HETATM   15  C20 UNL     1       1.519   1.422   0.587  1.00  0.00     0.020 C 
HETATM   16  C21 UNL     1       0.693   2.396   1.316  1.00  0.00     0.048 C 
HETATM   17  C22 UNL     1      -0.493   2.985   0.695  1.00  0.00     0.129 C 
HETATM   18  C23 UNL     1      -0.952   4.005   1.694  1.00  0.00     0.183 C 
HETATM   19  O6  UNL     1      -0.332   5.069   1.940  1.00  0.00    -0.290 OA
HETATM   20  C24 UNL     1      -2.175   3.493   2.247  1.00  0.00     0.050 C 
HETATM   21  C25 UNL     1      -2.599   2.539   1.485  1.00  0.00    -0.014 C 
HETATM   22  C26 UNL     1      -1.665   2.318   0.309  1.00  0.00     0.057 C 
ENDROOT
BRANCH  14  23
HETATM   23  C17 UNL     1       2.641  -0.478  -0.178  1.00  0.00     0.147 C 
BRANCH  23  24
HETATM   24  N1  UNL     1       3.839   0.255   0.144  1.00  0.00    -0.319 N 
ATOM     25  H1  UNL     1       3.918   1.025   0.808  1.00  0.00     0.172 HD
BRANCH  24  26
HETATM   26  S1  UNL     1       5.136  -0.428  -0.822  1.00  0.00     0.222 S 
HETATM   27  C18 UNL     1       4.803  -0.241  -2.547  1.00  0.00     0.185 C 
HETATM   28  O3  UNL     1       6.421   0.292  -0.526  1.00  0.00    -0.206 OA
HETATM   29  O4  UNL     1       5.351  -1.863  -0.530  1.00  0.00    -0.206 OA
ENDBRANCH  24  26
ENDBRANCH  23  24
ENDBRANCH  14  23
BRANCH  14  30
HETATM   30  C19 UNL     1       1.798  -0.424   2.052  1.00  0.00     0.363 C 
HETATM   31  F1  UNL     1       2.828   0.422   2.514  1.00  0.00    -0.214 F 
HETATM   32  F2  UNL     1       2.469  -1.634   2.020  1.00  0.00    -0.214 F 
ENDBRANCH  14  30
BRANCH  12  33
HETATM   33  C14 UNL     1       0.434  -1.002  -2.374  1.00  0.00     0.244 C 
HETATM   34  O2  UNL     1       0.703  -2.066  -2.914  1.00  0.00    -0.306 OA
ENDBRANCH  12  33
BRANCH   1  35
HETATM   35  O1  UNL     1      -2.343  -0.255  -2.108  1.00  0.00    -0.384 OA
HETATM   36  C1  UNL     1      -3.312   0.552  -2.575  1.00  0.00     0.202 C 
ENDBRANCH   1  35
BRANCH  17  37
HETATM   37  O5  UNL     1      -0.038   3.823  -0.369  1.00  0.00    -0.381 OA
ATOM     38  H5  UNL     1      -0.808   4.206  -0.772  1.00  0.00     0.211 HD
ENDBRANCH  17  37
TORSDOF 7
