REMARK  8 active torsions:
REMARK  status: ('A' for Active; 'I' for Inactive)
REMARK    1  A    between atoms: N1_2  and  C3_4 
REMARK    2  A    between atoms: C3_4  and  C4_5 
REMARK    3  A    between atoms: C4_5  and  N2_6 
REMARK    4  A    between atoms: C9_11  and  C10_12 
REMARK       I    between atoms: C10_12  and  N3_14 
REMARK    5  A    between atoms: C11_16  and  C13_19 
REMARK    6  A    between atoms: C13_19  and  C14_24 
REMARK    7  A    between atoms: N5_20  and  O2_22 
REMARK    8  A    between atoms: C17_28  and  O3_29 
ROOT
HETATM    1  C10 UNL     1       0.174   0.685  -1.049  1.00  0.00     0.254 C 
HETATM    2  O1  UNL     1       0.391   1.378  -2.118  1.00  0.00    -0.271 OA
HETATM    3  N3  UNL     1       1.230   0.770  -0.129  1.00  0.00    -0.315 N 
ATOM      4  H3  UNL     1       1.016   1.010   0.839  1.00  0.00     0.169 HD
HETATM    5  C11 UNL     1       2.478   0.555  -0.460  1.00  0.00     0.146 C 
HETATM    6  C12 UNL     1       2.664   0.227  -1.837  1.00  0.00     0.120 C 
HETATM    7  N4  UNL     1       2.779  -0.040  -2.991  1.00  0.00    -0.190 NA
ENDROOT
BRANCH   5   8
HETATM    8  C13 UNL     1       3.511   0.712   0.502  1.00  0.00     0.102 C 
HETATM    9  N5  UNL     1       3.138   1.128   1.702  1.00  0.00    -0.266 N 
ATOM     10  H5  UNL     1       3.862   1.247   2.411  1.00  0.00     0.194 HD
BRANCH   9  11
HETATM   11  O2  UNL     1       1.902   1.397   2.040  1.00  0.00    -0.289 OA
ATOM     12  H2  UNL     1       1.634   1.696   2.901  1.00  0.00     0.244 HD
ENDBRANCH   9  11
BRANCH   8  13
HETATM   13  C14 UNL     1       4.937   0.507   0.393  1.00  0.00    -0.000 A 
HETATM   14  C15 UNL     1       5.739   0.937   1.462  1.00  0.00     0.059 A 
HETATM   15  C16 UNL     1       7.109   0.757   1.469  1.00  0.00     0.151 A 
HETATM   16  F1  UNL     1       7.840   1.189   2.524  1.00  0.00    -0.203 F 
HETATM   17  C17 UNL     1       7.740   0.144   0.419  1.00  0.00     0.121 A 
HETATM   18  C18 UNL     1       6.988  -0.283  -0.629  1.00  0.00     0.048 A 
HETATM   19 BR1  UNL     1       7.825  -1.142  -2.114  1.00  0.00    -0.048 Br
HETATM   20  C19 UNL     1       5.584  -0.092  -0.622  1.00  0.00     0.036 A 
BRANCH  17  21
HETATM   21  O3  UNL     1       9.121  -0.043   0.415  1.00  0.00    -0.356 OA
ATOM     22  H3  UNL     1       9.559  -0.468  -0.313  1.00  0.00     0.218 HD
ENDBRANCH  17  21
ENDBRANCH   8  13
ENDBRANCH   5   8
BRANCH   1  23
HETATM   23  C9  UNL     1      -1.048  -0.087  -0.873  1.00  0.00     0.282 C 
HETATM   24  N2  UNL     1      -1.677  -0.127   0.399  1.00  0.00    -0.052 N 
HETATM   25  C5  UNL     1      -0.987  -0.993   1.337  1.00  0.00     0.239 C 
HETATM   26  C24 UNL     1      -3.046  -0.634   0.382  1.00  0.00     0.239 C 
HETATM   27  C6  UNL     1      -1.151  -2.452   0.968  1.00  0.00     0.033 C 
HETATM   28  C7  UNL     1      -1.330  -2.582  -0.497  1.00  0.00    -0.003 C 
HETATM   29  C8  UNL     1      -0.719  -1.518  -1.337  1.00  0.00     0.048 C 
HETATM   30  C20 UNL     1      -2.771  -2.717  -0.953  1.00  0.00    -0.042 C 
HETATM   31  C21 UNL     1      -3.432  -3.806  -0.181  1.00  0.00     0.015 C 
HETATM   32  C22 UNL     1      -2.748  -3.084  -2.415  1.00  0.00     0.015 C 
HETATM   33  C23 UNL     1      -3.468  -1.368  -0.835  1.00  0.00     0.037 C 
BRANCH  24  34
HETATM   34  C4  UNL     1      -1.737   1.183   1.068  1.00  0.00     0.268 C 
BRANCH  34  35
HETATM   35  C3  UNL     1      -2.413   2.247   0.272  1.00  0.00     0.299 C 
BRANCH  35  36
HETATM   36  N1  UNL     1      -2.439   3.506   0.994  1.00  0.00     0.081 N 
HETATM   37  C1  UNL     1      -3.076   4.553   0.267  1.00  0.00     0.309 C 
HETATM   38  C2  UNL     1      -2.836   3.384   2.354  1.00  0.00     0.309 C 
ENDBRANCH  35  36
ENDBRANCH  34  35
ENDBRANCH  24  34
ENDBRANCH   1  23
TORSDOF 8
