REMARK  10 active torsions:
REMARK  status: ('A' for Active; 'I' for Inactive)
REMARK    1  A    between atoms: C2_2  and  O2_4 
REMARK    2  A    between atoms: O2_4  and  C3_5 
REMARK    3  A    between atoms: C3_5  and  C4_6 
REMARK       I    between atoms: N1_7  and  C5_8 
REMARK    4  A    between atoms: C5_8  and  C6_10 
REMARK    5  A    between atoms: C12_16  and  N2_17 
REMARK       I    between atoms: N3_25  and  C17_26 
REMARK    6  A    between atoms: C17_26  and  O5_28 
REMARK    7  A    between atoms: O5_28  and  C18_29 
REMARK    8  A    between atoms: C18_29  and  C19_30 
REMARK    9  A    between atoms: C25_38  and  C26_39 
REMARK   10  A    between atoms: C26_39  and  O6_40 
ROOT
HETATM    1  C4  UNL     1      -1.384   0.788   1.154  1.00  0.00     0.123 C 
HETATM    2  N1  UNL     1      -2.512   0.005   1.549  1.00  0.00    -0.344 N 
HETATM    3  C5  UNL     1      -3.750  -0.438   1.086  1.00  0.00     0.226 C 
HETATM    4  O3  UNL     1      -4.415  -1.163   1.934  1.00  0.00    -0.273 OA
HETATM    5  C13 UNL     1      -2.041  -0.474   2.921  1.00  0.00     0.127 C 
HETATM    6  C14 UNL     1      -0.666  -1.029   2.574  1.00  0.00     0.035 C 
HETATM    7  C15 UNL     1      -0.185  -0.092   1.521  1.00  0.00     0.023 C 
HETATM    8  C16 UNL     1       1.046   0.693   1.864  1.00  0.00     0.142 C 
HETATM    9  N3  UNL     1       1.818  -0.173   1.006  1.00  0.00    -0.319 N 
HETATM   10  C17 UNL     1       3.225  -0.393   0.863  1.00  0.00     0.363 C 
HETATM   11  O4  UNL     1       3.996   0.284   1.626  1.00  0.00    -0.238 OA
HETATM   12  C25 UNL     1       0.601  -0.653   0.425  1.00  0.00     0.125 C 
ENDROOT
BRANCH   1  13
HETATM   13  C3  UNL     1      -1.378   1.373  -0.166  1.00  0.00     0.205 C 
BRANCH  13  14
HETATM   14  O2  UNL     1      -2.360   2.332  -0.376  1.00  0.00    -0.320 OA
BRANCH  14  15
HETATM   15  C2  UNL     1      -2.411   3.517   0.296  1.00  0.00     0.254 C 
HETATM   16  C1  UNL     1      -3.512   4.527   0.037  1.00  0.00     0.126 C 
HETATM   17  O1  UNL     1      -1.560   3.831   1.156  1.00  0.00    -0.266 OA
ENDBRANCH  14  15
ENDBRANCH  13  14
ENDBRANCH   1  13
BRANCH  12  18
HETATM   18  C26 UNL     1       0.504  -2.142   0.173  1.00  0.00     0.190 C 
BRANCH  18  19
HETATM   19  O6  UNL     1       1.461  -2.588  -0.738  1.00  0.00    -0.399 OA
ATOM     20  H6  UNL     1       1.400  -3.523  -0.896  1.00  0.00     0.209 HD
ENDBRANCH  18  19
ENDBRANCH  12  18
BRANCH   3  21
HETATM   21  C6  UNL     1      -4.443  -0.237  -0.181  1.00  0.00     0.113 C 
HETATM   22  C7  UNL     1      -5.496   0.851  -0.158  1.00  0.00     0.001 C 
HETATM   23  C8  UNL     1      -5.872   1.136  -1.584  1.00  0.00     0.006 C 
HETATM   24  C11 UNL     1      -6.711   0.043   0.299  1.00  0.00     0.012 C 
HETATM   25  C9  UNL     1      -6.699  -0.075  -2.007  1.00  0.00     0.007 C 
HETATM   26  C10 UNL     1      -6.632  -0.997  -0.807  1.00  0.00     0.017 C 
HETATM   27  C12 UNL     1      -5.207  -1.454  -0.691  1.00  0.00     0.201 C 
BRANCH  27  28
HETATM   28  N2  UNL     1      -5.138  -2.597   0.159  1.00  0.00    -0.074 N 
ATOM     29  H23 UNL     1      -4.166  -2.842   0.346  1.00  0.00     0.274 HD
ATOM     30  H22 UNL     1      -5.443  -2.356   1.102  1.00  0.00     0.274 HD
ATOM     31  H21 UNL     1      -5.649  -3.411  -0.182  1.00  0.00     0.274 HD
ENDBRANCH  27  28
ENDBRANCH   3  21
BRANCH  10  32
HETATM   32  O5  UNL     1       3.803  -1.236   0.009  1.00  0.00    -0.304 OA
BRANCH  32  33
HETATM   33  C18 UNL     1       5.072  -1.608  -0.332  1.00  0.00     0.185 C 
BRANCH  33  34
HETATM   34  C19 UNL     1       5.984  -0.648  -1.019  1.00  0.00     0.010 C 
HETATM   35  C20 UNL     1       6.359   0.604  -0.356  1.00  0.00     0.013 C 
HETATM   36  C21 UNL     1       7.636   1.229  -0.912  1.00  0.00     0.079 C 
HETATM   37  C22 UNL     1       8.772   0.286  -1.036  1.00  0.00     0.243 C 
HETATM   38  F1  UNL     1       9.818   0.708  -0.228  1.00  0.00    -0.206 F 
HETATM   39  F2  UNL     1       9.232   0.202  -2.353  1.00  0.00    -0.206 F 
HETATM   40  C23 UNL     1       8.341  -1.139  -0.663  1.00  0.00     0.079 C 
HETATM   41  C24 UNL     1       7.162  -1.434  -1.565  1.00  0.00     0.013 C 
ENDBRANCH  33  34
ENDBRANCH  32  33
ENDBRANCH  10  32
TORSDOF 10
