REMARK  8 active torsions:
REMARK  status: ('A' for Active; 'I' for Inactive)
REMARK    1  A    between atoms: C2_2  and  C3_4 
REMARK    2  A    between atoms: C3_4  and  N1_5 
REMARK    3  A    between atoms: C3_4  and  C14_27 
REMARK    4  A    between atoms: C3_4  and  C22_35 
REMARK       I    between atoms: N1_5  and  C4_7 
REMARK    5  A    between atoms: C4_7  and  C5_9 
REMARK       I    between atoms: N3_16  and  C9_17 
REMARK    6  A    between atoms: C9_17  and  C10_19 
REMARK    7  A    between atoms: C10_19  and  C11_20 
REMARK    8  A    between atoms: C11_20  and  N4_23 
ROOT
HETATM    1  N1  UNL     1      -0.404  -0.709   1.028  1.00  0.00    -0.339 N 
ATOM      2  H1  UNL     1      -0.445   0.263   0.721  1.00  0.00     0.163 HD
HETATM    3  C4  UNL     1       0.587  -0.911   1.937  1.00  0.00     0.269 C 
HETATM    4  O1  UNL     1       0.889  -1.970   2.494  1.00  0.00    -0.269 OA
ENDROOT
BRANCH   3   5
HETATM    5  C5  UNL     1       1.466   0.250   2.371  1.00  0.00     0.382 C 
HETATM    6  N2  UNL     1       1.925   0.012   3.763  1.00  0.00    -0.039 N 
HETATM    7  C6  UNL     1       3.237   0.566   3.654  1.00  0.00     0.213 A 
ATOM      8  H22 UNL     1       1.335   0.387   4.505  1.00  0.00     0.280 HD
ATOM      9  H21 UNL     1       1.865  -0.948   4.102  1.00  0.00     0.280 HD
HETATM   10  C7  UNL     1       4.521   0.051   3.425  1.00  0.00     0.062 A 
HETATM   11  C8  UNL     1       3.608  -0.410   2.471  1.00  0.00     0.122 A 
HETATM   12  N3  UNL     1       2.690   0.241   1.579  1.00  0.00    -0.309 N 
HETATM   13  C9  UNL     1       2.902   0.750   0.282  1.00  0.00     0.224 C 
HETATM   14  O2  UNL     1       1.965   1.296  -0.329  1.00  0.00    -0.273 OA
BRANCH  13  15
HETATM   15  C10 UNL     1       4.257   0.619  -0.326  1.00  0.00     0.140 C 
BRANCH  15  16
HETATM   16  C11 UNL     1       4.338   1.136  -1.732  1.00  0.00     0.124 C 
HETATM   17  C12 UNL     1       3.437   0.440  -2.703  1.00  0.00     0.046 C 
HETATM   18  C13 UNL     1       5.778   0.911  -2.185  1.00  0.00     0.046 C 
BRANCH  16  19
HETATM   19  N4  UNL     1       4.129   2.575  -1.729  1.00  0.00    -0.071 N 
ATOM     20  H43 UNL     1       3.257   2.838  -1.271  1.00  0.00     0.275 HD
ATOM     21  H42 UNL     1       4.773   3.058  -1.102  1.00  0.00     0.275 HD
ATOM     22  H41 UNL     1       4.184   2.927  -2.685  1.00  0.00     0.275 HD
ENDBRANCH  16  19
ENDBRANCH  15  16
ENDBRANCH  13  15
ENDBRANCH   3   5
BRANCH   1  23
HETATM   23  C3  UNL     1      -1.428  -1.529   0.377  1.00  0.00     0.147 C 
BRANCH  23  24
HETATM   24  C2  UNL     1      -2.411  -2.116   1.303  1.00  0.00     0.091 C 
HETATM   25  C1  UNL     1      -1.950  -3.016   2.398  1.00  0.00     0.025 C 
HETATM   26 BR1  UNL     1      -3.731  -3.250   0.363  1.00  0.00    -0.089 Br
ENDBRANCH  23  24
BRANCH  23  27
HETATM   27  C14 UNL     1      -2.126  -0.491  -0.506  1.00  0.00     0.024 C 
HETATM   28  C15 UNL     1      -2.645   0.565   0.427  1.00  0.00     0.008 C 
HETATM   29  C16 UNL     1      -4.110   0.837   0.315  1.00  0.00     0.009 C 
HETATM   30  C17 UNL     1      -4.528   1.054  -1.128  1.00  0.00    -0.048 C 
HETATM   31  C18 UNL     1      -3.813   2.234  -1.742  1.00  0.00     0.015 C 
HETATM   32  C19 UNL     1      -6.021   1.337  -1.088  1.00  0.00     0.015 C 
HETATM   33  C20 UNL     1      -4.305  -0.237  -1.806  1.00  0.00     0.009 C 
HETATM   34  C21 UNL     1      -2.946  -0.878  -1.624  1.00  0.00     0.008 C 
ENDBRANCH  23  27
BRANCH  23  35
HETATM   35  C22 UNL     1      -0.661  -2.470  -0.494  1.00  0.00     0.414 C 
HETATM   36  F1  UNL     1      -1.368  -3.259  -1.339  1.00  0.00    -0.168 F 
HETATM   37  F2  UNL     1       0.233  -3.294   0.150  1.00  0.00    -0.168 F 
HETATM   38  F3  UNL     1       0.153  -1.679  -1.335  1.00  0.00    -0.168 F 
ENDBRANCH  23  35
ENDBRANCH   1  23
TORSDOF 8
