REMARK  8 active torsions:
REMARK  status: ('A' for Active; 'I' for Inactive)
REMARK    1  A    between atoms: N2_5  and  C4_6 
REMARK    2  A    between atoms: N3_9  and  C7_10 
REMARK    3  A    between atoms: C7_10  and  C8_14 
REMARK    4  A    between atoms: C8_14  and  N5_15 
REMARK       I    between atoms: N5_15  and  C9_17 
REMARK    5  A    between atoms: C9_17  and  C10_19 
REMARK    6  A    between atoms: C10_19  and  C11_20 
REMARK    7  A    between atoms: C10_19  and  C16_30 
REMARK    8  A    between atoms: C11_20  and  C12_21 
ROOT
HETATM    1  C8  UNL     1       1.548  -0.900   0.595  1.00  0.00     0.198 C 
ENDROOT
BRANCH   1   2
HETATM    2  C7  UNL     1       0.496  -0.692  -0.389  1.00  0.00     0.090 C 
HETATM    3  N4  UNL     1       0.700  -0.240  -1.562  1.00  0.00    -0.388 N 
ATOM      4  H42 UNL     1      -0.037  -0.094  -2.252  1.00  0.00     0.157 HD
ATOM      5  H41 UNL     1       1.669  -0.020  -1.794  1.00  0.00     0.157 HD
BRANCH   2   6
HETATM    6  N3  UNL     1      -0.866  -1.002  -0.063  1.00  0.00    -0.370 N 
HETATM    7  C6  UNL     1      -1.354  -0.610   1.244  1.00  0.00     0.126 C 
HETATM    8  C5  UNL     1      -2.779  -0.133   1.015  1.00  0.00     0.055 C 
HETATM    9  C4  UNL     1      -3.666  -1.230   0.517  1.00  0.00     0.226 C 
HETATM   10  C18 UNL     1      -2.982  -2.191  -0.415  1.00  0.00     0.055 C 
HETATM   11  C17 UNL     1      -1.699  -1.673  -1.005  1.00  0.00     0.126 C 
BRANCH   9  12
HETATM   12  N2  UNL     1      -4.892  -0.723  -0.028  1.00  0.00     0.096 N 
HETATM   13  C3  UNL     1      -4.743   0.116  -1.176  1.00  0.00     0.303 C 
HETATM   14  C2  UNL     1      -6.152   0.578  -1.563  1.00  0.00     0.302 C 
HETATM   15  N1  UNL     1      -6.705   1.433  -0.523  1.00  0.00     0.087 N 
HETATM   16  C1  UNL     1      -8.085   1.062  -0.207  1.00  0.00     0.310 C 
HETATM   17  C20 UNL     1      -5.918   1.354   0.694  1.00  0.00     0.302 C 
HETATM   18  C19 UNL     1      -5.690  -0.110   1.016  1.00  0.00     0.303 C 
ENDBRANCH   9  12
ENDBRANCH   2   6
ENDBRANCH   1   2
BRANCH   1  19
HETATM   19  N5  UNL     1       2.867  -0.487   0.218  1.00  0.00    -0.354 N 
HETATM   20  C9  UNL     1       3.938  -0.665   1.138  1.00  0.00     0.225 C 
HETATM   21  O1  UNL     1       3.651  -1.194   2.262  1.00  0.00    -0.273 OA
ATOM     22  H5  UNL     1       3.036  -0.071  -0.698  1.00  0.00     0.162 HD
BRANCH  20  23
HETATM   23  C10 UNL     1       5.336  -0.267   0.840  1.00  0.00     0.116 C 
BRANCH  23  24
HETATM   24  C11 UNL     1       5.442   1.166   0.422  1.00  0.00     0.075 C 
BRANCH  24  25
HETATM   25  C12 UNL     1       6.888   1.462   0.154  1.00  0.00     0.035 A 
HETATM   26  N6  UNL     1       7.515   1.596  -1.024  1.00  0.00    -0.347 N 
HETATM   27  C13 UNL     1       8.808   1.862  -0.834  1.00  0.00     0.127 A 
ATOM     28  H6  UNL     1       7.067   1.507  -1.936  1.00  0.00     0.167 HD
HETATM   29 CL1  UNL     1      10.071   2.127  -2.042  1.00  0.00    -0.063 Cl
HETATM   30  C14 UNL     1       9.054   1.907   0.506  1.00  0.00     0.096 A 
HETATM   31 CL2  UNL     1      10.562   2.214   1.356  1.00  0.00    -0.079 Cl
HETATM   32  C15 UNL     1       7.856   1.657   1.131  1.00  0.00     0.081 A 
HETATM   33 CL3  UNL     1       7.554   1.588   2.874  1.00  0.00    -0.080 Cl
ENDBRANCH  24  25
ENDBRANCH  23  24
BRANCH  23  34
HETATM   34  C16 UNL     1       5.995  -1.168  -0.145  1.00  0.00     0.191 C 
HETATM   35 CL4  UNL     1       5.985  -2.818   0.569  1.00  0.00    -0.107 Cl
HETATM   36 CL5  UNL     1       5.261  -1.215  -1.735  1.00  0.00    -0.107 Cl
ENDBRANCH  23  34
ENDBRANCH  20  23
ENDBRANCH   1  19
TORSDOF 8
