REMARK  9 active torsions:
REMARK  status: ('A' for Active; 'I' for Inactive)
REMARK    1  A    between atoms: C2_2  and  C5_5 
REMARK    2  A    between atoms: C5_5  and  N1_6 
REMARK       I    between atoms: N1_6  and  C6_8 
REMARK    3  A    between atoms: C6_8  and  C7_10 
REMARK       I    between atoms: N2_14  and  C10_15 
REMARK    4  A    between atoms: C10_15  and  C11_17 
REMARK    5  A    between atoms: C11_17  and  C12_18 
REMARK    6  A    between atoms: C11_17  and  N3_21 
REMARK    7  A    between atoms: C12_18  and  O3_19 
REMARK       I    between atoms: N3_21  and  C13_23 
REMARK    8  A    between atoms: C13_23  and  C14_25 
REMARK    9  A    between atoms: C22_33  and  C23_34 
ROOT
HETATM    1  C11 UNL     1      -0.337  -1.136  -2.144  1.00  0.00     0.200 C 
ENDROOT
BRANCH   1   2
HETATM    2  C10 UNL     1       0.906  -1.189  -1.354  1.00  0.00     0.247 C 
HETATM    3  N2  UNL     1       2.084  -1.890  -1.773  1.00  0.00    -0.306 N 
HETATM    4  C7  UNL     1       3.375  -2.004  -1.088  1.00  0.00     0.262 A 
HETATM    5  C9  UNL     1       2.518  -2.695  -2.868  1.00  0.00     0.135 A 
HETATM    6  F1  UNL     1       3.254  -2.689   0.092  1.00  0.00    -0.208 F 
HETATM    7  C8  UNL     1       3.875  -2.813  -2.247  1.00  0.00     0.097 A 
HETATM    8  O2  UNL     1       0.910  -0.567  -0.236  1.00  0.00    -0.271 OA
BRANCH   4   9
HETATM    9  C6  UNL     1       4.028  -0.670  -0.942  1.00  0.00     0.279 C 
HETATM   10  N1  UNL     1       5.196  -0.502  -0.155  1.00  0.00    -0.356 N 
ATOM     11  H1  UNL     1       5.612  -1.300   0.325  1.00  0.00     0.162 HD
HETATM   12  O1  UNL     1       3.499   0.304  -1.544  1.00  0.00    -0.268 OA
BRANCH  10  13
HETATM   13  C5  UNL     1       5.790   0.808  -0.040  1.00  0.00     0.131 C 
BRANCH  13  14
HETATM   14  C2  UNL     1       7.010   0.831   0.824  1.00  0.00    -0.035 C 
HETATM   15  C1  UNL     1       8.099  -0.067   0.308  1.00  0.00     0.016 C 
HETATM   16  C3  UNL     1       7.551   2.232   0.873  1.00  0.00     0.016 C 
HETATM   17  C4  UNL     1       6.632   0.378   2.222  1.00  0.00     0.016 C 
ENDBRANCH  13  14
ENDBRANCH  10  13
ENDBRANCH   4   9
ENDBRANCH   1   2
BRANCH   1  18
HETATM   18  C12 UNL     1      -0.136  -0.433  -3.475  1.00  0.00     0.199 C 
BRANCH  18  19
HETATM   19  O3  UNL     1      -1.414  -0.418  -4.084  1.00  0.00    -0.398 OA
ATOM     20  H3  UNL     1      -1.288   0.022  -4.917  1.00  0.00     0.209 HD
ENDBRANCH  18  19
ENDBRANCH   1  18
BRANCH   1  21
HETATM   21  N3  UNL     1      -1.309  -0.341  -1.387  1.00  0.00    -0.345 N 
HETATM   22  C13 UNL     1      -2.613  -0.838  -1.161  1.00  0.00     0.227 C 
HETATM   23  O4  UNL     1      -2.951  -1.966  -1.610  1.00  0.00    -0.273 OA
ATOM     24  H3  UNL     1      -1.043   0.574  -1.022  1.00  0.00     0.163 HD
BRANCH  22  25
HETATM   25  C14 UNL     1      -3.576  -0.022  -0.389  1.00  0.00     0.043 C 
HETATM   26  C15 UNL     1      -3.229   1.422  -0.557  1.00  0.00     0.024 C 
HETATM   27  C16 UNL     1      -4.204   2.276   0.242  1.00  0.00    -0.012 C 
HETATM   28  C17 UNL     1      -5.590   2.042  -0.260  1.00  0.00     0.014 C 
HETATM   29  C24 UNL     1      -4.049   1.876   1.691  1.00  0.00     0.023 C 
HETATM   30  C18 UNL     1      -5.918   0.578  -0.043  1.00  0.00    -0.042 C 
HETATM   31  C19 UNL     1      -7.359   0.334  -0.498  1.00  0.00     0.015 C 
HETATM   32  C20 UNL     1      -4.999  -0.248  -0.890  1.00  0.00     0.028 C 
HETATM   33  C21 UNL     1      -5.858   0.189   1.419  1.00  0.00     0.027 C 
HETATM   34  C22 UNL     1      -4.440   0.431   1.884  1.00  0.00     0.060 C 
HETATM   35  C25 UNL     1      -3.537  -0.456   1.039  1.00  0.00     0.037 C 
BRANCH  34  36
HETATM   36  C23 UNL     1      -4.235   0.038   3.325  1.00  0.00     0.395 C 
HETATM   37  F2  UNL     1      -4.500  -1.298   3.536  1.00  0.00    -0.170 F 
HETATM   38  F3  UNL     1      -5.046   0.774   4.149  1.00  0.00    -0.170 F 
HETATM   39  F4  UNL     1      -2.881   0.205   3.625  1.00  0.00    -0.170 F 
ENDBRANCH  34  36
ENDBRANCH  22  25
ENDBRANCH   1  21
TORSDOF 9
