REMARK  9 active torsions:
REMARK  status: ('A' for Active; 'I' for Inactive)
REMARK    1  A    between atoms: C2_2  and  O1_5 
REMARK    2  A    between atoms: O1_5  and  C5_6 
REMARK    3  A    between atoms: C5_6  and  O2_7 
REMARK    4  A    between atoms: C5_6  and  C6_9 
REMARK    5  A    between atoms: C9_19  and  C10_21 
REMARK    6  A    between atoms: C13_24  and  O4_25 
REMARK    7  A    between atoms: O4_25  and  C14_26 
REMARK    8  A    between atoms: C14_26  and  C15_27 
REMARK    9  A    between atoms: C15_27  and  C16_28 
ROOT
HETATM    1  C6  UNL     1      -1.789  -0.169  -1.165  1.00  0.00     0.180 C 
HETATM    2  C7  UNL     1      -2.689  -0.118  -2.397  1.00  0.00     0.337 C 
HETATM    3  F1  UNL     1      -3.998  -0.404  -2.129  1.00  0.00    -0.182 F 
HETATM    4  F2  UNL     1      -2.655   1.183  -2.858  1.00  0.00    -0.182 F 
HETATM    5  N1  UNL     1      -2.274  -0.998  -3.456  1.00  0.00    -0.280 N 
ATOM      6  H1  UNL     1      -2.494  -0.752  -4.421  1.00  0.00     0.170 HD
HETATM    7  C8  UNL     1      -1.556  -2.217  -3.191  1.00  0.00     0.322 C 
HETATM    8  O3  UNL     1      -1.718  -3.240  -3.864  1.00  0.00    -0.247 OA
HETATM    9  N2  UNL     1      -0.661  -2.089  -2.073  1.00  0.00    -0.319 N 
ATOM     10  H2  UNL     1      -0.185  -2.882  -1.643  1.00  0.00     0.166 HD
HETATM   11  C9  UNL     1      -0.500  -0.709  -1.613  1.00  0.00     0.136 C 
HETATM   12 BR1  UNL     1      -0.131   0.280  -3.298  1.00  0.00    -0.055 Br
ENDROOT
BRANCH  11  13
HETATM   13  C10 UNL     1       0.691  -0.560  -0.779  1.00  0.00    -0.017 A 
HETATM   14  C11 UNL     1       1.713   0.326  -1.123  1.00  0.00     0.013 A 
HETATM   15  C12 UNL     1       2.873   0.438  -0.389  1.00  0.00     0.039 A 
HETATM   16  C13 UNL     1       3.085  -0.327   0.734  1.00  0.00     0.086 A 
HETATM   17  C17 UNL     1       2.094  -1.205   1.098  1.00  0.00     0.044 A 
HETATM   18 BR2  UNL     1       2.301  -2.282   2.633  1.00  0.00    -0.048 Br
HETATM   19  C18 UNL     1       0.911  -1.318   0.346  1.00  0.00     0.032 A 
BRANCH  16  20
HETATM   20  O4  UNL     1       4.274  -0.219   1.482  1.00  0.00    -0.350 OA
BRANCH  20  21
HETATM   21  C14 UNL     1       5.276   0.691   1.076  1.00  0.00     0.178 C 
BRANCH  21  22
HETATM   22  C15 UNL     1       6.485   0.649   1.956  1.00  0.00     0.058 C 
BRANCH  22  23
HETATM   23  C16 UNL     1       7.547   1.633   1.495  1.00  0.00     0.224 C 
HETATM   24  F3  UNL     1       7.974   1.378   0.207  1.00  0.00    -0.255 F 
ENDBRANCH  22  23
ENDBRANCH  21  22
ENDBRANCH  20  21
ENDBRANCH  16  20
ENDBRANCH  11  13
BRANCH   1  25
HETATM   25  C5  UNL     1      -2.508  -0.925  -0.047  1.00  0.00     0.273 C 
BRANCH  25  26
HETATM   26  O1  UNL     1      -3.657  -0.312   0.191  1.00  0.00    -0.351 OA
BRANCH  26  27
HETATM   27  C2  UNL     1      -4.090   0.317   1.259  1.00  0.00     0.053 C 
HETATM   28  C1  UNL     1      -5.493   0.961   0.999  1.00  0.00     0.045 C 
HETATM   29  C3  UNL     1      -3.203   1.506   1.585  1.00  0.00     0.045 C 
HETATM   30  C4  UNL     1      -4.266  -0.437   2.546  1.00  0.00     0.045 C 
ENDBRANCH  26  27
ENDBRANCH  25  26
BRANCH  25  31
HETATM   31  O2  UNL     1      -2.665  -2.280  -0.360  1.00  0.00    -0.370 OA
ATOM     32  H2  UNL     1      -1.840  -2.720  -0.531  1.00  0.00     0.212 HD
ENDBRANCH  25  31
ENDBRANCH   1  25
TORSDOF 9
