REMARK  4 active torsions:
REMARK  status: ('A' for Active; 'I' for Inactive)
REMARK    1  A    between atoms: C2_2  and  N1_5 
REMARK    2  A    between atoms: N1_5  and  C5_7 
REMARK    3  A    between atoms: C5_7  and  O1_10 
REMARK    4  A    between atoms: O1_10  and  C8_11 
ROOT
HETATM    1  C5  UNL     1      -0.044   0.950  -0.092  1.00  0.00     0.124 C 
HETATM    2  C6  UNL     1       0.455   2.134   0.768  1.00  0.00     0.070 C 
HETATM    3  C7  UNL     1      -0.530   1.826  -1.332  1.00  0.00     0.070 C 
ENDROOT
BRANCH   1   4
HETATM    4  N1  UNL     1       0.955   0.180  -0.684  1.00  0.00    -0.385 N 
ATOM      5  H1  UNL     1       0.941   0.082  -1.699  1.00  0.00     0.157 HD
BRANCH   4   6
HETATM    6  C2  UNL     1       1.969  -0.463   0.015  1.00  0.00     0.017 C 
HETATM    7  C1  UNL     1       1.665  -1.506   1.021  1.00  0.00     0.037 C 
HETATM    8  C3  UNL     1       3.012   0.507   0.614  1.00  0.00     0.037 C 
HETATM    9  C4  UNL     1       2.817  -1.191  -1.066  1.00  0.00     0.037 C 
ENDBRANCH   4   6
ENDBRANCH   1   4
BRANCH   1  10
HETATM   10  O1  UNL     1      -1.036   0.383   0.520  1.00  0.00    -0.352 OA
BRANCH  10  11
HETATM   11  C8  UNL     1      -2.038  -0.365   0.136  1.00  0.00     0.053 C 
HETATM   12  C9  UNL     1      -3.041   0.281  -0.849  1.00  0.00     0.045 C 
HETATM   13  C10 UNL     1      -1.820  -1.797  -0.281  1.00  0.00     0.045 C 
HETATM   14  C11 UNL     1      -2.917  -0.519   1.412  1.00  0.00     0.045 C 
ENDBRANCH  10  11
ENDBRANCH   1  10
TORSDOF 4
