REMARK  2 active torsions:
REMARK  status: ('A' for Active; 'I' for Inactive)
REMARK    1  A    between atoms: C5_5  and  C6_6 
REMARK    2  A    between atoms: C6_6  and  N1_7 
ROOT
HETATM    1  C1  UNL     1       3.128  -0.005   0.457  1.00  0.00     0.021 C 
HETATM    2  C2  UNL     1       2.339   0.650  -0.651  1.00  0.00     0.043 C 
HETATM    3  C3  UNL     1       1.537  -0.352  -1.448  1.00  0.00     0.015 C 
HETATM    4  C4  UNL     1       0.544  -1.090  -0.613  1.00  0.00     0.013 C 
HETATM    5  C5  UNL     1      -0.588  -0.293  -0.096  1.00  0.00    -0.004 C 
HETATM    6  C7  UNL     1      -1.568   0.107  -1.186  1.00  0.00     0.012 C 
HETATM    7  C8  UNL     1      -2.459   1.116  -0.503  1.00  0.00     0.002 C 
HETATM    8  C9  UNL     1      -1.499   1.878   0.363  1.00  0.00     0.016 C 
HETATM    9  C10 UNL     1      -0.291   0.973   0.579  1.00  0.00     0.058 C 
HETATM   10  S1  UNL     1       1.159   1.851  -0.022  1.00  0.00    -0.159 SA
ENDROOT
BRANCH   5  11
HETATM   11  C6  UNL     1      -1.373  -1.192   0.865  1.00  0.00     0.240 C 
BRANCH  11  12
HETATM   12  N1  UNL     1      -0.545  -1.634   1.963  1.00  0.00    -0.079 N 
ATOM     13  H13 UNL     1       0.304  -2.092   1.631  1.00  0.00     0.274 HD
ATOM     14  H12 UNL     1      -0.118  -0.847   2.451  1.00  0.00     0.274 HD
ATOM     15  H11 UNL     1      -1.068  -2.232   2.603  1.00  0.00     0.274 HD
ENDBRANCH  11  12
ENDBRANCH   5  11
TORSDOF 2
