REMARK  2 active torsions:
REMARK  status: ('A' for Active; 'I' for Inactive)
REMARK    1  A    between atoms: C2_2  and  C5_5 
REMARK    2  A    between atoms: C5_5  and  N1_6 
ROOT
HETATM    1  C5  UNL     1      -0.511  -0.422  -0.403  1.00  0.00     0.326 C 
HETATM    2  C6  UNL     1      -0.031  -1.351   0.675  1.00  0.00     0.109 C 
HETATM    3  C7  UNL     1       1.288  -1.135  -0.089  1.00  0.00     0.230 C 
HETATM    4  C8  UNL     1       2.513  -1.131   0.769  1.00  0.00     0.036 C 
HETATM    5  C9  UNL     1       3.328   0.080   0.344  1.00  0.00     0.004 C 
HETATM    6  C10 UNL     1       2.581   1.265   0.922  1.00  0.00     0.030 C 
HETATM    7  C11 UNL     1       1.092   1.147   0.642  1.00  0.00     0.276 C 
HETATM    8  N2  UNL     1       0.765   0.202  -0.346  1.00  0.00     0.131 N 
ENDROOT
BRANCH   1   9
HETATM    9  C2  UNL     1      -1.773   0.278  -0.222  1.00  0.00     0.011 C 
HETATM   10  C1  UNL     1      -1.978   1.108   0.992  1.00  0.00     0.019 C 
HETATM   11  C3  UNL     1      -2.176   1.152  -1.419  1.00  0.00     0.019 C 
HETATM   12  C4  UNL     1      -2.884  -0.796  -0.189  1.00  0.00     0.019 C 
ENDBRANCH   1   9
BRANCH   1  13
HETATM   13  N1  UNL     1      -0.526  -1.197  -1.675  1.00  0.00    -0.041 N 
ATOM     14  H13 UNL     1      -1.323  -1.832  -1.724  1.00  0.00     0.277 HD
ATOM     15  H12 UNL     1      -0.752  -0.608  -2.476  1.00  0.00     0.277 HD
ATOM     16  H11 UNL     1       0.359  -1.688  -1.802  1.00  0.00     0.277 HD
ENDBRANCH   1  13
TORSDOF 2
