REMARK  1 active torsions:
REMARK  status: ('A' for Active; 'I' for Inactive)
REMARK    1  A    between atoms: C1_2  and  C2_4 
ROOT
HETATM    1  C2  UNL     1      -0.335   0.557  -0.186  1.00  0.00     0.035 C 
HETATM    2  C3  UNL     1       0.878   1.042  -0.926  1.00  0.00     0.018 C 
HETATM    3  C4  UNL     1       2.026   1.073   0.064  1.00  0.00     0.001 C 
HETATM    4  C5  UNL     1       2.513  -0.345   0.290  1.00  0.00     0.000 C 
HETATM    5  C6  UNL     1       1.347  -1.263   0.230  1.00  0.00     0.006 C 
HETATM    6  C7  UNL     1       0.038  -0.653   0.614  1.00  0.00     0.002 C 
HETATM    7  C8  UNL     1      -1.028  -1.702   0.372  1.00  0.00     0.006 C 
HETATM    8  C9  UNL     1      -2.085  -1.079  -0.487  1.00  0.00     0.002 C 
HETATM    9  C10 UNL     1      -1.443   0.129  -1.129  1.00  0.00     0.018 C 
ENDROOT
BRANCH   1  10
HETATM   10  C1  UNL     1      -0.857   1.670   0.631  1.00  0.00     0.205 C 
HETATM   11  O1  UNL     1      -0.348   2.765   0.657  1.00  0.00    -0.284 OA
HETATM   12  S1  UNL     1      -2.303   1.395   1.629  1.00  0.00    -0.011 SA
ENDBRANCH   1  10
TORSDOF 1
