REMARK  3 active torsions:
REMARK  status: ('A' for Active; 'I' for Inactive)
REMARK    1  A    between atoms: C2_2  and  C3_3 
REMARK    2  A    between atoms: N1_7  and  C7_8 
REMARK    3  A    between atoms: C11_18  and  N5_19 
ROOT
HETATM    1  C3  UNL     1      -0.769  -0.379   0.159  1.00  0.00    -0.025 A 
HETATM    2  C4  UNL     1       0.558   0.050   0.380  1.00  0.00     0.041 A 
HETATM    3  C5  UNL     1       1.732  -0.667   0.388  1.00  0.00     0.039 A 
HETATM    4  C6  UNL     1       1.985  -2.108   0.173  1.00  0.00     0.071 C 
HETATM    5  N1  UNL     1       2.720   0.240   0.670  1.00  0.00    -0.295 N 
HETATM    6  N2  UNL     1       2.192   1.426   0.824  1.00  0.00    -0.282 N 
ATOM      7  H2  UNL     1       2.711   2.278   1.039  1.00  0.00     0.189 HD
HETATM    8  C9  UNL     1       0.848   1.350   0.654  1.00  0.00     0.134 A 
HETATM    9  N3  UNL     1      -0.109   2.267   0.724  1.00  0.00    -0.326 N 
ATOM     10  H3  UNL     1       0.125   3.238   0.929  1.00  0.00     0.169 HD
HETATM   11  C10 UNL     1      -1.375   1.911   0.525  1.00  0.00     0.137 A 
HETATM   12  N4  UNL     1      -2.358   2.858   0.595  1.00  0.00    -0.176 N 
ATOM     13  H4  UNL     1      -2.086   3.819   0.803  1.00  0.00     0.186 HD
HETATM   14  C11 UNL     1      -3.658   2.597   0.406  1.00  0.00     0.679 A 
HETATM   15  N6  UNL     1      -4.028   1.341   0.131  1.00  0.00    -0.176 N 
ATOM     16  H6  UNL     1      -5.015   1.128  -0.016  1.00  0.00     0.186 HD
HETATM   17  C12 UNL     1      -3.093   0.330   0.043  1.00  0.00     0.129 A 
HETATM   18  N7  UNL     1      -3.486  -0.847  -0.229  1.00  0.00    -0.384 N 
ATOM     19  H71 UNL     1      -2.795  -1.594  -0.294  1.00  0.00     0.157 HD
ATOM     20  H72 UNL     1      -4.473  -1.057  -0.376  1.00  0.00     0.157 HD
HETATM   21  C13 UNL     1      -1.769   0.612   0.240  1.00  0.00     0.060 A 
ENDROOT
BRANCH  14  22
HETATM   22  N5  UNL     1      -4.553   3.528   0.483  1.00  0.00    -0.234 N 
ATOM     23  H52 UNL     1      -4.271   4.486   0.693  1.00  0.00     0.174 HD
ATOM     24  H51 UNL     1      -5.543   3.329   0.339  1.00  0.00     0.174 HD
ENDBRANCH  14  22
BRANCH   1  25
HETATM   25  C2  UNL     1      -1.157  -1.722  -0.193  1.00  0.00     0.036 C 
HETATM   26  C1  UNL     1      -1.093  -2.074  -1.681  1.00  0.00     0.010 C 
ENDBRANCH   1  25
BRANCH   5  27
HETATM   27  C7  UNL     1       4.137  -0.111   0.784  1.00  0.00     0.144 C 
HETATM   28  C8  UNL     1       4.721  -0.008  -0.604  1.00  0.00     0.028 C 
ENDBRANCH   5  27
TORSDOF 3
