REMARK  3 active torsions:
REMARK  status: ('A' for Active; 'I' for Inactive)
REMARK    1  A    between atoms: N1_1  and  C1_4 
REMARK    2  A    between atoms: C5_10  and  N3_11 
REMARK    3  A    between atoms: C9_17  and  C10_18 
ROOT
HETATM    1  C1  UNL     1      -3.421   0.203  -1.591  1.00  0.00     0.676 A 
HETATM    2  N2  UNL     1      -3.170  -1.118  -1.535  1.00  0.00    -0.190 N 
ATOM      3  H2  UNL     1      -3.797  -1.853  -1.861  1.00  0.00     0.184 HD
HETATM    4  C2  UNL     1      -1.960  -1.314  -0.980  1.00  0.00     0.077 A 
HETATM    5  C3  UNL     1      -1.244  -2.467  -0.699  1.00  0.00     0.034 A 
HETATM    6  C4  UNL     1      -0.007  -2.334  -0.116  1.00  0.00     0.033 A 
HETATM    7  C5  UNL     1       0.549  -1.106   0.201  1.00  0.00     0.056 A 
HETATM    8  C9  UNL     1      -0.163   0.043  -0.079  1.00  0.00     0.066 A 
HETATM    9  C12 UNL     1      -1.424  -0.081  -0.673  1.00  0.00     0.092 A 
HETATM   10  N8  UNL     1      -2.341   0.824  -1.059  1.00  0.00    -0.189 N 
ATOM     11  H8  UNL     1      -2.238   1.834  -0.965  1.00  0.00     0.184 HD
ENDROOT
BRANCH   8  12
HETATM   12  C10 UNL     1       0.353   1.379   0.224  1.00  0.00     0.136 A 
HETATM   13  N5  UNL     1       1.090   2.202  -0.536  1.00  0.00    -0.336 N 
HETATM   14  C11 UNL     1       1.307   3.324   0.205  1.00  0.00     0.199 A 
ATOM     15  H5  UNL     1       1.423   2.023  -1.483  1.00  0.00     0.168 HD
HETATM   16  N6  UNL     1       0.714   3.197   1.400  1.00  0.00    -0.295 N 
HETATM   17  N7  UNL     1       0.141   2.022   1.404  1.00  0.00    -0.284 N 
ATOM     18  H6  UNL     1       0.710   3.881   2.156  1.00  0.00     0.187 HD
ATOM     19  H7  UNL     1      -0.392   1.640   2.185  1.00  0.00     0.188 HD
ENDBRANCH   8  12
BRANCH   7  20
HETATM   20  N3  UNL     1       1.828  -0.996   0.802  1.00  0.00    -0.316 N 
HETATM   21  C6  UNL     1       3.037  -0.966   0.211  1.00  0.00     0.115 A 
HETATM   22  C7  UNL     1       4.010  -0.849   1.184  1.00  0.00     0.106 A 
HETATM   23  N4  UNL     1       3.360  -0.809   2.375  1.00  0.00    -0.360 N 
HETATM   24  C8  UNL     1       2.037  -0.899   2.124  1.00  0.00     0.188 A 
ATOM     25  H4  UNL     1       3.794  -0.726   3.295  1.00  0.00     0.166 HD
ENDBRANCH   7  20
BRANCH   1  26
HETATM   26  N1  UNL     1      -4.464   0.814  -2.050  1.00  0.00    -0.234 N 
ATOM     27  H12 UNL     1      -5.277   0.346  -2.451  1.00  0.00     0.174 HD
ATOM     28  H11 UNL     1      -4.654   1.815  -2.092  1.00  0.00     0.174 HD
ENDBRANCH   1  26
TORSDOF 3
