REMARK  4 active torsions:
REMARK  status: ('A' for Active; 'I' for Inactive)
REMARK    1  A    between atoms: N1_1  and  C1_4 
REMARK    2  A    between atoms: C3_8  and  C4_9 
REMARK    3  A    between atoms: C4_9  and  C5_10 
REMARK    4  A    between atoms: C4_9  and  C9_18 
ROOT
HETATM    1  C1  UNL     1      -3.573  -0.283   0.042  1.00  0.00     0.677 A 
HETATM    2  N2  UNL     1      -2.852   0.475   0.884  1.00  0.00    -0.201 N 
ATOM      3  H2  UNL     1      -3.281   0.953   1.676  1.00  0.00     0.183 HD
HETATM    4  C2  UNL     1      -1.538   0.571   0.630  1.00  0.00     0.118 A 
HETATM    5  C3  UNL     1      -0.897  -0.051  -0.421  1.00  0.00     0.017 A 
HETATM    6  C13 UNL     1      -1.663  -0.818  -1.263  1.00  0.00     0.123 A 
HETATM    7  N5  UNL     1      -1.271  -1.440  -2.274  1.00  0.00    -0.385 N 
ATOM      8  H51 UNL     1      -1.840  -2.010  -2.900  1.00  0.00     0.157 HD
ATOM      9  H52 UNL     1      -0.272  -1.369  -2.470  1.00  0.00     0.157 HD
HETATM   10  N6  UNL     1      -3.004  -0.913  -1.000  1.00  0.00    -0.177 N 
ATOM     11  H6  UNL     1      -3.589  -1.480  -1.614  1.00  0.00     0.185 HD
ENDROOT
BRANCH   5  12
HETATM   12  C4  UNL     1       0.557   0.081  -0.632  1.00  0.00     0.116 C 
BRANCH  12  13
HETATM   13  C5  UNL     1       1.349  -1.035  -0.066  1.00  0.00    -0.012 A 
HETATM   14  C6  UNL     1       2.015  -1.926  -0.872  1.00  0.00     0.098 A 
HETATM   15  N3  UNL     1       2.741  -2.956  -0.430  1.00  0.00    -0.362 N 
HETATM   16  C7  UNL     1       2.833  -3.141   0.895  1.00  0.00     0.180 A 
ATOM     17  H3  UNL     1       3.212  -3.584  -1.081  1.00  0.00     0.166 HD
HETATM   18  N4  UNL     1       2.196  -2.291   1.712  1.00  0.00    -0.362 N 
HETATM   19  C8  UNL     1       1.459  -1.248   1.304  1.00  0.00     0.098 A 
ATOM     20  H4  UNL     1       2.278  -2.449   2.716  1.00  0.00     0.166 HD
ENDBRANCH  12  13
BRANCH  12  21
HETATM   21  C9  UNL     1       1.112   1.350  -0.068  1.00  0.00     0.065 A 
HETATM   22  C10 UNL     1       1.199   2.561  -0.743  1.00  0.00     0.035 A 
HETATM   23  C11 UNL     1       1.758   3.498   0.083  1.00  0.00     0.027 A 
HETATM   24  C12 UNL     1       2.004   2.824   1.259  1.00  0.00     0.142 A 
HETATM   25  O1  UNL     1       1.611   1.582   1.120  1.00  0.00    -0.326 OA
ENDBRANCH  12  21
ENDBRANCH   5  12
BRANCH   1  26
HETATM   26  N1  UNL     1      -4.834  -0.400   0.251  1.00  0.00    -0.234 N 
ATOM     27  H12 UNL     1      -5.266   0.078   1.042  1.00  0.00     0.174 HD
ATOM     28  H11 UNL     1      -5.382  -0.976  -0.389  1.00  0.00     0.174 HD
ENDBRANCH   1  26
TORSDOF 4
