REMARK  6 active torsions:
REMARK  status: ('A' for Active; 'I' for Inactive)
REMARK    1  A    between atoms: O1_2  and  C2_3 
REMARK    2  A    between atoms: C5_6  and  C6_7 
REMARK    3  A    between atoms: C6_7  and  N1_8 
REMARK    4  A    between atoms: C7_11  and  C8_12 
REMARK    5  A    between atoms: C11_15  and  N3_16 
REMARK    6  A    between atoms: C13_24  and  N6_25 
ROOT
HETATM    1  N1  UNL     1      -0.219   0.655   1.638  1.00  0.00    -0.118 N 
HETATM    2  N2  UNL     1      -1.226  -0.067   1.115  1.00  0.00    -0.268 N 
ATOM      3  H2  UNL     1      -1.350  -1.074   1.218  1.00  0.00     0.189 HD
HETATM    4  C7  UNL     1      -2.036   0.750   0.439  1.00  0.00     0.147 A 
HETATM    5  N5  UNL     1      -1.514   1.981   0.553  1.00  0.00    -0.173 N 
ATOM      6  H5  UNL     1      -1.912   2.824   0.139  1.00  0.00     0.186 HD
HETATM    7  C13 UNL     1      -0.371   1.942   1.304  1.00  0.00     0.694 A 
ENDROOT
BRANCH   4   8
HETATM    8  C8  UNL     1      -3.269   0.394  -0.298  1.00  0.00     0.025 A 
HETATM    9  C9  UNL     1      -3.991   1.376  -0.946  1.00  0.00     0.020 A 
HETATM   10  C10 UNL     1      -5.133   1.071  -1.633  1.00  0.00     0.049 A 
HETATM   11  C11 UNL     1      -5.554  -0.243  -1.666  1.00  0.00     0.098 A 
HETATM   12  N4  UNL     1      -4.846  -1.195  -1.032  1.00  0.00    -0.352 N 
HETATM   13  C12 UNL     1      -3.725  -0.885  -0.359  1.00  0.00     0.105 A 
ATOM     14  H4  UNL     1      -5.164  -2.164  -1.062  1.00  0.00     0.166 HD
BRANCH  11  15
HETATM   15  N3  UNL     1      -6.637  -0.541  -2.316  1.00  0.00    -0.385 N 
ATOM     16  H32 UNL     1      -7.174   0.181  -2.797  1.00  0.00     0.157 HD
ATOM     17  H31 UNL     1      -6.948  -1.512  -2.340  1.00  0.00     0.157 HD
ENDBRANCH  11  15
ENDBRANCH   4   8
BRANCH   1  18
HETATM   18  C6  UNL     1       0.840   0.060   2.419  1.00  0.00     0.206 C 
BRANCH  18  19
HETATM   19  C5  UNL     1       1.962  -0.420   1.568  1.00  0.00    -0.038 A 
HETATM   20  C4  UNL     1       1.940  -1.692   1.020  1.00  0.00     0.011 A 
HETATM   21  C3  UNL     1       3.010  -2.072   0.248  1.00  0.00     0.037 A 
HETATM   22  C2  UNL     1       4.089  -1.266  -0.004  1.00  0.00     0.068 A 
HETATM   23  C15 UNL     1       4.061  -0.012   0.565  1.00  0.00     0.037 A 
HETATM   24  C14 UNL     1       3.018   0.420   1.344  1.00  0.00     0.011 A 
BRANCH  22  25
HETATM   25  O1  UNL     1       5.129  -1.728  -0.794  1.00  0.00    -0.356 OA
HETATM   26  C1  UNL     1       6.222  -0.866  -1.030  1.00  0.00     0.210 C 
ENDBRANCH  22  25
ENDBRANCH  18  19
ENDBRANCH   1  18
BRANCH   7  27
HETATM   27  N6  UNL     1       0.372   2.946   1.617  1.00  0.00    -0.233 N 
ATOM     28  H62 UNL     1       1.224   2.917   2.177  1.00  0.00     0.174 HD
ATOM     29  H61 UNL     1       0.256   3.927   1.362  1.00  0.00     0.174 HD
ENDBRANCH   7  27
TORSDOF 6
