REMARK  5 active torsions:
REMARK  status: ('A' for Active; 'I' for Inactive)
REMARK    1  A    between atoms: C3_3  and  C4_4 
REMARK    2  A    between atoms: C5_5  and  C6_6 
REMARK    3  A    between atoms: C9_15  and  N3_16 
REMARK    4  A    between atoms: N3_16  and  N4_18 
REMARK    5  A    between atoms: N4_18  and  C10_20 
ROOT
HETATM    1  C6  UNL     1       0.967  -0.746   0.517  1.00  0.00     0.070 A 
HETATM    2  N1  UNL     1       1.590  -1.791  -0.053  1.00  0.00    -0.306 N 
ATOM      3  H1  UNL     1       2.532  -1.674  -0.426  1.00  0.00     0.171 HD
HETATM    4  C7  UNL     1       0.987  -2.986  -0.137  1.00  0.00     0.327 A 
HETATM    5  O1  UNL     1       1.593  -3.959  -0.679  1.00  0.00    -0.247 OA
HETATM    6  N2  UNL     1      -0.252  -3.155   0.350  1.00  0.00    -0.273 N 
ATOM      7  H2  UNL     1      -0.703  -4.067   0.283  1.00  0.00     0.173 HD
HETATM    8  C8  UNL     1      -0.909  -2.119   0.932  1.00  0.00     0.279 A 
HETATM    9  O2  UNL     1      -2.061  -2.384   1.353  1.00  0.00    -0.265 OA
HETATM   10  C9  UNL     1      -0.326  -0.885   1.034  1.00  0.00     0.143 A 
ENDROOT
BRANCH  10  11
HETATM   11  N3  UNL     1      -0.990   0.175   1.628  1.00  0.00    -0.293 N 
ATOM     12  H3  UNL     1      -0.607   0.455   2.531  1.00  0.00     0.187 HD
BRANCH  11  13
HETATM   13  N4  UNL     1      -1.962   0.842   1.262  1.00  0.00    -0.293 N 
ATOM     14  H4  UNL     1      -2.251   1.580   1.904  1.00  0.00     0.187 HD
BRANCH  13  15
HETATM   15  C10 UNL     1      -2.731   0.732   0.085  1.00  0.00     0.141 A 
HETATM   16  C11 UNL     1      -4.057   0.367   0.058  1.00  0.00     0.055 A 
HETATM   17  C12 UNL     1      -4.947   0.017   1.208  1.00  0.00     0.072 C 
HETATM   18  N5  UNL     1      -4.435   0.377  -1.221  1.00  0.00    -0.300 N 
HETATM   19  N6  UNL     1      -3.417   0.728  -1.986  1.00  0.00    -0.264 N 
ATOM     20  H5  UNL     1      -5.370   0.148  -1.558  1.00  0.00     0.186 HD
HETATM   21  C13 UNL     1      -2.346   0.955  -1.216  1.00  0.00     0.289 A 
ATOM     22  H6  UNL     1      -3.443   0.813  -3.002  1.00  0.00     0.190 HD
HETATM   23  O3  UNL     1      -1.177   1.314  -1.595  1.00  0.00    -0.264 OA
ENDBRANCH  13  15
ENDBRANCH  11  13
ENDBRANCH  10  11
BRANCH   1  24
HETATM   24  C5  UNL     1       1.619   0.547   0.610  1.00  0.00     0.032 C 
HETATM   25  C4  UNL     1       2.827   0.792   0.162  1.00  0.00     0.002 C 
BRANCH  25  26
HETATM   26  C3  UNL     1       3.408   2.125   0.297  1.00  0.00    -0.004 C 
HETATM   27  C2  UNL     1       4.624   2.359  -0.158  1.00  0.00    -0.031 C 
HETATM   28  C1  UNL     1       5.376   1.265  -0.797  1.00  0.00     0.036 C 
ENDBRANCH  25  26
ENDBRANCH   1  24
TORSDOF 5
