REMARK  6 active torsions:
REMARK  status: ('A' for Active; 'I' for Inactive)
REMARK    1  A    between atoms: C2_2  and  C3_3 
REMARK    2  A    between atoms: C2_2  and  N2_8 
REMARK    3  A    between atoms: C3_3  and  N1_4 
REMARK    4  A    between atoms: N2_8  and  C4_10 
REMARK    5  A    between atoms: C7_17  and  N5_18 
REMARK    6  A    between atoms: N7_24  and  C11_26 
ROOT
HETATM    1  C4  UNL     1       1.982   0.626  -1.286  1.00  0.00     0.133 A 
HETATM    2  N3  UNL     1       2.631   1.538  -2.084  1.00  0.00    -0.337 N 
ATOM      3  H3  UNL     1       3.447   2.015  -1.700  1.00  0.00     0.168 HD
HETATM    4  C5  UNL     1       2.263   1.833  -3.315  1.00  0.00     0.182 A 
HETATM    5  N4  UNL     1       1.191   1.236  -3.875  1.00  0.00    -0.360 N 
ATOM      6  H4  UNL     1       0.903   1.463  -4.827  1.00  0.00     0.166 HD
HETATM    7  C6  UNL     1       0.520   0.344  -3.154  1.00  0.00     0.124 A 
HETATM    8  C7  UNL     1       0.895   0.013  -1.841  1.00  0.00     0.117 A 
ENDROOT
BRANCH   8   9
HETATM    9  N5  UNL     1       0.105  -0.963  -1.144  1.00  0.00    -0.235 N 
HETATM   10  N6  UNL     1       0.388  -2.246  -1.014  1.00  0.00    -0.303 N 
HETATM   11  C8  UNL     1      -0.587  -2.861  -0.311  1.00  0.00     0.111 A 
ATOM     12  H6  UNL     1       1.219  -2.704  -1.389  1.00  0.00     0.186 HD
HETATM   13  C9  UNL     1      -1.537  -1.926   0.024  1.00  0.00     0.069 A 
HETATM   14  C10 UNL     1      -1.070  -0.727  -0.520  1.00  0.00     0.129 A 
HETATM   15  N7  UNL     1      -1.659   0.414  -0.440  1.00  0.00    -0.341 N 
ATOM     16  H7  UNL     1      -1.238   1.237  -0.871  1.00  0.00     0.167 HD
BRANCH  15  17
HETATM   17  C11 UNL     1      -2.899   0.527   0.251  1.00  0.00     0.033 A 
HETATM   18  C12 UNL     1      -2.904   0.662   1.629  1.00  0.00     0.029 A 
HETATM   19  C13 UNL     1      -4.105   0.775   2.336  1.00  0.00     0.002 A 
HETATM   20  C14 UNL     1      -5.315   0.755   1.683  1.00  0.00     0.000 A 
HETATM   21  C15 UNL     1      -5.294   0.619   0.310  1.00  0.00     0.002 A 
HETATM   22  C16 UNL     1      -4.115   0.507  -0.398  1.00  0.00     0.029 A 
ENDBRANCH  15  17
ENDBRANCH   8   9
BRANCH   1  23
HETATM   23  N2  UNL     1       2.405   0.431  -0.173  1.00  0.00    -0.368 N 
ATOM     24  H2  UNL     1       3.208   1.058  -0.121  1.00  0.00     0.161 HD
BRANCH  23  25
HETATM   25  C2  UNL     1       2.402  -0.159   1.042  1.00  0.00     0.104 C 
HETATM   26  C1  UNL     1       3.409  -1.326   1.064  1.00  0.00     0.034 C 
BRANCH  25  27
HETATM   27  C3  UNL     1       2.729   0.718   2.241  1.00  0.00     0.254 C 
BRANCH  27  28
HETATM   28  N1  UNL     1       4.047   1.245   2.217  1.00  0.00    -0.077 N 
ATOM     29  H13 UNL     1       4.733   0.496   2.120  1.00  0.00     0.274 HD
ATOM     30  H12 UNL     1       4.219   1.747   1.346  1.00  0.00     0.274 HD
ATOM     31  H11 UNL     1       4.266   1.833   3.021  1.00  0.00     0.274 HD
ENDBRANCH  27  28
ENDBRANCH  25  27
ENDBRANCH  23  25
ENDBRANCH   1  23
TORSDOF 6
