REMARK  5 active torsions:
REMARK  status: ('A' for Active; 'I' for Inactive)
REMARK    1  A    between atoms: C2_2  and  C3_3 
REMARK    2  A    between atoms: C4_4  and  C5_5 
REMARK    3  A    between atoms: C5_5  and  N1_6 
REMARK    4  A    between atoms: N1_6  and  C6_8 
REMARK    5  A    between atoms: N5_19  and  C10_20 
ROOT
HETATM    1  C6  UNL     1       0.778  -1.429   0.069  1.00  0.00     0.681 A 
HETATM    2  N2  UNL     1       0.619  -2.733   0.365  1.00  0.00    -0.175 N 
ATOM      3  H2  UNL     1       1.420  -3.322   0.591  1.00  0.00     0.186 HD
HETATM    4  C7  UNL     1      -0.632  -3.236   0.353  1.00  0.00     0.145 A 
HETATM    5  N3  UNL     1      -0.760  -4.505   0.644  1.00  0.00    -0.383 N 
ATOM      6  H31 UNL     1      -1.706  -4.885   0.635  1.00  0.00     0.157 HD
ATOM      7  H32 UNL     1       0.056  -5.075   0.867  1.00  0.00     0.157 HD
HETATM    8  C8  UNL     1      -1.732  -2.468   0.053  1.00  0.00     0.123 A 
HETATM    9  N4  UNL     1      -3.029  -2.720  -0.023  1.00  0.00    -0.346 N 
ATOM     10  H4  UNL     1      -3.475  -3.621   0.147  1.00  0.00     0.167 HD
HETATM   11  C9  UNL     1      -3.663  -1.567  -0.367  1.00  0.00     0.191 A 
HETATM   12  N5  UNL     1      -2.766  -0.574  -0.510  1.00  0.00    -0.291 N 
HETATM   13  C17 UNL     1      -1.556  -1.136  -0.247  1.00  0.00     0.159 A 
HETATM   14  N6  UNL     1      -0.308  -0.653  -0.231  1.00  0.00    -0.174 N 
ATOM     15  H6  UNL     1      -0.161   0.332  -0.451  1.00  0.00     0.186 HD
ENDROOT
BRANCH   1  16
HETATM   16  N1  UNL     1       1.952  -0.899   0.066  1.00  0.00    -0.223 N 
ATOM     17  H1  UNL     1       2.076   0.088  -0.158  1.00  0.00     0.178 HD
BRANCH  16  18
HETATM   18  C5  UNL     1       3.088  -1.729   0.385  1.00  0.00     0.165 C 
BRANCH  18  19
HETATM   19  C4  UNL     1       4.360  -1.008   0.368  1.00  0.00    -0.007 C 
HETATM   20  C3  UNL     1       5.131  -0.922   1.439  1.00  0.00    -0.003 C 
BRANCH  20  21
HETATM   21  C2  UNL     1       6.392  -0.206   1.417  1.00  0.00    -0.011 C 
HETATM   22  C1  UNL     1       7.120  -0.152   2.513  1.00  0.00     0.011 C 
ENDBRANCH  20  21
ENDBRANCH  18  19
ENDBRANCH  16  18
ENDBRANCH   1  16
BRANCH  12  23
HETATM   23  C10 UNL     1      -2.983   0.789  -0.859  1.00  0.00     0.042 A 
HETATM   24  C11 UNL     1      -3.759   1.138  -1.947  1.00  0.00     0.030 A 
HETATM   25  C12 UNL     1      -3.992   2.444  -2.318  1.00  0.00     0.009 A 
HETATM   26  C13 UNL     1      -3.431   3.459  -1.577  1.00  0.00    -0.062 A 
HETATM   27  C14 UNL     1      -3.689   4.881  -1.986  1.00  0.00     0.048 C 
HETATM   28  C15 UNL     1      -2.647   3.156  -0.480  1.00  0.00     0.009 A 
HETATM   29  C16 UNL     1      -2.428   1.832  -0.128  1.00  0.00     0.030 A 
ENDBRANCH  12  23
TORSDOF 5
