REMARK  6 active torsions:
REMARK  status: ('A' for Active; 'I' for Inactive)
REMARK    1  A    between atoms: N1_1  and  C1_4 
REMARK    2  A    between atoms: C2_7  and  N3_8 
REMARK    3  A    between atoms: N3_8  and  C3_10 
REMARK    4  A    between atoms: C3_10  and  C4_11 
REMARK    5  A    between atoms: C7_22  and  S1_23 
REMARK    6  A    between atoms: S1_23  and  C8_24 
ROOT
HETATM    1  C1  UNL     1       0.461   0.999   0.998  1.00  0.00     0.133 A 
HETATM    2  N2  UNL     1       1.526   0.204   0.809  1.00  0.00    -0.176 N 
ATOM      3  H2  UNL     1       2.442   0.540   1.107  1.00  0.00     0.186 HD
HETATM    4  C2  UNL     1       1.442  -1.015   0.245  1.00  0.00     0.679 A 
HETATM    5  N7  UNL     1       0.233  -1.456  -0.146  1.00  0.00    -0.201 N 
ATOM      6  H7  UNL     1       0.147  -2.377  -0.575  1.00  0.00     0.183 HD
HETATM    7  C6  UNL     1      -0.877  -0.687   0.024  1.00  0.00     0.128 A 
HETATM    8  C7  UNL     1      -0.780   0.550   0.598  1.00  0.00     0.065 A 
ENDROOT
BRANCH   4   9
HETATM    9  N3  UNL     1       2.456  -1.762   0.070  1.00  0.00    -0.220 N 
ATOM     10  H3  UNL     1       2.288  -2.669  -0.365  1.00  0.00     0.178 HD
BRANCH   9  11
HETATM   11  C3  UNL     1       3.803  -1.459   0.421  1.00  0.00     0.198 C 
BRANCH  11  12
HETATM   12  C4  UNL     1       4.439  -0.477  -0.488  1.00  0.00     0.062 A 
HETATM   13  C5  UNL     1       5.740  -0.028  -0.349  1.00  0.00     0.136 A 
HETATM   14  N4  UNL     1       6.006   0.852  -1.330  1.00  0.00    -0.296 N 
HETATM   15  N5  UNL     1       4.898   0.934  -2.044  1.00  0.00    -0.243 N 
ATOM     16  H4  UNL     1       6.881   1.352  -1.489  1.00  0.00     0.187 HD
HETATM   17  N6  UNL     1       3.953   0.156  -1.566  1.00  0.00    -0.287 N 
ATOM     18  H5  UNL     1       4.789   1.528  -2.866  1.00  0.00     0.208 HD
ATOM     19  H6  UNL     1       3.013   0.052  -1.948  1.00  0.00     0.188 HD
ENDBRANCH  11  12
ENDBRANCH   9  11
ENDBRANCH   4   9
BRANCH   1  20
HETATM   20  N1  UNL     1       0.580   2.160   1.541  1.00  0.00    -0.384 N 
ATOM     21  H12 UNL     1       1.498   2.492   1.837  1.00  0.00     0.157 HD
ATOM     22  H11 UNL     1      -0.229   2.764   1.685  1.00  0.00     0.157 HD
ENDBRANCH   1  20
BRANCH   8  23
HETATM   23  S1  UNL     1      -2.184   1.628   0.860  1.00  0.00    -0.085 SA
BRANCH  23  24
HETATM   24  C8  UNL     1      -3.684   0.881   0.284  1.00  0.00     0.005 A 
HETATM   25  C9  UNL     1      -4.453   0.106   1.110  1.00  0.00     0.019 A 
HETATM   26  C10 UNL     1      -5.634  -0.479   0.649  1.00  0.00     0.001 A 
HETATM   27  C11 UNL     1      -6.029  -0.271  -0.657  1.00  0.00     0.000 A 
HETATM   28  C12 UNL     1      -5.245   0.521  -1.503  1.00  0.00     0.001 A 
HETATM   29  C13 UNL     1      -4.082   1.083  -1.009  1.00  0.00     0.019 A 
ENDBRANCH  23  24
ENDBRANCH   8  23
TORSDOF 6
