REMARK  7 active torsions:
REMARK  status: ('A' for Active; 'I' for Inactive)
REMARK    1  A    between atoms: C2_2  and  N1_3 
REMARK       I    between atoms: N1_3  and  C3_4 
REMARK    2  A    between atoms: N1_3  and  C9_11 
REMARK    3  A    between atoms: C3_4  and  C4_6 
REMARK    4  A    between atoms: C12_14  and  N2_15 
REMARK       I    between atoms: N2_15  and  C13_17 
REMARK       I    between atoms: C13_17  and  N3_19 
REMARK    5  A    between atoms: N3_19  and  C14_21 
REMARK    6  A    between atoms: C14_21  and  C15_22 
REMARK    7  A    between atoms: C15_22  and  C16_23 
ROOT
HETATM    1  N2  UNL     1       0.157   0.287   0.168  1.00  0.00    -0.339 N 
ATOM      2  H2  UNL     1       0.321  -0.704   0.343  1.00  0.00     0.164 HD
HETATM    3  C13 UNL     1      -1.177   0.738   0.065  1.00  0.00     0.316 C 
HETATM    4  O2  UNL     1      -1.466   1.956  -0.151  1.00  0.00    -0.247 OA
HETATM    5  N3  UNL     1      -2.236  -0.176   0.204  1.00  0.00    -0.343 N 
ATOM      6  H3  UNL     1      -2.042  -1.162   0.378  1.00  0.00     0.164 HD
ENDROOT
BRANCH   1   7
HETATM    7  C12 UNL     1       1.303   1.160   0.038  1.00  0.00     0.086 C 
HETATM    8  C11 UNL     1       2.147   1.276   1.256  1.00  0.00     0.027 C 
HETATM    9  C10 UNL     1       3.051   0.131   1.529  1.00  0.00     0.027 C 
HETATM   10  C9  UNL     1       3.298  -0.819   0.410  1.00  0.00     0.087 C 
HETATM   11  C26 UNL     1       3.086  -0.319  -0.971  1.00  0.00     0.027 C 
HETATM   12  C25 UNL     1       2.141   0.815  -1.138  1.00  0.00     0.027 C 
BRANCH  10  13
HETATM   13  N1  UNL     1       4.611  -1.423   0.497  1.00  0.00    -0.347 N 
HETATM   14  C3  UNL     1       5.806  -0.702   0.369  1.00  0.00     0.225 C 
HETATM   15  O1  UNL     1       6.894  -1.391   0.483  1.00  0.00    -0.273 OA
BRANCH  13  16
HETATM   16  C2  UNL     1       4.685  -2.856   0.735  1.00  0.00     0.122 C 
HETATM   17  C1  UNL     1       4.705  -3.635  -0.561  1.00  0.00     0.026 C 
ENDBRANCH  13  16
BRANCH  14  18
HETATM   18  C4  UNL     1       5.931   0.761   0.117  1.00  0.00     0.086 A 
HETATM   19  C5  UNL     1       6.963   1.411   1.042  1.00  0.00     0.024 A 
HETATM   20  C6  UNL     1       7.188   1.337  -0.417  1.00  0.00    -0.035 A 
HETATM   21  C7  UNL     1       7.008   2.690  -1.124  1.00  0.00     0.015 C 
HETATM   22  C8  UNL     1       8.227   0.452  -1.021  1.00  0.00     0.015 C 
ENDBRANCH  14  18
ENDBRANCH  10  13
ENDBRANCH   1   7
BRANCH   5  23
HETATM   23  C14 UNL     1      -3.599   0.287   0.100  1.00  0.00     0.125 C 
BRANCH  23  24
HETATM   24  C15 UNL     1      -4.539  -0.854   0.281  1.00  0.00     0.029 C 
BRANCH  24  25
HETATM   25  C16 UNL     1      -5.966  -0.427   0.179  1.00  0.00    -0.035 C 
HETATM   26  C17 UNL     1      -6.921  -1.616   0.364  1.00  0.00     0.014 C 
HETATM   27  C18 UNL     1      -8.147  -1.065  -0.377  1.00  0.00    -0.013 C 
HETATM   28  C19 UNL     1      -8.650   0.108   0.402  1.00  0.00     0.009 C 
HETATM   29  C23 UNL     1      -7.486  -0.648  -1.690  1.00  0.00     0.010 C 
HETATM   30  C20 UNL     1      -7.608   1.178   0.566  1.00  0.00    -0.013 C 
HETATM   31  C21 UNL     1      -6.976   1.547  -0.784  1.00  0.00     0.010 C 
HETATM   32  C24 UNL     1      -6.376   0.561   1.248  1.00  0.00     0.014 C 
HETATM   33  C22 UNL     1      -6.332   0.199  -1.136  1.00  0.00    -0.005 C 
ENDBRANCH  24  25
ENDBRANCH  23  24
ENDBRANCH   5  23
TORSDOF 7
