REMARK  9 active torsions:
REMARK  status: ('A' for Active; 'I' for Inactive)
REMARK    1  A    between atoms: C2_2  and  C4_4 
REMARK    2  A    between atoms: C9_10  and  C10_11 
REMARK    3  A    between atoms: C10_11  and  N2_12 
REMARK    4  A    between atoms: C10_11  and  C16_25 
REMARK    5  A    between atoms: N2_12  and  C11_14 
REMARK    6  A    between atoms: C11_14  and  N3_16 
REMARK    7  A    between atoms: N3_16  and  C12_18 
REMARK    8  A    between atoms: C16_25  and  C17_26 
REMARK    9  A    between atoms: C16_25  and  C19_28 
ROOT
HETATM    1  C10 UNL     1       1.562  -0.800   0.936  1.00  0.00     0.093 C 
ENDROOT
BRANCH   1   2
HETATM    2  C9  UNL     1       0.086  -0.773   0.986  1.00  0.00     0.035 C 
HETATM    3  C8  UNL     1      -0.486  -1.287   2.299  1.00  0.00     0.010 C 
HETATM    4  C7  UNL     1      -1.614  -0.348   2.715  1.00  0.00     0.028 C 
HETATM    5  C6  UNL     1      -2.538  -0.286   1.518  1.00  0.00     0.237 C 
HETATM    6  N1  UNL     1      -1.914   0.578   0.537  1.00  0.00    -0.066 N 
HETATM    7  C5  UNL     1      -2.366   0.197  -0.761  1.00  0.00     0.246 C 
HETATM    8  C21 UNL     1      -0.470   0.613   0.682  1.00  0.00     0.244 C 
HETATM    9  C22 UNL     1      -2.405   1.927   0.704  1.00  0.00     0.242 C 
HETATM   10  C4  UNL     1      -3.812   0.712  -0.750  1.00  0.00     0.044 C 
HETATM   11  C23 UNL     1      -3.586   2.101  -0.248  1.00  0.00     0.017 C 
HETATM   12  C24 UNL     1      -4.786   2.703   0.402  1.00  0.00     0.012 C 
BRANCH  10  13
HETATM   13  C2  UNL     1      -4.472   0.663  -2.048  1.00  0.00    -0.087 C 
HETATM   14  C1  UNL     1      -4.857   1.746  -2.700  1.00  0.00     0.014 C 
HETATM   15  C3  UNL     1      -4.745  -0.653  -2.736  1.00  0.00     0.043 C 
ENDBRANCH  10  13
ENDBRANCH   1   2
BRANCH   1  16
HETATM   16  N2  UNL     1       2.213  -0.002   1.968  1.00  0.00    -0.362 N 
ATOM     17  H2  UNL     1       2.365  -0.472   2.860  1.00  0.00     0.162 HD
BRANCH  16  18
HETATM   18  C11 UNL     1       2.650   1.303   1.898  1.00  0.00     0.175 C 
HETATM   19  S1  UNL     1       3.334   2.019   3.195  1.00  0.00    -0.041 SA
BRANCH  18  20
HETATM   20  N3  UNL     1       2.535   2.085   0.725  1.00  0.00    -0.299 N 
ATOM     21  H3  UNL     1       1.673   2.606   0.565  1.00  0.00     0.171 HD
BRANCH  20  22
HETATM   22  C12 UNL     1       3.483   2.164  -0.152  1.00  0.00     0.230 A 
HETATM   23  N4  UNL     1       4.653   1.516  -0.030  1.00  0.00    -0.330 N 
HETATM   24  C13 UNL     1       5.410   1.818  -1.117  1.00  0.00     0.124 A 
ATOM     25  H4  UNL     1       4.925   0.906   0.741  1.00  0.00     0.168 HD
HETATM   26  C14 UNL     1       4.651   2.666  -1.886  1.00  0.00     0.068 A 
HETATM   27  C15 UNL     1       5.154   3.220  -3.177  1.00  0.00     0.078 C 
HETATM   28  O1  UNL     1       3.525   2.833  -1.266  1.00  0.00    -0.283 OA
ENDBRANCH  20  22
ENDBRANCH  18  20
ENDBRANCH  16  18
ENDBRANCH   1  16
BRANCH   1  29
HETATM   29  C16 UNL     1       2.243  -2.126   0.751  1.00  0.00     0.008 C 
BRANCH  29  30
HETATM   30  C17 UNL     1       1.963  -3.151   1.803  1.00  0.00     0.002 C 
HETATM   31  C18 UNL     1       2.770  -4.407   1.431  1.00  0.00     0.005 C 
ENDBRANCH  29  30
BRANCH  29  32
HETATM   32  C19 UNL     1       2.315  -2.627  -0.646  1.00  0.00     0.002 C 
HETATM   33  C20 UNL     1       1.080  -2.876  -1.391  1.00  0.00     0.005 C 
ENDBRANCH  29  32
ENDBRANCH   1  29
TORSDOF 9
