REMARK  8 active torsions:
REMARK  status: ('A' for Active; 'I' for Inactive)
REMARK    1  A    between atoms: C14_14  and  C16_16 
REMARK    2  A    between atoms: C16_16  and  N1_18 
REMARK       I    between atoms: N1_18  and  C18_20 
REMARK    3  A    between atoms: C18_20  and  C19_22 
REMARK    4  A    between atoms: C19_22  and  C20_23 
REMARK    5  A    between atoms: C23_26  and  N2_27 
REMARK    6  A    between atoms: N2_27  and  C26_30 
REMARK    7  A    between atoms: C26_30  and  C27_31 
REMARK    8  A    between atoms: C27_31  and  O2_32 
ROOT
HETATM    1  C1  UNL     1      -4.723  -1.713   0.325  1.00  0.00     0.014 C 
HETATM    2  C2  UNL     1      -3.589  -2.339   0.286  1.00  0.00    -0.084 C 
HETATM    3  C3  UNL     1      -3.456  -3.845   0.272  1.00  0.00     0.034 C 
HETATM    4  C4  UNL     1      -2.542  -3.945  -0.961  1.00  0.00     0.010 C 
HETATM    5  C5  UNL     1      -1.566  -2.779  -0.781  1.00  0.00     0.003 C 
HETATM    6  C6  UNL     1      -2.169  -1.889   0.245  1.00  0.00     0.025 C 
HETATM    7  C7  UNL     1      -2.087  -0.457   0.083  1.00  0.00     0.025 C 
HETATM    8  C8  UNL     1      -2.133  -0.104  -1.380  1.00  0.00     0.013 C 
HETATM    9  C9  UNL     1      -1.160  -0.744  -2.247  1.00  0.00    -0.000 C 
HETATM   10  C10 UNL     1       0.251  -0.648  -2.097  1.00  0.00     0.005 C 
HETATM   11  C11 UNL     1       0.332  -2.173  -2.294  1.00  0.00     0.016 C 
HETATM   12  C12 UNL     1      -1.185  -2.237  -2.081  1.00  0.00    -0.035 C 
HETATM   13  C13 UNL     1      -1.777  -2.997  -3.274  1.00  0.00     0.016 C 
HETATM   14  C14 UNL     1       0.972  -0.152  -0.906  1.00  0.00     0.000 C 
HETATM   15  C15 UNL     1       2.174  -1.122  -0.771  1.00  0.00     0.022 C 
HETATM   16  C22 UNL     1       0.325  -0.266   0.417  1.00  0.00     0.049 C 
HETATM   17  C23 UNL     1      -0.966   0.329   0.700  1.00  0.00     0.195 C 
ENDROOT
BRANCH  14  18
HETATM   18  C16 UNL     1       1.674   1.155  -1.197  1.00  0.00    -0.006 C 
HETATM   19  C17 UNL     1       0.814   2.308  -1.597  1.00  0.00     0.064 C 
BRANCH  18  20
HETATM   20  N1  UNL     1       2.692   1.535  -0.286  1.00  0.00    -0.334 N 
HETATM   21  C18 UNL     1       3.973   1.938  -0.763  1.00  0.00     0.221 C 
HETATM   22  O1  UNL     1       4.145   1.951  -2.002  1.00  0.00    -0.273 OA
ATOM     23  H1  UNL     1       2.506   1.520   0.717  1.00  0.00     0.168 HD
BRANCH  21  24
HETATM   24  C19 UNL     1       5.065   2.330   0.151  1.00  0.00     0.103 C 
BRANCH  24  25
HETATM   25  C20 UNL     1       6.156   3.100  -0.547  1.00  0.00     0.005 C 
HETATM   26  C21 UNL     1       7.272   3.475   0.384  1.00  0.00     0.005 C 
ENDBRANCH  24  25
ENDBRANCH  21  24
ENDBRANCH  18  20
ENDBRANCH  14  18
BRANCH  17  27
HETATM   27  N2  UNL     1      -1.190   0.692   2.080  1.00  0.00    -0.068 N 
HETATM   28  C24 UNL     1      -0.272   1.751   2.429  1.00  0.00     0.272 C 
HETATM   29  C25 UNL     1      -0.992  -0.359   3.014  1.00  0.00     0.272 C 
BRANCH  27  30
HETATM   30  C26 UNL     1      -2.540   1.193   2.258  1.00  0.00     0.262 C 
BRANCH  30  31
HETATM   31  C27 UNL     1      -2.679   2.119   3.445  1.00  0.00     0.192 C 
BRANCH  31  32
HETATM   32  O2  UNL     1      -4.038   2.538   3.524  1.00  0.00    -0.399 OA
ATOM     33  H2  UNL     1      -4.125   3.120   4.270  1.00  0.00     0.209 HD
ENDBRANCH  31  32
ENDBRANCH  30  31
ENDBRANCH  27  30
ENDBRANCH  17  27
TORSDOF 8
