REMARK  6 active torsions:
REMARK  status: ('A' for Active; 'I' for Inactive)
REMARK    1  A    between atoms: C2_2  and  C3_3 
REMARK    2  A    between atoms: C3_3  and  N1_4 
REMARK       I    between atoms: N1_4  and  C4_6 
REMARK       I    between atoms: C4_6  and  N2_8 
REMARK    3  A    between atoms: N2_8  and  C5_10 
REMARK       I    between atoms: N3_24  and  C19_25 
REMARK    4  A    between atoms: C19_25  and  C20_27 
REMARK    5  A    between atoms: C20_27  and  C21_28 
REMARK    6  A    between atoms: C21_28  and  C22_29 
ROOT
HETATM    1  C5  UNL     1      -1.290   0.070   0.032  1.00  0.00     0.002 C 
HETATM    2  C6  UNL     1      -0.853  -0.353   1.386  1.00  0.00     0.059 C 
HETATM    3  C7  UNL     1      -0.320  -1.746   1.415  1.00  0.00     0.006 C 
HETATM    4  C8  UNL     1       0.878  -1.926   0.489  1.00  0.00     0.021 C 
HETATM    5  C9  UNL     1       0.687  -3.330   0.054  1.00  0.00     0.021 C 
HETATM    6  C10 UNL     1      -0.847  -3.382  -0.194  1.00  0.00    -0.019 C 
HETATM    7  C11 UNL     1      -1.208  -4.867  -0.396  1.00  0.00     0.020 C 
HETATM    8  C12 UNL     1      -1.164  -2.650  -1.407  1.00  0.00    -0.020 C 
HETATM    9  C13 UNL     1      -0.974  -1.420  -1.830  1.00  0.00    -0.017 C 
HETATM   10  C14 UNL     1      -0.284  -0.317  -1.029  1.00  0.00     0.082 C 
HETATM   11  C15 UNL     1       1.019  -0.878  -0.565  1.00  0.00     0.051 C 
HETATM   12  C16 UNL     1       1.667  -1.497  -1.819  1.00  0.00     0.034 C 
HETATM   13  C17 UNL     1       3.044  -1.798  -1.356  1.00  0.00     0.022 C 
HETATM   14  C18 UNL     1       3.278  -0.800  -0.254  1.00  0.00     0.127 C 
HETATM   15  N3  UNL     1       2.077   0.081  -0.324  1.00  0.00    -0.341 N 
HETATM   16  C19 UNL     1       2.245   1.455  -0.213  1.00  0.00     0.220 C 
HETATM   17  O2  UNL     1       1.358   2.285  -0.357  1.00  0.00    -0.273 OA
HETATM   18  C24 UNL     1      -1.274  -2.856   1.129  1.00  0.00    -0.033 C 
HETATM   19  C25 UNL     1      -0.957  -3.979   2.156  1.00  0.00     0.016 C 
HETATM   20  C26 UNL     1      -2.719  -2.603   1.272  1.00  0.00     0.016 C 
ENDROOT
BRANCH   1  21
HETATM   21  N2  UNL     1      -1.856   1.372  -0.042  1.00  0.00    -0.316 N 
HETATM   22  C4  UNL     1      -3.153   1.614  -0.555  1.00  0.00     0.320 C 
HETATM   23  N1  UNL     1      -3.721   2.915  -0.630  1.00  0.00    -0.339 N 
HETATM   24  O1  UNL     1      -3.821   0.634  -0.959  1.00  0.00    -0.247 OA
ATOM     25  H1  UNL     1      -3.181   3.716  -0.303  1.00  0.00     0.164 HD
ATOM     26  H2  UNL     1      -1.305   2.164   0.288  1.00  0.00     0.170 HD
BRANCH  23  27
HETATM   27  C3  UNL     1      -5.057   3.126  -1.163  1.00  0.00     0.150 C 
BRANCH  27  28
HETATM   28  C2  UNL     1      -5.447   4.545  -1.148  1.00  0.00    -0.018 C 
HETATM   29  C1  UNL     1      -6.505   4.955  -0.469  1.00  0.00     0.008 C 
ENDBRANCH  27  28
ENDBRANCH  23  27
ENDBRANCH   1  21
BRANCH  16  30
HETATM   30  C20 UNL     1       3.591   2.026   0.108  1.00  0.00     0.103 C 
BRANCH  30  31
HETATM   31  C21 UNL     1       3.531   3.513   0.199  1.00  0.00     0.009 C 
BRANCH  31  32
HETATM   32  C22 UNL     1       4.845   4.149   0.518  1.00  0.00    -0.004 C 
HETATM   33  C23 UNL     1       5.912   3.870  -0.490  1.00  0.00     0.005 C 
ENDBRANCH  31  32
ENDBRANCH  30  31
ENDBRANCH  16  30
TORSDOF 6
