REMARK  10 active torsions:
REMARK  status: ('A' for Active; 'I' for Inactive)
REMARK    1  A    between atoms: C2_2  and  N1_3 
REMARK    2  A    between atoms: N1_3  and  C3_5 
REMARK    3  A    between atoms: C3_5  and  N2_7 
REMARK    4  A    between atoms: N2_7  and  C4_8 
REMARK    5  A    between atoms: N2_7  and  C13_19 
REMARK    6  A    between atoms: C4_8  and  C5_9 
REMARK    7  A    between atoms: C5_9  and  C6_10 
REMARK    8  A    between atoms: C13_19  and  C14_20 
REMARK    9  A    between atoms: N4_23  and  C17_24 
REMARK   10  A    between atoms: C17_24  and  C18_25 
ROOT
HETATM    1  N2  UNL     1      -1.905   1.385  -1.477  1.00  0.00    -0.358 N 
ENDROOT
BRANCH   1   2
HETATM    2  C3  UNL     1      -1.965   2.800  -1.144  1.00  0.00     0.169 C 
HETATM    3  S1  UNL     1      -0.611   3.716  -1.426  1.00  0.00    -0.041 SA
BRANCH   2   4
HETATM    4  N1  UNL     1      -3.073   3.469  -0.636  1.00  0.00    -0.367 N 
ATOM      5  H1  UNL     1      -3.939   2.958  -0.466  1.00  0.00     0.161 HD
BRANCH   4   6
HETATM    6  C2  UNL     1      -3.004   4.888  -0.347  1.00  0.00     0.117 C 
HETATM    7  C1  UNL     1      -2.070   5.163   0.834  1.00  0.00     0.026 C 
ENDBRANCH   4   6
ENDBRANCH   2   4
ENDBRANCH   1   2
BRANCH   1   8
HETATM    8  C4  UNL     1      -3.088   0.622  -1.283  1.00  0.00     0.130 C 
BRANCH   8   9
HETATM    9  C5  UNL     1      -3.176  -0.359  -0.184  1.00  0.00     0.060 C 
BRANCH   9  10
HETATM   10  C6  UNL     1      -4.576  -0.951  -0.259  1.00  0.00    -0.033 A 
HETATM   11  C7  UNL     1      -5.592  -0.605  -1.115  1.00  0.00     0.096 A 
HETATM   12  N3  UNL     1      -6.661  -1.380  -0.831  1.00  0.00    -0.368 N 
HETATM   13  C8  UNL     1      -6.367  -2.215   0.181  1.00  0.00     0.015 A 
ATOM     14  H3  UNL     1      -7.559  -1.338  -1.313  1.00  0.00     0.165 HD
HETATM   15  C9  UNL     1      -5.070  -1.953   0.543  1.00  0.00    -0.028 A 
HETATM   16  C12 UNL     1      -6.916  -3.312   1.059  1.00  0.00     0.058 C 
HETATM   17  C10 UNL     1      -4.698  -2.870   1.668  1.00  0.00     0.041 C 
HETATM   18  C11 UNL     1      -6.041  -3.148   2.300  1.00  0.00     0.011 C 
ENDBRANCH   9  10
ENDBRANCH   8   9
ENDBRANCH   1   8
BRANCH   1  19
HETATM   19  C13 UNL     1      -0.694   0.821  -1.987  1.00  0.00     0.130 C 
BRANCH  19  20
HETATM   20  C14 UNL     1       0.088  -0.139  -1.168  1.00  0.00     0.010 C 
HETATM   21  C15 UNL     1       1.332  -0.607  -1.931  1.00  0.00     0.051 C 
HETATM   22  C16 UNL     1       2.629  -0.217  -1.287  1.00  0.00     0.063 C 
HETATM   23  N4  UNL     1       2.686  -0.556   0.058  1.00  0.00    -0.373 N 
HETATM   24  C24 UNL     1       1.509  -0.430   0.851  1.00  0.00     0.127 C 
HETATM   25  C25 UNL     1       0.472   0.457   0.150  1.00  0.00     0.027 C 
BRANCH  23  26
HETATM   26  C17 UNL     1       3.767  -1.169   0.674  1.00  0.00     0.067 C 
BRANCH  26  27
HETATM   27  C18 UNL     1       5.052  -0.402   0.852  1.00  0.00     0.024 C 
HETATM   28  C19 UNL     1       5.994  -1.343   1.591  1.00  0.00     0.010 C 
HETATM   29  C20 UNL     1       7.423  -0.907   1.559  1.00  0.00     0.001 C 
HETATM   30  C21 UNL     1       7.845  -0.746   0.103  1.00  0.00     0.000 C 
HETATM   31  C22 UNL     1       7.042   0.461  -0.400  1.00  0.00     0.001 C 
HETATM   32  C23 UNL     1       5.610  -0.038  -0.494  1.00  0.00     0.010 C 
ENDBRANCH  26  27
ENDBRANCH  23  26
ENDBRANCH  19  20
ENDBRANCH   1  19
TORSDOF 10
