REMARK  2 active torsions:
REMARK  status: ('A' for Active; 'I' for Inactive)
REMARK    1  A    between atoms: O1_2  and  C2_3 
REMARK    2  A    between atoms: C2_3  and  C3_5 
ROOT
HETATM    1  C3  UNL     1       1.181   0.954   1.224  1.00  0.00     0.118 C 
HETATM    2  C4  UNL     1       0.012   0.507   0.792  1.00  0.00     0.071 C 
HETATM    3  N1  UNL     1      -1.312   0.803   1.214  1.00  0.00    -0.383 N 
ATOM      4  H1  UNL     1      -1.582   1.696   1.625  1.00  0.00     0.160 HD
HETATM    5  C5  UNL     1      -2.226  -0.272   1.006  1.00  0.00     0.135 C 
HETATM    6  C6  UNL     1      -2.056  -0.772  -0.434  1.00  0.00     0.067 C 
HETATM    7  C7  UNL     1      -2.701   0.224  -1.336  1.00  0.00     0.023 C 
HETATM    8  S1  UNL     1      -0.222  -0.685  -0.549  1.00  0.00    -0.106 SA
ENDROOT
BRANCH   1   9
HETATM    9  C2  UNL     1       2.410   0.485   0.611  1.00  0.00     0.285 C 
HETATM   10  O2  UNL     1       3.518   0.904   1.015  1.00  0.00    -0.260 OA
BRANCH   9  11
HETATM   11  O1  UNL     1       2.403  -0.430  -0.429  1.00  0.00    -0.323 OA
HETATM   12  C1  UNL     1       3.608  -0.866  -1.003  1.00  0.00     0.213 C 
ENDBRANCH   9  11
ENDBRANCH   1   9
TORSDOF 2
