REMARK  1 active torsions:
REMARK  status: ('A' for Active; 'I' for Inactive)
REMARK    1  A    between atoms: C5_7  and  C6_8 
ROOT
HETATM    1  O1  UNL     1       0.218  -2.083  -0.161  1.00  0.00    -0.297 OA
HETATM    2  C1  UNL     1      -0.114  -0.933  -0.279  1.00  0.00     0.141 C 
HETATM    3  C2  UNL     1      -1.534  -0.602  -0.506  1.00  0.00     0.080 C 
HETATM    4  C3  UNL     1      -2.073  -0.015   0.782  1.00  0.00     0.018 C 
HETATM    5  C4  UNL     1      -1.451   1.345   1.016  1.00  0.00     0.075 C 
HETATM    6  S1  UNL     1       0.356   1.239   1.176  1.00  0.00    -0.156 SA
HETATM    7  C5  UNL     1       0.891   0.144  -0.199  1.00  0.00     0.126 C 
ENDROOT
BRANCH   7   8
HETATM    8  C6  UNL     1       2.232  -0.449   0.085  1.00  0.00     0.109 C 
HETATM    9  S2  UNL     1       3.526   0.817   0.198  1.00  0.00    -0.096 SA
ENDBRANCH   7   8
TORSDOF 1
