REMARK  1 active torsions:
REMARK  status: ('A' for Active; 'I' for Inactive)
REMARK    1  A    between atoms: C1_2  and  C2_4 
ROOT
HETATM    1  C2  UNL     1      -1.686   0.036  -0.362  1.00  0.00     0.110 C 
HETATM    2  C3  UNL     1      -0.486   0.333   0.079  1.00  0.00     0.043 C 
HETATM    3  S1  UNL     1       1.040  -0.408  -0.462  1.00  0.00    -0.122 SA
HETATM    4  C4  UNL     1       2.201  -0.012   0.815  1.00  0.00     0.090 C 
HETATM    5  C5  UNL     1       1.616   0.870   1.830  1.00  0.00     0.090 C 
HETATM    6  S2  UNL     1       0.050   1.511   1.304  1.00  0.00    -0.122 SA
ENDROOT
BRANCH   1   7
HETATM    7  C1  UNL     1      -1.857  -0.980  -1.384  1.00  0.00     0.200 C 
HETATM    8  O1  UNL     1      -0.857  -1.568  -1.839  1.00  0.00    -0.644 OA
HETATM    9  O2  UNL     1      -3.126  -1.326  -1.881  1.00  0.00    -0.644 OA
ENDBRANCH   1   7
TORSDOF 1
