REMARK  4 active torsions:
REMARK  status: ('A' for Active; 'I' for Inactive)
REMARK    1  A    between atoms: N1_7  and  C7_8 
REMARK    2  A    between atoms: C7_8  and  C8_9 
REMARK    3  A    between atoms: C8_9  and  N2_10 
REMARK    4  A    between atoms: N2_10  and  C9_13 
ROOT
HETATM    1  C8  UNL     1       0.438  -1.069  -1.360  1.00  0.00     0.277 C 
ENDROOT
BRANCH   1   2
HETATM    2  C7  UNL     1      -1.013  -1.370  -1.131  1.00  0.00     0.090 C 
BRANCH   2   3
HETATM    3  N1  UNL     1      -1.719  -0.524  -0.262  1.00  0.00    -0.368 N 
HETATM    4  C2  UNL     1      -2.015   0.791  -0.616  1.00  0.00     0.084 C 
HETATM    5  C1  UNL     1      -3.208   0.972  -1.524  1.00  0.00     0.033 C 
HETATM    6  C3  UNL     1      -2.285   1.605   0.635  1.00  0.00     0.025 C 
HETATM    7  C4  UNL     1      -3.407   1.042   1.429  1.00  0.00     0.007 C 
HETATM    8  C5  UNL     1      -3.547  -0.448   1.391  1.00  0.00     0.045 C 
HETATM    9  C6  UNL     1      -2.374  -1.157   0.799  1.00  0.00     0.063 C 
ENDBRANCH   2   3
ENDBRANCH   1   2
BRANCH   1  10
HETATM   10  N2  UNL     1       1.225  -1.129  -0.156  1.00  0.00    -0.065 N 
ATOM     11  H22 UNL     1       0.891  -0.478   0.554  1.00  0.00     0.278 HD
ATOM     12  H21 UNL     1       1.075  -1.997   0.359  1.00  0.00     0.278 HD
BRANCH  10  13
HETATM   13  C9  UNL     1       2.621  -0.919  -0.477  1.00  0.00     0.210 C 
HETATM   14  C10 UNL     1       3.512  -1.132   0.730  1.00  0.00     0.037 C 
HETATM   15  C11 UNL     1       3.949   0.158   1.358  1.00  0.00     0.028 C 
HETATM   16  C12 UNL     1       4.338   1.215   0.380  1.00  0.00     0.167 C 
HETATM   17  O1  UNL     1       4.252   0.734  -0.919  1.00  0.00    -0.389 OA
HETATM   18  C13 UNL     1       2.892   0.410  -1.132  1.00  0.00     0.200 C 
ENDBRANCH  10  13
ENDBRANCH   1  10
TORSDOF 4
