REMARK  4 active torsions:
REMARK  status: ('A' for Active; 'I' for Inactive)
REMARK    1  A    between atoms: C2_2  and  C3_3 
REMARK    2  A    between atoms: C3_3  and  N1_4 
REMARK    3  A    between atoms: N1_4  and  C4_6 
REMARK    4  A    between atoms: C7_9  and  C8_10 
ROOT
HETATM    1  C8  UNL     1      -2.230  -0.271  -1.807  1.00  0.00     0.135 C 
HETATM    2  C9  UNL     1      -3.229  -1.314  -1.807  1.00  0.00     0.059 C 
HETATM    3  N2  UNL     1      -4.045  -2.134  -1.806  1.00  0.00    -0.197 NA
ENDROOT
BRANCH   1   4
HETATM    4  C7  UNL     1      -1.922   0.250  -0.404  1.00  0.00     0.002 C 
HETATM    5  C6  UNL     1      -0.865   1.319  -0.533  1.00  0.00     0.014 C 
HETATM    6  C5  UNL     1       0.076   1.352   0.612  1.00  0.00     0.026 C 
HETATM    7  C4  UNL     1       0.732   0.040   0.978  1.00  0.00     0.082 C 
HETATM    8  C13 UNL     1       0.007  -1.148   0.430  1.00  0.00     0.058 C 
HETATM    9  C12 UNL     1      -1.488  -0.890   0.460  1.00  0.00     0.197 C 
HETATM   10  N3  UNL     1      -2.005  -0.656   1.781  1.00  0.00    -0.070 N 
HETATM   11  C11 UNL     1      -3.044   0.326   1.701  1.00  0.00     0.233 C 
ATOM     12  H32 UNL     1      -1.275  -0.398   2.445  1.00  0.00     0.277 HD
ATOM     13  H31 UNL     1      -2.314  -1.515   2.237  1.00  0.00     0.277 HD
HETATM   14  C10 UNL     1      -3.161   0.775   0.287  1.00  0.00     0.040 C 
BRANCH   7  15
HETATM   15  N1  UNL     1       2.124   0.019   0.645  1.00  0.00    -0.398 N 
ATOM     16  H1  UNL     1       2.837  -0.033   1.372  1.00  0.00     0.159 HD
BRANCH  15  17
HETATM   17  C3  UNL     1       2.480   0.073  -0.718  1.00  0.00     0.055 C 
BRANCH  17  18
HETATM   18  C2  UNL     1       3.973   0.311  -0.857  1.00  0.00     0.039 C 
HETATM   19  C1  UNL     1       4.758  -0.765  -0.173  1.00  0.00     0.010 C 
ENDBRANCH  17  18
ENDBRANCH  15  17
ENDBRANCH   7  15
ENDBRANCH   1   4
TORSDOF 4
