REMARK  5 active torsions:
REMARK  status: ('A' for Active; 'I' for Inactive)
REMARK    1  A    between atoms: N1_1  and  S1_4 
REMARK    2  A    between atoms: S1_4  and  O2_7 
REMARK    3  A    between atoms: O2_7  and  C1_8 
REMARK    4  A    between atoms: C1_8  and  C2_9 
REMARK    5  A    between atoms: C2_9  and  C3_10 
ROOT
HETATM    1  C1  UNL     1      -1.448   0.148  -1.353  1.00  0.00     0.190 C 
ENDROOT
BRANCH   1   2
HETATM    2  O2  UNL     1      -2.608   0.924  -1.471  1.00  0.00    -0.283 OA
BRANCH   2   3
HETATM    3  S1  UNL     1      -3.966   0.024  -1.049  1.00  0.00     0.208 S 
HETATM    4  O1  UNL     1      -5.171   0.815  -1.445  1.00  0.00    -0.209 OA
HETATM    5  S2  UNL     1      -3.958  -1.492  -1.853  1.00  0.00     0.059 SA
BRANCH   3   6
HETATM    6  N1  UNL     1      -4.030  -0.183   0.669  1.00  0.00    -0.330 N 
ATOM      7  H12 UNL     1      -4.761   0.175   1.284  1.00  0.00     0.168 HD
ATOM      8  H11 UNL     1      -3.208  -0.723   0.939  1.00  0.00     0.168 HD
ENDBRANCH   3   6
ENDBRANCH   2   3
ENDBRANCH   1   2
BRANCH   1   9
HETATM    9  C2  UNL     1      -0.750   0.566  -0.084  1.00  0.00     0.032 C 
BRANCH   9  10
HETATM   10  C3  UNL     1       0.529  -0.246   0.105  1.00  0.00    -0.013 C 
HETATM   11  C4  UNL     1       1.480   0.192  -0.960  1.00  0.00     0.005 C 
HETATM   12  C5  UNL     1       2.839  -0.409  -0.617  1.00  0.00     0.000 C 
HETATM   13  C6  UNL     1       3.301   0.392   0.580  1.00  0.00     0.000 C 
HETATM   14  C7  UNL     1       2.446   0.034   1.748  1.00  0.00     0.000 C 
HETATM   15  C8  UNL     1       1.001  -0.117   1.502  1.00  0.00     0.005 C 
ENDBRANCH   9  10
ENDBRANCH   1   9
TORSDOF 5
