REMARK  5 active torsions:
REMARK  status: ('A' for Active; 'I' for Inactive)
REMARK    1  A    between atoms: C2_2  and  C5_5 
REMARK    2  A    between atoms: C7_9  and  S1_10 
REMARK    3  A    between atoms: S1_10  and  C8_11 
REMARK    4  A    between atoms: C8_11  and  C9_12 
REMARK    5  A    between atoms: C9_12  and  N2_13 
ROOT
HETATM    1  C5  UNL     1      -1.345   0.280  -0.021  1.00  0.00     0.035 C 
HETATM    2  C6  UNL     1      -0.977   0.319  -1.469  1.00  0.00     0.129 C 
HETATM    3  N1  UNL     1       0.431   0.239  -1.652  1.00  0.00    -0.365 N 
ATOM      4  H1  UNL     1       0.809   0.452  -2.575  1.00  0.00     0.162 HD
HETATM    5  C7  UNL     1       1.248  -0.084  -0.727  1.00  0.00     0.177 C 
HETATM    6  O1  UNL     1       0.829  -0.386   0.547  1.00  0.00    -0.330 OA
HETATM    7  C10 UNL     1      -0.523  -0.748   0.745  1.00  0.00     0.184 C 
ENDROOT
BRANCH   5   8
HETATM    8  S1  UNL     1       3.002  -0.139  -1.120  1.00  0.00    -0.085 SA
BRANCH   8   9
HETATM    9  C8  UNL     1       3.899  -0.617   0.369  1.00  0.00     0.110 C 
BRANCH   9  10
HETATM   10  C9  UNL     1       5.380  -0.694   0.153  1.00  0.00     0.240 C 
BRANCH  10  11
HETATM   11  N2  UNL     1       5.906   0.601  -0.272  1.00  0.00    -0.079 N 
ATOM     12  H23 UNL     1       5.421   0.954  -1.097  1.00  0.00     0.274 HD
ATOM     13  H22 UNL     1       5.657   1.344   0.381  1.00  0.00     0.274 HD
ATOM     14  H21 UNL     1       6.914   0.549  -0.419  1.00  0.00     0.274 HD
ENDBRANCH  10  11
ENDBRANCH   9  10
ENDBRANCH   8   9
ENDBRANCH   5   8
BRANCH   1  15
HETATM   15  C2  UNL     1      -2.823   0.091   0.204  1.00  0.00    -0.044 C 
HETATM   16  C1  UNL     1      -3.532   1.258  -0.452  1.00  0.00     0.015 C 
HETATM   17  C3  UNL     1      -3.117   0.069   1.666  1.00  0.00     0.015 C 
HETATM   18  C4  UNL     1      -3.352  -1.170  -0.429  1.00  0.00     0.015 C 
ENDBRANCH   1  15
TORSDOF 5
