REMARK  3 active torsions:
REMARK  status: ('A' for Active; 'I' for Inactive)
REMARK    1  A    between atoms: C2_2  and  N1_3 
REMARK    2  A    between atoms: N1_3  and  C3_4 
REMARK    3  A    between atoms: N1_3  and  C4_6 
ROOT
HETATM    1  C4  UNL     1      -0.014  -0.156   0.087  1.00  0.00     0.146 C 
HETATM    2  N2  UNL     1       0.531   0.619  -0.754  1.00  0.00    -0.369 N 
ATOM      3  H2  UNL     1      -0.131   0.987  -1.437  1.00  0.00     0.161 HD
HETATM    4  C5  UNL     1       1.860   1.094  -0.964  1.00  0.00     0.141 C 
HETATM    5  C6  UNL     1       2.909   0.029  -1.013  1.00  0.00     0.141 C 
HETATM    6  N3  UNL     1       3.364  -0.269   0.331  1.00  0.00    -0.374 N 
ATOM      7  H3  UNL     1       4.345  -0.086   0.541  1.00  0.00     0.161 HD
HETATM    8  C7  UNL     1       2.565  -0.793   1.380  1.00  0.00     0.142 C 
HETATM    9  S1  UNL     1       3.332  -1.277   2.721  1.00  0.00    -0.052 SA
HETATM   10  S2  UNL     1       0.794  -0.996   1.413  1.00  0.00    -0.025 SA
ENDROOT
BRANCH   1  11
HETATM   11  N1  UNL     1      -1.394  -0.365  -0.065  1.00  0.00    -0.349 N 
BRANCH  11  12
HETATM   12  C2  UNL     1      -2.275  -0.303   1.112  1.00  0.00     0.121 C 
HETATM   13  C1  UNL     1      -3.135   0.923   0.958  1.00  0.00     0.026 C 
ENDBRANCH  11  12
BRANCH  11  14
HETATM   14  C3  UNL     1      -1.931  -0.642  -1.378  1.00  0.00     0.240 C 
HETATM   15 CL1  UNL     1      -2.708  -2.256  -1.289  1.00  0.00    -0.109 Cl
ENDBRANCH  11  14
ENDBRANCH   1  11
TORSDOF 3
