REMARK  3 active torsions:
REMARK  status: ('A' for Active; 'I' for Inactive)
REMARK    1  A    between atoms: C2_2  and  N1_4 
REMARK    2  A    between atoms: N1_4  and  C4_6 
REMARK    3  A    between atoms: C7_9  and  N2_10 
ROOT
HETATM    1  C4  UNL     1      -0.613   0.351  -0.978  1.00  0.00     0.077 C 
HETATM    2  C5  UNL     1       0.221   1.224  -0.111  1.00  0.00     0.027 C 
HETATM    3  C6  UNL     1       0.935   0.586   1.038  1.00  0.00     0.029 C 
HETATM    4  C7  UNL     1       1.805  -0.575   0.655  1.00  0.00     0.109 C 
HETATM    5  C10 UNL     1       1.214  -1.199  -0.595  1.00  0.00     0.029 C 
HETATM    6  C11 UNL     1      -0.277  -1.099  -0.566  1.00  0.00     0.027 C 
ENDROOT
BRANCH   4   7
HETATM    7  N2  UNL     1       3.180  -0.233   0.383  1.00  0.00    -0.280 N 
HETATM    8  C8  UNL     1       3.972   0.655   0.974  1.00  0.00     0.204 A 
HETATM    9  N3  UNL     1       5.198   0.644   0.424  1.00  0.00    -0.312 N 
HETATM   10  C9  UNL     1       5.147  -0.303  -0.561  1.00  0.00     0.281 A 
ATOM     11  H3  UNL     1       5.998   1.220   0.686  1.00  0.00     0.170 HD
HETATM   12  F1  UNL     1       6.243  -0.568  -1.331  1.00  0.00    -0.164 F 
HETATM   13  N4  UNL     1       3.934  -0.798  -0.549  1.00  0.00    -0.258 N 
ATOM     14  H4  UNL     1       3.609  -1.530  -1.181  1.00  0.00     0.191 HD
ENDBRANCH   4   7
BRANCH   1  15
HETATM   15  N1  UNL     1      -2.034   0.515  -0.957  1.00  0.00    -0.414 N 
ATOM     16  H1  UNL     1      -2.509   0.971  -1.736  1.00  0.00     0.153 HD
BRANCH  15  17
HETATM   17  C2  UNL     1      -2.776   0.041   0.151  1.00  0.00     0.068 C 
HETATM   18  C1  UNL     1      -3.786   1.051   0.617  1.00  0.00     0.031 C 
HETATM   19  C3  UNL     1      -3.672  -1.143  -0.351  1.00  0.00     0.031 C 
ENDBRANCH  15  17
ENDBRANCH   1  15
TORSDOF 3
