REMARK  2 active torsions:
REMARK  status: ('A' for Active; 'I' for Inactive)
REMARK    1  A    between atoms: C1_2  and  C2_4 
REMARK    2  A    between atoms: C4_8  and  N2_9 
ROOT
HETATM    1  C2  UNL     1       3.674   0.104   0.251  1.00  0.00     0.153 A 
HETATM    2  N1  UNL     1       3.071  -1.067   0.375  1.00  0.00    -0.352 N 
ATOM      3  H1  UNL     1       3.620  -1.906   0.561  1.00  0.00     0.166 HD
HETATM    4  C3  UNL     1       1.785  -1.148   0.261  1.00  0.00     0.126 A 
HETATM    5  C4  UNL     1       1.084   0.006   0.012  1.00  0.00     0.090 A 
HETATM    6  S1  UNL     1       2.361   1.158  -0.043  1.00  0.00    -0.046 SA
ENDROOT
BRANCH   5   7
HETATM    7  N2  UNL     1      -0.327   0.185  -0.155  1.00  0.00    -0.370 N 
HETATM    8  C5  UNL     1      -0.823   1.512  -0.412  1.00  0.00     0.124 C 
HETATM    9  C6  UNL     1      -2.231   1.676   0.101  1.00  0.00     0.024 C 
HETATM   10  C7  UNL     1      -3.086   0.579  -0.526  1.00  0.00     0.040 C 
HETATM   11  C8  UNL     1      -2.591  -0.704   0.047  1.00  0.00    -0.035 C 
HETATM   12  C9  UNL     1      -3.415  -1.550   0.623  1.00  0.00     0.192 C 
HETATM   13  C10 UNL     1      -1.151  -0.997  -0.051  1.00  0.00     0.160 C 
HETATM   14  F1  UNL     1      -4.724  -1.262   0.702  1.00  0.00    -0.219 F 
ENDBRANCH   5   7
BRANCH   1  15
HETATM   15  C1  UNL     1       5.102   0.344   0.354  1.00  0.00     0.234 C 
HETATM   16  O1  UNL     1       5.571   1.490   0.221  1.00  0.00    -0.642 OA
HETATM   17  O2  UNL     1       5.955  -0.703   0.602  1.00  0.00    -0.642 OA
ENDBRANCH   1  15
TORSDOF 2
