REMARK  7 active torsions:
REMARK  status: ('A' for Active; 'I' for Inactive)
REMARK    1  A    between atoms: N1_1  and  C1_4 
REMARK    2  A    between atoms: C2_7  and  N3_8 
REMARK    3  A    between atoms: N3_8  and  N4_9 
REMARK    4  A    between atoms: N5_15  and  C5_16 
REMARK    5  A    between atoms: C5_16  and  C6_17 
REMARK    6  A    between atoms: C7_20  and  N7_21 
REMARK    7  A    between atoms: N7_21  and  N8_23 
REMARK       I    between atoms: N8_23  and  C8_24 
ROOT
HETATM    1  C1  UNL     1      -2.922   1.385  -2.177  1.00  0.00     0.679 A 
HETATM    2  N2  UNL     1      -3.585   0.432  -1.541  1.00  0.00    -0.161 N 
ATOM      3  H2  UNL     1      -4.559   0.263  -1.794  1.00  0.00     0.187 HD
HETATM    4  C2  UNL     1      -3.014  -0.345  -0.547  1.00  0.00     0.236 A 
HETATM    5  C3  UNL     1      -1.669  -0.057  -0.246  1.00  0.00     0.138 A 
HETATM    6  C4  UNL     1      -0.998  -0.776   0.727  1.00  0.00     0.281 A 
HETATM    7  O1  UNL     1      -1.550  -1.694   1.381  1.00  0.00    -0.266 OA
HETATM    8  N5  UNL     1       0.291  -0.509   1.010  1.00  0.00    -0.136 N 
HETATM    9  C7  UNL     1       0.887   0.477   0.310  1.00  0.00     0.714 A 
HETATM   10  N10 UNL     1       0.251   1.187  -0.637  1.00  0.00    -0.172 N 
ATOM     11  H10 UNL     1       0.754   1.923  -1.132  1.00  0.00     0.186 HD
HETATM   12  C9  UNL     1      -1.047   0.944  -0.947  1.00  0.00     0.157 A 
HETATM   13  N11 UNL     1      -1.639   1.668  -1.899  1.00  0.00    -0.175 N 
ATOM     14  H11 UNL     1      -1.138   2.405  -2.395  1.00  0.00     0.186 HD
ENDROOT
BRANCH   9  15
HETATM   15  N7  UNL     1       2.122   0.684   0.610  1.00  0.00    -0.060 N 
ATOM     16  H7  UNL     1       2.462   0.062   1.343  1.00  0.00     0.221 HD
BRANCH  15  17
HETATM   17  N8  UNL     1       3.030   1.509   0.186  1.00  0.00    -0.253 NA
HETATM   18  C8  UNL     1       3.969   2.362  -0.252  1.00  0.00     0.424 C 
HETATM   19  N9  UNL     1       4.782   2.045  -1.437  1.00  0.00    -0.024 NA
HETATM   20  O3  UNL     1       4.277   3.491   0.250  1.00  0.00    -0.232 OA
ENDBRANCH  15  17
ENDBRANCH   9  15
BRANCH   8  21
HETATM   21  C5  UNL     1       1.005  -1.256   2.024  1.00  0.00     0.250 C 
BRANCH  21  22
HETATM   22  C6  UNL     1       1.693  -2.466   1.489  1.00  0.00     0.250 C 
HETATM   23  N6  UNL     1       2.404  -3.238   2.435  1.00  0.00    -0.061 NA
HETATM   24  O2  UNL     1       1.619  -2.747   0.266  1.00  0.00    -0.275 OA
ENDBRANCH  21  22
ENDBRANCH   8  21
BRANCH   4  25
HETATM   25  N3  UNL     1      -3.626  -1.225  -0.003  1.00  0.00    -0.313 NA
BRANCH  25  26
HETATM   26  N4  UNL     1      -4.269  -2.173   0.591  1.00  0.00    -0.278 N 
ATOM     27  H42 UNL     1      -3.385  -1.666   0.537  1.00  0.00     0.191 HD
ATOM     28  H41 UNL     1      -4.788  -2.920   1.053  1.00  0.00     0.191 HD
ENDBRANCH  25  26
ENDBRANCH   4  25
BRANCH   1  29
HETATM   29  N1  UNL     1      -3.519   2.078  -3.094  1.00  0.00    -0.234 N 
ATOM     30  H12 UNL     1      -4.493   1.863  -3.305  1.00  0.00     0.174 HD
ATOM     31  H11 UNL     1      -3.008   2.812  -3.584  1.00  0.00     0.174 HD
ENDBRANCH   1  29
TORSDOF 7
