REMARK  6 active torsions:
REMARK  status: ('A' for Active; 'I' for Inactive)
REMARK    1  A    between atoms: C1_2  and  C2_4 
REMARK    2  A    between atoms: C2_4  and  O2_5 
REMARK    3  A    between atoms: C2_4  and  C3_7 
REMARK    4  A    between atoms: C3_7  and  O3_8 
REMARK    5  A    between atoms: C3_7  and  C4_10 
REMARK    6  A    between atoms: C4_10  and  N2_11 
REMARK       I    between atoms: N3_13  and  C6_15 
REMARK       I    between atoms: C6_15  and  N4_16 
REMARK       I    between atoms: C6_15  and  N5_20 
ROOT
HETATM    1  N2  UNL     1      -0.983  -0.034   0.072  1.00  0.00    -0.310 N 
HETATM    2  C5  UNL     1      -1.018   1.148  -0.626  1.00  0.00     0.177 A 
HETATM    3  N3  UNL     1      -0.263   2.069  -0.210  1.00  0.00    -0.322 N 
ATOM      4  H3  UNL     1       0.288   1.811   0.609  1.00  0.00     0.165 HD
HETATM    5  C6  UNL     1      -0.033   3.383  -0.656  1.00  0.00     0.481 C 
HETATM    6  N4  UNL     1       0.704   4.100   0.403  1.00  0.00    -0.033 N 
ATOM      7  H41 UNL     1       0.871   5.053   0.080  1.00  0.00     0.278 HD
ATOM      8  H42 UNL     1       1.561   3.622   0.681  1.00  0.00     0.278 HD
ATOM      9  H43 UNL     1       0.230   4.067   1.306  1.00  0.00     0.278 HD
HETATM   10  N5  UNL     1       0.765   3.493  -1.865  1.00  0.00    -0.033 N 
ATOM     11  H51 UNL     1       0.932   4.446  -2.188  1.00  0.00     0.278 HD
ATOM     12  H52 UNL     1       0.350   2.936  -2.612  1.00  0.00     0.278 HD
ATOM     13  H53 UNL     1       1.651   3.002  -1.747  1.00  0.00     0.278 HD
HETATM   14  C7  UNL     1      -1.864   1.244  -1.709  1.00  0.00     0.290 A 
HETATM   15  O4  UNL     1      -1.934   2.305  -2.382  1.00  0.00    -0.264 OA
HETATM   16  N6  UNL     1      -2.621   0.175  -2.038  1.00  0.00    -0.313 N 
ATOM     17  H6  UNL     1      -3.247   0.246  -2.840  1.00  0.00     0.169 HD
HETATM   18  C8  UNL     1      -2.582  -0.976  -1.352  1.00  0.00     0.148 A 
HETATM   19  C9  UNL     1      -3.353  -2.074  -1.682  1.00  0.00     0.277 A 
HETATM   20  O5  UNL     1      -4.111  -1.974  -2.659  1.00  0.00    -0.266 OA
HETATM   21  N7  UNL     1      -3.290  -3.224  -0.967  1.00  0.00    -0.318 N 
ATOM     22  H7  UNL     1      -3.870  -4.021  -1.230  1.00  0.00     0.169 HD
HETATM   23  C10 UNL     1      -2.464  -3.314   0.088  1.00  0.00     0.185 A 
HETATM   24  N8  UNL     1      -1.716  -2.252   0.411  1.00  0.00    -0.336 N 
ATOM     25  H8  UNL     1      -1.093  -2.328   1.215  1.00  0.00     0.168 HD
HETATM   26  C11 UNL     1      -1.741  -1.089  -0.266  1.00  0.00     0.143 A 
ENDROOT
BRANCH   1  27
HETATM   27  C4  UNL     1      -0.115  -0.217   1.221  1.00  0.00     0.167 C 
BRANCH  27  28
HETATM   28  C3  UNL     1       1.232  -0.777   0.818  1.00  0.00     0.174 C 
BRANCH  28  29
HETATM   29  C2  UNL     1       2.133  -0.966   2.019  1.00  0.00     0.237 C 
BRANCH  29  30
HETATM   30  C1  UNL     1       3.414  -1.588   1.676  1.00  0.00     0.262 C 
HETATM   31  N1  UNL     1       4.274  -1.057   0.682  1.00  0.00    -0.060 NA
HETATM   32  O1  UNL     1       3.780  -2.626   2.273  1.00  0.00    -0.274 OA
ENDBRANCH  29  30
BRANCH  29  33
HETATM   33  O2  UNL     1       1.511  -1.692   3.016  1.00  0.00    -0.384 OA
ATOM     34  H2  UNL     1       0.680  -1.289   3.238  1.00  0.00     0.210 HD
ENDBRANCH  29  33
ENDBRANCH  28  29
BRANCH  28  35
HETATM   35  O3  UNL     1       1.872  -0.043  -0.163  1.00  0.00    -0.391 OA
ATOM     36  H3  UNL     1       1.306   0.076  -0.917  1.00  0.00     0.210 HD
ENDBRANCH  28  35
ENDBRANCH  27  28
ENDBRANCH   1  27
TORSDOF 6
