REMARK  6 active torsions:
REMARK  status: ('A' for Active; 'I' for Inactive)
REMARK    1  A    between atoms: C2_3  and  N2_4 
REMARK       I    between atoms: N2_4  and  C3_6 
REMARK       I    between atoms: C3_6  and  N3_8 
REMARK    2  A    between atoms: N3_8  and  N4_10 
REMARK    3  A    between atoms: C5_14  and  O2_15 
REMARK    4  A    between atoms: C5_14  and  C6_17 
REMARK    5  A    between atoms: C6_17  and  N5_18 
REMARK    6  A    between atoms: C9_27  and  C10_28 
ROOT
HETATM    1  N1  UNL     1      -2.674  -0.683   2.294  1.00  0.00    -0.195 NA
HETATM    2  C1  UNL     1      -2.142  -0.459   1.285  1.00  0.00     0.092 C 
HETATM    3  C2  UNL     1      -1.473  -0.148   0.000  1.00  0.00     0.146 C 
HETATM    4  C4  UNL     1      -0.101   0.315   0.288  1.00  0.00     0.110 C 
HETATM    5  C5  UNL     1       0.887   0.105  -0.812  1.00  0.00     0.151 C 
HETATM    6  N8  UNL     1       0.509  -0.799  -1.842  1.00  0.00    -0.348 N 
ATOM      7  H8  UNL     1       1.146  -0.890  -2.633  1.00  0.00     0.163 HD
HETATM    8  C8  UNL     1      -0.534  -1.495  -1.870  1.00  0.00     0.107 C 
HETATM    9  N9  UNL     1      -0.758  -2.370  -3.009  1.00  0.00    -0.087 NA
HETATM   10  C9  UNL     1      -1.522  -1.442  -0.783  1.00  0.00     0.182 C 
ENDROOT
BRANCH   3  11
HETATM   11  N2  UNL     1      -2.300   0.848  -0.643  1.00  0.00    -0.318 N 
HETATM   12  C3  UNL     1      -2.637   2.102  -0.100  1.00  0.00     0.335 C 
HETATM   13  O1  UNL     1      -2.228   2.454   1.029  1.00  0.00    -0.246 OA
HETATM   14  N3  UNL     1      -3.454   3.016  -0.812  1.00  0.00    -0.258 N 
ATOM     15  H3  UNL     1      -3.796   2.745  -1.734  1.00  0.00     0.191 HD
ATOM     16  H2  UNL     1      -2.670   0.623  -1.567  1.00  0.00     0.166 HD
BRANCH  14  17
HETATM   17  N4  UNL     1      -3.813   4.267  -0.313  1.00  0.00    -0.341 N 
ATOM     18  H42 UNL     1      -3.463   4.522   0.610  1.00  0.00     0.177 HD
ATOM     19  H41 UNL     1      -4.401   4.925  -0.825  1.00  0.00     0.177 HD
ENDBRANCH  14  17
ENDBRANCH   3  11
BRANCH  10  20
HETATM   20  C10 UNL     1      -1.508  -2.623   0.092  1.00  0.00     0.245 C 
HETATM   21  N10 UNL     1      -0.477  -2.941   1.016  1.00  0.00    -0.061 NA
HETATM   22  O3  UNL     1      -2.471  -3.423   0.034  1.00  0.00    -0.276 OA
ENDBRANCH  10  20
BRANCH   5  23
HETATM   23  O2  UNL     1       1.257   1.352  -1.360  1.00  0.00    -0.369 OA
ATOM     24  H2  UNL     1       1.885   1.218  -2.060  1.00  0.00     0.212 HD
ENDBRANCH   5  23
BRANCH   5  25
HETATM   25  C6  UNL     1       2.190  -0.441  -0.212  1.00  0.00     0.182 C 
BRANCH  25  26
HETATM   26  N5  UNL     1       2.709   0.435   0.797  1.00  0.00    -0.362 N 
HETATM   27  C7  UNL     1       3.911   0.220   1.217  1.00  0.00     0.197 C 
HETATM   28  N6  UNL     1       4.720  -0.836   0.721  1.00  0.00    -0.067 NA
HETATM   29  N7  UNL     1       4.413   1.098   2.219  1.00  0.00    -0.067 NA
ATOM     30  H5  UNL     1       2.149   1.201   1.170  1.00  0.00     0.161 HD
ENDBRANCH  25  26
ENDBRANCH   5  25
TORSDOF 6
