REMARK  13 active torsions:
REMARK  status: ('A' for Active; 'I' for Inactive)
REMARK       I    between atoms: N2_3  and  C2_5 
REMARK       I    between atoms: C2_5  and  N9_38 
REMARK    1  A    between atoms: N3_6  and  C3_8 
REMARK    2  A    between atoms: C4_9  and  C5_10 
REMARK    3  A    between atoms: C5_10  and  C6_11 
REMARK    4  A    between atoms: C6_11  and  C7_12 
REMARK    5  A    between atoms: C7_12  and  N4_13 
REMARK    6  A    between atoms: N4_13  and  C8_14 
REMARK    7  A    between atoms: N4_13  and  C13_19 
REMARK    8  A    between atoms: C8_14  and  C9_15 
REMARK    9  A    between atoms: C9_15  and  C10_16 
REMARK   10  A    between atoms: C13_19  and  C14_20 
REMARK       I    between atoms: N5_24  and  C18_25 
REMARK   11  A    between atoms: C21_34  and  C22_35 
REMARK   12  A    between atoms: N9_38  and  C23_40 
REMARK   13  A    between atoms: C25_44  and  N11_45 
ROOT
HETATM    1  N1  UNL     1       5.045   2.897   0.942  1.00  0.00    -0.171 NA
HETATM    2  C1  UNL     1       4.740   1.782   0.871  1.00  0.00     0.196 C 
HETATM    3  N2  UNL     1       4.367   0.436   0.800  1.00  0.00    -0.126 N 
ATOM      4  H2  UNL     1       4.568  -0.187   1.582  1.00  0.00     0.197 HD
HETATM    5  C2  UNL     1       3.705  -0.075  -0.362  1.00  0.00     0.693 C 
HETATM    6  N3  UNL     1       2.862  -1.042  -0.302  1.00  0.00    -0.188 N 
ATOM      7  H3  UNL     1       2.417  -1.379  -1.156  1.00  0.00     0.184 HD
HETATM    8  N9  UNL     1       4.066   0.587  -1.587  1.00  0.00    -0.174 N 
ATOM      9  H9  UNL     1       3.330   0.993  -2.165  1.00  0.00     0.186 HD
ENDROOT
BRANCH   6  10
HETATM   10  C3  UNL     1       2.549  -1.637   0.926  1.00  0.00     0.089 A 
HETATM   11  C4  UNL     1       1.936  -0.950   1.922  1.00  0.00    -0.027 A 
HETATM   12  C19 UNL     1       1.827  -1.573   3.183  1.00  0.00     0.026 A 
HETATM   13  C20 UNL     1       2.330  -2.842   3.375  1.00  0.00     0.089 A 
HETATM   14  N8  UNL     1       2.922  -3.475   2.353  1.00  0.00    -0.359 N 
HETATM   15  C21 UNL     1       3.058  -2.936   1.131  1.00  0.00     0.137 A 
ATOM     16  H8  UNL     1       3.288  -4.414   2.512  1.00  0.00     0.165 HD
BRANCH  11  17
HETATM   17  C5  UNL     1       1.250   0.325   1.715  1.00  0.00     0.043 C 
BRANCH  17  18
HETATM   18  C6  UNL     1      -0.186  -0.078   1.234  1.00  0.00     0.035 C 
BRANCH  18  19
HETATM   19  C7  UNL     1      -0.976   1.151   0.944  1.00  0.00     0.272 C 
BRANCH  19  20
HETATM   20  N4  UNL     1      -2.325   0.799   0.553  1.00  0.00     0.090 N 
BRANCH  20  21
HETATM   21  C8  UNL     1      -3.074   1.921   0.130  1.00  0.00     0.273 C 
BRANCH  21  22
HETATM   22  C9  UNL     1      -3.390   2.902   1.248  1.00  0.00     0.034 C 
BRANCH  22  23
HETATM   23  C10 UNL     1      -4.146   4.052   0.623  1.00  0.00    -0.013 A 
HETATM   24  C11 UNL     1      -3.510   4.862  -0.445  1.00  0.00     0.005 A 
HETATM   25  C12 UNL     1      -3.575   5.437   0.940  1.00  0.00     0.005 A 
ENDBRANCH  22  23
ENDBRANCH  21  22
ENDBRANCH  20  21
BRANCH  20  26
HETATM   26  C13 UNL     1      -2.468  -0.340  -0.249  1.00  0.00     0.297 C 
BRANCH  26  27
HETATM   27  C14 UNL     1      -3.901  -0.721  -0.448  1.00  0.00     0.115 C 
HETATM   28  C15 UNL     1      -4.547  -0.982   0.921  1.00  0.00     0.029 C 
HETATM   29  C16 UNL     1      -4.048  -2.361   1.304  1.00  0.00     0.022 C 
HETATM   30  C17 UNL     1      -3.633  -2.976  -0.003  1.00  0.00     0.126 C 
HETATM   31  N5  UNL     1      -3.999  -2.064  -1.054  1.00  0.00    -0.349 N 
HETATM   32  C18 UNL     1      -4.382  -2.345  -2.361  1.00  0.00     0.184 C 
HETATM   33  N6  UNL     1      -3.622  -2.128  -3.369  1.00  0.00    -0.374 N 
HETATM   34  N7  UNL     1      -5.671  -2.897  -2.583  1.00  0.00    -0.064 NA
ATOM     35  H62 UNL     1      -2.696  -1.731  -3.209  1.00  0.00     0.158 HD
ATOM     36  H61 UNL     1      -3.903  -2.334  -4.328  1.00  0.00     0.158 HD
ENDBRANCH  26  27
ENDBRANCH  20  26
ENDBRANCH  19  20
ENDBRANCH  18  19
ENDBRANCH  17  18
ENDBRANCH  11  17
BRANCH  15  37
HETATM   37  C22 UNL     1       3.698  -3.630   0.027  1.00  0.00     0.229 C 
HETATM   38  O1  UNL     1       4.155  -4.776   0.219  1.00  0.00    -0.643 OA
HETATM   39  O2  UNL     1       3.805  -3.048  -1.211  1.00  0.00    -0.643 OA
ENDBRANCH  15  37
ENDBRANCH   6  10
BRANCH   8  40
HETATM   40  C23 UNL     1       5.415   0.692  -2.015  1.00  0.00     0.152 A 
HETATM   41  C24 UNL     1       5.866   1.309  -3.177  1.00  0.00     0.155 A 
HETATM   42  N10 UNL     1       7.210   1.215  -3.251  1.00  0.00    -0.199 N 
HETATM   43  C25 UNL     1       7.633   0.542  -2.147  1.00  0.00     0.677 A 
ATOM     44  H10 UNL     1       7.800   1.581  -3.998  1.00  0.00     0.183 HD
HETATM   45  N12 UNL     1       6.544   0.247  -1.435  1.00  0.00    -0.175 N 
ATOM     46  H12 UNL     1       6.565  -0.259  -0.550  1.00  0.00     0.186 HD
BRANCH  43  47
HETATM   47  N11 UNL     1       8.877   0.270  -1.879  1.00  0.00    -0.234 N 
ATOM     48 2H11 UNL     1       9.710   0.496  -2.423  1.00  0.00     0.174 HD
ATOM     49 1H11 UNL     1       9.194  -0.235  -1.051  1.00  0.00     0.174 HD
ENDBRANCH  43  47
ENDBRANCH   8  40
TORSDOF 13
