REMARK  21 active torsions:
REMARK  status: ('A' for Active; 'I' for Inactive)
REMARK    1  A    between atoms: C2_2  and  C3_3 
REMARK    2  A    between atoms: C3_3  and  O1_5 
REMARK    3  A    between atoms: C3_3  and  C5_7 
REMARK    4  A    between atoms: C6_8  and  O2_9 
REMARK    5  A    between atoms: C8_12  and  O3_13 
REMARK    6  A    between atoms: C9_15  and  C10_16 
REMARK    7  A    between atoms: C11_17  and  C12_18 
REMARK    8  A    between atoms: C12_18  and  C13_19 
REMARK    9  A    between atoms: C13_19  and  O4_20 
REMARK   10  A    between atoms: C13_19  and  C14_22 
REMARK   11  A    between atoms: C18_26  and  O5_27 
REMARK   12  A    between atoms: C18_26  and  C19_29 
REMARK   13  A    between atoms: C19_29  and  O6_30 
REMARK   14  A    between atoms: C19_29  and  C20_32 
REMARK   15  A    between atoms: C20_32  and  C21_33 
REMARK   16  A    between atoms: C21_33  and  C22_34 
REMARK   17  A    between atoms: C24_36  and  C25_37 
REMARK   18  A    between atoms: C25_37  and  O7_38 
REMARK   19  A    between atoms: C25_37  and  C26_40 
REMARK   20  A    between atoms: C26_40  and  C28_42 
REMARK   21  A    between atoms: C28_42  and  O8_43 
ROOT
HETATM    1  C14 UNL     1      -0.851   0.667  -1.786  1.00  0.00     0.025 C 
HETATM    2  C15 UNL     1      -0.307   0.774  -3.143  1.00  0.00    -0.009 C 
HETATM    3  C16 UNL     1      -1.170   1.405  -4.160  1.00  0.00     0.010 C 
HETATM    4  C17 UNL     1       1.034   1.556  -2.917  1.00  0.00     0.045 C 
HETATM    5  C18 UNL     1       1.589   0.758  -1.755  1.00  0.00     0.087 C 
HETATM    6  C29 UNL     1       0.425   0.506  -0.882  1.00  0.00     0.025 C 
HETATM    7  C30 UNL     1       0.219   1.345   0.308  1.00  0.00     0.014 C 
ENDROOT
BRANCH   1   8
HETATM    8  C13 UNL     1      -1.810  -0.382  -1.406  1.00  0.00     0.126 C 
BRANCH   8   9
HETATM    9  C12 UNL     1      -3.100  -0.390  -2.217  1.00  0.00     0.059 C 
BRANCH   9  10
HETATM   10  C11 UNL     1      -4.096  -1.144  -1.243  1.00  0.00    -0.028 C 
HETATM   11  C10 UNL     1      -5.088  -0.472  -0.816  1.00  0.00    -0.023 C 
BRANCH  11  12
HETATM   12  C9  UNL     1      -6.228  -0.677   0.062  1.00  0.00     0.046 C 
HETATM   13  C5  UNL     1      -6.152   0.191   1.317  1.00  0.00     0.062 C 
HETATM   14  C6  UNL     1      -6.584  -0.690   2.479  1.00  0.00     0.128 C 
HETATM   15  C7  UNL     1      -6.716  -2.084   1.943  1.00  0.00     0.064 C 
HETATM   16  C8  UNL     1      -6.123  -2.108   0.586  1.00  0.00     0.128 C 
BRANCH  13  17
HETATM   17  C3  UNL     1      -7.006   1.425   1.257  1.00  0.00     0.078 C 
HETATM   18  C4  UNL     1      -6.461   2.367   0.167  1.00  0.00     0.051 C 
BRANCH  17  19
HETATM   19  C2  UNL     1      -6.923   2.208   2.499  1.00  0.00     0.000 C 
HETATM   20  C1  UNL     1      -5.922   2.140   3.331  1.00  0.00     0.010 C 
ENDBRANCH  17  19
BRANCH  17  21
HETATM   21  O1  UNL     1      -8.341   1.108   0.949  1.00  0.00    -0.386 OA
ATOM     22  H1  UNL     1      -8.395   0.602   0.147  1.00  0.00     0.211 HD
ENDBRANCH  17  21
ENDBRANCH  13  17
BRANCH  14  23
HETATM   23  O2  UNL     1      -7.799  -0.263   3.041  1.00  0.00    -0.395 OA
ATOM     24  H2  UNL     1      -8.069  -0.813   3.767  1.00  0.00     0.210 HD
ENDBRANCH  14  23
BRANCH  16  25
HETATM   25  O3  UNL     1      -6.758  -3.022  -0.213  1.00  0.00    -0.395 OA
ATOM     26  H3  UNL     1      -6.378  -3.037  -1.083  1.00  0.00     0.210 HD
ENDBRANCH  16  25
ENDBRANCH  11  12
ENDBRANCH   9  10
ENDBRANCH   8   9
BRANCH   8  27
HETATM   27  O4  UNL     1      -1.331  -1.614  -1.084  1.00  0.00    -0.395 OA
ATOM     28  H4  UNL     1      -0.527  -1.609  -0.578  1.00  0.00     0.210 HD
ENDBRANCH   8  27
ENDBRANCH   1   8
BRANCH   5  29
HETATM   29  O5  UNL     1       2.001  -0.464  -2.372  1.00  0.00    -0.387 OA
ATOM     30  H5  UNL     1       2.349  -0.964  -1.643  1.00  0.00     0.210 HD
ENDBRANCH   5  29
BRANCH   5  31
HETATM   31  C19 UNL     1       2.796   1.326  -1.149  1.00  0.00     0.153 C 
BRANCH  31  32
HETATM   32  O6  UNL     1       2.670   2.471  -0.394  1.00  0.00    -0.393 OA
ATOM     33  H6  UNL     1       3.453   2.839  -0.001  1.00  0.00     0.210 HD
ENDBRANCH  31  32
BRANCH  31  34
HETATM   34  C20 UNL     1       3.732   0.293  -0.638  1.00  0.00     0.039 C 
BRANCH  34  35
HETATM   35  C21 UNL     1       4.981   0.734   0.062  1.00  0.00     0.036 C 
BRANCH  35  36
HETATM   36  C22 UNL     1       5.720  -0.591   0.343  1.00  0.00    -0.085 C 
HETATM   37  C23 UNL     1       5.053  -1.706   1.007  1.00  0.00     0.043 C 
HETATM   38  C24 UNL     1       6.960  -0.664  -0.083  1.00  0.00     0.007 C 
BRANCH  38  39
HETATM   39  C25 UNL     1       7.841  -1.797   0.086  1.00  0.00     0.146 C 
BRANCH  39  40
HETATM   40  O7  UNL     1       8.360  -2.205  -1.186  1.00  0.00    -0.391 OA
ATOM     41  H7  UNL     1       8.939  -2.950  -1.075  1.00  0.00     0.210 HD
ENDBRANCH  39  40
BRANCH  39  42
HETATM   42  C26 UNL     1       8.951  -1.629   1.044  1.00  0.00     0.038 C 
HETATM   43  C27 UNL     1       8.591  -1.351   2.464  1.00  0.00     0.015 C 
BRANCH  42  44
HETATM   44  C28 UNL     1       9.962  -0.632   0.516  1.00  0.00     0.171 C 
BRANCH  44  45
HETATM   45  O8  UNL     1       9.487   0.622   0.307  1.00  0.00    -0.400 OA
ATOM     46  H8  UNL     1      10.121   1.247  -0.024  1.00  0.00     0.209 HD
ENDBRANCH  44  45
ENDBRANCH  42  44
ENDBRANCH  39  42
ENDBRANCH  38  39
ENDBRANCH  35  36
ENDBRANCH  34  35
ENDBRANCH  31  34
ENDBRANCH   5  31
TORSDOF 21
