REMARK  16 active torsions:
REMARK  status: ('A' for Active; 'I' for Inactive)
REMARK    1  A    between atoms: C7_12  and  N3_13 
REMARK       I    between atoms: N3_13  and  C8_15 
REMARK    2  A    between atoms: C8_15  and  C9_17 
REMARK    3  A    between atoms: C9_17  and  C10_18 
REMARK    4  A    between atoms: C10_18  and  C11_19 
REMARK    5  A    between atoms: C11_19  and  C12_20 
REMARK    6  A    between atoms: C12_20  and  C13_21 
REMARK    7  A    between atoms: C13_21  and  C14_22 
REMARK    8  A    between atoms: C14_22  and  C15_23 
REMARK    9  A    between atoms: C15_23  and  C16_24 
REMARK   10  A    between atoms: C16_24  and  C17_25 
REMARK   11  A    between atoms: C17_25  and  C18_26 
REMARK   12  A    between atoms: C18_26  and  N4_27 
REMARK   13  A    between atoms: N4_27  and  C19_29 
REMARK   14  A    between atoms: C20_32  and  N6_33 
REMARK   15  A    between atoms: C22_41  and  N9_42 
REMARK   16  A    between atoms: C23_47  and  N11_48 
ROOT
HETATM    1  C17 UNL     1       3.510   0.930   3.470  1.00  0.00     0.044 C 
ENDROOT
BRANCH   1   2
HETATM    2  C16 UNL     1       3.044  -0.448   3.254  1.00  0.00     0.005 C 
BRANCH   2   3
HETATM    3  C15 UNL     1       2.858  -0.950   1.870  1.00  0.00     0.000 C 
BRANCH   3   4
HETATM    4  C14 UNL     1       1.798  -0.155   1.113  1.00  0.00     0.000 C 
BRANCH   4   5
HETATM    5  C13 UNL     1       1.677  -0.682  -0.275  1.00  0.00     0.000 C 
BRANCH   5   6
HETATM    6  C12 UNL     1       1.278  -2.113  -0.308  1.00  0.00     0.000 C 
BRANCH   6   7
HETATM    7  C11 UNL     1      -0.048  -2.362   0.363  1.00  0.00     0.000 C 
BRANCH   7   8
HETATM    8  C10 UNL     1      -1.106  -1.566  -0.336  1.00  0.00     0.009 C 
BRANCH   8   9
HETATM    9  C9  UNL     1      -2.469  -1.762   0.273  1.00  0.00     0.103 C 
BRANCH   9  10
HETATM   10  C8  UNL     1      -3.447  -0.916  -0.505  1.00  0.00     0.222 C 
HETATM   11  N3  UNL     1      -4.812  -0.914  -0.163  1.00  0.00    -0.327 N 
ATOM     12  H3  UNL     1      -5.080  -1.509   0.621  1.00  0.00     0.169 HD
HETATM   13  O3  UNL     1      -2.972  -0.251  -1.434  1.00  0.00    -0.273 OA
BRANCH  11  14
HETATM   14  C7  UNL     1      -5.860  -0.181  -0.781  1.00  0.00     0.037 A 
HETATM   15  C6  UNL     1      -5.697   0.789  -1.733  1.00  0.00     0.032 A 
HETATM   16  C5  UNL     1      -6.785   1.463  -2.309  1.00  0.00     0.034 A 
HETATM   17  C4  UNL     1      -8.076   1.172  -1.937  1.00  0.00     0.062 A 
HETATM   18  N2  UNL     1      -9.115   1.820  -2.495  1.00  0.00    -0.317 N 
HETATM   19  C26 UNL     1      -8.237   0.196  -0.980  1.00  0.00     0.066 A 
HETATM   20  C3  UNL     1     -10.371   1.527  -2.124  1.00  0.00     0.314 A 
ATOM     21  H2  UNL     1      -8.947   2.536  -3.202  1.00  0.00     0.169 HD
HETATM   22  C2  UNL     1     -10.556   0.554  -1.168  1.00  0.00     0.316 A 
HETATM   23  O2  UNL     1     -11.360   2.136  -2.646  1.00  0.00    -0.262 OA
HETATM   24  N1  UNL     1      -9.527  -0.085  -0.619  1.00  0.00    -0.312 N 
HETATM   25  O1  UNL     1     -11.752   0.292  -0.831  1.00  0.00    -0.262 OA
HETATM   26  C1  UNL     1      -9.712  -1.109   0.387  1.00  0.00     0.160 C 
HETATM   27  C25 UNL     1      -7.187  -0.471  -0.407  1.00  0.00     0.061 A 
ENDBRANCH  11  14
ENDBRANCH   9  10
ENDBRANCH   8   9
ENDBRANCH   7   8
ENDBRANCH   6   7
ENDBRANCH   5   6
ENDBRANCH   4   5
ENDBRANCH   3   4
ENDBRANCH   2   3
ENDBRANCH   1   2
BRANCH   1  28
HETATM   28  C18 UNL     1       4.866   1.341   3.051  1.00  0.00     0.062 C 
BRANCH  28  29
HETATM   29  N4  UNL     1       5.181   1.289   1.683  1.00  0.00    -0.355 N 
ATOM     30  H4  UNL     1       4.508   1.746   1.068  1.00  0.00     0.166 HD
BRANCH  29  31
HETATM   31  C19 UNL     1       6.186   0.755   1.088  1.00  0.00     0.138 A 
HETATM   32  N5  UNL     1       7.149   0.116   1.746  1.00  0.00    -0.176 N 
HETATM   33  C20 UNL     1       8.177  -0.424   1.055  1.00  0.00     0.679 A 
ATOM     34  H5  UNL     1       7.112   0.034   2.762  1.00  0.00     0.186 HD
HETATM   35  N7  UNL     1       8.259  -0.336  -0.276  1.00  0.00    -0.175 N 
HETATM   36  C21 UNL     1       7.302   0.304  -0.972  1.00  0.00     0.154 A 
ATOM     37  H7  UNL     1       9.049  -0.755  -0.766  1.00  0.00     0.186 HD
HETATM   38  N8  UNL     1       7.360   0.425  -2.314  1.00  0.00    -0.175 N 
HETATM   39  C24 UNL     1       6.252   0.859  -0.285  1.00  0.00     0.098 A 
HETATM   40  C22 UNL     1       6.400   1.084  -2.996  1.00  0.00     0.679 A 
ATOM     41  H8  UNL     1       8.142   0.012  -2.822  1.00  0.00     0.186 HD
HETATM   42  N10 UNL     1       5.369   1.634  -2.346  1.00  0.00    -0.176 N 
HETATM   43  C23 UNL     1       5.273   1.537  -1.012  1.00  0.00     0.132 A 
ATOM     44  H10 UNL     1       4.649   2.132  -2.870  1.00  0.00     0.186 HD
BRANCH  33  45
HETATM   45  N6  UNL     1       9.115  -1.048   1.714  1.00  0.00    -0.234 N 
ATOM     46  H62 UNL     1       9.052  -1.115   2.730  1.00  0.00     0.174 HD
ATOM     47  H61 UNL     1       9.891  -1.456   1.192  1.00  0.00     0.174 HD
ENDBRANCH  33  45
BRANCH  40  48
HETATM   48  N9  UNL     1       6.433   1.213  -4.288  1.00  0.00    -0.234 N 
ATOM     49  H92 UNL     1       7.219   0.793  -4.784  1.00  0.00     0.174 HD
ATOM     50  H91 UNL     1       5.707   1.711  -4.804  1.00  0.00     0.174 HD
ENDBRANCH  40  48
BRANCH  43  51
HETATM   51  N11 UNL     1       4.286   2.102  -0.449  1.00  0.00    -0.384 N 
ATOM     52 2H11 UNL     1       3.570   2.598  -0.980  1.00  0.00     0.157 HD
ATOM     53 1H11 UNL     1       4.213   2.028   0.566  1.00  0.00     0.157 HD
ENDBRANCH  43  51
ENDBRANCH  29  31
ENDBRANCH  28  29
ENDBRANCH   1  28
TORSDOF 16
