REMARK  16 active torsions:
REMARK  status: ('A' for Active; 'I' for Inactive)
REMARK    1  A    between atoms: C2_2  and  C4_4 
REMARK    2  A    between atoms: C4_4  and  N1_5 
REMARK    3  A    between atoms: N1_5  and  C5_7 
REMARK    4  A    between atoms: C6_10  and  N3_11 
REMARK    5  A    between atoms: N3_11  and  C7_13 
REMARK    6  A    between atoms: C7_13  and  C8_14 
REMARK    7  A    between atoms: C13_24  and  N6_25 
REMARK    8  A    between atoms: N6_25  and  C14_27 
REMARK    9  A    between atoms: C14_27  and  C15_28 
REMARK   10  A    between atoms: C15_28  and  C16_29 
REMARK   11  A    between atoms: C16_29  and  N7_30 
REMARK   12  A    between atoms: C21_38  and  C22_39 
REMARK   13  A    between atoms: C22_39  and  C23_40 
REMARK   14  A    between atoms: C23_40  and  C24_41 
REMARK   15  A    between atoms: C26_43  and  N9_44 
REMARK   16  A    between atoms: C28_50  and  O1_51 
ROOT
HETATM    1  C5  UNL     1       1.665   0.584  -0.499  1.00  0.00     0.127 A 
HETATM    2  N2  UNL     1       2.361  -0.575  -0.494  1.00  0.00    -0.176 N 
ATOM      3  H2  UNL     1       3.378  -0.553  -0.564  1.00  0.00     0.186 HD
HETATM    4  C6  UNL     1       1.738  -1.733  -0.400  1.00  0.00     0.681 A 
HETATM    5  N5  UNL     1       0.398  -1.730  -0.308  1.00  0.00    -0.176 N 
ATOM      6  H5  UNL     1      -0.084  -2.626  -0.234  1.00  0.00     0.186 HD
HETATM    7  C13 UNL     1      -0.347  -0.598  -0.309  1.00  0.00     0.127 A 
HETATM    8  C21 UNL     1       0.299   0.628  -0.408  1.00  0.00     0.031 A 
ENDROOT
BRANCH   8   9
HETATM    9  C22 UNL     1      -0.523   1.813  -0.402  1.00  0.00     0.051 C 
BRANCH   9  10
HETATM   10  C23 UNL     1       0.102   3.147  -0.511  1.00  0.00     0.046 C 
BRANCH  10  11
HETATM   11  C24 UNL     1      -0.966   4.200  -0.480  1.00  0.00    -0.020 A 
HETATM   12  C25 UNL     1      -1.394   4.874  -1.602  1.00  0.00     0.058 A 
HETATM   13  C26 UNL     1      -2.385   5.832  -1.518  1.00  0.00     0.099 A 
HETATM   14  N10 UNL     1      -2.969   6.144  -0.346  1.00  0.00    -0.350 N 
HETATM   15  C27 UNL     1      -2.570   5.503   0.760  1.00  0.00     0.126 A 
ATOM     16  H10 UNL     1      -3.700   6.854  -0.301  1.00  0.00     0.166 HD
HETATM   17  C28 UNL     1      -1.584   4.545   0.698  1.00  0.00     0.087 A 
BRANCH  13  18
HETATM   18  N9  UNL     1      -2.787   6.462  -2.555  1.00  0.00    -0.385 N 
ATOM     19  H92 UNL     1      -2.344   6.226  -3.443  1.00  0.00     0.157 HD
ATOM     20  H91 UNL     1      -3.519   7.170  -2.493  1.00  0.00     0.157 HD
ENDBRANCH  13  18
BRANCH  17  21
HETATM   21  O1  UNL     1      -1.214   3.909   1.900  1.00  0.00    -0.359 OA
ATOM     22  H1  UNL     1      -1.641   4.147   2.714  1.00  0.00     0.217 HD
ENDBRANCH  17  21
ENDBRANCH  10  11
ENDBRANCH   9  10
ENDBRANCH   8   9
BRANCH   1  23
HETATM   23  N1  UNL     1       2.336   1.655  -0.589  1.00  0.00    -0.375 N 
ATOM     24  H1  UNL     1       1.830   2.541  -0.594  1.00  0.00     0.161 HD
BRANCH  23  25
HETATM   25  C4  UNL     1       3.768   1.692  -0.684  1.00  0.00     0.125 C 
BRANCH  25  26
HETATM   26  C2  UNL     1       4.325   3.080  -0.805  1.00  0.00    -0.005 C 
HETATM   27  C1  UNL     1       5.846   2.935  -0.893  1.00  0.00     0.011 C 
HETATM   28  C3  UNL     1       3.924   3.953   0.364  1.00  0.00     0.011 C 
ENDBRANCH  25  26
ENDBRANCH  23  25
ENDBRANCH   1  23
BRANCH   7  29
HETATM   29  N6  UNL     1      -1.758  -0.694  -0.216  1.00  0.00    -0.375 N 
ATOM     30  H6  UNL     1      -2.319   0.158  -0.223  1.00  0.00     0.161 HD
BRANCH  29  31
HETATM   31  C14 UNL     1      -2.412  -1.965  -0.113  1.00  0.00     0.123 C 
BRANCH  31  32
HETATM   32  C15 UNL     1      -3.920  -1.834  -0.044  1.00  0.00     0.050 C 
BRANCH  32  33
HETATM   33  C16 UNL     1      -4.355  -1.028   1.144  1.00  0.00     0.274 C 
BRANCH  33  34
HETATM   34  N7  UNL     1      -5.775  -0.904   1.208  1.00  0.00     0.091 N 
HETATM   35  C17 UNL     1      -6.483  -2.110   1.495  1.00  0.00     0.300 C 
HETATM   36  C18 UNL     1      -7.964  -1.948   1.174  1.00  0.00     0.262 C 
HETATM   37  N8  UNL     1      -8.078  -1.859  -0.250  1.00  0.00    -0.072 N 
HETATM   38  C19 UNL     1      -7.127  -0.973  -0.860  1.00  0.00     0.262 C 
ATOM     39  H82 UNL     1      -8.024  -2.786  -0.672  1.00  0.00     0.277 HD
ATOM     40  H81 UNL     1      -9.028  -1.602  -0.517  1.00  0.00     0.277 HD
HETATM   41  C20 UNL     1      -6.338  -0.151   0.112  1.00  0.00     0.300 C 
ENDBRANCH  33  34
ENDBRANCH  32  33
ENDBRANCH  31  32
ENDBRANCH  29  31
ENDBRANCH   7  29
BRANCH   4  42
HETATM   42  N3  UNL     1       2.327  -2.861  -0.391  1.00  0.00    -0.226 N 
ATOM     43  H3  UNL     1       1.779  -3.718  -0.314  1.00  0.00     0.177 HD
BRANCH  42  44
HETATM   44  C7  UNL     1       3.760  -2.936  -0.489  1.00  0.00     0.142 C 
BRANCH  44  45
HETATM   45  C8  UNL     1       4.273  -4.321  -0.128  1.00  0.00     0.007 C 
HETATM   46  C9  UNL     1       3.906  -4.700   1.290  1.00  0.00     0.034 C 
HETATM   47  C10 UNL     1       4.928  -4.187   2.284  1.00  0.00     0.232 C 
HETATM   48  N4  UNL     1       6.283  -4.534   1.906  1.00  0.00    -0.075 N 
HETATM   49  C11 UNL     1       6.583  -3.796   0.678  1.00  0.00     0.232 C 
ATOM     50  H42 UNL     1       6.962  -4.370   2.649  1.00  0.00     0.277 HD
ATOM     51  H41 UNL     1       6.430  -5.539   1.817  1.00  0.00     0.277 HD
HETATM   52  C12 UNL     1       5.734  -4.402  -0.418  1.00  0.00     0.034 C 
ENDBRANCH  44  45
ENDBRANCH  42  44
ENDBRANCH   4  42
TORSDOF 16
