REMARK  17 active torsions:
REMARK  status: ('A' for Active; 'I' for Inactive)
REMARK    1  A    between atoms: C3_5  and  C4_6 
REMARK    2  A    between atoms: C4_6  and  N2_7 
REMARK    3  A    between atoms: C4_6  and  N3_11 
REMARK    4  A    between atoms: N3_11  and  C5_14 
REMARK    5  A    between atoms: C5_14  and  C6_15 
REMARK    6  A    between atoms: C6_15  and  C7_16 
REMARK    7  A    between atoms: C7_16  and  N4_17 
REMARK    8  A    between atoms: N4_17  and  C8_19 
REMARK    9  A    between atoms: C9_23  and  C10_24 
REMARK   10  A    between atoms: C10_24  and  C11_25 
REMARK   11  A    between atoms: C11_25  and  C12_26 
REMARK   12  A    between atoms: C15_34  and  N8_35 
REMARK   13  A    between atoms: C17_41  and  C18_42 
REMARK   14  A    between atoms: C18_42  and  C19_43 
REMARK   15  A    between atoms: C19_43  and  N10_44 
REMARK       I    between atoms: N10_44  and  C20_46 
REMARK   16  A    between atoms: C20_46  and  O5_48 
REMARK   17  A    between atoms: O5_48  and  C21_49 
ROOT
HETATM    1  C1  UNL     1       2.794   0.176  -5.247  1.00  0.00     0.232 C 
HETATM    2  N1  UNL     1       2.738  -0.044  -4.111  1.00  0.00    -0.403 NA
HETATM    3  C2  UNL     1       2.692  -0.299  -2.738  1.00  0.00     0.244 A 
HETATM    4  O1  UNL     1       3.663  -0.748  -1.980  1.00  0.00    -0.264 OA
HETATM    5  C3  UNL     1       3.282  -0.877  -0.729  1.00  0.00     0.185 A 
HETATM    6  N5  UNL     1       1.995  -0.491  -0.670  1.00  0.00    -0.336 N 
ATOM      7  H5  UNL     1       1.407  -0.473   0.163  1.00  0.00     0.167 HD
HETATM    8  C9  UNL     1       1.629  -0.135  -1.907  1.00  0.00     0.077 A 
ENDROOT
BRANCH   8   9
HETATM    9  C10 UNL     1       0.273   0.348  -2.262  1.00  0.00     0.069 C 
BRANCH   9  10
HETATM   10  C11 UNL     1      -0.563  -0.646  -2.946  1.00  0.00     0.064 C 
BRANCH  10  11
HETATM   11  C12 UNL     1      -0.874  -1.907  -2.282  1.00  0.00     0.018 A 
HETATM   12  N6  UNL     1      -0.235  -3.112  -2.503  1.00  0.00    -0.353 N 
HETATM   13  C13 UNL     1      -0.777  -4.074  -1.758  1.00  0.00     0.130 A 
ATOM     14  H6  UNL     1       0.544  -3.246  -3.148  1.00  0.00     0.166 HD
HETATM   15  C14 UNL     1      -0.529  -5.427  -1.596  1.00  0.00     0.288 A 
HETATM   16  C16 UNL     1      -1.796  -3.502  -1.025  1.00  0.00     0.089 A 
HETATM   17  O3  UNL     1       0.377  -5.987  -2.232  1.00  0.00    -0.265 OA
HETATM   18  N7  UNL     1      -1.261  -6.180  -0.742  1.00  0.00    -0.154 N 
HETATM   19  C15 UNL     1      -2.247  -5.602  -0.040  1.00  0.00     0.679 A 
ATOM     20  H7  UNL     1      -1.065  -7.175  -0.634  1.00  0.00     0.187 HD
HETATM   21  N9  UNL     1      -2.494  -4.290  -0.192  1.00  0.00    -0.189 N 
ATOM     22  H9  UNL     1      -3.249  -3.872   0.352  1.00  0.00     0.184 HD
HETATM   23  C17 UNL     1      -1.856  -2.127  -1.357  1.00  0.00    -0.004 A 
BRANCH  19  24
HETATM   24  N8  UNL     1      -2.956  -6.308   0.780  1.00  0.00    -0.234 N 
ATOM     25  H82 UNL     1      -2.768  -7.304   0.895  1.00  0.00     0.174 HD
ATOM     26  H81 UNL     1      -3.706  -5.868   1.314  1.00  0.00     0.174 HD
ENDBRANCH  19  24
BRANCH  23  27
HETATM   27  C18 UNL     1      -2.836  -1.245  -0.697  1.00  0.00     0.062 C 
BRANCH  27  28
HETATM   28  C19 UNL     1      -2.222  -0.646   0.545  1.00  0.00     0.130 C 
BRANCH  28  29
HETATM   29  N10 UNL     1      -3.125   0.235   1.261  1.00  0.00    -0.337 N 
HETATM   30  C20 UNL     1      -3.620   1.400   0.660  1.00  0.00     0.361 C 
HETATM   31  O4  UNL     1      -3.297   1.721  -0.494  1.00  0.00    -0.238 OA
ATOM     32  H10 UNL     1      -3.403   0.003   2.215  1.00  0.00     0.164 HD
BRANCH  30  33
HETATM   33  O5  UNL     1      -4.491   2.233   1.344  1.00  0.00    -0.294 OA
BRANCH  33  34
HETATM   34  C21 UNL     1      -5.051   3.416   0.856  1.00  0.00     0.061 C 
HETATM   35  C22 UNL     1      -5.875   3.203  -0.395  1.00  0.00     0.046 C 
HETATM   36  C23 UNL     1      -5.969   3.976   1.941  1.00  0.00     0.046 C 
HETATM   37  C24 UNL     1      -3.961   4.428   0.622  1.00  0.00     0.046 C 
ENDBRANCH  33  34
ENDBRANCH  30  33
ENDBRANCH  28  29
ENDBRANCH  27  28
ENDBRANCH  23  27
ENDBRANCH  10  11
ENDBRANCH   9  10
ENDBRANCH   8   9
BRANCH   5  38
HETATM   38  C4  UNL     1       4.114  -1.352   0.382  1.00  0.00     0.454 C 
BRANCH  38  39
HETATM   39  N2  UNL     1       4.913  -2.493  -0.051  1.00  0.00    -0.043 N 
ATOM     40  H23 UNL     1       4.337  -3.237  -0.444  1.00  0.00     0.277 HD
ATOM     41  H22 UNL     1       5.467  -2.281  -0.881  1.00  0.00     0.277 HD
ATOM     42  H21 UNL     1       5.491  -2.823   0.721  1.00  0.00     0.277 HD
ENDBRANCH  38  39
BRANCH  38  43
HETATM   43  N3  UNL     1       4.947  -0.341   0.928  1.00  0.00    -0.038 N 
ATOM     44  H32 UNL     1       5.585  -0.731   1.621  1.00  0.00     0.280 HD
ATOM     45  H31 UNL     1       5.626  -0.018   0.239  1.00  0.00     0.280 HD
BRANCH  43  46
HETATM   46  C5  UNL     1       4.199   0.778   1.483  1.00  0.00     0.240 C 
BRANCH  46  47
HETATM   47  C6  UNL     1       5.086   1.687   2.205  1.00  0.00     0.072 C 
BRANCH  47  48
HETATM   48  C7  UNL     1       6.175   2.387   1.522  1.00  0.00     0.065 C 
BRANCH  48  49
HETATM   49  N4  UNL     1       5.944   3.367   0.549  1.00  0.00    -0.348 N 
ATOM     50  H4  UNL     1       6.220   4.309   0.825  1.00  0.00     0.167 HD
BRANCH  49  51
HETATM   51  C8  UNL     1       5.404   3.276  -0.725  1.00  0.00     0.352 C 
HETATM   52  O2  UNL     1       5.025   2.233  -1.259  1.00  0.00    -0.283 OA
ENDBRANCH  49  51
ENDBRANCH  48  49
ENDBRANCH  47  48
ENDBRANCH  46  47
ENDBRANCH  43  46
ENDBRANCH  38  43
ENDBRANCH   5  38
TORSDOF 17
