REMARK  1 active torsions:
REMARK  status: ('A' for Active; 'I' for Inactive)
REMARK    1  A    between atoms: C4_4  and  C5_5 
ROOT
HETATM    1  C5  UNL     1       0.079   0.344   0.031  1.00  0.00     0.100 A 
HETATM    2  C6  UNL     1      -0.689  -0.715  -0.191  1.00  0.00     0.025 A 
HETATM    3  C7  UNL     1      -0.024  -1.907  -0.156  1.00  0.00     0.016 A 
HETATM    4  C8  UNL     1      -0.645  -3.147  -0.365  1.00  0.00     0.001 A 
HETATM    5  C9  UNL     1      -1.996  -3.124  -0.615  1.00  0.00     0.002 A 
HETATM    6  C10 UNL     1      -2.713  -1.949  -0.660  1.00  0.00     0.030 A 
HETATM    7  C11 UNL     1      -2.063  -0.758  -0.450  1.00  0.00     0.046 A 
HETATM    8  N1  UNL     1      -2.878   0.245  -0.527  1.00  0.00    -0.338 N 
ATOM      9  H1  UNL     1      -3.842  -0.021  -0.727  1.00  0.00     0.167 HD
HETATM   10  C12 UNL     1      -2.686   1.641  -0.387  1.00  0.00     0.159 A 
HETATM   11  N2  UNL     1      -3.629   2.593  -0.491  1.00  0.00    -0.335 N 
ATOM     12  H2  UNL     1      -4.616   2.424  -0.687  1.00  0.00     0.168 HD
HETATM   13  C13 UNL     1      -3.072   3.806  -0.297  1.00  0.00     0.184 A 
HETATM   14  N3  UNL     1      -1.764   3.616  -0.067  1.00  0.00    -0.330 N 
ATOM     15  H3  UNL     1      -1.081   4.352   0.116  1.00  0.00     0.168 HD
HETATM   16  C14 UNL     1      -1.495   2.280  -0.117  1.00  0.00     0.194 A 
HETATM   17  O1  UNL     1      -0.265   1.708   0.069  1.00  0.00    -0.288 OA
ENDROOT
BRANCH   1  18
HETATM   18  C4  UNL     1       1.486   0.093   0.274  1.00  0.00    -0.001 A 
HETATM   19  C3  UNL     1       2.403   0.067  -0.751  1.00  0.00     0.014 A 
HETATM   20  C2  UNL     1       3.758  -0.143  -0.504  1.00  0.00     0.001 A 
HETATM   21  C1  UNL     1       4.198  -0.330   0.784  1.00  0.00     0.000 A 
HETATM   22  C16 UNL     1       3.301  -0.308   1.816  1.00  0.00     0.001 A 
HETATM   23  C15 UNL     1       1.941  -0.096   1.559  1.00  0.00     0.014 A 
ENDBRANCH   1  18
TORSDOF 1
