REMARK  2 active torsions:
REMARK  status: ('A' for Active; 'I' for Inactive)
REMARK    1  A    between atoms: C3_4  and  N2_5 
REMARK    2  A    between atoms: N3_14  and  C9_15 
ROOT
HETATM    1  C1  UNL     1      -3.572  -1.911  -0.943  1.00  0.00     0.311 C 
HETATM    2  N1  UNL     1      -3.360  -0.496  -0.797  1.00  0.00     0.097 N 
HETATM    3  C2  UNL     1      -4.415   0.165  -0.057  1.00  0.00     0.305 C 
HETATM    4  C3  UNL     1      -3.807   1.408   0.554  1.00  0.00     0.214 C 
HETATM    5  C4  UNL     1      -2.332   1.299   0.290  1.00  0.00     0.077 C 
HETATM    6  C5  UNL     1      -2.181  -0.154  -0.077  1.00  0.00     0.172 C 
HETATM    7  C6  UNL     1      -2.003  -1.020   1.198  1.00  0.00     0.123 C 
HETATM    8  C7  UNL     1      -0.626  -1.239   1.350  1.00  0.00    -0.151 C 
HETATM    9  C8  UNL     1       0.770  -1.342   1.331  1.00  0.00     0.352 C 
HETATM   10  N3  UNL     1       1.263  -0.737   0.070  1.00  0.00     0.103 N 
HETATM   11  C15 UNL     1       0.338   0.174  -0.544  1.00  0.00     0.276 C 
HETATM   12  C16 UNL     1      -0.974  -0.254  -1.004  1.00  0.00     0.073 C 
ENDROOT
BRANCH   4  13
HETATM   13  N2  UNL     1      -4.341   2.623  -0.009  1.00  0.00    -0.073 N 
ATOM     14  H23 UNL     1      -4.244   2.629  -1.024  1.00  0.00     0.274 HD
ATOM     15  H22 UNL     1      -5.359   2.642   0.060  1.00  0.00     0.274 HD
ATOM     16  H21 UNL     1      -3.931   3.461   0.403  1.00  0.00     0.274 HD
ENDBRANCH   4  13
BRANCH  10  17
HETATM   17  C9  UNL     1       2.588  -0.264   0.160  1.00  0.00     0.224 C 
HETATM   18  C10 UNL     1       2.813   1.151  -0.265  1.00  0.00     0.036 C 
HETATM   19  C11 UNL     1       4.207   1.596   0.163  1.00  0.00     0.002 C 
HETATM   20  C12 UNL     1       5.240   0.531  -0.049  1.00  0.00     0.000 C 
HETATM   21  C13 UNL     1       4.802  -0.551  -0.995  1.00  0.00     0.002 C 
HETATM   22  C14 UNL     1       3.492  -1.181  -0.617  1.00  0.00     0.036 C 
ENDBRANCH  10  17
TORSDOF 2
