REMARK  0 active torsions:
REMARK  status: ('A' for Active; 'I' for Inactive)
ROOT
HETATM    1  N1  UNL     1       1.613   3.893   0.147  1.00  0.00    -0.083 NA
HETATM    2  C1  UNL     1       1.221   2.529   0.104  1.00  0.00     0.117 A 
HETATM    3  N2  UNL     1       2.231   1.696   0.143  1.00  0.00    -0.344 N 
ATOM      4  H2  UNL     1       3.123   2.188   0.199  1.00  0.00     0.167 HD
HETATM    5  C2  UNL     1       2.409   0.289   0.128  1.00  0.00     0.043 A 
HETATM    6  C3  UNL     1       3.766   0.099   0.195  1.00  0.00     0.030 A 
HETATM    7  C4  UNL     1       4.287  -1.171   0.201  1.00  0.00     0.002 A 
HETATM    8  C5  UNL     1       3.444  -2.288   0.139  1.00  0.00     0.001 A 
HETATM    9  C6  UNL     1       2.072  -2.102   0.071  1.00  0.00     0.014 A 
HETATM   10  C7  UNL     1       1.565  -0.826   0.066  1.00  0.00    -0.009 A 
HETATM   11  C8  UNL     1       0.122  -1.035  -0.012  1.00  0.00     0.026 A 
HETATM   12  C9  UNL     1      -0.898  -0.196  -0.050  1.00  0.00    -0.015 A 
HETATM   13  C10 UNL     1      -1.046   1.250  -0.034  1.00  0.00    -0.026 A 
HETATM   14  C11 UNL     1      -0.207   2.302   0.027  1.00  0.00     0.054 A 
HETATM   15  C12 UNL     1      -2.403   1.841  -0.094  1.00  0.00     0.159 A 
HETATM   16  N3  UNL     1      -3.474   0.906  -0.165  1.00  0.00    -0.385 N 
ATOM     17  H3  UNL     1      -4.409   1.312  -0.206  1.00  0.00     0.160 HD
HETATM   18  C13 UNL     1      -3.429  -0.363  -0.184  1.00  0.00     0.039 A 
HETATM   19  C14 UNL     1      -4.449  -1.423  -0.254  1.00  0.00     0.030 A 
HETATM   20  C15 UNL     1      -3.789  -2.557  -0.239  1.00  0.00     0.003 A 
HETATM   21  C16 UNL     1      -2.328  -2.297  -0.159  1.00  0.00     0.014 A 
HETATM   22  C17 UNL     1      -2.105  -1.019  -0.126  1.00  0.00     0.001 A 
ENDROOT
TORSDOF 0
