REMARK  2 active torsions:
REMARK  status: ('A' for Active; 'I' for Inactive)
REMARK    1  A    between atoms: C3_3  and  O1_4 
REMARK    2  A    between atoms: C11_13  and  C12_14 
ROOT
HETATM    1  C1  UNL     1      -2.337  -2.363  -0.372  1.00  0.00     0.017 C 
HETATM    2  C2  UNL     1      -2.053  -1.187   0.125  1.00  0.00    -0.056 C 
HETATM    3  C3  UNL     1      -3.060  -0.130   0.155  1.00  0.00     0.151 C 
HETATM    4  C4  UNL     1      -2.551   1.149  -0.450  1.00  0.00     0.020 C 
HETATM    5  C5  UNL     1      -3.395   2.276   0.153  1.00  0.00     0.013 C 
HETATM    6  C6  UNL     1      -1.148   1.450  -0.230  1.00  0.00     0.009 C 
HETATM    7  C7  UNL     1      -0.383   0.557   0.705  1.00  0.00     0.037 C 
HETATM    8  C8  UNL     1      -0.678  -0.881   0.685  1.00  0.00     0.024 C 
HETATM    9  C9  UNL     1       0.242  -1.830   0.056  1.00  0.00     0.015 C 
HETATM   10  C10 UNL     1       1.689  -1.642   0.102  1.00  0.00     0.069 C 
HETATM   11  C11 UNL     1       2.325  -0.406  -0.325  1.00  0.00     0.165 C 
HETATM   12  O2  UNL     1       2.094   0.085  -1.570  1.00  0.00    -0.346 OA
HETATM   13  C14 UNL     1       1.217   1.202  -1.398  1.00  0.00     0.168 A 
HETATM   14  C15 UNL     1      -0.113   0.898  -1.180  1.00  0.00     0.060 A 
HETATM   15  C16 UNL     1       0.764   1.023  -0.079  1.00  0.00     0.102 A 
HETATM   16  O3  UNL     1       1.873   0.607   0.515  1.00  0.00    -0.341 OA
ENDROOT
BRANCH   3  17
HETATM   17  O1  UNL     1      -3.467   0.045   1.490  1.00  0.00    -0.391 OA
ATOM     18  H1  UNL     1      -4.122   0.733   1.510  1.00  0.00     0.210 HD
ENDBRANCH   3  17
BRANCH  11  19
HETATM   19  C12 UNL     1       3.830  -0.530  -0.033  1.00  0.00     0.064 C 
HETATM   20  C13 UNL     1       4.572   0.696  -0.439  1.00  0.00     0.010 C 
ENDBRANCH  11  19
TORSDOF 2
