REMARK  3 active torsions:
REMARK  status: ('A' for Active; 'I' for Inactive)
REMARK    1  A    between atoms: C1_2  and  N1_3 
REMARK    2  A    between atoms: C1_2  and  N3_13 
REMARK    3  A    between atoms: N1_3  and  N2_5 
ROOT
HETATM    1  S1  UNL     1       0.375  -1.964   0.976  1.00  0.00    -0.039 SA
HETATM    2  C1  UNL     1       0.749  -0.671   0.048  1.00  0.00     0.189 C 
ENDROOT
BRANCH   2   3
HETATM    3  N1  UNL     1      -0.110  -0.291  -0.995  1.00  0.00    -0.276 N 
ATOM      4  H1  UNL     1       0.114   0.514  -1.580  1.00  0.00     0.189 HD
BRANCH   3   5
HETATM    5  N2  UNL     1      -1.279  -1.029  -1.224  1.00  0.00    -0.307 N 
HETATM    6  C2  UNL     1      -2.433  -0.654  -0.846  1.00  0.00     0.004 C 
HETATM    7  C3  UNL     1      -3.608  -1.492  -1.129  1.00  0.00     0.054 C 
HETATM    8  C7  UNL     1      -2.581   0.632  -0.119  1.00  0.00     0.054 C 
HETATM    9  C4  UNL     1      -4.653  -1.443  -0.047  1.00  0.00     0.006 C 
HETATM   10  C5  UNL     1      -4.817  -0.077   0.544  1.00  0.00     0.001 C 
HETATM   11  C6  UNL     1      -3.456   0.358   1.087  1.00  0.00     0.006 C 
ATOM     12  H2  UNL     1      -1.199  -1.916  -1.721  1.00  0.00     0.186 HD
ENDBRANCH   3   5
ENDBRANCH   2   3
BRANCH   2  13
HETATM   13  N3  UNL     1       1.937   0.026   0.331  1.00  0.00    -0.348 N 
HETATM   14  C8  UNL     1       2.829  -0.387   1.431  1.00  0.00     0.157 C 
HETATM   15  C9  UNL     1       4.210   0.055   0.921  1.00  0.00     0.139 C 
HETATM   16  C10 UNL     1       4.255  -0.377  -0.553  1.00  0.00     0.036 C 
HETATM   17  O1  UNL     1       4.278   1.415   1.049  1.00  0.00    -0.382 OA
HETATM   18  C11 UNL     1       3.472   0.658  -1.375  1.00  0.00     0.030 C 
HETATM   19  C12 UNL     1       2.423   1.194  -0.389  1.00  0.00     0.110 C 
HETATM   20  C13 UNL     1       3.195   2.108   0.556  1.00  0.00     0.193 C 
ENDBRANCH   2  13
TORSDOF 3
