REMARK  2 active torsions:
REMARK  status: ('A' for Active; 'I' for Inactive)
REMARK       I    between atoms: C1_2  and  N2_4 
REMARK    1  A    between atoms: N2_4  and  C2_6 
REMARK    2  A    between atoms: N5_11  and  N6_12 
ROOT
HETATM    1  C2  UNL     1       0.401   0.288   0.781  1.00  0.00     0.197 A 
HETATM    2  N3  UNL     1      -0.443   0.929   1.612  1.00  0.00    -0.264 N 
ATOM      3  H3  UNL     1      -0.189   1.503   2.416  1.00  0.00     0.190 HD
HETATM    4  N4  UNL     1      -1.666   0.668   1.182  1.00  0.00    -0.217 N 
ATOM      5  H4  UNL     1      -2.515   1.024   1.621  1.00  0.00     0.210 HD
HETATM    6  N5  UNL     1      -1.655  -0.102   0.126  1.00  0.00    -0.146 N 
HETATM    7  C3  UNL     1      -0.359  -0.367  -0.163  1.00  0.00     0.328 A 
HETATM    8  O2  UNL     1       0.023  -1.084  -1.125  1.00  0.00    -0.260 OA
ENDROOT
BRANCH   1   9
HETATM    9  N2  UNL     1       1.686   0.260   0.818  1.00  0.00    -0.291 N 
HETATM   10  C1  UNL     1       2.438  -0.471  -0.142  1.00  0.00     0.334 C 
HETATM   11  N1  UNL     1       2.775   0.168  -1.368  1.00  0.00    -0.040 NA
HETATM   12  O1  UNL     1       2.761  -1.643   0.149  1.00  0.00    -0.251 OA
ATOM     13  H2  UNL     1       2.176   0.773   1.551  1.00  0.00     0.172 HD
ENDBRANCH   1   9
BRANCH   6  14
HETATM   14  N6  UNL     1      -2.779  -0.557  -0.566  1.00  0.00    -0.320 N 
ATOM     15  H62 UNL     1      -3.755  -0.357  -0.348  1.00  0.00     0.179 HD
ATOM     16  H61 UNL     1      -2.770  -1.158  -1.390  1.00  0.00     0.179 HD
ENDBRANCH   6  14
TORSDOF 2
