REMARK  1 active torsions:
REMARK  status: ('A' for Active; 'I' for Inactive)
REMARK       I    between atoms: N1_1  and  C1_4 
REMARK       I    between atoms: C1_4  and  N3_6 
REMARK    1  A    between atoms: N3_6  and  C2_8 
ROOT
HETATM    1  C2  UNL     1       0.699  -0.308  -0.141  1.00  0.00     0.201 A 
HETATM    2  N4  UNL     1       0.823   0.862   0.516  1.00  0.00    -0.220 N 
ATOM      3  H4  UNL     1       0.073   1.535   0.671  1.00  0.00     0.198 HD
HETATM    4  O1  UNL     1       2.039   0.994   0.916  1.00  0.00    -0.152 OA
HETATM    5  N5  UNL     1       2.778  -0.017   0.577  1.00  0.00    -0.203 N 
ATOM      6  H5  UNL     1       3.770  -0.147   0.777  1.00  0.00     0.200 HD
HETATM    7  C3  UNL     1       1.970  -0.859  -0.091  1.00  0.00     0.312 A 
HETATM    8  O2  UNL     1       2.293  -1.960  -0.590  1.00  0.00    -0.262 OA
ENDROOT
BRANCH   1   9
HETATM    9  N3  UNL     1      -0.359  -0.824  -0.703  1.00  0.00    -0.311 N 
HETATM   10  C1  UNL     1      -1.544  -0.074  -0.624  1.00  0.00     0.187 C 
HETATM   11  N1  UNL     1      -1.682   0.962  -1.346  1.00  0.00    -0.373 N 
HETATM   12  N2  UNL     1      -2.553  -0.491   0.259  1.00  0.00    -0.064 NA
ATOM     13  H12 UNL     1      -2.543   1.507  -1.289  1.00  0.00     0.158 HD
ATOM     14  H11 UNL     1      -0.949   1.265  -1.987  1.00  0.00     0.158 HD
ATOM     15  H3  UNL     1      -0.327  -1.727  -1.176  1.00  0.00     0.170 HD
ENDBRANCH   1   9
TORSDOF 1
