REMARK  0 active torsions:
REMARK  status: ('A' for Active; 'I' for Inactive)
ROOT
HETATM    1  O1  UNL     1      -2.524  -0.585  -0.115  1.00  0.00    -0.245 OA
HETATM    2  C1  UNL     1      -1.297  -0.321  -0.060  1.00  0.00     0.341 A 
HETATM    3  N1  UNL     1      -0.403  -1.328  -0.076  1.00  0.00    -0.248 N 
ATOM      4  H1  UNL     1      -0.704  -2.301  -0.132  1.00  0.00     0.192 HD
HETATM    5  N2  UNL     1       0.883  -1.010  -0.016  1.00  0.00    -0.258 N 
ATOM      6  H2  UNL     1       1.572  -1.762  -0.027  1.00  0.00     0.190 HD
HETATM    7  C2  UNL     1       1.317   0.256   0.058  1.00  0.00     0.328 A 
HETATM    8  O2  UNL     1       2.529   0.584   0.116  1.00  0.00    -0.261 OA
HETATM    9  C3  UNL     1       0.391   1.280   0.073  1.00  0.00     0.319 A 
HETATM   10  O3  UNL     1       0.762   2.494   0.142  1.00  0.00    -0.262 OA
HETATM   11  N3  UNL     1      -0.919   0.970   0.013  1.00  0.00    -0.270 N 
ATOM     12  H3  UNL     1      -1.621   1.710   0.023  1.00  0.00     0.174 HD
ENDROOT
TORSDOF 0
