REMARK  2 active torsions:
REMARK  status: ('A' for Active; 'I' for Inactive)
REMARK       I    between atoms: C1_2  and  N2_4 
REMARK    1  A    between atoms: N2_4  and  N3_6 
REMARK    2  A    between atoms: N3_6  and  C2_8 
ROOT
HETATM    1  C2  UNL     1      -0.991   0.058  -0.395  1.00  0.00     0.712 A 
HETATM    2  N4  UNL     1      -1.270   0.183   0.910  1.00  0.00    -0.184 N 
ATOM      3  H4  UNL     1      -0.598   0.113   1.674  1.00  0.00     0.185 HD
HETATM    4  C3  UNL     1      -2.576   0.415   1.039  1.00  0.00     0.215 A 
HETATM    5  N5  UNL     1      -3.130   0.438  -0.194  1.00  0.00    -0.281 N 
ATOM      6  H5  UNL     1      -4.113   0.595  -0.415  1.00  0.00     0.188 HD
HETATM    7  N6  UNL     1      -2.164   0.221  -1.051  1.00  0.00    -0.130 N 
ATOM      8  H6  UNL     1      -2.278   0.181  -2.064  1.00  0.00     0.205 HD
ENDROOT
BRANCH   1   9
HETATM    9  N3  UNL     1       0.173  -0.172  -0.892  1.00  0.00    -0.127 N 
ATOM     10  H3  UNL     1       0.289  -0.252  -1.902  1.00  0.00     0.206 HD
BRANCH   9  11
HETATM   11  N2  UNL     1       1.272  -0.312  -0.055  1.00  0.00    -0.240 N 
HETATM   12  C1  UNL     1       2.567   0.151  -0.380  1.00  0.00     0.347 C 
HETATM   13  N1  UNL     1       3.660  -0.010   0.496  1.00  0.00    -0.038 NA
HETATM   14  O1  UNL     1       2.737   0.719  -1.479  1.00  0.00    -0.249 OA
ATOM     15  H2  UNL     1       1.137  -0.775   0.844  1.00  0.00     0.192 HD
ENDBRANCH   9  11
ENDBRANCH   1   9
TORSDOF 2
