REMARK  6 active torsions:
REMARK  status: ('A' for Active; 'I' for Inactive)
REMARK       I    between atoms: C2_4  and  N3_6 
REMARK    1  A    between atoms: C5_9  and  N4_10 
REMARK    2  A    between atoms: N4_10  and  C6_12 
REMARK    3  A    between atoms: C7_15  and  N6_16 
REMARK    4  A    between atoms: N6_16  and  C8_18 
REMARK    5  A    between atoms: C11_23  and  N8_24 
REMARK    6  A    between atoms: N8_24  and  C12_26 
ROOT
HETATM    1  C6  UNL     1      -0.417   0.526  -0.790  1.00  0.00     0.707 A 
HETATM    2  N5  UNL     1      -0.752  -0.701  -0.366  1.00  0.00    -0.021 N 
ATOM      3  H5  UNL     1      -0.016  -1.396  -0.244  1.00  0.00     0.203 HD
HETATM    4  C7  UNL     1      -2.028  -1.050  -0.095  1.00  0.00     0.707 A 
HETATM    5  N7  UNL     1      -2.976  -0.112  -0.266  1.00  0.00    -0.021 N 
ATOM      6  H7  UNL     1      -3.950  -0.342  -0.071  1.00  0.00     0.203 HD
HETATM    7  C11 UNL     1      -2.657   1.140  -0.695  1.00  0.00     0.707 A 
HETATM    8  N10 UNL     1      -1.370   1.437  -0.951  1.00  0.00    -0.021 N 
ATOM      9  H10 UNL     1      -1.123   2.373  -1.273  1.00  0.00     0.203 HD
ENDROOT
BRANCH   1  10
HETATM   10  N4  UNL     1       0.799   0.852  -1.043  1.00  0.00    -0.220 N 
ATOM     11  H4  UNL     1       0.989   1.802  -1.362  1.00  0.00     0.178 HD
BRANCH  10  12
HETATM   12  C5  UNL     1       1.921  -0.066  -0.898  1.00  0.00     0.102 C 
HETATM   13  C4  UNL     1       2.250  -0.300   0.532  1.00  0.00     0.045 C 
HETATM   14  C3  UNL     1       3.545   0.310   1.001  1.00  0.00     0.127 C 
HETATM   15  N3  UNL     1       4.588   0.202   0.007  1.00  0.00    -0.356 N 
HETATM   16  C2  UNL     1       5.917   0.500   0.402  1.00  0.00     0.185 C 
HETATM   17  C17 UNL     1       4.323  -0.190  -1.350  1.00  0.00     0.127 C 
HETATM   18  N1  UNL     1       6.752  -0.447   0.579  1.00  0.00    -0.369 N 
HETATM   19  N2  UNL     1       6.357   1.843   0.613  1.00  0.00    -0.064 NA
HETATM   20  C1  UNL     1       6.436  -1.833   0.402  1.00  0.00     0.148 C 
ATOM     21  H1  UNL     1       7.701  -0.203   0.863  1.00  0.00     0.161 HD
HETATM   22  C16 UNL     1       3.025   0.464  -1.749  1.00  0.00     0.045 C 
ENDBRANCH  10  12
ENDBRANCH   1  10
BRANCH   4  23
HETATM   23  N6  UNL     1      -2.398  -2.211   0.311  1.00  0.00    -0.221 N 
ATOM     24  H6  UNL     1      -3.387  -2.385   0.491  1.00  0.00     0.178 HD
BRANCH  23  25
HETATM   25  C8  UNL     1      -1.442  -3.278   0.519  1.00  0.00     0.091 C 
HETATM   26  C9  UNL     1      -2.186  -4.599   0.514  1.00  0.00     0.032 C 
HETATM   27  C10 UNL     1      -0.642  -3.093   1.785  1.00  0.00     0.032 C 
ENDBRANCH  23  25
ENDBRANCH   4  23
BRANCH   7  28
HETATM   28  N8  UNL     1      -3.526   2.055  -0.867  1.00  0.00    -0.219 N 
ATOM     29  H8  UNL     1      -3.191   2.962  -1.191  1.00  0.00     0.178 HD
BRANCH  28  30
HETATM   30  C12 UNL     1      -4.941   1.918  -0.643  1.00  0.00     0.126 C 
HETATM   31  C13 UNL     1      -5.679   3.111  -1.198  1.00  0.00     0.055 C 
HETATM   32  C14 UNL     1      -5.794   4.057  -0.034  1.00  0.00     0.234 C 
HETATM   33  N9  UNL     1      -5.641   3.293   1.166  1.00  0.00    -0.073 N 
HETATM   34  C15 UNL     1      -5.211   1.978   0.838  1.00  0.00     0.257 C 
ATOM     35  H92 UNL     1      -5.019   3.746   1.835  1.00  0.00     0.277 HD
ATOM     36  H91 UNL     1      -6.489   3.291   1.733  1.00  0.00     0.277 HD
ENDBRANCH  28  30
ENDBRANCH   7  28
TORSDOF 6
