REMARK  6 active torsions:
REMARK  status: ('A' for Active; 'I' for Inactive)
REMARK    1  A    between atoms: N2_5  and  C4_6 
REMARK    2  A    between atoms: C4_6  and  N3_8 
REMARK    3  A    between atoms: N3_8  and  C5_10 
REMARK    4  A    between atoms: C5_10  and  C6_11 
REMARK    5  A    between atoms: C6_11  and  N4_12 
REMARK       I    between atoms: N4_12  and  C7_14 
REMARK       I    between atoms: C7_14  and  N5_16 
REMARK    6  A    between atoms: N5_16  and  C8_18 
ROOT
HETATM    1  N4  UNL     1       0.248  -1.329   0.138  1.00  0.00    -0.342 N 
ATOM      2  H4  UNL     1       0.457  -0.332   0.092  1.00  0.00     0.164 HD
HETATM    3  C7  UNL     1      -1.101  -1.742   0.114  1.00  0.00     0.317 C 
HETATM    4  O1  UNL     1      -1.330  -2.988   0.172  1.00  0.00    -0.247 OA
HETATM    5  N5  UNL     1      -2.168  -0.796   0.029  1.00  0.00    -0.315 N 
ATOM      6  H5  UNL     1      -1.942   0.198  -0.016  1.00  0.00     0.166 HD
ENDROOT
BRANCH   1   7
HETATM    7  C6  UNL     1       1.343  -2.263   0.225  1.00  0.00     0.144 C 
BRANCH   7   8
HETATM    8  C5  UNL     1       2.656  -1.476   0.228  1.00  0.00     0.141 C 
BRANCH   8   9
HETATM    9  N3  UNL     1       2.718  -0.735  -0.999  1.00  0.00    -0.366 N 
ATOM     10  H3  UNL     1       1.909  -0.809  -1.616  1.00  0.00     0.161 HD
BRANCH   9  11
HETATM   11  C4  UNL     1       3.767   0.077  -1.441  1.00  0.00     0.169 C 
HETATM   12  S1  UNL     1       3.565   0.847  -2.922  1.00  0.00    -0.041 SA
BRANCH  11  13
HETATM   13  N2  UNL     1       4.968   0.305  -0.758  1.00  0.00    -0.355 N 
HETATM   14  C3  UNL     1       5.382  -0.235   0.511  1.00  0.00     0.144 C 
HETATM   15  C2  UNL     1       6.690   0.512   0.922  1.00  0.00     0.136 C 
HETATM   16  N1  UNL     1       7.652   0.141  -0.058  1.00  0.00    -0.414 N 
HETATM   17  C1  UNL     1       9.020   0.251   0.339  1.00  0.00     0.143 C 
HETATM   18  C17 UNL     1       7.347   0.622  -1.356  1.00  0.00     0.136 C 
HETATM   19  C16 UNL     1       5.960   1.214  -1.388  1.00  0.00     0.144 C 
ENDBRANCH  11  13
ENDBRANCH   9  11
ENDBRANCH   8   9
ENDBRANCH   7   8
ENDBRANCH   1   7
BRANCH   5  20
HETATM   20  C8  UNL     1      -3.558  -1.198   0.005  1.00  0.00     0.287 C 
HETATM   21  C9  UNL     1      -4.273  -0.804  -1.230  1.00  0.00     0.057 C 
HETATM   22  C10 UNL     1      -5.157   0.403  -1.108  1.00  0.00     0.044 C 
HETATM   23  C11 UNL     1      -5.914   0.456   0.195  1.00  0.00     0.149 C 
HETATM   24  C12 UNL     1      -7.374   0.671  -0.004  1.00  0.00     0.042 C 
HETATM   25  N6  UNL     1      -5.487   1.622   0.936  1.00  0.00    -0.065 N 
HETATM   26  C15 UNL     1      -5.595  -0.758   1.044  1.00  0.00     0.273 C 
HETATM   27  C13 UNL     1      -7.742   1.960   0.717  1.00  0.00     0.030 C 
HETATM   28  C14 UNL     1      -6.589   2.135   1.682  1.00  0.00     0.233 C 
ATOM     29  H62 UNL     1      -4.677   1.431   1.525  1.00  0.00     0.278 HD
ATOM     30  H61 UNL     1      -5.064   2.329   0.335  1.00  0.00     0.278 HD
HETATM   31  N7  UNL     1      -4.157  -0.743   1.240  1.00  0.00    -0.052 N 
ATOM     32  H72 UNL     1      -3.858  -1.281   2.053  1.00  0.00     0.279 HD
ATOM     33  H71 UNL     1      -3.804   0.163   1.547  1.00  0.00     0.279 HD
ENDBRANCH   5  20
TORSDOF 6
