REMARK  6 active torsions:
REMARK  status: ('A' for Active; 'I' for Inactive)
REMARK    1  A    between atoms: C2_2  and  O1_3 
REMARK    2  A    between atoms: O1_3  and  C3_4 
REMARK       I    between atoms: C3_4  and  N1_6 
REMARK    3  A    between atoms: C6_9  and  N2_10 
REMARK       I    between atoms: N2_10  and  C7_11 
REMARK    4  A    between atoms: N4_13  and  C8_15 
REMARK       I    between atoms: N5_19  and  C12_20 
REMARK    5  A    between atoms: C12_20  and  C13_22 
REMARK    6  A    between atoms: C13_22  and  N6_23 
REMARK       I    between atoms: N6_23  and  C14_25 
ROOT
HETATM    1  C3  UNL     1       4.283  -0.929  -0.346  1.00  0.00     0.362 C 
HETATM    2  O2  UNL     1       5.274  -0.235  -0.066  1.00  0.00    -0.238 OA
HETATM    3  N1  UNL     1       2.946  -0.469  -0.499  1.00  0.00    -0.326 N 
HETATM    4  C4  UNL     1       1.923  -1.427  -0.825  1.00  0.00     0.136 C 
HETATM    5  C5  UNL     1       0.768  -0.715  -1.501  1.00  0.00     0.112 C 
HETATM    6  C6  UNL     1      -0.031   0.096  -0.488  1.00  0.00     0.165 C 
HETATM    7  N5  UNL     1       0.485   1.259   0.209  1.00  0.00    -0.293 N 
HETATM    8  C12 UNL     1      -0.316   2.415   0.247  1.00  0.00     0.243 C 
HETATM    9  O3  UNL     1      -1.395   2.501  -0.373  1.00  0.00    -0.271 OA
HETATM   10  C15 UNL     1       1.813   1.289   0.827  1.00  0.00     0.154 C 
HETATM   11  C16 UNL     1       2.784   0.954  -0.303  1.00  0.00     0.148 C 
ENDROOT
BRANCH   6  12
HETATM   12  N2  UNL     1      -1.123  -0.318  -0.254  1.00  0.00    -0.360 NA
HETATM   13  C7  UNL     1      -2.353  -0.780   0.013  1.00  0.00     0.265 C 
HETATM   14  N3  UNL     1      -3.526   0.038  -0.042  1.00  0.00    -0.049 NA
HETATM   15  N4  UNL     1      -2.554  -2.035   0.345  1.00  0.00    -0.345 N 
ATOM     16  H4  UNL     1      -1.746  -2.656   0.394  1.00  0.00     0.164 HD
BRANCH  15  17
HETATM   17  C8  UNL     1      -3.821  -2.568   0.636  1.00  0.00     0.022 C 
HETATM   18  C9  UNL     1      -4.683  -1.728   1.564  1.00  0.00     0.037 C 
HETATM   19  C10 UNL     1      -3.668  -3.946   1.349  1.00  0.00     0.037 C 
HETATM   20  C11 UNL     1      -4.551  -2.916  -0.652  1.00  0.00     0.037 C 
ENDBRANCH  15  17
ENDBRANCH   6  12
BRANCH   8  21
HETATM   21  C13 UNL     1       0.068   3.608   1.028  1.00  0.00     0.225 C 
BRANCH  21  22
HETATM   22  N6  UNL     1      -0.858   4.706   0.905  1.00  0.00    -0.356 N 
HETATM   23  C14 UNL     1      -0.945   5.440  -0.326  1.00  0.00     0.182 C 
HETATM   24  N7  UNL     1      -0.343   5.162  -1.390  1.00  0.00    -0.374 N 
HETATM   25  N8  UNL     1      -1.794   6.619  -0.335  1.00  0.00    -0.064 NA
ATOM     26  H72 UNL     1       0.253   4.334  -1.384  1.00  0.00     0.158 HD
ATOM     27  H71 UNL     1      -0.405   5.683  -2.264  1.00  0.00     0.158 HD
ATOM     28  H6  UNL     1      -1.452   4.962   1.694  1.00  0.00     0.162 HD
ENDBRANCH  21  22
ENDBRANCH   8  21
BRANCH   1  29
HETATM   29  O1  UNL     1       4.512  -2.314  -0.529  1.00  0.00    -0.304 OA
BRANCH  29  30
HETATM   30  C2  UNL     1       5.834  -2.790  -0.383  1.00  0.00     0.176 C 
HETATM   31  C1  UNL     1       6.307  -2.490   1.023  1.00  0.00     0.034 C 
ENDBRANCH  29  30
ENDBRANCH   1  29
TORSDOF 6
