REMARK  7 active torsions:
REMARK  status: ('A' for Active; 'I' for Inactive)
REMARK    1  A    between atoms: N1_2  and  C2_4 
REMARK    2  A    between atoms: C2_4  and  C4_6 
REMARK    3  A    between atoms: C4_6  and  C5_7 
REMARK    4  A    between atoms: C5_7  and  O1_8 
REMARK    5  A    between atoms: C5_7  and  C6_10 
REMARK    6  A    between atoms: C6_10  and  C7_11 
REMARK    7  A    between atoms: C7_11  and  C8_15 
REMARK       I    between atoms: N3_23  and  C16_25 
REMARK       I    between atoms: C16_25  and  N4_27 
REMARK       I    between atoms: N4_27  and  C17_29 
ROOT
HETATM    1  C8  UNL     1      -0.332  -1.509   0.337  1.00  0.00     0.076 C 
HETATM    2  C9  UNL     1      -0.765  -2.204   1.591  1.00  0.00     0.017 C 
HETATM    3  C10 UNL     1      -2.199  -2.574   1.642  1.00  0.00     0.010 C 
HETATM    4  C11 UNL     1      -3.002  -2.158   0.452  1.00  0.00    -0.043 C 
HETATM    5  C12 UNL     1      -2.942  -3.186  -0.681  1.00  0.00     0.015 C 
HETATM    6  C13 UNL     1      -4.471  -2.150   0.907  1.00  0.00     0.015 C 
HETATM    7  C14 UNL     1      -2.711  -0.782  -0.038  1.00  0.00     0.062 C 
HETATM    8  C15 UNL     1      -1.269  -0.442   0.010  1.00  0.00     0.001 C 
HETATM    9  N3  UNL     1      -0.943   0.778  -0.245  1.00  0.00    -0.315 N 
ATOM     10  H3  UNL     1       0.042   1.042  -0.222  1.00  0.00     0.170 HD
HETATM   11  C16 UNL     1      -1.931   1.784  -0.562  1.00  0.00     0.326 C 
HETATM   12  O2  UNL     1      -2.383   2.540   0.309  1.00  0.00    -0.247 OA
HETATM   13  N4  UNL     1      -2.340   1.847  -1.912  1.00  0.00    -0.279 N 
ATOM     14  H4  UNL     1      -1.935   1.200  -2.589  1.00  0.00     0.173 HD
HETATM   15  C17 UNL     1      -3.287   2.778  -2.337  1.00  0.00     0.221 C 
HETATM   16  C18 UNL     1      -3.908   3.740  -1.406  1.00  0.00     0.117 C 
HETATM   17  O3  UNL     1      -3.625   2.799  -3.555  1.00  0.00    -0.274 OA
ENDROOT
BRANCH   1  18
HETATM   18  C7  UNL     1       1.094  -1.112   0.413  1.00  0.00    -0.008 C 
HETATM   19  N2  UNL     1       1.894  -1.609  -0.436  1.00  0.00    -0.405 N 
ATOM     20  H22 UNL     1       2.875  -1.336  -0.384  1.00  0.00     0.155 HD
ATOM     21  H21 UNL     1       1.532  -2.222  -1.167  1.00  0.00     0.155 HD
BRANCH  18  22
HETATM   22  C6  UNL     1       1.617  -0.226   1.470  1.00  0.00     0.084 C 
BRANCH  22  23
HETATM   23  C5  UNL     1       2.993   0.297   1.277  1.00  0.00     0.125 C 
BRANCH  23  24
HETATM   24  C4  UNL     1       3.225   1.163   0.089  1.00  0.00     0.056 C 
BRANCH  24  25
HETATM   25  C2  UNL     1       4.730   1.475   0.067  1.00  0.00     0.078 C 
HETATM   26  C3  UNL     1       5.033   2.418  -1.053  1.00  0.00     0.032 C 
BRANCH  25  27
HETATM   27  N1  UNL     1       5.483   0.259  -0.037  1.00  0.00    -0.404 N 
HETATM   28  C1  UNL     1       5.947  -0.119  -1.165  1.00  0.00     0.112 C 
ATOM     29  H1  UNL     1       5.649  -0.307   0.795  1.00  0.00     0.158 HD
ENDBRANCH  25  27
ENDBRANCH  24  25
ENDBRANCH  23  24
BRANCH  23  30
HETATM   30  O1  UNL     1       3.388   1.027   2.412  1.00  0.00    -0.395 OA
ATOM     31  H1  UNL     1       3.240   0.474   3.170  1.00  0.00     0.210 HD
ENDBRANCH  23  30
ENDBRANCH  22  23
ENDBRANCH  18  22
ENDBRANCH   1  18
TORSDOF 7
