REMARK  6 active torsions:
REMARK  status: ('A' for Active; 'I' for Inactive)
REMARK    1  A    between atoms: N2_11  and  C8_12 
REMARK    2  A    between atoms: C8_12  and  C9_13 
REMARK    3  A    between atoms: C9_13  and  O1_14 
REMARK    4  A    between atoms: C9_13  and  C10_16 
REMARK    5  A    between atoms: C10_16  and  N3_17 
REMARK    6  A    between atoms: N3_17  and  C11_19 
ROOT
HETATM    1  C9  UNL     1       0.726  -0.116  -0.826  1.00  0.00     0.163 C 
ENDROOT
BRANCH   1   2
HETATM    2  C8  UNL     1       1.882  -0.303   0.051  1.00  0.00     0.306 C 
BRANCH   2   3
HETATM    3  N2  UNL     1       3.195  -0.330  -0.623  1.00  0.00     0.101 N 
HETATM    4  C2  UNL     1       4.079  -1.005   0.332  1.00  0.00     0.176 C 
HETATM    5  C1  UNL     1       3.914  -0.556   1.741  1.00  0.00     0.050 C 
HETATM    6  C3  UNL     1       3.639  -2.480   0.301  1.00  0.00     0.050 C 
HETATM    7  C4  UNL     1       5.506  -0.999  -0.099  1.00  0.00     0.273 C 
HETATM    8  N1  UNL     1       6.287   0.056   0.475  1.00  0.00    -0.073 N 
HETATM    9  C5  UNL     1       5.917   1.361   0.058  1.00  0.00     0.234 C 
ATOM     10  H12 UNL     1       6.274  -0.007   1.493  1.00  0.00     0.277 HD
ATOM     11  H11 UNL     1       7.279  -0.103   0.301  1.00  0.00     0.277 HD
HETATM   12  C6  UNL     1       4.959   1.362  -1.118  1.00  0.00     0.057 C 
HETATM   13  C7  UNL     1       3.568   1.086  -0.683  1.00  0.00     0.275 C 
ENDBRANCH   2   3
ENDBRANCH   1   2
BRANCH   1  14
HETATM   14  O1  UNL     1       0.641   0.967  -1.647  1.00  0.00    -0.392 OA
ATOM     15  H1  UNL     1      -0.110   1.088  -2.216  1.00  0.00     0.210 HD
ENDBRANCH   1  14
BRANCH   1  16
HETATM   16  C10 UNL     1      -0.556  -0.017   0.058  1.00  0.00     0.148 C 
BRANCH  16  17
HETATM   17  N3  UNL     1      -1.650  -0.169  -0.827  1.00  0.00    -0.410 N 
ATOM     18  H3  UNL     1      -1.491  -0.397  -1.808  1.00  0.00     0.154 HD
BRANCH  17  19
HETATM   19  C11 UNL     1      -2.968  -0.002  -0.337  1.00  0.00     0.026 C 
HETATM   20  C12 UNL     1      -3.264   1.422   0.094  1.00  0.00     0.035 C 
HETATM   21  C13 UNL     1      -4.687   1.571   0.511  1.00  0.00    -0.012 C 
HETATM   22  C14 UNL     1      -4.947   0.631   1.673  1.00  0.00     0.009 C 
HETATM   23  C18 UNL     1      -5.634   1.185  -0.609  1.00  0.00     0.009 C 
HETATM   24  C15 UNL     1      -4.698  -0.783   1.250  1.00  0.00    -0.012 C 
HETATM   25  C16 UNL     1      -5.631  -1.167   0.124  1.00  0.00     0.009 C 
HETATM   26  C20 UNL     1      -3.284  -0.962   0.802  1.00  0.00     0.035 C 
HETATM   27  C17 UNL     1      -5.348  -0.244  -1.028  1.00  0.00    -0.012 C 
HETATM   28  C19 UNL     1      -3.920  -0.349  -1.468  1.00  0.00     0.035 C 
ENDBRANCH  17  19
ENDBRANCH  16  17
ENDBRANCH   1  16
TORSDOF 6
