REMARK  7 active torsions:
REMARK  status: ('A' for Active; 'I' for Inactive)
REMARK    1  A    between atoms: C2_2  and  C3_3 
REMARK    2  A    between atoms: C3_3  and  C5_5 
REMARK    3  A    between atoms: C5_5  and  N1_6 
REMARK    4  A    between atoms: C5_5  and  C6_10 
REMARK       I    between atoms: C6_10  and  N2_12 
REMARK    5  A    between atoms: N2_12  and  C7_14 
REMARK    6  A    between atoms: C11_24  and  C12_25 
REMARK    7  A    between atoms: C11_24  and  C14_27 
ROOT
HETATM    1  C7  UNL     1       0.706  -0.062  -0.184  1.00  0.00     0.153 A 
HETATM    2  N3  UNL     1      -0.358  -0.692   0.294  1.00  0.00    -0.337 N 
ATOM      3  H3  UNL     1      -0.275  -1.316   1.096  1.00  0.00     0.168 HD
HETATM    4  C8  UNL     1      -1.515  -0.499  -0.281  1.00  0.00     0.046 A 
HETATM    5  C9  UNL     1      -1.576   0.343  -1.349  1.00  0.00     0.102 A 
HETATM    6  S1  UNL     1       0.076   0.837  -1.490  1.00  0.00    -0.034 SA
HETATM    7  N4  UNL     1      -2.776   0.675  -2.057  1.00  0.00    -0.319 N 
ATOM      8  H4  UNL     1      -2.741   1.313  -2.852  1.00  0.00     0.169 HD
HETATM    9  C10 UNL     1      -4.038   0.103  -1.642  1.00  0.00     0.231 C 
HETATM   10  O2  UNL     1      -4.987  -0.030  -2.396  1.00  0.00    -0.272 OA
HETATM   11  C11 UNL     1      -4.000  -0.290  -0.181  1.00  0.00     0.046 C 
HETATM   12  C16 UNL     1      -2.827  -1.150   0.115  1.00  0.00     0.079 C 
ENDROOT
BRANCH   1  13
HETATM   13  N2  UNL     1       1.947  -0.126   0.260  1.00  0.00    -0.305 N 
HETATM   14  C6  UNL     1       2.958   0.635  -0.399  1.00  0.00     0.254 C 
HETATM   15  O1  UNL     1       2.933   1.869  -0.183  1.00  0.00    -0.271 OA
ATOM     16  H2  UNL     1       2.180  -0.711   1.062  1.00  0.00     0.171 HD
BRANCH  14  17
HETATM   17  C5  UNL     1       3.975   0.058  -1.276  1.00  0.00     0.278 C 
BRANCH  17  18
HETATM   18  C3  UNL     1       5.340  -0.121  -0.720  1.00  0.00     0.021 C 
HETATM   19  C4  UNL     1       5.434  -1.226   0.319  1.00  0.00     0.012 C 
BRANCH  18  20
HETATM   20  C2  UNL     1       6.113   1.083  -0.330  1.00  0.00     0.002 C 
HETATM   21  C1  UNL     1       5.752   1.732   0.957  1.00  0.00     0.005 C 
ENDBRANCH  18  20
ENDBRANCH  17  18
BRANCH  17  22
HETATM   22  N1  UNL     1       3.493  -1.328  -1.556  1.00  0.00    -0.066 N 
ATOM     23  H13 UNL     1       4.116  -1.871  -2.154  1.00  0.00     0.275 HD
ATOM     24  H12 UNL     1       3.534  -1.952  -0.750  1.00  0.00     0.275 HD
ATOM     25  H11 UNL     1       2.555  -1.205  -1.938  1.00  0.00     0.275 HD
ENDBRANCH  17  22
ENDBRANCH  14  17
ENDBRANCH   1  13
BRANCH  11  26
HETATM   26  C12 UNL     1      -3.959   0.929   0.696  1.00  0.00     0.015 C 
HETATM   27  C13 UNL     1      -5.168   1.819   0.498  1.00  0.00     0.006 C 
ENDBRANCH  11  26
BRANCH  11  28
HETATM   28  C14 UNL     1      -5.253  -1.073   0.064  1.00  0.00     0.015 C 
HETATM   29  C15 UNL     1      -5.387  -1.551   1.482  1.00  0.00     0.006 C 
ENDBRANCH  11  28
TORSDOF 7
