REMARK  7 active torsions:
REMARK  status: ('A' for Active; 'I' for Inactive)
REMARK    1  A    between atoms: C2_2  and  C3_3 
REMARK    2  A    between atoms: C9_9  and  O1_10 
REMARK    3  A    between atoms: C10_12  and  O2_13 
REMARK    4  A    between atoms: C11_15  and  C12_16 
REMARK    5  A    between atoms: C15_20  and  C17_22 
REMARK    6  A    between atoms: C17_22  and  C18_23 
REMARK    7  A    between atoms: C18_23  and  C19_24 
ROOT
HETATM    1  C3  UNL     1      -0.955   1.379   0.109  1.00  0.00    -0.019 C 
HETATM    2  C4  UNL     1      -1.949   2.386  -0.463  1.00  0.00     0.020 C 
HETATM    3  C5  UNL     1       0.441   1.960  -0.144  1.00  0.00     0.023 C 
HETATM    4  C6  UNL     1       1.168   0.920  -0.983  1.00  0.00     0.023 C 
HETATM    5  C7  UNL     1       2.619   0.877  -0.730  1.00  0.00    -0.054 C 
HETATM    6  C8  UNL     1       3.538   1.202  -1.627  1.00  0.00     0.017 C 
HETATM    7  C9  UNL     1       2.989   0.433   0.633  1.00  0.00     0.176 C 
HETATM    8  C10 UNL     1       2.295  -0.788   1.081  1.00  0.00     0.162 C 
HETATM    9  C11 UNL     1       0.985  -1.148   0.475  1.00  0.00     0.092 C 
HETATM   10  C14 UNL     1       0.491  -0.386  -0.690  1.00  0.00     0.017 C 
HETATM   11  C15 UNL     1      -0.961   0.078  -0.603  1.00  0.00    -0.028 C 
HETATM   12  C16 UNL     1      -1.371   0.380  -2.057  1.00  0.00     0.016 C 
ENDROOT
BRANCH  11  13
HETATM   13  C17 UNL     1      -1.875  -0.959  -0.102  1.00  0.00     0.021 C 
BRANCH  13  14
HETATM   14  C18 UNL     1      -3.350  -0.609  -0.094  1.00  0.00     0.114 C 
BRANCH  14  15
HETATM   15  C19 UNL     1      -4.042  -1.835   0.456  1.00  0.00     0.172 C 
HETATM   16  O4  UNL     1      -3.827  -2.924  -0.145  1.00  0.00    -0.648 OA
HETATM   17  O5  UNL     1      -4.868  -1.827   1.548  1.00  0.00    -0.648 OA
ENDBRANCH  14  15
ENDBRANCH  13  14
ENDBRANCH  11  13
BRANCH   1  18
HETATM   18  C2  UNL     1      -1.166   1.324   1.555  1.00  0.00    -0.027 C 
HETATM   19  C1  UNL     1      -0.912   2.430   2.260  1.00  0.00     0.008 C 
ENDBRANCH   1  18
BRANCH   9  20
HETATM   20  C12 UNL     1       1.028  -2.590   0.129  1.00  0.00     0.130 C 
HETATM   21  C13 UNL     1       2.014  -3.085  -0.859  1.00  0.00     0.091 C 
HETATM   22  O3  UNL     1       0.272  -3.370   0.640  1.00  0.00    -0.298 OA
ENDBRANCH   9  20
BRANCH   8  23
HETATM   23  O2  UNL     1       2.208  -0.690   2.498  1.00  0.00    -0.392 OA
ATOM     24  H2  UNL     1       1.761  -1.477   2.787  1.00  0.00     0.210 HD
ENDBRANCH   8  23
BRANCH   7  25
HETATM   25  O1  UNL     1       4.379   0.319   0.681  1.00  0.00    -0.389 OA
ATOM     26  H1  UNL     1       4.616   0.034   1.556  1.00  0.00     0.210 HD
ENDBRANCH   7  25
TORSDOF 7
