REMARK  8 active torsions:
REMARK  status: ('A' for Active; 'I' for Inactive)
REMARK    1  A    between atoms: C2_2  and  C3_3 
REMARK    2  A    between atoms: C3_3  and  C4_4 
REMARK    3  A    between atoms: C4_4  and  C5_5 
REMARK    4  A    between atoms: C5_5  and  N1_6 
REMARK    5  A    between atoms: N1_6  and  C6_8 
REMARK    6  A    between atoms: C6_8  and  O1_9 
REMARK    7  A    between atoms: C6_8  and  C7_11 
REMARK    8  A    between atoms: C16_21  and  O3_22 
ROOT
HETATM    1  C7  UNL     1      -0.312   0.209   0.008  1.00  0.00     0.100 C 
HETATM    2  C8  UNL     1      -0.734   1.689  -0.194  1.00  0.00     0.041 C 
HETATM    3  C9  UNL     1      -2.003   1.647  -1.009  1.00  0.00     0.016 C 
HETATM    4  C10 UNL     1      -2.480   0.228  -0.749  1.00  0.00     0.001 C 
HETATM    5  C11 UNL     1      -3.517  -0.081  -1.781  1.00  0.00     0.019 C 
HETATM    6  C12 UNL     1      -3.074   0.179   0.609  1.00  0.00     0.112 C 
HETATM    7  C13 UNL     1      -4.052  -0.923   0.840  1.00  0.00     0.045 C 
HETATM    8  C14 UNL     1      -5.163  -0.257   1.628  1.00  0.00     0.029 C 
HETATM    9  C15 UNL     1      -5.023   1.159   1.201  1.00  0.00     0.169 C 
HETATM   10  O2  UNL     1      -3.778   1.402   0.748  1.00  0.00    -0.375 OA
HETATM   11  C16 UNL     1      -2.060   0.171   1.721  1.00  0.00     0.250 C 
HETATM   12  N2  UNL     1      -0.752  -0.177   1.349  1.00  0.00    -0.378 N 
ATOM     13  H2  UNL     1      -0.134  -0.678   1.987  1.00  0.00     0.157 HD
HETATM   14  C17 UNL     1      -1.168  -0.508  -0.935  1.00  0.00    -0.005 C 
HETATM   15  C18 UNL     1      -1.261  -1.992  -0.715  1.00  0.00     0.019 C 
HETATM   16  C19 UNL     1      -0.748  -0.305  -2.367  1.00  0.00     0.019 C 
ENDROOT
BRANCH   1  17
HETATM   17  C6  UNL     1       1.121   0.202  -0.039  1.00  0.00     0.141 C 
BRANCH  17  18
HETATM   18  N1  UNL     1       2.085  -0.037  -1.009  1.00  0.00    -0.372 N 
ATOM     19  H1  UNL     1       1.756  -0.272  -1.946  1.00  0.00     0.161 HD
BRANCH  18  20
HETATM   20  C5  UNL     1       3.531   0.020  -0.802  1.00  0.00     0.121 C 
BRANCH  20  21
HETATM   21  C4  UNL     1       4.060  -0.933   0.207  1.00  0.00     0.020 C 
BRANCH  21  22
HETATM   22  C3  UNL     1       5.563  -0.826   0.364  1.00  0.00     0.001 C 
BRANCH  22  23
HETATM   23  C2  UNL     1       6.024   0.537   0.802  1.00  0.00    -0.004 C 
HETATM   24  C1  UNL     1       7.519   0.611   0.952  1.00  0.00     0.005 C 
ENDBRANCH  22  23
ENDBRANCH  21  22
ENDBRANCH  20  21
ENDBRANCH  18  20
ENDBRANCH  17  18
BRANCH  17  25
HETATM   25  O1  UNL     1       1.650   0.492   1.121  1.00  0.00    -0.348 OA
ATOM     26  H1  UNL     1       0.990   0.656   1.785  1.00  0.00     0.219 HD
ENDBRANCH  17  25
ENDBRANCH   1  17
BRANCH  11  27
HETATM   27  O3  UNL     1      -2.452  -0.751   2.730  1.00  0.00    -0.374 OA
ATOM     28  H3  UNL     1      -1.812  -0.756   3.432  1.00  0.00     0.212 HD
ENDBRANCH  11  27
TORSDOF 8
