REMARK  5 active torsions:
REMARK  status: ('A' for Active; 'I' for Inactive)
REMARK    1  A    between atoms: C5_5  and  N1_6 
REMARK    2  A    between atoms: C7_11  and  N2_12 
REMARK       I    between atoms: N2_12  and  C8_14 
REMARK    3  A    between atoms: C8_14  and  C9_16 
REMARK    4  A    between atoms: N3_21  and  C13_22 
REMARK    5  A    between atoms: C13_22  and  C14_23 
ROOT
HETATM    1  N2  UNL     1      -1.793  -0.462   0.158  1.00  0.00    -0.354 N 
ATOM      2  H2  UNL     1      -1.840  -1.199   0.861  1.00  0.00     0.162 HD
HETATM    3  C8  UNL     1      -0.537  -0.031  -0.309  1.00  0.00     0.241 C 
HETATM    4  O1  UNL     1      -0.499   0.878  -1.174  1.00  0.00    -0.271 OA
ENDROOT
BRANCH   3   5
HETATM    5  C9  UNL     1       0.735  -0.625   0.198  1.00  0.00     0.179 C 
HETATM    6  C10 UNL     1       0.844  -2.056  -0.305  1.00  0.00     0.044 C 
HETATM    7  C11 UNL     1       1.165  -1.840  -1.769  1.00  0.00     0.105 C 
HETATM    8  C12 UNL     1       1.902  -0.544  -1.764  1.00  0.00     0.220 C 
HETATM    9  O2  UNL     1       2.470  -0.007  -2.767  1.00  0.00    -0.273 OA
HETATM   10  N3  UNL     1       1.863  -0.004  -0.442  1.00  0.00    -0.338 N 
BRANCH  10  11
HETATM   11  C13 UNL     1       2.808   0.961   0.057  1.00  0.00     0.131 C 
BRANCH  11  12
HETATM   12  C14 UNL     1       4.014   0.301   0.706  1.00  0.00     0.008 C 
HETATM   13  C15 UNL     1       4.917   1.411   1.182  1.00  0.00     0.032 C 
HETATM   14  C16 UNL     1       6.336   0.968   1.388  1.00  0.00     0.168 C 
HETATM   15  O3  UNL     1       6.816   0.167   0.380  1.00  0.00    -0.391 OA
HETATM   16  C17 UNL     1       6.059  -1.004   0.349  1.00  0.00     0.168 C 
HETATM   17  C18 UNL     1       4.709  -0.628  -0.256  1.00  0.00     0.032 C 
ENDBRANCH  11  12
ENDBRANCH  10  11
ENDBRANCH   3   5
BRANCH   1  18
HETATM   18  C7  UNL     1      -3.000   0.113  -0.334  1.00  0.00     0.090 C 
HETATM   19  C2  UNL     1      -3.876   0.682   0.730  1.00  0.00     0.004 C 
HETATM   20  C1  UNL     1      -3.120   1.473   1.768  1.00  0.00     0.012 C 
HETATM   21  C3  UNL     1      -4.889   1.586   0.058  1.00  0.00     0.008 C 
HETATM   22  C4  UNL     1      -5.303   1.106  -1.289  1.00  0.00     0.033 C 
HETATM   23  C5  UNL     1      -5.166  -0.369  -1.497  1.00  0.00     0.185 C 
HETATM   24  C6  UNL     1      -3.845  -0.928  -1.081  1.00  0.00     0.058 C 
BRANCH  23  25
HETATM   25  N1  UNL     1      -6.297  -1.070  -0.906  1.00  0.00    -0.075 N 
ATOM     26  H13 UNL     1      -6.418  -0.834   0.079  1.00  0.00     0.274 HD
ATOM     27  H12 UNL     1      -7.188  -0.718  -1.256  1.00  0.00     0.274 HD
ATOM     28  H11 UNL     1      -6.204  -2.076  -1.048  1.00  0.00     0.274 HD
ENDBRANCH  23  25
ENDBRANCH   1  18
TORSDOF 5
