REMARK  5 active torsions:
REMARK  status: ('A' for Active; 'I' for Inactive)
REMARK    1  A    between atoms: C6_6  and  S1_7 
REMARK    2  A    between atoms: S1_7  and  C7_10 
REMARK    3  A    between atoms: C9_12  and  N1_13 
REMARK    4  A    between atoms: N1_13  and  S2_15 
REMARK    5  A    between atoms: S2_15  and  C10_18 
ROOT
HETATM    1  C7  UNL     1      -0.906  -0.638   1.539  1.00  0.00     0.147 A 
HETATM    2  C8  UNL     1       0.330  -0.588   0.929  1.00  0.00     0.093 A 
HETATM    3  C9  UNL     1       1.019   0.476   1.448  1.00  0.00     0.132 A 
HETATM    4  N2  UNL     1       0.221   1.054   2.348  1.00  0.00    -0.284 N 
ATOM      5  H2  UNL     1       0.454   1.875   2.906  1.00  0.00     0.188 HD
HETATM    6  N3  UNL     1      -0.915   0.392   2.398  1.00  0.00    -0.288 N 
ATOM      7  H3  UNL     1      -1.697   0.630   3.008  1.00  0.00     0.188 HD
ENDROOT
BRANCH   1   8
HETATM    8  S1  UNL     1      -2.178  -1.796   1.256  1.00  0.00     0.200 S 
HETATM    9  O1  UNL     1      -2.963  -2.004   2.518  1.00  0.00    -0.220 OA
HETATM   10  O2  UNL     1      -1.584  -3.151   0.874  1.00  0.00    -0.220 OA
BRANCH   8  11
HETATM   11  C6  UNL     1      -3.257  -1.355  -0.053  1.00  0.00     0.143 C 
HETATM   12  C2  UNL     1      -3.962  -0.091   0.085  1.00  0.00    -0.069 C 
HETATM   13  C1  UNL     1      -4.372   0.659   1.306  1.00  0.00     0.044 C 
HETATM   14  C3  UNL     1      -4.242   0.373  -1.149  1.00  0.00    -0.023 C 
HETATM   15  C4  UNL     1      -3.712  -0.582  -2.180  1.00  0.00     0.029 C 
HETATM   16  C5  UNL     1      -2.588  -1.269  -1.385  1.00  0.00     0.029 C 
ENDBRANCH   8  11
ENDBRANCH   1   8
BRANCH   3  17
HETATM   17  N1  UNL     1       2.216   0.893   1.163  1.00  0.00    -0.268 N 
ATOM     18  H1  UNL     1       2.597   1.710   1.640  1.00  0.00     0.180 HD
BRANCH  17  19
HETATM   19  S2  UNL     1       3.162   0.069  -0.019  1.00  0.00     0.235 S 
HETATM   20  O3  UNL     1       3.232  -1.395   0.309  1.00  0.00    -0.205 OA
HETATM   21  O4  UNL     1       2.575   0.319  -1.370  1.00  0.00    -0.205 OA
BRANCH  19  22
HETATM   22  C10 UNL     1       4.816   0.709  -0.006  1.00  0.00     0.121 C 
HETATM   23  C11 UNL     1       5.620  -0.097  -1.017  1.00  0.00     0.027 C 
HETATM   24  C12 UNL     1       4.882   2.152  -0.392  1.00  0.00     0.027 C 
ENDBRANCH  19  22
ENDBRANCH  17  19
ENDBRANCH   3  17
TORSDOF 5
