REMARK  4 active torsions:
REMARK  status: ('A' for Active; 'I' for Inactive)
REMARK    1  A    between atoms: C1_2  and  C2_3 
REMARK    2  A    between atoms: C4_10  and  C5_11 
REMARK    3  A    between atoms: C5_11  and  N4_12 
REMARK    4  A    between atoms: N4_12  and  C6_14 
ROOT
HETATM    1  C5  UNL     1      -0.591  -0.218  -0.969  1.00  0.00     0.122 C 
ENDROOT
BRANCH   1   2
HETATM    2  C4  UNL     1      -1.453  -0.500  -0.040  1.00  0.00     0.079 A 
HETATM    3  C2  UNL     1      -2.655   0.097   0.259  1.00  0.00     0.077 A 
HETATM    4  N2  UNL     1      -3.134  -0.607   1.327  1.00  0.00    -0.306 N 
HETATM    5  C3  UNL     1      -2.300  -1.583   1.687  1.00  0.00     0.325 A 
ATOM      6  H2  UNL     1      -4.020  -0.410   1.792  1.00  0.00     0.171 HD
HETATM    7  O1  UNL     1      -2.428  -2.426   2.632  1.00  0.00    -0.247 OA
HETATM    8  N3  UNL     1      -1.265  -1.522   0.849  1.00  0.00    -0.305 N 
ATOM      9  H3  UNL     1      -0.456  -2.143   0.868  1.00  0.00     0.171 HD
BRANCH   3  10
HETATM   10  C1  UNL     1      -3.259   1.124  -0.325  1.00  0.00     0.132 C 
HETATM   11  N1  UNL     1      -2.805   1.865  -1.411  1.00  0.00    -0.113 NA
ENDBRANCH   3  10
ENDBRANCH   1   2
BRANCH   1  12
HETATM   12  N4  UNL     1       0.618  -0.989  -1.098  1.00  0.00    -0.345 N 
ATOM     13  H4  UNL     1       0.613  -1.901  -1.555  1.00  0.00     0.167 HD
BRANCH  12  14
HETATM   14  C6  UNL     1       1.723  -0.486  -0.613  1.00  0.00     0.174 A 
HETATM   15  N5  UNL     1       1.736   0.721  -0.007  1.00  0.00    -0.346 N 
HETATM   16  C7  UNL     1       2.888   1.228   0.491  1.00  0.00     0.107 A 
ATOM     17  H5  UNL     1       0.871   1.255   0.076  1.00  0.00     0.167 HD
HETATM   18  C8  UNL     1       4.048   0.508   0.377  1.00  0.00     0.108 A 
HETATM   19  N6  UNL     1       4.070  -0.678  -0.211  1.00  0.00    -0.329 N 
HETATM   20  C9  UNL     1       2.897  -1.163  -0.701  1.00  0.00     0.289 A 
ATOM     21  H6  UNL     1       4.936  -1.210  -0.294  1.00  0.00     0.168 HD
HETATM   22  O2  UNL     1       2.944  -2.289  -1.254  1.00  0.00    -0.264 OA
ENDBRANCH  12  14
ENDBRANCH   1  12
TORSDOF 4
