REMARK  3 active torsions:
REMARK  status: ('A' for Active; 'I' for Inactive)
REMARK    1  A    between atoms: C4_7  and  C5_8 
REMARK    2  A    between atoms: C5_8  and  C6_9 
REMARK    3  A    between atoms: C7_10  and  O2_11 
ROOT
HETATM    1  C6  UNL     1      -1.284  -0.536  -0.176  1.00  0.00     0.085 A 
HETATM    2  C7  UNL     1      -1.991   0.393  -0.869  1.00  0.00     0.160 A 
HETATM    3  N2  UNL     1      -3.184   0.822  -0.436  1.00  0.00    -0.288 N 
ATOM      4  H2  UNL     1      -3.703   1.521  -0.967  1.00  0.00     0.172 HD
HETATM    5  C8  UNL     1      -3.693   0.320   0.710  1.00  0.00     0.329 A 
HETATM    6  O3  UNL     1      -4.804   0.735   1.091  1.00  0.00    -0.247 OA
HETATM    7  N3  UNL     1      -3.002  -0.608   1.414  1.00  0.00    -0.275 N 
ATOM      8  H3  UNL     1      -3.400  -0.977   2.277  1.00  0.00     0.173 HD
HETATM    9  C9  UNL     1      -1.809  -1.052   1.003  1.00  0.00     0.264 A 
HETATM   10  O4  UNL     1      -1.146  -1.921   1.648  1.00  0.00    -0.267 OA
ENDROOT
BRANCH   1  11
HETATM   11  C5  UNL     1       0.023  -1.034  -0.612  1.00  0.00     0.056 C 
BRANCH  11  12
HETATM   12  C4  UNL     1       1.119  -0.411  -0.235  1.00  0.00     0.103 A 
HETATM   13  C3  UNL     1       1.253   0.709   0.556  1.00  0.00     0.273 A 
HETATM   14  N1  UNL     1       2.559   0.982   0.670  1.00  0.00    -0.308 N 
HETATM   15  O1  UNL     1       0.276   1.349   1.073  1.00  0.00    -0.266 OA
HETATM   16  C2  UNL     1       3.269   0.076  -0.019  1.00  0.00     0.098 A 
ATOM     17  H1  UNL     1       2.953   1.759   1.199  1.00  0.00     0.170 HD
HETATM   18  C1  UNL     1       4.604   0.027  -0.137  1.00  0.00     0.063 C 
HETATM   19  N4  UNL     1       2.389  -0.764  -0.565  1.00  0.00    -0.339 N 
ATOM     20  H4  UNL     1       2.635  -1.562  -1.150  1.00  0.00     0.167 HD
ENDBRANCH  11  12
ENDBRANCH   1  11
BRANCH   2  21
HETATM   21  O2  UNL     1      -1.426   0.886  -2.050  1.00  0.00    -0.345 OA
ATOM     22  H2  UNL     1      -1.921   1.536  -2.535  1.00  0.00     0.219 HD
ENDBRANCH   2  21
TORSDOF 3
