REMARK  2 active torsions:
REMARK  status: ('A' for Active; 'I' for Inactive)
REMARK    1  A    between atoms: N1_1  and  C1_5 
REMARK    2  A    between atoms: C7_17  and  C8_18 
ROOT
HETATM    1  C1  UNL     1      -0.142   1.742   0.478  1.00  0.00     0.243 A 
HETATM    2  C2  UNL     1      -1.602   1.607   0.633  1.00  0.00     0.041 A 
HETATM    3  C3  UNL     1      -1.983   0.341   0.413  1.00  0.00     0.051 A 
HETATM    4  N2  UNL     1      -3.204  -0.219   0.448  1.00  0.00    -0.308 N 
ATOM      5  H2  UNL     1      -4.027   0.341   0.670  1.00  0.00     0.170 HD
HETATM    6  C4  UNL     1      -3.319  -1.522   0.187  1.00  0.00     0.327 A 
HETATM    7  O1  UNL     1      -4.453  -2.106   0.206  1.00  0.00    -0.247 OA
HETATM    8  N3  UNL     1      -2.217  -2.240  -0.104  1.00  0.00    -0.275 N 
ATOM      9  H3  UNL     1      -2.323  -3.235  -0.301  1.00  0.00     0.173 HD
HETATM   10  C5  UNL     1      -0.996  -1.712  -0.146  1.00  0.00     0.262 A 
HETATM   11  O2  UNL     1       0.039  -2.401  -0.422  1.00  0.00    -0.267 OA
HETATM   12  C6  UNL     1      -0.849  -0.362   0.121  1.00  0.00     0.068 A 
HETATM   13  C7  UNL     1       0.246   0.355   0.135  1.00  0.00     0.005 A 
ENDROOT
BRANCH  13  14
HETATM   14  C8  UNL     1       1.625  -0.054  -0.125  1.00  0.00    -0.010 A 
HETATM   15  C9  UNL     1       2.559  -0.255   0.870  1.00  0.00     0.030 A 
HETATM   16  C10 UNL     1       3.736  -0.628   0.271  1.00  0.00     0.088 A 
HETATM   17  N4  UNL     1       3.530  -0.655  -1.038  1.00  0.00    -0.374 N 
HETATM   18  C11 UNL     1       2.255  -0.310  -1.311  1.00  0.00     0.099 A 
ATOM     19  H4  UNL     1       4.232  -0.900  -1.736  1.00  0.00     0.164 HD
ENDBRANCH  13  14
BRANCH   1  20
HETATM   20  N1  UNL     1       0.211   2.658  -0.586  1.00  0.00    -0.068 N 
ATOM     21  H13 UNL     1      -0.231   2.390  -1.466  1.00  0.00     0.275 HD
ATOM     22  H12 UNL     1      -0.232   3.567  -0.453  1.00  0.00     0.275 HD
ATOM     23  H11 UNL     1       1.221   2.751  -0.693  1.00  0.00     0.275 HD
ENDBRANCH   1  20
TORSDOF 2
