REMARK  4 active torsions:
REMARK  status: ('A' for Active; 'I' for Inactive)
REMARK    1  A    between atoms: N1_1  and  C1_4 
REMARK    2  A    between atoms: C3_10  and  N4_11 
REMARK    3  A    between atoms: N4_11  and  C4_13 
REMARK    4  A    between atoms: C4_13  and  C5_14 
ROOT
HETATM    1  C5  UNL     1       3.841  -0.140  -0.505  1.00  0.00    -0.056 C 
HETATM    2  C6  UNL     1       4.428   0.897  -0.686  1.00  0.00     0.053 C 
HETATM    3  O1  UNL     1       5.111   2.062  -0.898  1.00  0.00    -0.314 OA
ATOM      4  H1  UNL     1       5.574   2.879  -1.041  1.00  0.00     0.230 HD
ENDROOT
BRANCH   1   5
HETATM    5  C4  UNL     1       3.126  -1.408  -0.264  1.00  0.00     0.235 C 
BRANCH   5   6
HETATM    6  N4  UNL     1       1.807  -1.407  -0.790  1.00  0.00    -0.215 N 
ATOM      7  H4  UNL     1       1.644  -1.991  -1.610  1.00  0.00     0.178 HD
BRANCH   6   8
HETATM    8  C3  UNL     1       0.807  -0.756  -0.348  1.00  0.00     0.683 A 
HETATM    9  N3  UNL     1      -0.381  -0.876  -0.977  1.00  0.00    -0.174 N 
HETATM   10  C2  UNL     1      -1.475  -0.214  -0.558  1.00  0.00     0.169 A 
ATOM     11  H3  UNL     1      -0.452  -1.485  -1.792  1.00  0.00     0.186 HD
HETATM   12  N2  UNL     1      -2.742  -0.162  -0.996  1.00  0.00    -0.174 N 
HETATM   13  C8  UNL     1      -1.405   0.617   0.544  1.00  0.00     0.162 A 
HETATM   14  C1  UNL     1      -3.442   0.656  -0.218  1.00  0.00     0.678 A 
ATOM     15  H2  UNL     1      -3.110  -0.671  -1.800  1.00  0.00     0.186 HD
HETATM   16  N6  UNL     1      -2.625   1.135   0.727  1.00  0.00    -0.183 N 
ATOM     17  H6  UNL     1      -2.889   1.788   1.465  1.00  0.00     0.184 HD
HETATM   18  C7  UNL     1      -0.193   0.740   1.187  1.00  0.00     0.290 A 
HETATM   19  N5  UNL     1       0.876   0.053   0.726  1.00  0.00    -0.154 N 
HETATM   20  O2  UNL     1      -0.113   1.495   2.194  1.00  0.00    -0.265 OA
ATOM     21  H5  UNL     1       1.768   0.151   1.210  1.00  0.00     0.187 HD
BRANCH  14  22
HETATM   22  N1  UNL     1      -4.683   0.961  -0.320  1.00  0.00    -0.234 N 
ATOM     23  H12 UNL     1      -5.306   0.596  -1.040  1.00  0.00     0.174 HD
ATOM     24  H11 UNL     1      -5.221   1.589   0.277  1.00  0.00     0.174 HD
ENDBRANCH  14  22
ENDBRANCH   6   8
ENDBRANCH   5   6
ENDBRANCH   1   5
TORSDOF 4
