REMARK  3 active torsions:
REMARK  status: ('A' for Active; 'I' for Inactive)
REMARK    1  A    between atoms: O1_2  and  C2_3 
REMARK    2  A    between atoms: N1_11  and  C10_12 
REMARK    3  A    between atoms: C10_12  and  C11_13 
ROOT
HETATM    1  C2  UNL     1       5.077   0.474   0.084  1.00  0.00     0.120 C 
HETATM    2  C3  UNL     1       4.189   0.161   1.233  1.00  0.00     0.034 C 
HETATM    3  C4  UNL     1       2.958   1.034   1.113  1.00  0.00     0.033 C 
HETATM    4  C5  UNL     1       2.096   0.393   0.037  1.00  0.00     0.034 C 
HETATM    5  C6  UNL     1       2.924   0.066  -1.187  1.00  0.00     0.033 C 
HETATM    6  C7  UNL     1       4.282   0.717  -1.146  1.00  0.00     0.034 C 
HETATM    7  C8  UNL     1       0.932   1.284  -0.300  1.00  0.00     0.051 C 
HETATM    8  C9  UNL     1      -0.148   0.508  -1.043  1.00  0.00     0.128 C 
HETATM    9  N1  UNL     1      -0.534  -0.666  -0.339  1.00  0.00    -0.355 N 
HETATM   10  C18 UNL     1       0.471  -1.353   0.449  1.00  0.00     0.186 C 
HETATM   11  N2  UNL     1       0.188  -2.597   1.078  1.00  0.00    -0.064 NA
HETATM   12  N3  UNL     1       1.602  -0.840   0.576  1.00  0.00    -0.355 N 
ATOM     13  H3  UNL     1       2.265  -1.371   1.141  1.00  0.00     0.163 HD
ENDROOT
BRANCH   9  14
HETATM   14  C10 UNL     1      -1.829  -1.224  -0.323  1.00  0.00     0.130 C 
BRANCH  14  15
HETATM   15  C11 UNL     1      -2.892  -0.551   0.436  1.00  0.00     0.004 C 
HETATM   16  C12 UNL     1      -3.192   0.825  -0.021  1.00  0.00     0.006 C 
HETATM   17  C13 UNL     1      -4.481   1.367   0.593  1.00  0.00     0.000 C 
HETATM   18  C14 UNL     1      -5.712   0.947  -0.131  1.00  0.00     0.000 C 
HETATM   19  C15 UNL     1      -5.480   0.017  -1.268  1.00  0.00     0.000 C 
HETATM   20  C16 UNL     1      -4.853  -1.285  -0.885  1.00  0.00     0.000 C 
HETATM   21  C17 UNL     1      -4.203  -1.322   0.446  1.00  0.00     0.006 C 
ENDBRANCH  14  15
ENDBRANCH   9  14
BRANCH   1  22
HETATM   22  O1  UNL     1       6.105  -0.444  -0.090  1.00  0.00    -0.391 OA
HETATM   23  C1  UNL     1       7.365   0.077   0.072  1.00  0.00     0.202 C 
ENDBRANCH   1  22
TORSDOF 3
