REMARK  3 active torsions:
REMARK  status: ('A' for Active; 'I' for Inactive)
REMARK    1  A    between atoms: C5_5  and  C6_6 
REMARK    2  A    between atoms: C6_6  and  C9_10 
REMARK    3  A    between atoms: C10_13  and  C11_14 
ROOT
HETATM    1  C6  UNL     1      -2.178  -1.408   0.664  1.00  0.00     0.033 C 
HETATM    2  C7  UNL     1      -2.240  -1.072   1.919  1.00  0.00     0.108 C 
HETATM    3  C8  UNL     1      -3.226  -1.567   2.859  1.00  0.00     0.088 C 
HETATM    4  N1  UNL     1      -4.014  -1.952   3.642  1.00  0.00    -0.192 NA
ENDROOT
BRANCH   1   5
HETATM    5  C5  UNL     1      -1.129  -0.848  -0.222  1.00  0.00     0.030 C 
HETATM    6  C4  UNL     1      -1.880  -0.077  -1.278  1.00  0.00     0.010 C 
HETATM    7  C3  UNL     1      -2.089   1.373  -1.031  1.00  0.00     0.005 C 
HETATM    8  C2  UNL     1      -1.013   2.128  -0.367  1.00  0.00    -0.018 C 
HETATM    9  C1  UNL     1      -1.679   3.320   0.342  1.00  0.00     0.010 C 
HETATM   10  C18 UNL     1      -0.235   1.383   0.647  1.00  0.00     0.010 C 
HETATM   11  C10 UNL     1      -0.081  -0.065   0.454  1.00  0.00    -0.001 C 
BRANCH  11  12
HETATM   12  C11 UNL     1       1.252  -0.431  -0.220  1.00  0.00     0.001 C 
HETATM   13  C12 UNL     1       1.317  -0.128  -1.665  1.00  0.00     0.083 C 
HETATM   14  C13 UNL     1       2.750  -0.009  -2.145  1.00  0.00     0.127 C 
HETATM   15  O3  UNL     1       3.064   0.703  -3.069  1.00  0.00    -0.298 OA
HETATM   16  C14 UNL     1       3.750  -0.810  -1.427  1.00  0.00     0.079 C 
HETATM   17  C15 UNL     1       3.662  -0.654   0.047  1.00  0.00     0.012 C 
HETATM   18  C16 UNL     1       2.428   0.142   0.492  1.00  0.00    -0.013 C 
HETATM   19  C17 UNL     1       2.359  -0.052   1.992  1.00  0.00     0.010 C 
ENDBRANCH  11  12
ENDBRANCH   1   5
BRANCH   1  20
HETATM   20  C9  UNL     1      -3.111  -2.388   0.138  1.00  0.00     0.206 C 
HETATM   21  O1  UNL     1      -3.986  -2.902   0.873  1.00  0.00    -0.644 OA
HETATM   22  O2  UNL     1      -3.044  -2.775  -1.182  1.00  0.00    -0.644 OA
ENDBRANCH   1  20
TORSDOF 3
