REMARK  3 active torsions:
REMARK  status: ('A' for Active; 'I' for Inactive)
REMARK    1  A    between atoms: C2_2  and  C3_3 
REMARK    2  A    between atoms: C9_10  and  O2_11 
REMARK    3  A    between atoms: C12_15  and  O3_16 
ROOT
HETATM    1  C3  UNL     1       1.890  -0.262   0.137  1.00  0.00     0.062 C 
HETATM    2  C4  UNL     1       2.819  -1.038   1.091  1.00  0.00     0.046 C 
HETATM    3  O1  UNL     1       1.817   0.994   0.742  1.00  0.00    -0.368 OA
HETATM    4  C5  UNL     1       0.605   1.498   0.421  1.00  0.00     0.074 C 
HETATM    5  C6  UNL     1       0.712   2.308  -0.840  1.00  0.00     0.044 C 
HETATM    6  C7  UNL     1      -0.477   3.073  -0.295  1.00  0.00    -0.006 C 
HETATM    7  C8  UNL     1      -1.679   2.291  -0.706  1.00  0.00     0.043 C 
HETATM    8  C9  UNL     1      -1.558   0.791  -0.426  1.00  0.00     0.069 C 
HETATM    9  C10 UNL     1      -1.807   0.099  -1.747  1.00  0.00     0.042 C 
HETATM   10  C11 UNL     1      -2.267  -1.296  -1.424  1.00  0.00     0.045 C 
HETATM   11  C12 UNL     1      -1.296  -2.096  -0.624  1.00  0.00     0.076 C 
HETATM   12  C13 UNL     1      -1.561  -2.269   0.804  1.00  0.00     0.007 C 
HETATM   13  C14 UNL     1      -1.625  -1.269   1.816  1.00  0.00    -0.027 C 
HETATM   14  C15 UNL     1      -1.008   0.082   1.761  1.00  0.00     0.043 C 
HETATM   15  C16 UNL     1      -0.417   0.401   0.371  1.00  0.00     0.032 C 
HETATM   16  C17 UNL     1       0.482  -0.749   0.129  1.00  0.00     0.038 C 
HETATM   17  C18 UNL     1       0.105  -1.654  -0.998  1.00  0.00     0.050 C 
HETATM   18  C19 UNL     1       0.065   2.693   1.077  1.00  0.00     0.044 C 
ENDROOT
BRANCH   1  19
HETATM   19  C2  UNL     1       2.585  -0.288  -1.175  1.00  0.00     0.033 C 
HETATM   20  C1  UNL     1       3.946   0.371  -1.101  1.00  0.00     0.008 C 
ENDBRANCH   1  19
BRANCH   8  21
HETATM   21  O2  UNL     1      -2.815   0.503   0.206  1.00  0.00    -0.389 OA
ATOM     22  H2  UNL     1      -2.740  -0.428   0.380  1.00  0.00     0.210 HD
ENDBRANCH   8  21
BRANCH  11  23
HETATM   23  O3  UNL     1      -1.368  -3.397  -1.211  1.00  0.00    -0.386 OA
ATOM     24  H3  UNL     1      -0.749  -3.907  -0.701  1.00  0.00     0.211 HD
ENDBRANCH  11  23
TORSDOF 3
