REMARK  3 active torsions:
REMARK  status: ('A' for Active; 'I' for Inactive)
REMARK    1  A    between atoms: C9_9  and  O1_10 
REMARK    2  A    between atoms: C18_20  and  O2_21 
REMARK    3  A    between atoms: C18_20  and  C19_23 
ROOT
HETATM    1  C1  UNL     1      -2.530   0.179   1.742  1.00  0.00     0.019 C 
HETATM    2  C2  UNL     1      -2.345   0.315   0.284  1.00  0.00    -0.002 C 
HETATM    3  C3  UNL     1      -1.728   1.589  -0.176  1.00  0.00     0.013 C 
HETATM    4  C4  UNL     1      -0.337   1.726   0.300  1.00  0.00     0.006 C 
HETATM    5  C5  UNL     1       0.390   0.505   0.675  1.00  0.00    -0.006 C 
HETATM    6  C6  UNL     1       1.884   0.752   0.406  1.00  0.00    -0.006 C 
HETATM    7  C7  UNL     1       2.642  -0.213   1.232  1.00  0.00     0.008 C 
HETATM    8  C8  UNL     1       4.013  -0.546   0.760  1.00  0.00     0.032 C 
HETATM    9  C9  UNL     1       4.536   0.464  -0.252  1.00  0.00     0.118 C 
HETATM   10  C10 UNL     1       3.579   0.417  -1.419  1.00  0.00     0.036 C 
HETATM   11  C11 UNL     1       2.181   0.792  -1.037  1.00  0.00    -0.008 C 
HETATM   12  C12 UNL     1       1.242  -0.060  -1.882  1.00  0.00     0.005 C 
HETATM   13  C13 UNL     1       0.757  -1.248  -1.095  1.00  0.00     0.006 C 
HETATM   14  C14 UNL     1      -0.092  -0.784   0.100  1.00  0.00    -0.005 C 
HETATM   15  C15 UNL     1      -1.500  -0.796  -0.331  1.00  0.00     0.002 C 
HETATM   16  C16 UNL     1      -2.302  -1.999  -0.030  1.00  0.00     0.009 C 
HETATM   17  C17 UNL     1      -3.752  -1.499  -0.116  1.00  0.00     0.046 C 
HETATM   18  C18 UNL     1      -3.651  -0.009  -0.420  1.00  0.00     0.118 C 
ENDROOT
BRANCH  18  19
HETATM   19  O2  UNL     1      -3.477   0.071  -1.817  1.00  0.00    -0.382 OA
ATOM     20  H2  UNL     1      -4.294  -0.132  -2.257  1.00  0.00     0.211 HD
ENDBRANCH  18  19
BRANCH  18  21
HETATM   21  C19 UNL     1      -4.792   0.766   0.047  1.00  0.00     0.269 C 
HETATM   22  O3  UNL     1      -5.465   1.385  -0.752  1.00  0.00    -0.304 OA
ENDBRANCH  18  21
BRANCH   9  23
HETATM   23  O1  UNL     1       5.783   0.107  -0.697  1.00  0.00    -0.396 OA
ATOM     24  H1  UNL     1       6.109   0.737  -1.328  1.00  0.00     0.210 HD
ENDBRANCH   9  23
TORSDOF 3
