REMARK  3 active torsions:
REMARK  status: ('A' for Active; 'I' for Inactive)
REMARK    1  A    between atoms: C2_2  and  C4_4 
REMARK    2  A    between atoms: C4_4  and  O1_5 
REMARK    3  A    between atoms: C19_22  and  O3_23 
ROOT
HETATM    1  C4  UNL     1       2.544  -0.104   0.293  1.00  0.00     0.087 C 
HETATM    2  C5  UNL     1       1.297   0.695   0.623  1.00  0.00     0.048 C 
HETATM    3  C6  UNL     1       0.179  -0.005  -0.085  1.00  0.00     0.022 C 
HETATM    4  C7  UNL     1       0.331   0.332  -1.577  1.00  0.00    -0.005 C 
HETATM    5  C8  UNL     1      -0.589  -0.624  -2.311  1.00  0.00     0.006 C 
HETATM    6  C9  UNL     1      -1.999  -0.566  -1.814  1.00  0.00     0.012 C 
HETATM    7  C10 UNL     1      -2.096  -0.694  -0.351  1.00  0.00    -0.011 C 
HETATM    8  C11 UNL     1      -1.602  -2.090   0.039  1.00  0.00     0.018 C 
HETATM    9  C12 UNL     1      -3.355  -0.441   0.321  1.00  0.00     0.025 C 
HETATM   10  C13 UNL     1      -4.425   0.273  -0.387  1.00  0.00     0.008 C 
HETATM   11  C14 UNL     1      -4.948   1.237   0.689  1.00  0.00     0.003 C 
HETATM   12  C15 UNL     1      -3.598   1.710   1.252  1.00  0.00     0.032 C 
HETATM   13  C16 UNL     1      -2.944   0.402   1.532  1.00  0.00     0.127 C 
HETATM   14  O2  UNL     1      -1.565   0.439   1.551  1.00  0.00    -0.379 OA
HETATM   15  C17 UNL     1      -1.184   0.378   0.266  1.00  0.00     0.135 C 
HETATM   16  C18 UNL     1       1.713   0.317  -2.049  1.00  0.00     0.039 C 
HETATM   17  C19 UNL     1       2.747  -0.268  -1.169  1.00  0.00     0.153 C 
ENDROOT
BRANCH   1  18
HETATM   18  C2  UNL     1       3.758   0.428   1.016  1.00  0.00     0.014 C 
HETATM   19  C1  UNL     1       3.532   0.520   2.508  1.00  0.00     0.012 C 
HETATM   20  C3  UNL     1       4.967  -0.457   0.805  1.00  0.00     0.012 C 
ENDBRANCH   1  18
BRANCH   1  21
HETATM   21  O1  UNL     1       2.314  -1.389   0.833  1.00  0.00    -0.387 OA
ATOM     22  H1  UNL     1       1.550  -1.724   0.378  1.00  0.00     0.210 HD
ENDBRANCH   1  21
BRANCH  17  23
HETATM   23  O3  UNL     1       3.990   0.329  -1.489  1.00  0.00    -0.393 OA
ATOM     24  H3  UNL     1       4.120   0.224  -2.424  1.00  0.00     0.210 HD
ENDBRANCH  17  23
TORSDOF 3
