REMARK  2 active torsions:
REMARK  status: ('A' for Active; 'I' for Inactive)
REMARK    1  A    between atoms: O1_1  and  C1_3 
REMARK    2  A    between atoms: C2_4  and  C3_5 
ROOT
HETATM    1  C1  UNL     1       1.769   0.666   0.700  1.00  0.00     0.175 C 
HETATM    2  C2  UNL     1       0.811  -0.473   0.735  1.00  0.00     0.116 C 
HETATM    3  N1  UNL     1       1.351  -1.705   0.393  1.00  0.00    -0.393 N 
ATOM      4  H1  UNL     1       1.414  -2.425   1.113  1.00  0.00     0.159 HD
HETATM    5  C13 UNL     1       1.808  -2.003  -0.879  1.00  0.00     0.082 C 
HETATM    6  C14 UNL     1       2.402  -0.967  -1.724  1.00  0.00     0.213 C 
HETATM    7  O2  UNL     1       2.992   0.101  -1.207  1.00  0.00    -0.372 OA
HETATM    8  C15 UNL     1       3.117   0.341   0.089  1.00  0.00     0.089 C 
HETATM    9  C16 UNL     1       3.891   1.676   0.219  1.00  0.00     0.041 C 
HETATM   10  C17 UNL     1       5.327   1.301   0.070  1.00  0.00     0.003 C 
HETATM   11  C18 UNL     1       5.389  -0.135   0.484  1.00  0.00     0.003 C 
HETATM   12  C19 UNL     1       3.973  -0.537   0.911  1.00  0.00     0.041 C 
ENDROOT
BRANCH   2  13
HETATM   13  C3  UNL     1      -0.473  -0.094   0.006  1.00  0.00     0.011 C 
HETATM   14  C4  UNL     1      -1.472  -1.199   0.004  1.00  0.00     0.007 C 
HETATM   15  C5  UNL     1      -2.240  -1.486  -1.233  1.00  0.00     0.000 C 
HETATM   16  C6  UNL     1      -3.693  -1.731  -1.156  1.00  0.00     0.000 C 
HETATM   17  C7  UNL     1      -4.584  -0.866  -0.356  1.00  0.00     0.000 C 
HETATM   18  C8  UNL     1      -4.686   0.583  -0.661  1.00  0.00     0.000 C 
HETATM   19  C9  UNL     1      -4.699   1.553   0.478  1.00  0.00     0.000 C 
HETATM   20  C10 UNL     1      -3.359   2.301   0.724  1.00  0.00     0.000 C 
HETATM   21  C11 UNL     1      -2.383   1.177   0.745  1.00  0.00     0.000 C 
HETATM   22  C12 UNL     1      -0.943   1.216   0.699  1.00  0.00     0.007 C 
ENDBRANCH   2  13
BRANCH   1  23
HETATM   23  O1  UNL     1       1.990   1.251   1.962  1.00  0.00    -0.390 OA
ATOM     24  H1  UNL     1       2.601   1.978   1.940  1.00  0.00     0.210 HD
ENDBRANCH   1  23
TORSDOF 2
