REMARK  4 active torsions:
REMARK  status: ('A' for Active; 'I' for Inactive)
REMARK       I    between atoms: C1_2  and  N2_4 
REMARK       I    between atoms: C2_6  and  N3_7 
REMARK       I    between atoms: C2_6  and  N4_19 
REMARK    1  A    between atoms: N3_7  and  C3_9 
REMARK    2  A    between atoms: C15_22  and  N5_23 
REMARK    3  A    between atoms: C15_22  and  C20_30 
REMARK       I    between atoms: N5_23  and  C16_25 
REMARK    4  A    between atoms: C16_25  and  C17_27 
ROOT
HETATM    1  N1  UNL     1      -0.103  -4.098   1.308  1.00  0.00    -0.039 NA
HETATM    2  C1  UNL     1      -0.652  -3.366   0.227  1.00  0.00     0.346 C 
HETATM    3  O1  UNL     1      -0.822  -3.968  -0.888  1.00  0.00    -0.250 OA
HETATM    4  N2  UNL     1      -1.020  -2.030   0.299  1.00  0.00    -0.144 N 
ATOM      5  H2  UNL     1      -1.961  -1.852   0.651  1.00  0.00     0.188 HD
HETATM    6  C2  UNL     1      -0.345  -0.992  -0.014  1.00  0.00     0.680 C 
HETATM    7  N3  UNL     1      -0.860   0.335   0.115  1.00  0.00    -0.217 N 
ATOM      8  H3  UNL     1      -0.201   1.113   0.132  1.00  0.00     0.178 HD
HETATM    9  N4  UNL     1       0.971  -1.195  -0.512  1.00  0.00    -0.215 N 
HETATM   10  C13 UNL     1       1.337  -1.419  -1.891  1.00  0.00     0.144 C 
HETATM   11  C14 UNL     1       2.776  -0.980  -1.936  1.00  0.00     0.063 C 
HETATM   12  C15 UNL     1       3.297  -1.254  -0.578  1.00  0.00     0.129 C 
HETATM   13  C21 UNL     1       2.125  -1.186   0.342  1.00  0.00     0.182 C 
ENDROOT
BRANCH   7  14
HETATM   14  C3  UNL     1      -2.263   0.623   0.222  1.00  0.00     0.048 C 
HETATM   15  C4  UNL     1      -2.997   0.101  -1.003  1.00  0.00     0.036 C 
HETATM   16  C5  UNL     1      -4.447   0.468  -0.957  1.00  0.00    -0.012 C 
HETATM   17  C6  UNL     1      -4.663   1.966  -0.996  1.00  0.00     0.009 C 
HETATM   18  C10 UNL     1      -5.030  -0.090   0.318  1.00  0.00     0.009 C 
HETATM   19  C7  UNL     1      -3.879   2.549   0.165  1.00  0.00    -0.012 C 
HETATM   20  C8  UNL     1      -4.569   2.041   1.434  1.00  0.00     0.009 C 
HETATM   21  C12 UNL     1      -2.445   2.148   0.165  1.00  0.00     0.036 C 
HETATM   22  C9  UNL     1      -4.354   0.564   1.482  1.00  0.00    -0.012 C 
HETATM   23  C11 UNL     1      -2.891   0.180   1.508  1.00  0.00     0.036 C 
ENDBRANCH   7  14
BRANCH  12  24
HETATM   24  N5  UNL     1       4.353  -0.327  -0.186  1.00  0.00    -0.342 N 
HETATM   25  C16 UNL     1       4.204   1.062  -0.102  1.00  0.00     0.222 C 
HETATM   26  O2  UNL     1       3.121   1.674  -0.361  1.00  0.00    -0.273 OA
ATOM     27  H5  UNL     1       5.266  -0.720   0.043  1.00  0.00     0.163 HD
BRANCH  25  28
HETATM   28  C17 UNL     1       5.348   1.904   0.308  1.00  0.00     0.078 A 
HETATM   29  C18 UNL     1       5.446   3.269  -0.284  1.00  0.00     0.015 A 
HETATM   30  C19 UNL     1       5.061   3.114   1.168  1.00  0.00     0.015 A 
ENDBRANCH  25  28
ENDBRANCH  12  24
BRANCH  12  31
HETATM   31  C20 UNL     1       3.828  -2.648  -0.527  1.00  0.00     0.261 C 
HETATM   32  N6  UNL     1       3.073  -3.799  -0.845  1.00  0.00    -0.060 NA
HETATM   33  O3  UNL     1       5.029  -2.816  -0.179  1.00  0.00    -0.274 OA
ENDBRANCH  12  31
TORSDOF 4
