REMARK  5 active torsions:
REMARK  status: ('A' for Active; 'I' for Inactive)
REMARK       I    between atoms: N1_2  and  C2_4 
REMARK       I    between atoms: N3_6  and  C3_8 
REMARK    1  A    between atoms: C3_8  and  C4_10 
REMARK    2  A    between atoms: C4_10  and  N4_12 
REMARK       I    between atoms: N4_12  and  C6_14 
REMARK       I    between atoms: C6_14  and  N5_16 
REMARK    3  A    between atoms: C9_19  and  C10_20 
REMARK    4  A    between atoms: C14_24  and  C15_25 
REMARK       I    between atoms: C15_25  and  N6_27 
REMARK    5  A    between atoms: N6_27  and  N7_29 
REMARK       I    between atoms: N7_29  and  C16_31 
ROOT
HETATM    1  N4  UNL     1       1.685   0.011  -0.516  1.00  0.00    -0.330 N 
ATOM      2  H4  UNL     1       1.658  -0.501  -1.398  1.00  0.00     0.165 HD
HETATM    3  C6  UNL     1       0.481   0.240   0.165  1.00  0.00     0.319 C 
HETATM    4  O2  UNL     1       0.499   0.866   1.246  1.00  0.00    -0.247 OA
HETATM    5  N5  UNL     1      -0.747  -0.220  -0.339  1.00  0.00    -0.320 N 
HETATM    6  C7  UNL     1      -0.893  -0.966  -1.582  1.00  0.00     0.129 C 
HETATM    7  C8  UNL     1      -2.158  -1.742  -1.492  1.00  0.00     0.028 C 
HETATM    8  C9  UNL     1      -2.874  -1.163  -0.311  1.00  0.00     0.027 C 
HETATM    9  C14 UNL     1      -2.082  -0.047   0.248  1.00  0.00     0.187 C 
ENDROOT
BRANCH   9  10
HETATM   10  C15 UNL     1      -2.661   1.256  -0.169  1.00  0.00     0.259 C 
HETATM   11  O3  UNL     1      -1.992   2.041  -0.921  1.00  0.00    -0.269 OA
HETATM   12  N6  UNL     1      -3.946   1.692   0.227  1.00  0.00    -0.266 N 
ATOM     13  H6  UNL     1      -4.499   1.080   0.827  1.00  0.00     0.190 HD
BRANCH  12  14
HETATM   14  N7  UNL     1      -4.498   2.911  -0.158  1.00  0.00    -0.268 N 
HETATM   15  C16 UNL     1      -3.865   4.137   0.223  1.00  0.00     0.232 C 
HETATM   16  C17 UNL     1      -4.415   5.453  -0.164  1.00  0.00     0.119 C 
HETATM   17  O4  UNL     1      -2.792   4.119   0.917  1.00  0.00    -0.272 OA
ATOM     18  H7  UNL     1      -5.354   2.930  -0.712  1.00  0.00     0.190 HD
ENDBRANCH  12  14
ENDBRANCH   9  10
BRANCH   1  19
HETATM   19  C4  UNL     1       2.972   0.473  -0.018  1.00  0.00     0.174 C 
HETATM   20  C5  UNL     1       3.546   1.466  -1.015  1.00  0.00     0.042 C 
BRANCH  19  21
HETATM   21  C3  UNL     1       3.869  -0.696   0.103  1.00  0.00     0.246 C 
HETATM   22  N3  UNL     1       5.201  -0.605   0.565  1.00  0.00    -0.300 N 
HETATM   23  C2  UNL     1       6.228  -0.603  -0.196  1.00  0.00     0.190 C 
ATOM     24  H3  UNL     1       5.353  -0.536   1.571  1.00  0.00     0.171 HD
HETATM   25  N1  UNL     1       7.551  -0.509   0.308  1.00  0.00    -0.369 N 
HETATM   26  N2  UNL     1       6.004  -0.699  -1.609  1.00  0.00    -0.063 NA
HETATM   27  C1  UNL     1       8.397   0.564  -0.163  1.00  0.00     0.148 C 
ATOM     28  H1  UNL     1       7.898  -1.185   0.989  1.00  0.00     0.161 HD
HETATM   29  O1  UNL     1       3.452  -1.850  -0.216  1.00  0.00    -0.271 OA
ENDBRANCH  19  21
ENDBRANCH   1  19
BRANCH   8  30
HETATM   30  C10 UNL     1      -3.153  -2.274   0.675  1.00  0.00    -0.045 C 
HETATM   31  C11 UNL     1      -4.025  -3.293  -0.070  1.00  0.00     0.015 C 
HETATM   32  C12 UNL     1      -1.913  -2.993   1.098  1.00  0.00     0.015 C 
HETATM   33  C13 UNL     1      -3.919  -1.835   1.874  1.00  0.00     0.015 C 
ENDBRANCH   8  30
TORSDOF 5
