REMARK  6 active torsions:
REMARK  status: ('A' for Active; 'I' for Inactive)
REMARK    1  A    between atoms: C1_2  and  C2_4 
REMARK    2  A    between atoms: C2_4  and  N2_5 
REMARK       I    between atoms: N2_5  and  C3_7 
REMARK    3  A    between atoms: C3_7  and  C4_9 
REMARK    4  A    between atoms: C12_17  and  N3_18 
REMARK       I    between atoms: N3_18  and  C13_20 
REMARK    5  A    between atoms: N5_22  and  C14_24 
REMARK    6  A    between atoms: C14_24  and  N6_26 
ROOT
HETATM    1  C4  UNL     1      -2.211  -0.775   0.011  1.00  0.00     0.062 C 
HETATM    2  C5  UNL     1      -2.636  -1.225   1.417  1.00  0.00     0.026 C 
HETATM    3  C6  UNL     1      -3.017  -2.668   1.446  1.00  0.00    -0.013 C 
HETATM    4  C7  UNL     1      -4.131  -2.956   0.455  1.00  0.00     0.009 C 
HETATM    5  C8  UNL     1      -3.746  -2.509  -0.915  1.00  0.00    -0.013 C 
HETATM    6  C9  UNL     1      -2.557  -3.329  -1.379  1.00  0.00     0.011 C 
HETATM    7  C10 UNL     1      -1.457  -3.076  -0.398  1.00  0.00     0.010 C 
HETATM    8  C11 UNL     1      -1.814  -3.471   0.989  1.00  0.00     0.011 C 
HETATM    9  C12 UNL     1      -1.087  -1.584  -0.502  1.00  0.00     0.106 C 
HETATM   10  C20 UNL     1      -3.435  -1.056  -0.879  1.00  0.00     0.026 C 
ENDROOT
BRANCH   9  11
HETATM   11  N3  UNL     1       0.207  -1.394   0.033  1.00  0.00    -0.358 N 
HETATM   12  C13 UNL     1       1.015  -0.268  -0.152  1.00  0.00     0.190 C 
HETATM   13  N4  UNL     1       1.304   0.189  -1.463  1.00  0.00    -0.063 NA
HETATM   14  N5  UNL     1       1.539   0.368   0.870  1.00  0.00    -0.307 N 
ATOM     15  H5  UNL     1       1.361   0.047   1.822  1.00  0.00     0.171 HD
ATOM     16  H3  UNL     1       0.586  -2.147   0.607  1.00  0.00     0.162 HD
BRANCH  14  17
HETATM   17  C14 UNL     1       2.344   1.489   0.643  1.00  0.00     0.176 C 
HETATM   18  S1  UNL     1       1.769   2.975   0.961  1.00  0.00    -0.041 SA
BRANCH  17  19
HETATM   19  N6  UNL     1       3.663   1.324   0.155  1.00  0.00    -0.358 N 
HETATM   20  C15 UNL     1       4.228   0.033  -0.123  1.00  0.00     0.125 C 
HETATM   21  C16 UNL     1       5.663   0.000   0.412  1.00  0.00     0.020 C 
HETATM   22  C17 UNL     1       5.730   1.052   1.515  1.00  0.00     0.003 C 
HETATM   23  C18 UNL     1       5.754   2.408   0.812  1.00  0.00     0.020 C 
HETATM   24  C19 UNL     1       4.530   2.476  -0.090  1.00  0.00     0.125 C 
ENDBRANCH  17  19
ENDBRANCH  14  17
ENDBRANCH   9  11
BRANCH   1  25
HETATM   25  C3  UNL     1      -2.019   0.684   0.089  1.00  0.00     0.228 C 
HETATM   26  N2  UNL     1      -2.017   1.493  -1.074  1.00  0.00    -0.352 N 
ATOM     27  H2  UNL     1      -2.140   1.028  -1.974  1.00  0.00     0.162 HD
HETATM   28  O2  UNL     1      -1.854   1.253   1.195  1.00  0.00    -0.273 OA
BRANCH  26  29
HETATM   29  C2  UNL     1      -1.855   2.916  -1.079  1.00  0.00     0.222 C 
BRANCH  29  30
HETATM   30  C1  UNL     1      -2.930   3.639  -0.323  1.00  0.00     0.248 C 
HETATM   31  N1  UNL     1      -2.914   5.057  -0.218  1.00  0.00    -0.061 NA
HETATM   32  O1  UNL     1      -3.863   3.010   0.229  1.00  0.00    -0.275 OA
ENDBRANCH  29  30
ENDBRANCH  26  29
ENDBRANCH   1  25
TORSDOF 6
