REMARK  4 active torsions:
REMARK  status: ('A' for Active; 'I' for Inactive)
REMARK    1  A    between atoms: C1_2  and  C2_4 
REMARK    2  A    between atoms: N2_7  and  C5_8 
REMARK    3  A    between atoms: C13_16  and  C14_17 
REMARK       I    between atoms: C14_17  and  N3_19 
REMARK    4  A    between atoms: N3_19  and  C15_21 
ROOT
HETATM    1  C5  UNL     1      -1.378  -0.616  -0.286  1.00  0.00     0.208 C 
HETATM    2  C6  UNL     1      -2.197  -1.911  -0.344  1.00  0.00     0.017 C 
HETATM    3  C7  UNL     1      -2.178  -2.570  -1.689  1.00  0.00     0.007 C 
HETATM    4  C8  UNL     1      -1.034  -2.270  -2.565  1.00  0.00     0.001 C 
HETATM    5  C9  UNL     1       0.298  -2.190  -1.921  1.00  0.00     0.005 C 
HETATM    6  C10 UNL     1       0.337  -2.299  -0.443  1.00  0.00     0.001 C 
HETATM    7  C11 UNL     1      -0.411  -3.476   0.132  1.00  0.00     0.006 C 
HETATM    8  C12 UNL     1      -1.690  -2.936   0.675  1.00  0.00     0.007 C 
HETATM    9  C13 UNL     1      -0.058  -0.977   0.255  1.00  0.00     0.113 C 
ENDROOT
BRANCH   9  10
HETATM   10  C14 UNL     1       1.075  -0.087   0.048  1.00  0.00     0.226 C 
HETATM   11  O2  UNL     1       0.991   0.947  -0.641  1.00  0.00    -0.273 OA
HETATM   12  N3  UNL     1       2.368  -0.263   0.574  1.00  0.00    -0.325 N 
ATOM     13  H3  UNL     1       2.537  -1.084   1.155  1.00  0.00     0.165 HD
BRANCH  12  14
HETATM   14  C15 UNL     1       3.466   0.636   0.348  1.00  0.00     0.379 C 
HETATM   15  N4  UNL     1       4.567   0.001  -0.350  1.00  0.00    -0.045 N 
HETATM   16  C16 UNL     1       5.446   1.041  -0.856  1.00  0.00     0.237 C 
ATOM     17  H42 UNL     1       5.058  -0.681   0.228  1.00  0.00     0.280 HD
ATOM     18  H41 UNL     1       4.253  -0.638  -1.081  1.00  0.00     0.280 HD
HETATM   19  C17 UNL     1       6.588   1.325   0.077  1.00  0.00     0.047 C 
HETATM   20  C18 UNL     1       6.180   2.384   1.093  1.00  0.00     0.124 C 
HETATM   21  N5  UNL     1       5.216   1.771   1.979  1.00  0.00    -0.358 N 
HETATM   22  C19 UNL     1       4.001   1.167   1.640  1.00  0.00     0.268 C 
ATOM     23  H5  UNL     1       5.450   1.780   2.972  1.00  0.00     0.162 HD
HETATM   24  O3  UNL     1       3.202   1.046   2.606  1.00  0.00    -0.269 OA
ENDBRANCH  12  14
ENDBRANCH   9  10
BRANCH   1  25
HETATM   25  N2  UNL     1      -2.070   0.489   0.260  1.00  0.00    -0.060 N 
HETATM   26  C4  UNL     1      -2.451   1.498  -0.720  1.00  0.00     0.239 C 
HETATM   27  C3  UNL     1      -3.426   2.418   0.032  1.00  0.00     0.048 C 
HETATM   28  C2  UNL     1      -3.727   1.635   1.267  1.00  0.00     0.066 C 
HETATM   29  C21 UNL     1      -2.606   1.656   2.288  1.00  0.00     0.048 C 
HETATM   30  C22 UNL     1      -3.423   0.209   0.752  1.00  0.00     0.256 C 
HETATM   31  C20 UNL     1      -1.478   1.168   1.366  1.00  0.00     0.239 C 
BRANCH  28  32
HETATM   32  C1  UNL     1      -5.047   1.771   1.815  1.00  0.00     0.241 C 
HETATM   33  N1  UNL     1      -6.197   1.416   1.058  1.00  0.00    -0.061 NA
HETATM   34  O1  UNL     1      -5.217   2.209   2.983  1.00  0.00    -0.276 OA
ENDBRANCH  28  32
ENDBRANCH   1  25
TORSDOF 4
