REMARK  5 active torsions:
REMARK  status: ('A' for Active; 'I' for Inactive)
REMARK       I    between atoms: N1_7  and  C7_8 
REMARK    1  A    between atoms: C7_8  and  C8_10 
REMARK       I    between atoms: N2_14  and  C12_15 
REMARK       I    between atoms: C12_15  and  N3_17 
REMARK    2  A    between atoms: N3_17  and  C13_19 
REMARK    3  A    between atoms: C13_19  and  C14_23 
REMARK    4  A    between atoms: C14_23  and  C15_24 
REMARK    5  A    between atoms: C17_26  and  C18_27 
REMARK       I    between atoms: C18_27  and  N5_29 
ROOT
HETATM    1  C1  UNL     1      -5.162   0.359   1.990  1.00  0.00     0.012 C 
HETATM    2  C2  UNL     1      -5.135   0.769   0.859  1.00  0.00    -0.112 C 
HETATM    3  C3  UNL     1      -5.114   1.286  -0.498  1.00  0.00     0.071 C 
HETATM    4  C4  UNL     1      -4.440   2.640  -0.543  1.00  0.00     0.024 C 
HETATM    5  C5  UNL     1      -3.662   2.153  -1.741  1.00  0.00     0.013 C 
HETATM    6  C6  UNL     1      -2.171   2.243  -1.537  1.00  0.00     0.132 C 
HETATM    7  N1  UNL     1      -1.756   1.134  -0.741  1.00  0.00    -0.333 N 
HETATM    8  C7  UNL     1      -0.518   0.911  -0.059  1.00  0.00     0.267 C 
HETATM    9  O1  UNL     1      -0.450  -0.175   0.603  1.00  0.00    -0.266 OA
HETATM   10  C17 UNL     1      -2.847   0.163  -0.713  1.00  0.00     0.185 C 
HETATM   11  C20 UNL     1      -4.009   0.761  -1.382  1.00  0.00     0.039 C 
ENDROOT
BRANCH  10  12
HETATM   12  C18 UNL     1      -2.474  -1.081  -1.428  1.00  0.00     0.247 C 
HETATM   13  O3  UNL     1      -1.339  -1.150  -1.957  1.00  0.00    -0.271 OA
HETATM   14  N5  UNL     1      -3.326  -2.205  -1.551  1.00  0.00    -0.302 N 
HETATM   15  C19 UNL     1      -3.363  -3.153  -0.678  1.00  0.00     0.203 C 
ATOM     16  H5  UNL     1      -3.937  -2.267  -2.365  1.00  0.00     0.171 HD
HETATM   17  N6  UNL     1      -2.512  -3.060   0.453  1.00  0.00    -0.066 NA
HETATM   18  N7  UNL     1      -4.210  -4.274  -0.798  1.00  0.00    -0.066 NA
ENDBRANCH  10  12
BRANCH   8  19
HETATM   19  C8  UNL     1       0.620   1.740  -0.034  1.00  0.00     0.084 C 
HETATM   20  C9  UNL     1       1.036   2.565  -1.220  1.00  0.00     0.065 C 
HETATM   21  C10 UNL     1       2.009   3.518  -0.504  1.00  0.00     0.026 C 
HETATM   22  C11 UNL     1       2.715   2.607   0.462  1.00  0.00     0.134 C 
HETATM   23  N2  UNL     1       1.904   1.336   0.427  1.00  0.00    -0.298 N 
HETATM   24  C12 UNL     1       2.571   0.136   0.766  1.00  0.00     0.328 C 
HETATM   25  O2  UNL     1       1.974  -0.951   0.595  1.00  0.00    -0.246 OA
HETATM   26  N3  UNL     1       3.910   0.155   1.298  1.00  0.00    -0.298 N 
ATOM     27  H3  UNL     1       4.324   1.080   1.416  1.00  0.00     0.172 HD
BRANCH  26  28
HETATM   28  C13 UNL     1       4.708  -0.908   1.670  1.00  0.00     0.078 C 
HETATM   29  N4  UNL     1       5.906  -0.584   2.161  1.00  0.00    -0.389 N 
ATOM     30  H42 UNL     1       6.154   0.401   2.259  1.00  0.00     0.157 HD
ATOM     31  H41 UNL     1       6.496  -1.370   2.436  1.00  0.00     0.157 HD
BRANCH  28  32
HETATM   32  C14 UNL     1       4.353  -2.319   1.530  1.00  0.00     0.076 C 
BRANCH  32  33
HETATM   33  C15 UNL     1       4.545  -2.900   0.167  1.00  0.00     0.003 C 
HETATM   34  C16 UNL     1       5.991  -2.824  -0.290  1.00  0.00     0.005 C 
ENDBRANCH  32  33
ENDBRANCH  28  32
ENDBRANCH  26  28
ENDBRANCH   8  19
TORSDOF 5
