REMARK  8 active torsions:
REMARK  status: ('A' for Active; 'I' for Inactive)
REMARK    1  A    between atoms: C3_3  and  C4_4 
REMARK    2  A    between atoms: C5_5  and  C6_6 
REMARK    3  A    between atoms: C13_13  and  C14_14 
REMARK    4  A    between atoms: C14_14  and  O1_15 
REMARK    5  A    between atoms: C14_14  and  C15_17 
REMARK    6  A    between atoms: C15_17  and  C16_18 
REMARK    7  A    between atoms: C17_21  and  N2_22 
REMARK    8  A    between atoms: C19_31  and  O3_32 
ROOT
HETATM    1  C1  UNL     1      -1.847  -4.031  -0.305  1.00  0.00     0.049 C 
HETATM    2  C2  UNL     1      -0.656  -3.158  -0.333  1.00  0.00    -0.043 A 
HETATM    3  C3  UNL     1      -0.829  -1.798  -0.190  1.00  0.00    -0.029 A 
HETATM    4  C12 UNL     1       0.300  -0.982  -0.209  1.00  0.00     0.024 A 
HETATM    5  C13 UNL     1       1.554  -1.541  -0.369  1.00  0.00     0.005 A 
HETATM    6  C19 UNL     1       1.698  -2.919  -0.512  1.00  0.00     0.081 A 
HETATM    7  C20 UNL     1       0.603  -3.751  -0.498  1.00  0.00    -0.021 A 
HETATM    8  C21 UNL     1       0.664  -5.222  -0.649  1.00  0.00     0.052 C 
ENDROOT
BRANCH   5   9
HETATM    9  C14 UNL     1       2.788  -0.730  -0.397  1.00  0.00     0.161 C 
BRANCH   9  10
HETATM   10  O1  UNL     1       3.686  -1.193   0.561  1.00  0.00    -0.390 OA
ATOM     11  H1  UNL     1       4.480  -0.671   0.543  1.00  0.00     0.210 HD
ENDBRANCH   9  10
BRANCH   9  12
HETATM   12  C15 UNL     1       2.438   0.705  -0.237  1.00  0.00     0.113 C 
BRANCH  12  13
HETATM   13  C16 UNL     1       3.610   1.610  -0.251  1.00  0.00     0.104 A 
HETATM   14  N1  UNL     1       4.088   2.154  -1.383  1.00  0.00    -0.180 N 
HETATM   15  C17 UNL     1       5.172   2.986  -1.357  1.00  0.00     0.681 A 
ATOM     16  H1  UNL     1       3.636   1.943  -2.273  1.00  0.00     0.185 HD
HETATM   17  N3  UNL     1       5.786   3.281  -0.203  1.00  0.00    -0.141 N 
HETATM   18  C18 UNL     1       5.310   2.739   0.929  1.00  0.00     0.339 A 
ATOM     19  H3  UNL     1       6.595   3.902  -0.185  1.00  0.00     0.189 HD
HETATM   20  O2  UNL     1       5.897   3.025   2.003  1.00  0.00    -0.246 OA
HETATM   21  N4  UNL     1       4.245   1.924   0.888  1.00  0.00    -0.297 N 
ATOM     22  H4  UNL     1       3.903   1.525   1.762  1.00  0.00     0.172 HD
BRANCH  15  23
HETATM   23  N2  UNL     1       5.598   3.487  -2.472  1.00  0.00    -0.234 N 
ATOM     24  H22 UNL     1       5.131   3.262  -3.350  1.00  0.00     0.174 HD
ATOM     25  H21 UNL     1       6.407   4.108  -2.453  1.00  0.00     0.174 HD
ENDBRANCH  15  23
ENDBRANCH  12  13
ENDBRANCH   9  12
ENDBRANCH   5   9
BRANCH   6  26
HETATM   26  O3  UNL     1       2.972  -3.412  -0.668  1.00  0.00    -0.359 OA
ATOM     27  H3  UNL     1       3.070  -4.352  -0.766  1.00  0.00     0.217 HD
ENDBRANCH   6  26
BRANCH   3  28
HETATM   28  C4  UNL     1      -2.145  -1.252  -0.030  1.00  0.00     0.008 C 
HETATM   29  C5  UNL     1      -2.450   0.027   0.121  1.00  0.00    -0.021 C 
BRANCH  29  30
HETATM   30  C6  UNL     1      -3.885   0.435   0.275  1.00  0.00     0.008 C 
HETATM   31  C7  UNL     1      -4.332   1.220  -0.909  1.00  0.00     0.008 C 
HETATM   32  C8  UNL     1      -4.034   2.678  -0.848  1.00  0.00     0.001 C 
HETATM   33  C9  UNL     1      -4.500   3.292   0.450  1.00  0.00     0.000 C 
HETATM   34  C10 UNL     1      -3.768   2.586   1.569  1.00  0.00     0.001 C 
HETATM   35  C11 UNL     1      -4.060   1.122   1.587  1.00  0.00     0.008 C 
ENDBRANCH  29  30
ENDBRANCH   3  28
TORSDOF 8
