REMARK  9 active torsions:
REMARK  status: ('A' for Active; 'I' for Inactive)
REMARK    1  A    between atoms: C3_3  and  O1_4 
REMARK    2  A    between atoms: C3_3  and  N1_6 
REMARK    3  A    between atoms: N1_6  and  C4_8 
REMARK    4  A    between atoms: C4_8  and  C5_9 
REMARK    5  A    between atoms: C5_9  and  C6_10 
REMARK    6  A    between atoms: C6_10  and  C7_11 
REMARK    7  A    between atoms: C9_15  and  O2_16 
REMARK    8  A    between atoms: C11_19  and  O3_20 
REMARK    9  A    between atoms: C16_26  and  O4_27 
ROOT
HETATM    1  C1  UNL     1       7.149  -0.007   1.483  1.00  0.00     0.016 C 
HETATM    2  C2  UNL     1       5.958  -0.157   1.381  1.00  0.00    -0.065 C 
HETATM    3  C3  UNL     1       4.487  -0.338   1.286  1.00  0.00     0.295 C 
ENDROOT
BRANCH   3   4
HETATM    4  O1  UNL     1       3.972  -0.390   2.600  1.00  0.00    -0.366 OA
ATOM      5  H1  UNL     1       3.031  -0.506   2.539  1.00  0.00     0.213 HD
ENDBRANCH   3   4
BRANCH   3   6
HETATM    6  N1  UNL     1       4.211  -1.507   0.520  1.00  0.00    -0.387 N 
ATOM      7  H1  UNL     1       4.843  -2.307   0.518  1.00  0.00     0.156 HD
BRANCH   6   8
HETATM    8  C4  UNL     1       3.006  -1.503  -0.244  1.00  0.00     0.117 C 
BRANCH   8   9
HETATM    9  C5  UNL     1       3.087  -0.510  -1.378  1.00  0.00     0.025 C 
BRANCH   9  10
HETATM   10  C6  UNL     1       1.888  -0.412  -2.235  1.00  0.00     0.059 C 
BRANCH  10  11
HETATM   11  C7  UNL     1       0.614  -0.071  -1.638  1.00  0.00     0.016 A 
HETATM   12  N2  UNL     1      -0.249  -1.109  -1.405  1.00  0.00    -0.356 N 
HETATM   13  C8  UNL     1      -1.452  -0.930  -0.844  1.00  0.00     0.080 A 
ATOM     14  H2  UNL     1       0.035  -2.053  -1.668  1.00  0.00     0.166 HD
HETATM   15  C9  UNL     1      -2.309  -1.995  -0.626  1.00  0.00     0.107 A 
HETATM   16  C17 UNL     1      -1.879   0.329  -0.467  1.00  0.00     0.034 A 
HETATM   17  C10 UNL     1      -3.552  -1.841  -0.054  1.00  0.00     0.045 A 
HETATM   18  C11 UNL     1      -4.428  -2.913   0.162  1.00  0.00     0.079 A 
HETATM   19  C15 UNL     1      -3.966  -0.569   0.323  1.00  0.00     0.014 A 
HETATM   20  C12 UNL     1      -5.687  -2.651   0.749  1.00  0.00     0.037 A 
HETATM   21  C13 UNL     1      -6.070  -1.394   1.110  1.00  0.00     0.004 A 
HETATM   22  C14 UNL     1      -5.194  -0.323   0.896  1.00  0.00     0.015 A 
HETATM   23  C16 UNL     1      -3.132   0.511   0.117  1.00  0.00     0.090 A 
HETATM   24  C18 UNL     1      -1.075   1.405  -0.670  1.00  0.00    -0.035 A 
HETATM   25  C19 UNL     1       0.204   1.178  -1.275  1.00  0.00    -0.028 A 
HETATM   26  C23 UNL     1      -1.311   2.799  -0.369  1.00  0.00     0.040 C 
HETATM   27  C20 UNL     1       1.116   2.306  -1.575  1.00  0.00     0.041 C 
HETATM   28  C21 UNL     1       0.972   3.518  -0.704  1.00  0.00     0.005 C 
HETATM   29  C22 UNL     1      -0.089   3.294   0.386  1.00  0.00     0.005 C 
BRANCH  15  30
HETATM   30  O2  UNL     1      -1.872  -3.239  -1.010  1.00  0.00    -0.357 OA
ATOM     31  H2  UNL     1      -2.460  -3.970  -0.860  1.00  0.00     0.217 HD
ENDBRANCH  15  30
BRANCH  18  32
HETATM   32  O3  UNL     1      -4.096  -4.158  -0.177  1.00  0.00    -0.360 OA
ATOM     33  H3  UNL     1      -4.690  -4.885  -0.031  1.00  0.00     0.217 HD
ENDBRANCH  18  32
BRANCH  23  34
HETATM   34  O4  UNL     1      -3.494   1.774   0.473  1.00  0.00    -0.359 OA
ATOM     35  H4  UNL     1      -2.920   2.517   0.331  1.00  0.00     0.217 HD
ENDBRANCH  23  34
ENDBRANCH  10  11
ENDBRANCH   9  10
ENDBRANCH   8   9
ENDBRANCH   6   8
ENDBRANCH   3   6
TORSDOF 9
