REMARK  8 active torsions:
REMARK  status: ('A' for Active; 'I' for Inactive)
REMARK    1  A    between atoms: N1_2  and  C2_4 
REMARK    2  A    between atoms: C4_10  and  N4_11 
REMARK    3  A    between atoms: N6_18  and  C7_19 
REMARK    4  A    between atoms: C7_19  and  C8_20 
REMARK    5  A    between atoms: C8_20  and  C9_21 
REMARK    6  A    between atoms: C12_24  and  N7_25 
REMARK    7  A    between atoms: N7_25  and  C13_27 
REMARK    8  A    between atoms: C17_31  and  N8_33 
ROOT
HETATM    1  C7  UNL     1       2.918   0.920  -0.030  1.00  0.00     0.148 C 
ENDROOT
BRANCH   1   2
HETATM    2  N6  UNL     1       4.298   0.554  -0.297  1.00  0.00    -0.178 N 
HETATM    3  C2  UNL     1       4.831   0.232  -1.519  1.00  0.00     0.682 A 
HETATM    4  N2  UNL     1       6.118  -0.024  -1.310  1.00  0.00    -0.174 N 
HETATM    5  C3  UNL     1       6.445   0.116  -0.014  1.00  0.00     0.165 A 
ATOM      6  H2  UNL     1       6.776  -0.293  -2.042  1.00  0.00     0.186 HD
HETATM    7  N3  UNL     1       7.573  -0.017   0.700  1.00  0.00    -0.174 N 
HETATM    8  C6  UNL     1       5.270   0.486   0.622  1.00  0.00     0.112 A 
HETATM    9  C4  UNL     1       7.626   0.195   2.036  1.00  0.00     0.677 A 
ATOM     10  H3  UNL     1       8.428  -0.290   0.215  1.00  0.00     0.186 HD
HETATM   11  N5  UNL     1       6.501   0.553   2.677  1.00  0.00    -0.200 N 
HETATM   12  C5  UNL     1       5.345   0.698   1.990  1.00  0.00     0.140 A 
ATOM     13  H5  UNL     1       6.519   0.716   3.684  1.00  0.00     0.183 HD
BRANCH   3  14
HETATM   14  N1  UNL     1       4.091   0.222  -2.573  1.00  0.00    -0.230 N 
HETATM   15  C1  UNL     1       4.713  -0.132  -3.847  1.00  0.00     0.165 C 
ATOM     16  H1  UNL     1       3.099   0.454  -2.520  1.00  0.00     0.177 HD
ENDBRANCH   3  14
BRANCH   9  17
HETATM   17  N4  UNL     1       8.739   0.060   2.712  1.00  0.00    -0.234 N 
ATOM     18  H42 UNL     1       9.593  -0.212   2.225  1.00  0.00     0.174 HD
ATOM     19  H41 UNL     1       8.779   0.220   3.719  1.00  0.00     0.174 HD
ENDBRANCH   9  17
ENDBRANCH   1   2
BRANCH   1  20
HETATM   20  C8  UNL     1       2.155  -0.354   0.234  1.00  0.00     0.025 C 
BRANCH  20  21
HETATM   21  C9  UNL     1       0.690  -0.098   0.522  1.00  0.00    -0.013 C 
HETATM   22  C10 UNL     1       0.077  -1.490   0.746  1.00  0.00     0.007 C 
HETATM   23  C11 UNL     1      -1.305  -1.260   1.278  1.00  0.00     0.025 C 
HETATM   24  C12 UNL     1      -2.141  -0.619   0.144  1.00  0.00     0.077 C 
HETATM   25  C19 UNL     1      -1.512   0.645  -0.288  1.00  0.00     0.025 C 
HETATM   26  C20 UNL     1      -0.026   0.537  -0.604  1.00  0.00     0.007 C 
BRANCH  24  27
HETATM   27  N7  UNL     1      -3.482  -0.526   0.540  1.00  0.00    -0.411 N 
ATOM     28  H7  UNL     1      -3.736  -0.551   1.527  1.00  0.00     0.154 HD
BRANCH  27  29
HETATM   29  C13 UNL     1      -4.460  -0.399  -0.443  1.00  0.00     0.112 C 
HETATM   30  C14 UNL     1      -4.525   0.857  -1.252  1.00  0.00     0.027 C 
HETATM   31  C15 UNL     1      -6.017   1.151  -1.507  1.00  0.00     0.004 C 
HETATM   32  C16 UNL     1      -6.710  -0.133  -1.083  1.00  0.00     0.040 C 
HETATM   33  C17 UNL     1      -5.882  -0.505   0.125  1.00  0.00     0.140 C 
HETATM   34  C18 UNL     1      -6.123   0.501   1.203  1.00  0.00     0.048 C 
BRANCH  33  35
HETATM   35  N8  UNL     1      -6.134  -1.864   0.557  1.00  0.00    -0.069 N 
ATOM     36  H83 UNL     1      -5.966  -2.541  -0.187  1.00  0.00     0.275 HD
ATOM     37  H82 UNL     1      -5.431  -2.194   1.218  1.00  0.00     0.275 HD
ATOM     38  H81 UNL     1      -7.079  -1.934   0.934  1.00  0.00     0.275 HD
ENDBRANCH  33  35
ENDBRANCH  27  29
ENDBRANCH  24  27
ENDBRANCH  20  21
ENDBRANCH   1  20
TORSDOF 8
