REMARK  10 active torsions:
REMARK  status: ('A' for Active; 'I' for Inactive)
REMARK    1  A    between atoms: C3_3  and  C4_4 
REMARK    2  A    between atoms: C8_10  and  N2_11 
REMARK    3  A    between atoms: C9_16  and  N4_17 
REMARK    4  A    between atoms: N4_17  and  C10_19 
REMARK    5  A    between atoms: C10_19  and  C11_20 
REMARK    6  A    between atoms: C11_20  and  C12_21 
REMARK    7  A    between atoms: C12_21  and  C13_22 
REMARK    8  A    between atoms: C13_22  and  N5_23 
REMARK    9  A    between atoms: C14_24  and  O1_25 
REMARK   10  A    between atoms: C17_29  and  O2_30 
ROOT
HETATM    1  C10 UNL     1      -0.740   1.144  -0.909  1.00  0.00     0.121 C 
ENDROOT
BRANCH   1   2
HETATM    2  N4  UNL     1      -2.117   0.929  -1.212  1.00  0.00    -0.375 N 
ATOM      3  H4  UNL     1      -2.412   0.923  -2.188  1.00  0.00     0.161 HD
BRANCH   2   4
HETATM    4  C9  UNL     1      -3.001   0.742  -0.291  1.00  0.00     0.124 A 
HETATM    5  C2  UNL     1      -4.332   0.539  -0.717  1.00  0.00     0.006 A 
HETATM    6  C1  UNL     1      -4.591   0.565  -2.142  1.00  0.00     0.054 C 
HETATM    7  C3  UNL     1      -5.316   0.336   0.201  1.00  0.00     0.043 A 
HETATM    8  N1  UNL     1      -4.931   0.343   1.513  1.00  0.00    -0.194 N 
HETATM    9  C8  UNL     1      -3.679   0.535   1.892  1.00  0.00     0.677 A 
ATOM     10  H1  UNL     1      -5.640   0.194   2.230  1.00  0.00     0.184 HD
HETATM   11  N3  UNL     1      -2.685   0.739   0.993  1.00  0.00    -0.177 N 
ATOM     12  H3  UNL     1      -1.723   0.886   1.298  1.00  0.00     0.186 HD
BRANCH   7  13
HETATM   13  C4  UNL     1      -6.699   0.117  -0.223  1.00  0.00    -0.007 C 
HETATM   14  C5  UNL     1      -7.271   1.258  -1.015  1.00  0.00     0.021 C 
HETATM   15  C6  UNL     1      -7.531   0.091   1.083  1.00  0.00     0.021 C 
HETATM   16  C7  UNL     1      -6.957  -1.243  -0.829  1.00  0.00     0.021 C 
ENDBRANCH   7  13
BRANCH   9  17
HETATM   17  N2  UNL     1      -3.319   0.541   3.138  1.00  0.00    -0.234 N 
ATOM     18  H22 UNL     1      -4.067   0.388   3.814  1.00  0.00     0.174 HD
ATOM     19  H21 UNL     1      -2.353   0.689   3.430  1.00  0.00     0.174 HD
ENDBRANCH   9  17
ENDBRANCH   2   4
ENDBRANCH   1   2
BRANCH   1  20
HETATM   20  C11 UNL     1       0.015  -0.145  -0.689  1.00  0.00     0.021 C 
BRANCH  20  21
HETATM   21  C12 UNL     1       1.463   0.088  -0.365  1.00  0.00     0.022 C 
BRANCH  21  22
HETATM   22  C13 UNL     1       2.101  -1.290  -0.171  1.00  0.00     0.133 C 
BRANCH  22  23
HETATM   23  N5  UNL     1       3.505  -1.036   0.143  1.00  0.00    -0.306 N 
HETATM   24  C14 UNL     1       4.456  -0.947  -0.823  1.00  0.00     0.153 A 
HETATM   25  C15 UNL     1       5.671  -0.706  -0.228  1.00  0.00     0.024 A 
HETATM   26  C16 UNL     1       5.429  -0.650   1.141  1.00  0.00     0.090 A 
HETATM   27  C21 UNL     1       6.986  -0.534  -0.913  1.00  0.00     0.045 C 
HETATM   28  C17 UNL     1       4.074  -0.859   1.342  1.00  0.00     0.172 A 
HETATM   29  N6  UNL     1       6.390  -0.422   2.160  1.00  0.00    -0.386 N 
HETATM   30  C18 UNL     1       7.799  -0.612   2.090  1.00  0.00     0.120 C 
ATOM     31  H6  UNL     1       6.027  -0.081   3.050  1.00  0.00     0.159 HD
HETATM   32  C19 UNL     1       8.515   0.093   0.994  1.00  0.00     0.020 C 
HETATM   33  C20 UNL     1       7.687   0.584  -0.138  1.00  0.00     0.006 C 
BRANCH  24  34
HETATM   34  O1  UNL     1       4.259  -1.075  -2.179  1.00  0.00    -0.345 OA
ATOM     35  H1  UNL     1       4.924  -1.013  -2.855  1.00  0.00     0.219 HD
ENDBRANCH  24  34
BRANCH  28  36
HETATM   36  O2  UNL     1       3.450  -0.877   2.553  1.00  0.00    -0.344 OA
ATOM     37  H2  UNL     1       3.854  -0.751   3.404  1.00  0.00     0.219 HD
ENDBRANCH  28  36
ENDBRANCH  22  23
ENDBRANCH  21  22
ENDBRANCH  20  21
ENDBRANCH   1  20
TORSDOF 10
