REMARK  3 active torsions:
REMARK  status: ('A' for Active; 'I' for Inactive)
REMARK    1  A    between atoms: N1_1  and  C1_4 
REMARK    2  A    between atoms: C6_16  and  C7_17 
REMARK    3  A    between atoms: C7_17  and  N5_18 
ROOT
HETATM    1  C1  UNL     1       3.634  -0.573   0.026  1.00  0.00     0.680 A 
HETATM    2  N2  UNL     1       3.534   0.754  -0.158  1.00  0.00    -0.155 N 
ATOM      3  H2  UNL     1       4.367   1.341  -0.196  1.00  0.00     0.187 HD
HETATM    4  C2  UNL     1       2.287   1.296  -0.293  1.00  0.00     0.275 A 
HETATM    5  O1  UNL     1       2.210   2.525  -0.463  1.00  0.00    -0.267 OA
HETATM    6  C3  UNL     1       1.166   0.487  -0.238  1.00  0.00     0.097 A 
HETATM    7  C4  UNL     1       1.322  -0.886  -0.044  1.00  0.00     0.134 A 
HETATM    8  N3  UNL     1       2.564  -1.373   0.082  1.00  0.00    -0.176 N 
ATOM      9  H3  UNL     1       2.696  -2.374   0.224  1.00  0.00     0.186 HD
HETATM   10  N4  UNL     1       0.413  -1.767   0.032  1.00  0.00    -0.375 N 
ATOM     11  H4  UNL     1       0.796  -2.701   0.177  1.00  0.00     0.161 HD
HETATM   12  C5  UNL     1      -1.000  -1.777  -0.034  1.00  0.00     0.128 C 
HETATM   13  C6  UNL     1      -1.642  -0.520   0.504  1.00  0.00     0.034 C 
HETATM   14  C8  UNL     1      -1.385   0.664  -0.391  1.00  0.00     0.063 C 
HETATM   15  C9  UNL     1       0.024   1.128  -0.384  1.00  0.00     0.044 C 
HETATM   16  N6  UNL     1       0.107   2.521  -0.577  1.00  0.00    -0.106 NA
ENDROOT
BRANCH  13  17
HETATM   17  C7  UNL     1      -3.140  -0.749   0.503  1.00  0.00     0.236 C 
BRANCH  17  18
HETATM   18  N5  UNL     1      -3.793   0.440   1.015  1.00  0.00    -0.079 N 
ATOM     19  H53 UNL     1      -3.441   0.714   1.932  1.00  0.00     0.274 HD
ATOM     20  H52 UNL     1      -3.527   1.282   0.504  1.00  0.00     0.274 HD
ATOM     21  H51 UNL     1      -4.801   0.286   1.014  1.00  0.00     0.274 HD
ENDBRANCH  17  18
ENDBRANCH  13  17
BRANCH   1  22
HETATM   22  N1  UNL     1       4.839  -1.046   0.149  1.00  0.00    -0.234 N 
ATOM     23  H12 UNL     1       5.655  -0.436   0.106  1.00  0.00     0.174 HD
ATOM     24  H11 UNL     1       4.915  -2.054   0.289  1.00  0.00     0.174 HD
ENDBRANCH   1  22
TORSDOF 3
