REMARK  2 active torsions:
REMARK  status: ('A' for Active; 'I' for Inactive)
REMARK       I    between atoms: C1_4  and  N3_6 
REMARK       I    between atoms: N3_6  and  C2_8 
REMARK    1  A    between atoms: N5_10  and  N6_12 
REMARK    2  A    between atoms: C3_14  and  C4_15 
ROOT
HETATM    1  N6  UNL     1      -0.236  -0.838   0.999  1.00  0.00    -0.308 N 
ATOM      2  H6  UNL     1      -0.242  -0.010   1.594  1.00  0.00     0.186 HD
HETATM    3  C3  UNL     1      -1.186  -1.039   0.150  1.00  0.00     0.125 C 
ENDROOT
BRANCH   1   4
HETATM    4  N5  UNL     1       0.797  -1.766   1.092  1.00  0.00    -0.274 N 
HETATM    5  C2  UNL     1       1.903  -1.535   0.484  1.00  0.00     0.209 C 
HETATM    6  N3  UNL     1       2.048  -0.344  -0.266  1.00  0.00    -0.304 N 
HETATM    7  N4  UNL     1       2.985  -2.447   0.546  1.00  0.00    -0.062 NA
HETATM    8  C1  UNL     1       3.055   0.592   0.089  1.00  0.00     0.188 C 
ATOM      9  H3  UNL     1       1.432  -0.159  -1.058  1.00  0.00     0.171 HD
HETATM   10  N1  UNL     1       3.587   0.536   1.263  1.00  0.00    -0.373 N 
HETATM   11  N2  UNL     1       3.456   1.571  -0.857  1.00  0.00    -0.064 NA
ATOM     12  H12 UNL     1       4.310   1.208   1.518  1.00  0.00     0.158 HD
ATOM     13  H11 UNL     1       3.299  -0.168   1.943  1.00  0.00     0.158 HD
ATOM     14  H5  UNL     1       0.676  -2.620   1.637  1.00  0.00     0.189 HD
ENDBRANCH   1   4
BRANCH   3  15
HETATM   15  C4  UNL     1      -2.280  -0.093   0.024  1.00  0.00     0.064 A 
HETATM   16  C5  UNL     1      -3.307  -0.283  -0.874  1.00  0.00     0.107 A 
HETATM   17  N7  UNL     1      -4.326   0.619  -0.975  1.00  0.00    -0.361 N 
HETATM   18  C6  UNL     1      -4.356   1.719  -0.201  1.00  0.00     0.183 A 
ATOM     19  H7  UNL     1      -5.076   0.457  -1.647  1.00  0.00     0.166 HD
HETATM   20  N8  UNL     1      -3.357   1.904   0.673  1.00  0.00    -0.319 N 
HETATM   21  C7  UNL     1      -2.325   1.036   0.810  1.00  0.00     0.259 A 
ATOM     22  H8  UNL     1      -3.374   2.736   1.262  1.00  0.00     0.169 HD
HETATM   23  O1  UNL     1      -1.397   1.227   1.636  1.00  0.00    -0.267 OA
ENDBRANCH   3  15
TORSDOF 2
