REMARK  2 active torsions:
REMARK  status: ('A' for Active; 'I' for Inactive)
REMARK    1  A    between atoms: C5_10  and  N4_11 
REMARK    2  A    between atoms: N4_11  and  C6_13 
ROOT
HETATM    1  N1  UNL     1      -4.422  -0.690  -1.374  1.00  0.00    -0.079 NA
HETATM    2  C1  UNL     1      -3.097  -0.588  -0.848  1.00  0.00     0.160 A 
HETATM    3  C2  UNL     1      -2.885   0.105   0.261  1.00  0.00     0.107 A 
HETATM    4  N2  UNL     1      -3.759   0.775   1.031  1.00  0.00    -0.348 N 
ATOM      5  H2  UNL     1      -4.761   0.844   0.854  1.00  0.00     0.167 HD
HETATM    6  C3  UNL     1      -3.119   1.340   2.067  1.00  0.00     0.181 A 
HETATM    7  N3  UNL     1      -1.826   1.010   1.929  1.00  0.00    -0.347 N 
ATOM      8  H3  UNL     1      -1.085   1.296   2.569  1.00  0.00     0.167 HD
HETATM    9  C4  UNL     1      -1.634   0.242   0.819  1.00  0.00     0.109 A 
HETATM   10  C5  UNL     1      -0.541  -0.310   0.289  1.00  0.00     0.147 A 
HETATM   11  N6  UNL     1      -0.699  -1.066  -0.901  1.00  0.00    -0.282 N 
ATOM     12  H6  UNL     1       0.107  -1.507  -1.344  1.00  0.00     0.188 HD
HETATM   13  N7  UNL     1      -1.977  -1.198  -1.459  1.00  0.00    -0.284 N 
ATOM     14  H7  UNL     1      -2.101  -1.739  -2.314  1.00  0.00     0.188 HD
ENDROOT
BRANCH  10  15
HETATM   15  N4  UNL     1       0.713  -0.144   0.893  1.00  0.00    -0.346 N 
ATOM     16  H4  UNL     1       0.758   0.123   1.877  1.00  0.00     0.163 HD
BRANCH  15  17
HETATM   17  C6  UNL     1       1.933  -0.338   0.169  1.00  0.00     0.285 C 
HETATM   18  C7  UNL     1       3.140  -0.096   1.052  1.00  0.00     0.056 C 
HETATM   19  C8  UNL     1       4.242   0.024   0.020  1.00  0.00     0.031 C 
HETATM   20  C9  UNL     1       3.546   0.619  -1.164  1.00  0.00     0.235 C 
HETATM   21  N5  UNL     1       2.137   0.657  -0.868  1.00  0.00    -0.054 N 
ATOM     22  H52 UNL     1       1.542   0.525  -1.686  1.00  0.00     0.279 HD
ATOM     23  H51 UNL     1       1.795   1.585  -0.619  1.00  0.00     0.279 HD
ENDBRANCH  15  17
ENDBRANCH  10  15
TORSDOF 2
