REMARK  3 active torsions:
REMARK  status: ('A' for Active; 'I' for Inactive)
REMARK    1  A    between atoms: C3_9  and  N3_10 
REMARK    2  A    between atoms: N3_10  and  C4_12 
REMARK    3  A    between atoms: C4_12  and  C5_13 
ROOT
HETATM    1  O1  UNL     1      -2.265  -1.689   2.109  1.00  0.00    -0.245 OA
HETATM    2  C1  UNL     1      -2.299  -0.901   1.118  1.00  0.00     0.340 A 
HETATM    3  N1  UNL     1      -3.409  -0.167   0.895  1.00  0.00    -0.248 N 
ATOM      4  H1  UNL     1      -4.219  -0.238   1.511  1.00  0.00     0.192 HD
HETATM    5  N2  UNL     1      -3.414   0.651  -0.152  1.00  0.00    -0.259 N 
ATOM      6  H2  UNL     1      -4.247   1.212  -0.332  1.00  0.00     0.190 HD
HETATM    7  C2  UNL     1      -2.363   0.768  -0.984  1.00  0.00     0.303 A 
HETATM    8  O2  UNL     1      -2.428   1.564  -1.964  1.00  0.00    -0.263 OA
HETATM    9  C3  UNL     1      -1.249   0.004  -0.725  1.00  0.00     0.176 A 
HETATM   10  N7  UNL     1      -1.235  -0.824   0.330  1.00  0.00    -0.289 N 
ATOM     11  H7  UNL     1      -0.410  -1.392   0.525  1.00  0.00     0.172 HD
ENDROOT
BRANCH   9  12
HETATM   12  N3  UNL     1      -0.247   0.125  -1.530  1.00  0.00    -0.366 N 
ATOM     13  H3  UNL     1      -0.343   0.779  -2.307  1.00  0.00     0.161 HD
BRANCH  12  14
HETATM   14  C4  UNL     1       0.984  -0.585  -1.416  1.00  0.00     0.185 C 
BRANCH  14  15
HETATM   15  C5  UNL     1       1.918   0.024  -0.433  1.00  0.00     0.110 A 
HETATM   16  N4  UNL     1       1.683   1.126   0.301  1.00  0.00    -0.281 N 
HETATM   17  N5  UNL     1       2.749   1.378   1.078  1.00  0.00    -0.019 NA
ATOM     18  H4  UNL     1       0.829   1.683   0.272  1.00  0.00     0.184 HD
HETATM   19  N6  UNL     1       3.653   0.442   0.837  1.00  0.00    -0.248 N 
HETATM   20  C6  UNL     1       3.180  -0.416  -0.091  1.00  0.00     0.283 A 
ATOM     21  H6  UNL     1       4.568   0.379   1.284  1.00  0.00     0.187 HD
HETATM   22  O3  UNL     1       3.794  -1.418  -0.541  1.00  0.00    -0.265 OA
ENDBRANCH  14  15
ENDBRANCH  12  14
ENDBRANCH   9  12
TORSDOF 3
