REMARK  2 active torsions:
REMARK  status: ('A' for Active; 'I' for Inactive)
REMARK       I    between atoms: C1_4  and  N3_6 
REMARK    1  A    between atoms: C5_11  and  C6_12 
REMARK       I    between atoms: C6_12  and  N5_14 
REMARK    2  A    between atoms: N5_14  and  N6_16 
ROOT
HETATM    1  N1  UNL     1       4.528  -0.531  -0.341  1.00  0.00    -0.374 N 
ATOM      2  H11 UNL     1       4.191  -1.169  -1.062  1.00  0.00     0.158 HD
ATOM      3  H12 UNL     1       5.511  -0.494  -0.072  1.00  0.00     0.158 HD
HETATM    4  C1  UNL     1       3.679   0.243   0.232  1.00  0.00     0.185 C 
HETATM    5  N2  UNL     1       4.146   1.126   1.231  1.00  0.00    -0.064 NA
HETATM    6  N3  UNL     1       2.338   0.192  -0.135  1.00  0.00    -0.342 N 
HETATM    7  C2  UNL     1       1.850   1.130  -1.195  1.00  0.00     0.207 C 
HETATM    8  C3  UNL     1       0.435   1.018  -1.296  1.00  0.00    -0.143 C 
HETATM    9  C4  UNL     1      -0.916   0.617  -1.103  1.00  0.00     0.208 C 
HETATM   10  N4  UNL     1      -0.980  -0.404  -0.041  1.00  0.00    -0.353 N 
HETATM   11  C5  UNL     1      -1.876  -1.413  -0.090  1.00  0.00     0.167 C 
HETATM   12  C7  UNL     1       0.095  -0.395   0.878  1.00  0.00     0.084 C 
HETATM   13  C8  UNL     1       1.464  -0.769   0.511  1.00  0.00     0.171 C 
ENDROOT
BRANCH  11  14
HETATM   14  C6  UNL     1      -3.312  -1.222   0.085  1.00  0.00     0.274 C 
HETATM   15  O1  UNL     1      -4.065  -2.231   0.001  1.00  0.00    -0.265 OA
HETATM   16  N5  UNL     1      -3.970   0.005   0.347  1.00  0.00    -0.272 N 
ATOM     17  H5  UNL     1      -3.441   0.873   0.431  1.00  0.00     0.189 HD
BRANCH  16  18
HETATM   18  N6  UNL     1      -5.365  -0.000   0.488  1.00  0.00    -0.342 N 
ATOM     19  H62 UNL     1      -5.880  -0.876   0.401  1.00  0.00     0.176 HD
ATOM     20  H61 UNL     1      -5.839   0.883   0.677  1.00  0.00     0.176 HD
ENDBRANCH  16  18
ENDBRANCH  11  14
TORSDOF 2
