REMARK  3 active torsions:
REMARK  status: ('A' for Active; 'I' for Inactive)
REMARK    1  A    between atoms: N1_1  and  C1_4 
REMARK    2  A    between atoms: N3_9  and  C3_10 
REMARK    3  A    between atoms: N6_20  and  C8_22 
ROOT
HETATM    1  C1  UNL     1       2.357  -0.977  -0.130  1.00  0.00     0.149 A 
HETATM    2  N2  UNL     1       1.249  -1.716  -0.292  1.00  0.00    -0.290 N 
ATOM      3  H2  UNL     1       1.324  -2.713  -0.495  1.00  0.00     0.172 HD
HETATM    4  C2  UNL     1       0.044  -1.141  -0.187  1.00  0.00     0.343 A 
HETATM    5  O1  UNL     1      -1.011  -1.859  -0.345  1.00  0.00    -0.245 OA
HETATM    6  N3  UNL     1      -0.068   0.168   0.080  1.00  0.00    -0.234 N 
HETATM    7  N5  UNL     1       1.035   0.878   0.237  1.00  0.00    -0.276 N 
ATOM      8  H5  UNL     1       0.939   1.873   0.441  1.00  0.00     0.189 HD
HETATM    9  C7  UNL     1       2.274   0.370   0.145  1.00  0.00     0.167 A 
HETATM   10  N6  UNL     1       3.293   1.138   0.313  1.00  0.00    -0.316 N 
ATOM     11  H6  UNL     1       3.127   2.124   0.514  1.00  0.00     0.170 HD
ENDROOT
BRANCH   6  12
HETATM   12  C3  UNL     1      -1.331   0.819   0.200  1.00  0.00     0.140 C 
HETATM   13  C4  UNL     1      -2.279   0.146   1.156  1.00  0.00     0.056 C 
HETATM   14  C5  UNL     1      -3.501  -0.138   0.335  1.00  0.00     0.234 C 
HETATM   15  N4  UNL     1      -3.192   0.107  -1.035  1.00  0.00    -0.073 N 
HETATM   16  C6  UNL     1      -2.047   0.947  -1.126  1.00  0.00     0.259 C 
ATOM     17  H42 UNL     1      -3.077  -0.758  -1.563  1.00  0.00     0.277 HD
ATOM     18  H41 UNL     1      -3.989   0.487  -1.546  1.00  0.00     0.277 HD
ENDBRANCH   6  12
BRANCH   1  19
HETATM   19  N1  UNL     1       3.547  -1.492  -0.223  1.00  0.00    -0.382 N 
ATOM     20  H12 UNL     1       3.608  -2.490  -0.427  1.00  0.00     0.157 HD
ATOM     21  H11 UNL     1       4.389  -0.930  -0.100  1.00  0.00     0.157 HD
ENDBRANCH   1  19
BRANCH  10  22
HETATM   22  C8  UNL     1       4.622   0.688   0.234  1.00  0.00     0.354 C 
HETATM   23  O2  UNL     1       5.295   0.463   1.269  1.00  0.00    -0.283 OA
ENDBRANCH  10  22
TORSDOF 3
