REMARK  4 active torsions:
REMARK  status: ('A' for Active; 'I' for Inactive)
REMARK    1  A    between atoms: C4_9  and  C5_10 
REMARK    2  A    between atoms: N3_11  and  N4_13 
REMARK    3  A    between atoms: N4_13  and  C6_15 
REMARK    4  A    between atoms: N6_20  and  N7_21 
ROOT
HETATM    1  N4  UNL     1       1.173   0.808   0.957  1.00  0.00    -0.131 N 
ATOM      2  H4  UNL     1       1.482   1.587   1.538  1.00  0.00     0.205 HD
ENDROOT
BRANCH   1   3
HETATM    3  N3  UNL     1      -0.179   0.712   0.646  1.00  0.00    -0.297 N 
HETATM    4  C5  UNL     1      -0.756   1.324  -0.301  1.00  0.00     0.126 C 
ATOM      5  H3  UNL     1      -0.752   0.100   1.227  1.00  0.00     0.186 HD
BRANCH   4   6
HETATM    6  C4  UNL     1      -2.184   1.126  -0.508  1.00  0.00     0.074 A 
HETATM    7  C2  UNL     1      -3.051   0.331   0.208  1.00  0.00     0.039 A 
HETATM    8  C1  UNL     1      -2.677  -0.511   1.376  1.00  0.00     0.071 C 
HETATM    9  N1  UNL     1      -4.296   0.432  -0.315  1.00  0.00    -0.301 N 
HETATM   10  N2  UNL     1      -4.228   1.256  -1.321  1.00  0.00    -0.266 N 
ATOM     11  H1  UNL     1      -5.132  -0.048   0.017  1.00  0.00     0.186 HD
HETATM   12  C3  UNL     1      -2.981   1.715  -1.496  1.00  0.00     0.273 A 
ATOM     13  H2  UNL     1      -5.024   1.519  -1.903  1.00  0.00     0.190 HD
HETATM   14  O1  UNL     1      -2.563   2.513  -2.358  1.00  0.00    -0.266 OA
ENDBRANCH   4   6
ENDBRANCH   1   3
BRANCH   1  15
HETATM   15  C6  UNL     1       2.056  -0.039   0.548  1.00  0.00     0.717 A 
HETATM   16  N5  UNL     1       1.933  -1.130  -0.208  1.00  0.00    -0.136 N 
HETATM   17  C7  UNL     1       3.141  -1.725  -0.388  1.00  0.00     0.375 A 
ATOM     18  H5  UNL     1       1.054  -1.471  -0.597  1.00  0.00     0.189 HD
HETATM   19  O2  UNL     1       3.368  -2.776  -1.054  1.00  0.00    -0.243 OA
HETATM   20  N6  UNL     1       4.008  -0.956   0.287  1.00  0.00    -0.134 N 
HETATM   21  N8  UNL     1       3.363   0.071   0.860  1.00  0.00    -0.105 N 
ATOM     22  H8  UNL     1       3.786   0.804   1.430  1.00  0.00     0.208 HD
BRANCH  20  23
HETATM   23  N7  UNL     1       5.394  -1.211   0.368  1.00  0.00    -0.319 N 
ATOM     24  H72 UNL     1       5.884  -1.992  -0.068  1.00  0.00     0.179 HD
ATOM     25  H71 UNL     1       6.053  -0.626   0.881  1.00  0.00     0.179 HD
ENDBRANCH  20  23
ENDBRANCH   1  15
TORSDOF 4
