REMARK  8 active torsions:
REMARK  status: ('A' for Active; 'I' for Inactive)
REMARK    1  A    between atoms: C2_2  and  O1_3 
REMARK    2  A    between atoms: C2_2  and  C3_5 
REMARK    3  A    between atoms: C3_5  and  N1_6 
REMARK    4  A    between atoms: C3_5  and  C4_10 
REMARK    5  A    between atoms: C5_13  and  N3_14 
REMARK    6  A    between atoms: N3_14  and  N4_15 
REMARK    7  A    between atoms: C8_20  and  N5_21 
REMARK    8  A    between atoms: N5_21  and  N6_23 
ROOT
HETATM    1  C4  UNL     1      -0.154   0.125  -0.645  1.00  0.00     0.118 C 
HETATM    2  N2  UNL     1      -0.772  -1.027  -0.370  1.00  0.00    -0.317 N 
ATOM      3  H2  UNL     1      -0.669  -1.736  -1.096  1.00  0.00     0.170 HD
HETATM    4  C5  UNL     1      -1.521  -1.435   0.708  1.00  0.00     0.204 C 
HETATM    5  C6  UNL     1      -2.184  -0.487   1.522  1.00  0.00     0.070 C 
HETATM    6  C7  UNL     1      -2.346   0.866   1.345  1.00  0.00     0.055 C 
HETATM    7  C8  UNL     1      -1.630   1.698   0.517  1.00  0.00     0.120 C 
HETATM    8  N7  UNL     1      -0.580   1.338  -0.253  1.00  0.00    -0.329 N 
ATOM      9  H7  UNL     1      -0.016   2.117  -0.594  1.00  0.00     0.168 HD
ENDROOT
BRANCH   1  10
HETATM   10  C3  UNL     1       1.077   0.084  -1.429  1.00  0.00     0.278 C 
BRANCH  10  11
HETATM   11  C2  UNL     1       2.290  -0.358  -0.645  1.00  0.00     0.152 C 
HETATM   12  C1  UNL     1       2.612   0.606   0.481  1.00  0.00     0.042 C 
BRANCH  11  13
HETATM   13  O1  UNL     1       2.170  -1.668  -0.209  1.00  0.00    -0.393 OA
ATOM     14  H1  UNL     1       1.968  -2.272  -0.914  1.00  0.00     0.210 HD
ENDBRANCH  11  13
ENDBRANCH  10  11
BRANCH  10  15
HETATM   15  N1  UNL     1       0.968  -0.805  -2.574  1.00  0.00    -0.066 N 
ATOM     16  H13 UNL     1       1.818  -0.842  -3.136  1.00  0.00     0.275 HD
ATOM     17  H12 UNL     1       0.942  -1.791  -2.315  1.00  0.00     0.275 HD
ATOM     18  H11 UNL     1       0.149  -0.507  -3.103  1.00  0.00     0.275 HD
ENDBRANCH  10  15
ENDBRANCH   1  10
BRANCH   4  19
HETATM   19  N3  UNL     1      -1.650  -2.559   1.005  1.00  0.00    -0.314 NA
BRANCH  19  20
HETATM   20  N4  UNL     1      -1.792  -3.788   1.331  1.00  0.00    -0.278 N 
ATOM     21  H42 UNL     1      -1.716  -2.793   1.118  1.00  0.00     0.191 HD
ATOM     22  H41 UNL     1      -1.904  -4.768   1.590  1.00  0.00     0.191 HD
ENDBRANCH  19  20
ENDBRANCH   4  19
BRANCH   7  23
HETATM   23  N5  UNL     1      -1.977   2.932   0.458  1.00  0.00    -0.292 N 
ATOM     24  H5  UNL     1      -2.762   3.274   1.013  1.00  0.00     0.188 HD
BRANCH  23  25
HETATM   25  N6  UNL     1      -1.273   3.796  -0.369  1.00  0.00    -0.344 N 
ATOM     26  H62 UNL     1      -0.491   3.438  -0.917  1.00  0.00     0.176 HD
ATOM     27  H61 UNL     1      -1.549   4.777  -0.416  1.00  0.00     0.176 HD
ENDBRANCH  23  25
ENDBRANCH   7  23
TORSDOF 8
