REMARK  10 active torsions:
REMARK  status: ('A' for Active; 'I' for Inactive)
REMARK    1  A    between atoms: C2_2  and  O1_3 
REMARK    2  A    between atoms: O1_3  and  C3_4 
REMARK    3  A    between atoms: C3_4  and  C4_6 
REMARK    4  A    between atoms: C4_6  and  N1_7 
REMARK    5  A    between atoms: C5_8  and  N2_9 
REMARK    6  A    between atoms: C12_16  and  O3_17 
REMARK    7  A    between atoms: N3_19  and  C13_20 
REMARK    8  A    between atoms: C13_20  and  C14_21 
REMARK    9  A    between atoms: C14_21  and  C15_22 
REMARK       I    between atoms: C15_22  and  N4_24 
REMARK   10  A    between atoms: N4_24  and  C16_26 
ROOT
HETATM    1  N1  UNL     1      -2.303   1.662   0.150  1.00  0.00    -0.272 N 
HETATM    2  C5  UNL     1      -2.073   0.904  -0.950  1.00  0.00     0.163 A 
HETATM    3  C12 UNL     1      -0.694   0.797  -1.077  1.00  0.00     0.192 A 
HETATM    4  N3  UNL     1      -0.111   1.481  -0.062  1.00  0.00    -0.276 N 
HETATM    5  C22 UNL     1      -1.104   1.983   0.646  1.00  0.00     0.333 A 
HETATM    6  O5  UNL     1      -0.956   2.690   1.679  1.00  0.00    -0.246 OA
ENDROOT
BRANCH   4   7
HETATM    7  C13 UNL     1       1.338   1.587   0.102  1.00  0.00     0.145 C 
BRANCH   7   8
HETATM    8  C14 UNL     1       1.840   0.324   0.786  1.00  0.00     0.123 C 
BRANCH   8   9
HETATM    9  C15 UNL     1       3.300   0.435   0.981  1.00  0.00     0.219 C 
HETATM   10  O4  UNL     1       3.829   1.559   1.209  1.00  0.00    -0.274 OA
HETATM   11  N4  UNL     1       4.108  -0.708   0.909  1.00  0.00    -0.356 N 
ATOM     12  H4  UNL     1       3.692  -1.618   0.713  1.00  0.00     0.162 HD
BRANCH  11  13
HETATM   13  C16 UNL     1       5.556  -0.588   1.117  1.00  0.00     0.084 C 
HETATM   14  C17 UNL     1       6.139  -1.837   1.656  1.00  0.00     0.025 C 
HETATM   15  C18 UNL     1       7.046  -2.427   0.561  1.00  0.00     0.002 C 
HETATM   16  C19 UNL     1       8.200  -1.465   0.323  1.00  0.00     0.000 C 
HETATM   17  C20 UNL     1       7.629  -0.183  -0.216  1.00  0.00     0.002 C 
HETATM   18  C21 UNL     1       6.124  -0.230  -0.264  1.00  0.00     0.025 C 
ENDBRANCH  11  13
ENDBRANCH   8   9
ENDBRANCH   7   8
ENDBRANCH   4   7
BRANCH   3  19
HETATM   19  O3  UNL     1       0.003   0.101  -2.074  1.00  0.00    -0.343 OA
ATOM     20  H3  UNL     1       0.946   0.028  -2.161  1.00  0.00     0.219 HD
ENDBRANCH   3  19
BRANCH   2  21
HETATM   21  N2  UNL     1      -2.980   0.278  -1.845  1.00  0.00    -0.355 N 
HETATM   22  C6  UNL     1      -3.660   0.805  -3.029  1.00  0.00     0.082 C 
HETATM   23  C7  UNL     1      -3.054   0.154  -4.277  1.00  0.00     0.032 C 
HETATM   24  C8  UNL     1      -5.056   0.185  -2.910  1.00  0.00     0.027 C 
HETATM   25  C9  UNL     1      -4.932  -0.918  -1.869  1.00  0.00     0.027 C 
HETATM   26  C10 UNL     1      -3.450  -1.113  -1.792  1.00  0.00     0.082 C 
HETATM   27  C11 UNL     1      -3.009  -1.847  -0.579  1.00  0.00     0.032 C 
ENDBRANCH   2  21
BRANCH   1  28
HETATM   28  C4  UNL     1      -3.592   2.020   0.702  1.00  0.00     0.246 C 
BRANCH  28  29
HETATM   29  C3  UNL     1      -4.016   1.140   1.808  1.00  0.00     0.277 C 
HETATM   30  O2  UNL     1      -3.318   0.228   2.311  1.00  0.00    -0.263 OA
BRANCH  29  31
HETATM   31  O1  UNL     1      -5.284   1.331   2.334  1.00  0.00    -0.321 OA
BRANCH  31  32
HETATM   32  C2  UNL     1      -5.823   0.576   3.411  1.00  0.00     0.174 C 
HETATM   33  C1  UNL     1      -5.020   0.735   4.678  1.00  0.00     0.034 C 
ENDBRANCH  31  32
ENDBRANCH  29  31
ENDBRANCH  28  29
ENDBRANCH   1  28
TORSDOF 10
