REMARK  13 active torsions:
REMARK  status: ('A' for Active; 'I' for Inactive)
REMARK    1  A    between atoms: O1_2  and  C2_3 
REMARK    2  A    between atoms: C2_3  and  N1_4 
REMARK    3  A    between atoms: C3_6  and  N2_7 
REMARK    4  A    between atoms: N2_7  and  C4_9 
REMARK    5  A    between atoms: C4_9  and  S3_11 
REMARK    6  A    between atoms: S3_11  and  S4_12 
REMARK    7  A    between atoms: S4_12  and  C5_13 
REMARK    8  A    between atoms: C5_13  and  C6_14 
REMARK    9  A    between atoms: C6_14  and  C7_15 
REMARK   10  A    between atoms: C8_16  and  C9_17 
REMARK   11  A    between atoms: C9_17  and  C11_19 
REMARK   12  A    between atoms: C11_19  and  O2_20 
REMARK   13  A    between atoms: C11_19  and  N3_22 
ROOT
HETATM    1  S3  UNL     1       1.980  -0.262   3.695  1.00  0.00    -0.028 SA
ENDROOT
BRANCH   1   2
HETATM    2  C4  UNL     1       2.628  -1.692   2.900  1.00  0.00     0.151 C 
HETATM    3  S2  UNL     1       2.911  -3.090   3.736  1.00  0.00    -0.052 SA
BRANCH   2   4
HETATM    4  N2  UNL     1       2.930  -1.694   1.515  1.00  0.00    -0.320 N 
ATOM      5  H2  UNL     1       2.211  -1.903   0.822  1.00  0.00     0.169 HD
BRANCH   4   6
HETATM    6  C3  UNL     1       4.163  -1.419   1.147  1.00  0.00     0.171 A 
HETATM    7  S1  UNL     1       4.843  -1.341  -0.418  1.00  0.00     0.031 SA
HETATM    8  N1  UNL     1       6.416  -0.936   0.021  1.00  0.00    -0.243 N 
HETATM    9  C15 UNL     1       6.351  -0.878   1.350  1.00  0.00     0.336 A 
HETATM   10  N4  UNL     1       5.206  -1.123   1.923  1.00  0.00    -0.287 N 
HETATM   11  O3  UNL     1       7.420  -0.582   2.015  1.00  0.00    -0.246 OA
ATOM     12  H4  UNL     1       5.111  -1.089   2.938  1.00  0.00     0.172 HD
BRANCH   8  13
HETATM   13  C2  UNL     1       7.590  -0.700  -0.838  1.00  0.00     0.310 C 
BRANCH  13  14
HETATM   14  O1  UNL     1       7.627   0.639  -1.186  1.00  0.00    -0.376 OA
HETATM   15  C1  UNL     1       8.725   0.901  -1.997  1.00  0.00     0.203 C 
ENDBRANCH  13  14
ENDBRANCH   8  13
ENDBRANCH   4   6
ENDBRANCH   2   4
ENDBRANCH   1   2
BRANCH   1  16
HETATM   16  S4  UNL     1       1.674   1.331   2.353  1.00  0.00    -0.090 SA
BRANCH  16  17
HETATM   17  C5  UNL     1       0.024   1.312   1.628  1.00  0.00     0.090 C 
BRANCH  17  18
HETATM   18  C6  UNL     1      -0.233   0.160   0.714  1.00  0.00     0.038 C 
BRANCH  18  19
HETATM   19  C7  UNL     1      -1.641   0.296   0.222  1.00  0.00    -0.029 C 
HETATM   20  C8  UNL     1      -2.552  -0.631   0.429  1.00  0.00    -0.022 C 
BRANCH  20  21
HETATM   21  C9  UNL     1      -3.944  -0.591  -0.006  1.00  0.00     0.063 C 
HETATM   22  C10 UNL     1      -4.857  -0.724   1.219  1.00  0.00     0.018 C 
BRANCH  21  23
HETATM   23  C11 UNL     1      -4.367   0.653  -0.738  1.00  0.00     0.363 C 
BRANCH  23  24
HETATM   24  O2  UNL     1      -4.200   1.767   0.093  1.00  0.00    -0.367 OA
ATOM     25  H2  UNL     1      -4.467   2.553  -0.369  1.00  0.00     0.212 HD
ENDBRANCH  23  24
BRANCH  23  26
HETATM   26  N3  UNL     1      -5.790   0.488  -1.018  1.00  0.00     0.117 N 
HETATM   27  C12 UNL     1      -6.133  -0.611  -1.867  1.00  0.00     0.277 C 
HETATM   28  C13 UNL     1      -6.999   0.360  -2.674  1.00  0.00     0.061 C 
HETATM   29  C14 UNL     1      -6.397   1.486  -1.839  1.00  0.00     0.277 C 
ENDBRANCH  23  26
ENDBRANCH  21  23
ENDBRANCH  20  21
ENDBRANCH  18  19
ENDBRANCH  17  18
ENDBRANCH  16  17
ENDBRANCH   1  16
TORSDOF 13
