REMARK  5 active torsions:
REMARK  status: ('A' for Active; 'I' for Inactive)
REMARK    1  A    between atoms: C2_2  and  C3_3 
REMARK    2  A    between atoms: C2_2  and  N1_8 
REMARK    3  A    between atoms: C3_3  and  C4_4 
REMARK    4  A    between atoms: N1_8  and  C8_10 
REMARK    5  A    between atoms: C9_15  and  C10_16 
ROOT
HETATM    1  C8  UNL     1       1.063  -0.589   1.339  1.00  0.00     0.161 A 
HETATM    2  N2  UNL     1       1.969  -1.091   2.180  1.00  0.00    -0.279 N 
ATOM      3  H2  UNL     1       1.682  -1.494   3.072  1.00  0.00     0.189 HD
HETATM    4  N3  UNL     1       3.192  -1.058   1.850  1.00  0.00    -0.296 N 
ATOM      5  H3  UNL     1       3.894  -1.438   2.485  1.00  0.00     0.187 HD
HETATM    6  C9  UNL     1       3.571  -0.540   0.699  1.00  0.00     0.073 A 
HETATM    7  S1  UNL     1       2.069  -0.067   0.046  1.00  0.00    -0.038 SA
ENDROOT
BRANCH   1   8
HETATM    8  N1  UNL     1      -0.238  -0.531   1.500  1.00  0.00    -0.365 N 
ATOM      9  H1  UNL     1      -0.671  -0.896   2.348  1.00  0.00     0.162 HD
BRANCH   8  10
HETATM   10  C2  UNL     1      -1.064   0.070   0.437  1.00  0.00     0.080 C 
HETATM   11  C1  UNL     1      -0.967   1.555   0.591  1.00  0.00     0.032 C 
BRANCH  10  12
HETATM   12  C3  UNL     1      -2.428  -0.502   0.550  1.00  0.00     0.033 C 
BRANCH  12  13
HETATM   13  C4  UNL     1      -3.455  -0.059  -0.419  1.00  0.00    -0.050 C 
HETATM   14  C5  UNL     1      -4.741  -0.838  -0.051  1.00  0.00     0.014 C 
HETATM   15  C6  UNL     1      -3.857   1.378  -0.361  1.00  0.00     0.014 C 
HETATM   16  C7  UNL     1      -3.116  -0.400  -1.856  1.00  0.00     0.014 C 
ENDBRANCH  12  13
ENDBRANCH  10  12
ENDBRANCH   8  10
ENDBRANCH   1   8
BRANCH   6  17
HETATM   17  C10 UNL     1       4.957  -0.403   0.118  1.00  0.00     0.036 C 
HETATM   18  C11 UNL     1       4.991  -1.009  -1.258  1.00  0.00     0.016 C 
HETATM   19  C12 UNL     1       5.162   1.106  -0.066  1.00  0.00     0.016 C 
ENDBRANCH   6  17
TORSDOF 5
