REMARK  4 active torsions:
REMARK  status: ('A' for Active; 'I' for Inactive)
REMARK    1  A    between atoms: O1_2  and  C2_3 
REMARK    2  A    between atoms: C2_3  and  C5_6 
REMARK    3  A    between atoms: C6_9  and  O2_10 
REMARK    4  A    between atoms: C8_13  and  C9_14 
ROOT
HETATM    1  C5  UNL     1      -1.403   0.236  -0.555  1.00  0.00     0.052 A 
HETATM    2  N1  UNL     1      -2.049   1.193  -1.269  1.00  0.00    -0.338 N 
ATOM      3  H1  UNL     1      -3.063   1.280  -1.339  1.00  0.00     0.168 HD
HETATM    4  C6  UNL     1      -1.170   2.008  -1.870  1.00  0.00     0.140 A 
HETATM    5  C7  UNL     1       0.088   1.570  -1.541  1.00  0.00     0.065 A 
HETATM    6  C8  UNL     1      -0.063   0.451  -0.711  1.00  0.00    -0.024 A 
ENDROOT
BRANCH   6   7
HETATM    7  C9  UNL     1       1.096  -0.285  -0.149  1.00  0.00     0.021 C 
HETATM    8  C10 UNL     1       2.302   0.081  -1.039  1.00  0.00     0.009 C 
HETATM    9  C11 UNL     1       3.507  -0.732  -0.697  1.00  0.00     0.001 C 
HETATM   10  C12 UNL     1       3.882  -0.402   0.737  1.00  0.00     0.000 C 
HETATM   11  C13 UNL     1       2.945   0.603   1.336  1.00  0.00     0.001 C 
HETATM   12  C14 UNL     1       1.486   0.221   1.231  1.00  0.00     0.009 C 
ENDBRANCH   6   7
BRANCH   1  13
HETATM   13  C2  UNL     1      -2.062  -0.873   0.180  1.00  0.00     0.095 C 
HETATM   14  C3  UNL     1      -1.840  -2.170  -0.638  1.00  0.00     0.052 C 
HETATM   15  C4  UNL     1      -1.641  -1.110   1.574  1.00  0.00     0.052 C 
BRANCH  13  16
HETATM   16  O1  UNL     1      -3.451  -0.678   0.096  1.00  0.00    -0.379 OA
HETATM   17  C1  UNL     1      -3.949   0.272   0.940  1.00  0.00     0.203 C 
ENDBRANCH  13  16
ENDBRANCH   1  13
BRANCH   4  18
HETATM   18  O2  UNL     1      -1.493   3.092  -2.675  1.00  0.00    -0.346 OA
ATOM     19  H2  UNL     1      -0.870   3.669  -3.101  1.00  0.00     0.219 HD
ENDBRANCH   4  18
TORSDOF 4
