REMARK  6 active torsions:
REMARK  status: ('A' for Active; 'I' for Inactive)
REMARK    1  A    between atoms: C2_2  and  O1_3 
REMARK    2  A    between atoms: C2_2  and  C3_5 
REMARK    3  A    between atoms: C2_2  and  C4_8 
REMARK    4  A    between atoms: C3_5  and  O2_6 
REMARK    5  A    between atoms: C4_8  and  C5_9 
REMARK    6  A    between atoms: C5_9  and  C6_10 
ROOT
HETATM    1  C6  UNL     1      -0.709  -0.452  -0.488  1.00  0.00     0.001 C 
HETATM    2  C7  UNL     1      -1.714   0.577  -1.033  1.00  0.00    -0.043 C 
HETATM    3  C8  UNL     1      -0.960   1.575  -1.943  1.00  0.00     0.015 C 
HETATM    4  C9  UNL     1      -2.702  -0.086  -1.952  1.00  0.00     0.015 C 
HETATM    5  C10 UNL     1      -2.398   1.405  -0.038  1.00  0.00     0.009 C 
HETATM    6  C11 UNL     1      -2.547   0.971   1.356  1.00  0.00     0.001 C 
HETATM    7  C12 UNL     1      -1.406   0.149   1.813  1.00  0.00     0.009 C 
HETATM    8  C13 UNL     1      -1.177  -0.980   0.814  1.00  0.00    -0.043 C 
HETATM    9  C14 UNL     1      -2.531  -1.704   0.573  1.00  0.00     0.015 C 
HETATM   10  C15 UNL     1      -0.385  -2.019   1.507  1.00  0.00     0.015 C 
ENDROOT
BRANCH   1  11
HETATM   11  C5  UNL     1       0.673   0.135  -0.566  1.00  0.00     0.009 C 
BRANCH  11  12
HETATM   12  C4  UNL     1       1.812  -0.705  -0.107  1.00  0.00     0.040 C 
BRANCH  12  13
HETATM   13  C2  UNL     1       3.176  -0.071  -0.324  1.00  0.00     0.075 C 
HETATM   14  C1  UNL     1       4.167  -1.148   0.219  1.00  0.00     0.048 C 
BRANCH  13  15
HETATM   15  O1  UNL     1       3.528   0.113  -1.631  1.00  0.00    -0.388 OA
ATOM     16  H1  UNL     1       2.925   0.768  -1.961  1.00  0.00     0.210 HD
ENDBRANCH  13  15
BRANCH  13  17
HETATM   17  C3  UNL     1       3.389   1.109   0.578  1.00  0.00     0.201 C 
BRANCH  17  18
HETATM   18  O2  UNL     1       2.737   2.251   0.194  1.00  0.00    -0.398 OA
ATOM     19  H2  UNL     1       2.872   2.998   0.765  1.00  0.00     0.209 HD
ENDBRANCH  17  18
ENDBRANCH  13  17
ENDBRANCH  12  13
ENDBRANCH  11  12
ENDBRANCH   1  11
TORSDOF 6
