REMARK  6 active torsions:
REMARK  status: ('A' for Active; 'I' for Inactive)
REMARK    1  A    between atoms: C2_2  and  C3_3 
REMARK    2  A    between atoms: C3_3  and  C4_4 
REMARK    3  A    between atoms: C3_3  and  N1_6 
REMARK    4  A    between atoms: N1_6  and  C6_8 
REMARK    5  A    between atoms: C8_12  and  N3_13 
REMARK    6  A    between atoms: N3_13  and  C9_15 
ROOT
HETATM    1  C6  UNL     1      -0.902  -0.217   0.036  1.00  0.00     0.678 A 
HETATM    2  N2  UNL     1      -0.630   0.899   0.735  1.00  0.00    -0.200 N 
ATOM      3  H2  UNL     1      -1.418   1.457   1.064  1.00  0.00     0.183 HD
HETATM    4  C7  UNL     1       0.606   1.329   1.029  1.00  0.00     0.137 A 
HETATM    5  C8  UNL     1       1.664   0.541   0.563  1.00  0.00     0.065 A 
HETATM    6  C13 UNL     1       1.395  -0.605  -0.154  1.00  0.00     0.137 A 
HETATM    7  N5  UNL     1       0.120  -0.975  -0.413  1.00  0.00    -0.200 N 
ATOM      8  H5  UNL     1      -0.068  -1.824  -0.946  1.00  0.00     0.183 HD
ENDROOT
BRANCH   5   9
HETATM    9  N3  UNL     1       2.977   0.967   0.857  1.00  0.00    -0.344 N 
ATOM     10  H3  UNL     1       3.158   1.818   1.389  1.00  0.00     0.167 HD
BRANCH   9  11
HETATM   11  C9  UNL     1       4.054   0.134   0.364  1.00  0.00     0.081 C 
HETATM   12  N4  UNL     1       4.439  -0.984   0.770  1.00  0.00    -0.376 N 
HETATM   13  C10 UNL     1       5.537  -1.500   0.032  1.00  0.00     0.176 C 
ATOM     14  H4  UNL     1       4.008  -1.476   1.553  1.00  0.00     0.160 HD
HETATM   15  C11 UNL     1       5.571  -0.672  -1.223  1.00  0.00     0.182 C 
HETATM   16  F1  UNL     1       6.879  -0.377  -1.597  1.00  0.00    -0.228 F 
HETATM   17 BR1  UNL     1       4.697  -1.578  -2.665  1.00  0.00    -0.046 Br
HETATM   18  C12 UNL     1       4.875   0.579  -0.781  1.00  0.00     0.133 C 
ENDBRANCH   9  11
ENDBRANCH   5   9
BRANCH   1  19
HETATM   19  N1  UNL     1      -2.098  -0.587  -0.221  1.00  0.00    -0.221 N 
ATOM     20  H1  UNL     1      -2.243  -1.443  -0.757  1.00  0.00     0.178 HD
BRANCH  19  21
HETATM   21  C3  UNL     1      -3.255   0.164   0.220  1.00  0.00     0.098 C 
BRANCH  21  22
HETATM   22  C2  UNL     1      -4.471  -0.760   0.207  1.00  0.00     0.021 C 
HETATM   23  C1  UNL     1      -4.221  -1.945   1.111  1.00  0.00     0.007 C 
ENDBRANCH  21  22
BRANCH  21  24
HETATM   24  C4  UNL     1      -3.487   1.357  -0.680  1.00  0.00     0.021 C 
HETATM   25  C5  UNL     1      -4.669   2.170  -0.261  1.00  0.00     0.007 C 
ENDBRANCH  21  24
ENDBRANCH  19  21
ENDBRANCH   1  19
TORSDOF 6
