REMARK  7 active torsions:
REMARK  status: ('A' for Active; 'I' for Inactive)
REMARK    1  A    between atoms: O1_1  and  C1_3 
REMARK    2  A    between atoms: C1_3  and  C2_4 
REMARK    3  A    between atoms: N1_5  and  C3_7 
REMARK    4  A    between atoms: C4_8  and  C5_9 
REMARK    5  A    between atoms: C5_9  and  O2_10 
REMARK    6  A    between atoms: N2_14  and  C7_15 
REMARK    7  A    between atoms: C7_15  and  C8_16 
ROOT
HETATM    1  C3  UNL     1       2.022   0.140   0.170  1.00  0.00     0.060 A 
HETATM    2  C4  UNL     1       1.203   0.078   1.288  1.00  0.00     0.044 A 
HETATM    3  C6  UNL     1       0.023  -0.658   1.257  1.00  0.00     0.107 A 
HETATM    4  N2  UNL     1      -0.406  -1.341   0.198  1.00  0.00    -0.340 N 
HETATM    5  C14 UNL     1       0.368  -1.303  -0.899  1.00  0.00     0.136 A 
HETATM    6  N3  UNL     1       0.263  -1.877  -2.137  1.00  0.00    -0.285 N 
ATOM      7  H3  UNL     1      -0.506  -2.475  -2.438  1.00  0.00     0.188 HD
HETATM    8  N4  UNL     1       1.300  -1.546  -2.887  1.00  0.00    -0.309 N 
ATOM      9  H4  UNL     1       1.447  -1.851  -3.849  1.00  0.00     0.186 HD
HETATM   10  C15 UNL     1       2.131  -0.751  -2.197  1.00  0.00     0.124 A 
HETATM   11  C16 UNL     1       1.536  -0.606  -0.951  1.00  0.00     0.054 A 
ENDROOT
BRANCH   4  12
HETATM   12  C7  UNL     1      -1.625  -2.079   0.176  1.00  0.00     0.134 C 
BRANCH  12  13
HETATM   13  C8  UNL     1      -2.866  -1.327  -0.205  1.00  0.00     0.004 C 
HETATM   14  C9  UNL     1      -2.832  -0.689  -1.566  1.00  0.00     0.006 C 
HETATM   15  C10 UNL     1      -4.109   0.170  -1.618  1.00  0.00     0.000 C 
HETATM   16  C11 UNL     1      -3.798   1.387  -0.797  1.00  0.00     0.000 C 
HETATM   17  C12 UNL     1      -3.297   1.033   0.548  1.00  0.00     0.000 C 
HETATM   18  C13 UNL     1      -3.326  -0.432   0.876  1.00  0.00     0.006 C 
ENDBRANCH  12  13
ENDBRANCH   4  12
BRANCH   2  19
HETATM   19  C5  UNL     1       1.584   0.747   2.566  1.00  0.00     0.342 C 
HETATM   20  F1  UNL     1       0.725   0.357   3.569  1.00  0.00    -0.214 F 
BRANCH  19  21
HETATM   21  O2  UNL     1       2.858   0.486   2.992  1.00  0.00    -0.363 OA
ATOM     22  H2  UNL     1       3.101   0.912   3.806  1.00  0.00     0.213 HD
ENDBRANCH  19  21
ENDBRANCH   2  19
BRANCH   1  23
HETATM   23  N1  UNL     1       3.041   0.780   0.057  1.00  0.00    -0.366 N 
HETATM   24  C2  UNL     1       4.045   1.597   0.369  1.00  0.00     0.087 C 
ATOM     25  H1  UNL     1       3.301   0.535  -0.898  1.00  0.00     0.165 HD
BRANCH  24  26
HETATM   26  C1  UNL     1       5.429   0.945   0.554  1.00  0.00     0.208 C 
BRANCH  26  27
HETATM   27  O1  UNL     1       6.321   1.968   0.872  1.00  0.00    -0.396 OA
ATOM     28  H1  UNL     1       7.174   1.566   0.986  1.00  0.00     0.209 HD
ENDBRANCH  26  27
ENDBRANCH  24  26
ENDBRANCH   1  23
TORSDOF 7
