REMARK  7 active torsions:
REMARK  status: ('A' for Active; 'I' for Inactive)
REMARK    1  A    between atoms: C2_2  and  O1_3 
REMARK    2  A    between atoms: O1_3  and  C3_4 
REMARK    3  A    between atoms: C3_4  and  C4_6 
REMARK    4  A    between atoms: C5_9  and  S1_10 
REMARK    5  A    between atoms: S1_10  and  C6_11 
REMARK    6  A    between atoms: C6_11  and  C7_12 
REMARK    7  A    between atoms: C10_17  and  N3_18 
ROOT
HETATM    1  C4  UNL     1       1.604  -0.301   0.329  1.00  0.00     0.131 A 
HETATM    2  N1  UNL     1       0.557  -0.281   1.142  1.00  0.00    -0.331 N 
ATOM      3  H1  UNL     1       0.628   0.272   1.996  1.00  0.00     0.168 HD
HETATM    4  C5  UNL     1      -0.593  -0.942   0.914  1.00  0.00     0.146 A 
HETATM    5  N2  UNL     1      -0.703  -1.675  -0.205  1.00  0.00    -0.322 N 
ATOM      6  H2  UNL     1      -1.567  -2.183  -0.395  1.00  0.00     0.169 HD
HETATM    7  C10 UNL     1       0.331  -1.744  -1.088  1.00  0.00     0.120 A 
HETATM    8  C11 UNL     1       1.503  -1.051  -0.823  1.00  0.00     0.087 A 
HETATM    9 BR1  UNL     1       2.947  -1.140  -2.045  1.00  0.00    -0.044 Br
ENDROOT
BRANCH   1  10
HETATM   10  C3  UNL     1       2.826   0.444   0.643  1.00  0.00     0.311 C 
HETATM   11  O2  UNL     1       2.871   1.114   1.707  1.00  0.00    -0.258 OA
BRANCH  10  12
HETATM   12  O1  UNL     1       3.929   0.452  -0.166  1.00  0.00    -0.317 OA
BRANCH  12  13
HETATM   13  C2  UNL     1       5.117   1.185   0.153  1.00  0.00     0.175 C 
HETATM   14  C1  UNL     1       6.169   1.024  -0.893  1.00  0.00     0.034 C 
ENDBRANCH  12  13
ENDBRANCH  10  12
ENDBRANCH   1  10
BRANCH   4  15
HETATM   15  S1  UNL     1      -1.983  -0.891   2.033  1.00  0.00    -0.093 SA
BRANCH  15  16
HETATM   16  C6  UNL     1      -3.047   0.472   1.565  1.00  0.00     0.086 C 
BRANCH  16  17
HETATM   17  C7  UNL     1      -3.707   0.279   0.218  1.00  0.00    -0.013 C 
HETATM   18  C8  UNL     1      -4.569  -0.958   0.185  1.00  0.00     0.010 C 
HETATM   19  C9  UNL     1      -4.558   1.494  -0.069  1.00  0.00     0.010 C 
ENDBRANCH  16  17
ENDBRANCH  15  16
ENDBRANCH   4  15
BRANCH   7  20
HETATM   20  N3  UNL     1       0.187  -2.458  -2.150  1.00  0.00    -0.384 N 
ATOM     21  H32 UNL     1      -0.675  -2.968  -2.345  1.00  0.00     0.157 HD
ATOM     22  H31 UNL     1       0.962  -2.510  -2.812  1.00  0.00     0.157 HD
ENDBRANCH   7  20
TORSDOF 7
