REMARK  7 active torsions:
REMARK  status: ('A' for Active; 'I' for Inactive)
REMARK    1  A    between atoms: C2_2  and  C3_3 
REMARK    2  A    between atoms: C3_3  and  O1_4 
REMARK    3  A    between atoms: C3_3  and  C4_6 
REMARK    4  A    between atoms: C7_9  and  C8_10 
REMARK    5  A    between atoms: C10_13  and  C11_14 
REMARK    6  A    between atoms: C11_14  and  N1_15 
REMARK    7  A    between atoms: C19_26  and  O6_27 
ROOT
HETATM    1  C4  UNL     1       2.572   0.656  -0.504  1.00  0.00     0.030 C 
HETATM    2  C5  UNL     1       1.862  -0.108  -1.500  1.00  0.00     0.011 C 
HETATM    3  C6  UNL     1       0.417  -0.297  -1.699  1.00  0.00     0.042 C 
HETATM    4  C7  UNL     1      -0.447  -0.735  -0.531  1.00  0.00     0.100 C 
HETATM    5  O2  UNL     1      -1.729  -0.087  -0.524  1.00  0.00    -0.370 OA
HETATM    6  C10 UNL     1      -2.432  -0.385   0.616  1.00  0.00     0.153 C 
HETATM    7  C14 UNL     1      -1.640  -0.398   1.929  1.00  0.00     0.069 C 
HETATM    8  C15 UNL     1      -0.594   0.545   1.722  1.00  0.00     0.171 C 
HETATM    9  O3  UNL     1       0.450   0.897   2.528  1.00  0.00    -0.344 OA
HETATM   10  C16 UNL     1       1.462   1.490   1.691  1.00  0.00     0.200 C 
HETATM   11  C17 UNL     1       2.321   2.320   2.575  1.00  0.00     0.082 C 
HETATM   12  O4  UNL     1       0.740   2.189   0.749  1.00  0.00    -0.199 OA
HETATM   13  O5  UNL     1       0.291   1.306  -0.065  1.00  0.00    -0.218 OA
HETATM   14  C18 UNL     1       0.158   0.004   0.534  1.00  0.00     0.179 C 
HETATM   15  C19 UNL     1       1.349  -0.690   1.019  1.00  0.00     0.171 C 
HETATM   16  C20 UNL     1       2.320   0.506   0.950  1.00  0.00     0.089 C 
ENDROOT
BRANCH   1  17
HETATM   17  C3  UNL     1       4.064   0.505  -0.748  1.00  0.00     0.144 C 
BRANCH  17  18
HETATM   18  C2  UNL     1       4.656  -0.793  -0.696  1.00  0.00    -0.005 C 
HETATM   19  C1  UNL     1       5.850  -1.013  -0.161  1.00  0.00     0.009 C 
ENDBRANCH  17  18
BRANCH  17  20
HETATM   20  O1  UNL     1       4.318   1.043  -2.039  1.00  0.00    -0.391 OA
ATOM     21  H1  UNL     1       3.924   1.907  -2.074  1.00  0.00     0.210 HD
ENDBRANCH  17  20
ENDBRANCH   1  17
BRANCH  15  22
HETATM   22  O6  UNL     1       1.841  -1.819   0.550  1.00  0.00    -0.392 OA
ATOM     23  H6  UNL     1       2.615  -2.270   0.865  1.00  0.00     0.210 HD
ENDBRANCH  15  22
BRANCH   4  24
HETATM   24  C8  UNL     1      -0.760  -2.150  -0.603  1.00  0.00     0.037 C 
HETATM   25  C9  UNL     1      -1.545  -2.529  -1.881  1.00  0.00     0.008 C 
ENDBRANCH   4  24
BRANCH   6  26
HETATM   26  C11 UNL     1      -3.482   0.727   0.755  1.00  0.00     0.303 C 
BRANCH  26  27
HETATM   27  N1  UNL     1      -4.361   0.738  -0.400  1.00  0.00     0.082 N 
HETATM   28  C12 UNL     1      -5.213  -0.427  -0.464  1.00  0.00     0.309 C 
HETATM   29  C13 UNL     1      -5.161   1.945  -0.381  1.00  0.00     0.309 C 
ENDBRANCH  26  27
ENDBRANCH   6  26
TORSDOF 7
