REMARK  6 active torsions:
REMARK  status: ('A' for Active; 'I' for Inactive)
REMARK    1  A    between atoms: C9_12  and  C10_13 
REMARK    2  A    between atoms: C10_13  and  C11_14 
REMARK    3  A    between atoms: C14_17  and  C16_19 
REMARK    4  A    between atoms: C16_19  and  N1_20 
REMARK    5  A    between atoms: C18_27  and  C19_28 
REMARK    6  A    between atoms: C19_28  and  O6_29 
ROOT
HETATM    1  C1  UNL     1      -5.390   2.364   0.767  1.00  0.00     0.040 C 
HETATM    2  C2  UNL     1      -5.090   0.881   0.790  1.00  0.00     0.133 C 
HETATM    3  O1  UNL     1      -4.838   0.405   2.083  1.00  0.00    -0.315 OA
HETATM    4  C3  UNL     1      -3.979  -0.684   1.992  1.00  0.00     0.268 C 
HETATM    5  O2  UNL     1      -3.661  -1.467   2.950  1.00  0.00    -0.264 OA
HETATM    6  C4  UNL     1      -3.479  -0.794   0.585  1.00  0.00     0.057 C 
HETATM    7  C5  UNL     1      -4.207  -1.842  -0.172  1.00  0.00     0.027 C 
HETATM    8  C6  UNL     1      -3.751   0.605   0.093  1.00  0.00     0.035 C 
HETATM    9  C7  UNL     1      -2.675   1.402   0.771  1.00  0.00     0.041 C 
HETATM   10  C8  UNL     1      -1.601   0.461   1.193  1.00  0.00     0.128 C 
HETATM   11  O3  UNL     1      -0.373   0.721   0.610  1.00  0.00    -0.380 OA
HETATM   12  C9  UNL     1      -0.532   0.337  -0.729  1.00  0.00     0.129 C 
HETATM   13  C18 UNL     1      -1.332  -0.881  -0.734  1.00  0.00     0.046 C 
HETATM   14  C20 UNL     1      -2.003  -0.871   0.628  1.00  0.00     0.041 C 
ENDROOT
BRANCH  12  15
HETATM   15  C10 UNL     1       0.736   0.458  -1.438  1.00  0.00     0.047 C 
BRANCH  15  16
HETATM   16  C11 UNL     1       1.922  -0.307  -0.995  1.00  0.00     0.088 C 
HETATM   17  C12 UNL     1       2.350  -0.000   0.427  1.00  0.00     0.018 C 
HETATM   18  C13 UNL     1       3.718  -0.670   0.618  1.00  0.00     0.041 C 
HETATM   19  C14 UNL     1       4.741   0.166  -0.105  1.00  0.00     0.090 C 
HETATM   20  C15 UNL     1       5.855  -0.690  -0.688  1.00  0.00     0.048 C 
HETATM   21  O4  UNL     1       4.107   0.799  -1.197  1.00  0.00    -0.308 OA
HETATM   22  C17 UNL     1       3.063   0.194  -1.838  1.00  0.00     0.264 C 
HETATM   23  O5  UNL     1       2.982   0.025  -3.070  1.00  0.00    -0.265 OA
BRANCH  19  24
HETATM   24  C16 UNL     1       5.393   1.168   0.824  1.00  0.00     0.267 C 
BRANCH  24  25
HETATM   25  N1  UNL     1       6.398   1.946   0.136  1.00  0.00    -0.076 N 
ATOM     26  H13 UNL     1       7.090   1.348  -0.315  1.00  0.00     0.274 HD
ATOM     27  H12 UNL     1       6.017   2.399  -0.695  1.00  0.00     0.274 HD
ATOM     28  H11 UNL     1       6.837   2.621   0.762  1.00  0.00     0.274 HD
ENDBRANCH  24  25
ENDBRANCH  19  24
ENDBRANCH  15  16
ENDBRANCH  12  15
BRANCH  13  29
HETATM   29  C19 UNL     1      -0.635  -2.182  -0.997  1.00  0.00     0.171 C 
BRANCH  29  30
HETATM   30  O6  UNL     1      -1.561  -3.251  -0.970  1.00  0.00    -0.400 OA
ATOM     31  H6  UNL     1      -1.119  -4.075  -1.137  1.00  0.00     0.209 HD
ENDBRANCH  29  30
ENDBRANCH  13  29
TORSDOF 6
