REMARK  7 active torsions:
REMARK  status: ('A' for Active; 'I' for Inactive)
REMARK    1  A    between atoms: C2_2  and  C3_3 
REMARK    2  A    between atoms: C3_3  and  O2_5 
REMARK    3  A    between atoms: O2_5  and  C4_6 
REMARK    4  A    between atoms: C5_7  and  O3_8 
REMARK    5  A    between atoms: O3_8  and  C6_9 
REMARK    6  A    between atoms: C12_16  and  O5_17 
REMARK    7  A    between atoms: C18_26  and  O8_28 
ROOT
HETATM    1  C4  UNL     1       0.352   0.222  -0.848  1.00  0.00     0.170 C 
HETATM    2  C5  UNL     1       0.800   1.272   0.056  1.00  0.00     0.166 C 
HETATM    3  C8  UNL     1      -0.020   2.540   0.176  1.00  0.00     0.069 C 
HETATM    4  C9  UNL     1      -1.268   2.075   0.948  1.00  0.00    -0.071 C 
HETATM    5  C10 UNL     1      -1.470   2.668   2.247  1.00  0.00     0.044 C 
HETATM    6  C11 UNL     1      -2.145   1.250   0.473  1.00  0.00     0.011 C 
HETATM    7  C12 UNL     1      -3.136   1.054   1.496  1.00  0.00     0.300 C 
HETATM    8  O6  UNL     1      -3.567  -0.356   1.267  1.00  0.00    -0.285 OA
HETATM    9  C13 UNL     1      -2.655  -1.329   0.891  1.00  0.00     0.270 C 
HETATM   10  O7  UNL     1      -3.125  -2.489   1.129  1.00  0.00    -0.264 OA
HETATM   11  C14 UNL     1      -1.312  -1.374   0.301  1.00  0.00     0.050 C 
HETATM   12  C15 UNL     1      -0.352  -1.471   1.471  1.00  0.00     0.026 C 
HETATM   13  C16 UNL     1      -1.218  -2.789  -0.286  1.00  0.00     0.026 C 
HETATM   14  C17 UNL     1      -0.966  -0.431  -0.769  1.00  0.00     0.074 C 
HETATM   15  C18 UNL     1      -2.094   0.637  -0.913  1.00  0.00     0.090 C 
HETATM   16  C19 UNL     1      -3.359   0.123  -1.428  1.00  0.00     0.051 C 
ENDROOT
BRANCH   1  17
HETATM   17  O2  UNL     1       1.370  -0.758  -0.939  1.00  0.00    -0.313 OA
BRANCH  17  18
HETATM   18  C3  UNL     1       2.173  -1.005  -2.012  1.00  0.00     0.258 C 
HETATM   19  O1  UNL     1       1.997  -0.287  -3.043  1.00  0.00    -0.265 OA
BRANCH  18  20
HETATM   20  C2  UNL     1       3.225  -2.035  -2.073  1.00  0.00     0.106 C 
HETATM   21  C1  UNL     1       3.339  -2.816  -0.802  1.00  0.00     0.015 C 
ENDBRANCH  18  20
ENDBRANCH  17  18
ENDBRANCH   1  17
BRANCH   2  22
HETATM   22  O3  UNL     1       2.151   1.589  -0.324  1.00  0.00    -0.313 OA
BRANCH  22  23
HETATM   23  C6  UNL     1       3.212   1.477   0.544  1.00  0.00     0.255 C 
HETATM   24  C7  UNL     1       4.582   1.808   0.127  1.00  0.00     0.126 C 
HETATM   25  O4  UNL     1       2.983   1.084   1.704  1.00  0.00    -0.266 OA
ENDBRANCH  22  23
ENDBRANCH   2  22
BRANCH  15  26
HETATM   26  O8  UNL     1      -1.584   1.521  -1.850  1.00  0.00    -0.385 OA
ATOM     27  H8  UNL     1      -1.552   1.137  -2.718  1.00  0.00     0.211 HD
ENDBRANCH  15  26
BRANCH   7  28
HETATM   28  O5  UNL     1      -2.756   0.951   2.808  1.00  0.00    -0.367 OA
ATOM     29  H5  UNL     1      -3.411   0.821   3.484  1.00  0.00     0.213 HD
ENDBRANCH   7  28
TORSDOF 7
