REMARK  19 active torsions:
REMARK  status: ('A' for Active; 'I' for Inactive)
REMARK    1  A    between atoms: C2_2  and  O2_4 
REMARK    2  A    between atoms: O2_4  and  C3_5 
REMARK    3  A    between atoms: C4_6  and  O3_7 
REMARK    4  A    between atoms: O3_7  and  C5_8 
REMARK    5  A    between atoms: C5_8  and  C6_10 
REMARK    6  A    between atoms: C6_10  and  C7_11 
REMARK    7  A    between atoms: C11_16  and  O5_17 
REMARK    8  A    between atoms: C12_19  and  O6_20 
REMARK    9  A    between atoms: C13_22  and  O7_23 
REMARK   10  A    between atoms: C14_25  and  O8_26 
REMARK   11  A    between atoms: O8_26  and  C15_27 
REMARK   12  A    between atoms: C17_30  and  C18_31 
REMARK   13  A    between atoms: C17_30  and  O11_34 
REMARK   14  A    between atoms: C18_31  and  O10_32 
REMARK   15  A    between atoms: O11_34  and  C19_35 
REMARK   16  A    between atoms: C21_38  and  O13_39 
REMARK   17  A    between atoms: C22_41  and  O14_42 
REMARK   18  A    between atoms: C23_44  and  O15_45 
REMARK   19  A    between atoms: C24_47  and  O16_48 
ROOT
HETATM    1  C7  UNL     1      -6.644   1.937  -1.480  1.00  0.00     0.050 C 
HETATM    2  C8  UNL     1      -6.832   2.974  -0.398  1.00  0.00     0.031 C 
HETATM    3  C9  UNL     1      -7.968   1.773  -2.197  1.00  0.00     0.031 C 
HETATM    4  C10 UNL     1      -5.653   2.445  -2.421  1.00  0.00     0.069 C 
HETATM    5  N1  UNL     1      -4.855   2.849  -3.151  1.00  0.00    -0.196 NA
ENDROOT
BRANCH   1   6
HETATM    6  C6  UNL     1      -6.237   0.600  -0.910  1.00  0.00     0.135 C 
BRANCH   6   7
HETATM    7  C5  UNL     1      -4.951   0.697  -0.162  1.00  0.00     0.261 C 
HETATM    8  O4  UNL     1      -4.339   1.789  -0.060  1.00  0.00    -0.265 OA
BRANCH   7   9
HETATM    9  O3  UNL     1      -4.396  -0.417   0.441  1.00  0.00    -0.310 OA
BRANCH   9  10
HETATM   10  C4  UNL     1      -3.177  -0.265   1.136  1.00  0.00     0.195 C 
HETATM   11  C3  UNL     1      -2.144  -1.274   0.707  1.00  0.00     0.195 C 
HETATM   12  C14 UNL     1      -0.868  -0.981   1.466  1.00  0.00     0.188 C 
HETATM   13  C13 UNL     1      -1.137  -1.370   2.919  1.00  0.00     0.181 C 
HETATM   14  C12 UNL     1      -2.227  -0.431   3.420  1.00  0.00     0.180 C 
HETATM   15  C11 UNL     1      -3.493  -0.580   2.605  1.00  0.00     0.181 C 
BRANCH  11  16
HETATM   16  O2  UNL     1      -1.945  -1.299  -0.690  1.00  0.00    -0.311 OA
BRANCH  16  17
HETATM   17  C2  UNL     1      -2.162  -2.405  -1.483  1.00  0.00     0.255 C 
HETATM   18  C1  UNL     1      -1.946  -2.409  -2.953  1.00  0.00     0.126 C 
HETATM   19  O1  UNL     1      -2.566  -3.457  -0.909  1.00  0.00    -0.266 OA
ENDBRANCH  16  17
ENDBRANCH  11  16
BRANCH  12  20
HETATM   20  O8  UNL     1       0.120  -1.816   0.934  1.00  0.00    -0.348 OA
BRANCH  20  21
HETATM   21  C15 UNL     1       1.236  -1.100   0.508  1.00  0.00     0.292 C 
HETATM   22  O9  UNL     1       1.409  -1.215  -0.857  1.00  0.00    -0.355 OA
HETATM   23  C16 UNL     1       2.745  -1.268  -1.137  1.00  0.00     0.214 C 
HETATM   24  C17 UNL     1       3.536  -1.194   0.126  1.00  0.00     0.137 C 
HETATM   25  C24 UNL     1       2.501  -1.583   1.162  1.00  0.00     0.212 C 
BRANCH  24  26
HETATM   26  C18 UNL     1       4.650  -2.216   0.183  1.00  0.00     0.207 C 
BRANCH  26  27
HETATM   27  O10 UNL     1       5.198  -2.267   1.443  1.00  0.00    -0.398 OA
ATOM     28  H10 UNL     1       5.898  -2.909   1.479  1.00  0.00     0.209 HD
ENDBRANCH  26  27
ENDBRANCH  24  26
BRANCH  24  29
HETATM   29  O11 UNL     1       3.982   0.077   0.438  1.00  0.00    -0.340 OA
BRANCH  29  30
HETATM   30  C19 UNL     1       4.804   0.616  -0.526  1.00  0.00     0.292 C 
HETATM   31  O12 UNL     1       4.294   1.815  -1.051  1.00  0.00    -0.356 OA
HETATM   32  C20 UNL     1       5.039   2.112  -2.184  1.00  0.00     0.205 C 
HETATM   33  C21 UNL     1       6.487   2.402  -1.879  1.00  0.00     0.173 C 
HETATM   34  C22 UNL     1       7.091   1.262  -1.089  1.00  0.00     0.182 C 
HETATM   35  C23 UNL     1       6.156   0.978   0.081  1.00  0.00     0.204 C 
BRANCH  33  36
HETATM   36  O13 UNL     1       6.685   3.569  -1.181  1.00  0.00    -0.391 OA
ATOM     37  H13 UNL     1       7.597   3.752  -0.989  1.00  0.00     0.210 HD
ENDBRANCH  33  36
BRANCH  34  38
HETATM   38  O14 UNL     1       7.206   0.099  -1.854  1.00  0.00    -0.390 OA
ATOM     39  H14 UNL     1       7.585  -0.617  -1.358  1.00  0.00     0.210 HD
ENDBRANCH  34  38
BRANCH  35  40
HETATM   40  O15 UNL     1       6.000   2.158   0.785  1.00  0.00    -0.388 OA
ATOM     41  H15 UNL     1       6.842   2.383   1.163  1.00  0.00     0.210 HD
ENDBRANCH  35  40
ENDBRANCH  29  30
ENDBRANCH  24  29
BRANCH  25  42
HETATM   42  O16 UNL     1       2.755  -0.961   2.378  1.00  0.00    -0.387 OA
ATOM     43  H16 UNL     1       3.554  -1.266   2.791  1.00  0.00     0.210 HD
ENDBRANCH  25  42
ENDBRANCH  20  21
ENDBRANCH  12  20
BRANCH  13  44
HETATM   44  O7  UNL     1      -1.652  -2.649   2.944  1.00  0.00    -0.390 OA
ATOM     45  H7  UNL     1      -0.972  -3.235   2.632  1.00  0.00     0.210 HD
ENDBRANCH  13  44
BRANCH  14  46
HETATM   46  O6  UNL     1      -2.515  -0.811   4.726  1.00  0.00    -0.390 OA
ATOM     47  H6  UNL     1      -1.720  -0.717   5.238  1.00  0.00     0.210 HD
ENDBRANCH  14  46
BRANCH  15  48
HETATM   48  O5  UNL     1      -4.408   0.349   3.096  1.00  0.00    -0.390 OA
ATOM     49  H5  UNL     1      -4.604   0.154   4.005  1.00  0.00     0.210 HD
ENDBRANCH  15  48
ENDBRANCH   9  10
ENDBRANCH   7   9
ENDBRANCH   6   7
ENDBRANCH   1   6
TORSDOF 19
