REMARK  17 active torsions:
REMARK  status: ('A' for Active; 'I' for Inactive)
REMARK    1  A    between atoms: C2_2  and  O1_3 
REMARK    2  A    between atoms: O1_3  and  C3_4 
REMARK    3  A    between atoms: C3_4  and  C4_6 
REMARK    4  A    between atoms: C5_7  and  C6_8 
REMARK    5  A    between atoms: C7_10  and  O4_11 
REMARK    6  A    between atoms: O4_11  and  C8_12 
REMARK    7  A    between atoms: C9_13  and  O5_14 
REMARK    8  A    between atoms: C10_16  and  O6_17 
REMARK    9  A    between atoms: C11_19  and  O7_20 
REMARK   10  A    between atoms: C12_22  and  O8_23 
REMARK   11  A    between atoms: O8_23  and  C13_24 
REMARK   12  A    between atoms: C16_28  and  O10_29 
REMARK   13  A    between atoms: C17_31  and  O11_32 
REMARK   14  A    between atoms: C18_34  and  O12_35 
REMARK   15  A    between atoms: C19_37  and  O13_38 
REMARK   16  A    between atoms: C20_41  and  O15_42 
REMARK   17  A    between atoms: C20_41  and  C21_44 
ROOT
HETATM    1  C8  UNL     1       0.017  -1.677  -0.348  1.00  0.00     0.189 C 
HETATM    2  C9  UNL     1      -0.775  -2.680  -1.114  1.00  0.00     0.181 C 
HETATM    3  C10 UNL     1      -1.719  -1.926  -2.020  1.00  0.00     0.180 C 
HETATM    4  C11 UNL     1      -2.742  -1.244  -1.180  1.00  0.00     0.181 C 
HETATM    5  C12 UNL     1      -2.167  -0.412  -0.048  1.00  0.00     0.187 C 
HETATM    6  C19 UNL     1      -0.950  -0.947   0.578  1.00  0.00     0.181 C 
ENDROOT
BRANCH   1   7
HETATM    7  O4  UNL     1       0.969  -2.229   0.478  1.00  0.00    -0.328 OA
BRANCH   7   8
HETATM    8  C7  UNL     1       2.261  -1.674   0.321  1.00  0.00     0.417 C 
HETATM    9  O3  UNL     1       3.148  -2.596  -0.167  1.00  0.00    -0.327 OA
HETATM   10  C6  UNL     1       4.360  -2.014  -0.584  1.00  0.00     0.181 C 
HETATM   11  C23 UNL     1       4.924  -1.353   0.636  1.00  0.00     0.190 A 
HETATM   12  C22 UNL     1       4.452  -2.255   1.795  1.00  0.00     0.223 A 
HETATM   13  O17 UNL     1       5.721  -1.901   1.569  1.00  0.00    -0.366 OA
HETATM   14  C20 UNL     1       3.349  -1.505   2.420  1.00  0.00     0.250 C 
HETATM   15  O14 UNL     1       2.541  -0.993   1.437  1.00  0.00    -0.292 OA
BRANCH  10  16
HETATM   16  C5  UNL     1       4.210  -1.073  -1.693  1.00  0.00     0.014 C 
HETATM   17  C4  UNL     1       5.115  -0.146  -1.901  1.00  0.00     0.081 C 
BRANCH  17  18
HETATM   18  C3  UNL     1       5.042   0.828  -2.980  1.00  0.00     0.282 C 
HETATM   19  O2  UNL     1       4.032   0.758  -3.753  1.00  0.00    -0.260 OA
BRANCH  18  20
HETATM   20  O1  UNL     1       6.002   1.796  -3.183  1.00  0.00    -0.319 OA
BRANCH  20  21
HETATM   21  C2  UNL     1       5.909   2.732  -4.235  1.00  0.00     0.174 C 
HETATM   22  C1  UNL     1       5.883   2.056  -5.573  1.00  0.00     0.034 C 
ENDBRANCH  20  21
ENDBRANCH  18  20
ENDBRANCH  17  18
ENDBRANCH  10  16
BRANCH  14  23
HETATM   23  O15 UNL     1       3.813  -0.481   3.275  1.00  0.00    -0.358 OA
ATOM     24  H15 UNL     1       4.373  -0.836   3.956  1.00  0.00     0.213 HD
ENDBRANCH  14  23
BRANCH  14  25
HETATM   25  C21 UNL     1       2.542  -2.455   3.246  1.00  0.00     0.302 C 
HETATM   26  O16 UNL     1       2.042  -3.463   2.800  1.00  0.00    -0.301 OA
ENDBRANCH  14  25
ENDBRANCH   7   8
ENDBRANCH   1   7
BRANCH   2  27
HETATM   27  O5  UNL     1      -1.480  -3.478  -0.237  1.00  0.00    -0.390 OA
ATOM     28  H5  UNL     1      -1.985  -4.118  -0.725  1.00  0.00     0.210 HD
ENDBRANCH   2  27
BRANCH   6  29
HETATM   29  O13 UNL     1      -0.186   0.129   1.086  1.00  0.00    -0.390 OA
ATOM     30  H13 UNL     1      -0.788   0.584   1.663  1.00  0.00     0.210 HD
ENDBRANCH   6  29
BRANCH   3  31
HETATM   31  O6  UNL     1      -2.365  -2.798  -2.888  1.00  0.00    -0.390 OA
ATOM     32  H6  UNL     1      -2.959  -2.324  -3.458  1.00  0.00     0.210 HD
ENDBRANCH   3  31
BRANCH   5  33
HETATM   33  O8  UNL     1      -3.184  -0.366   0.914  1.00  0.00    -0.348 OA
BRANCH  33  34
HETATM   34  C13 UNL     1      -3.727   0.919   1.079  1.00  0.00     0.292 C 
HETATM   35  O9  UNL     1      -5.054   0.787   0.667  1.00  0.00    -0.351 OA
HETATM   36  C14 UNL     1      -5.896   1.780   1.082  1.00  0.00     0.152 C 
HETATM   37  C15 UNL     1      -5.541   3.144   0.581  1.00  0.00     0.042 C 
HETATM   38  C16 UNL     1      -6.034   1.808   2.599  1.00  0.00     0.178 C 
HETATM   39  C17 UNL     1      -4.669   2.075   3.137  1.00  0.00     0.183 C 
HETATM   40  C18 UNL     1      -3.561   1.303   2.513  1.00  0.00     0.204 C 
BRANCH  38  41
HETATM   41  O10 UNL     1      -6.849   2.910   2.890  1.00  0.00    -0.390 OA
ATOM     42  H10 UNL     1      -6.935   2.927   3.836  1.00  0.00     0.210 HD
ENDBRANCH  38  41
BRANCH  39  43
HETATM   43  O11 UNL     1      -4.667   1.782   4.514  1.00  0.00    -0.390 OA
ATOM     44  H11 UNL     1      -3.797   1.952   4.857  1.00  0.00     0.210 HD
ENDBRANCH  39  43
BRANCH  40  45
HETATM   45  O12 UNL     1      -2.403   2.126   2.575  1.00  0.00    -0.388 OA
ATOM     46  H12 UNL     1      -2.297   2.370   3.487  1.00  0.00     0.210 HD
ENDBRANCH  40  45
ENDBRANCH  33  34
ENDBRANCH   5  33
BRANCH   4  47
HETATM   47  O7  UNL     1      -3.458  -0.367  -1.995  1.00  0.00    -0.390 OA
ATOM     48  H7  UNL     1      -4.111   0.068  -1.459  1.00  0.00     0.210 HD
ENDBRANCH   4  47
TORSDOF 17
