REMARK  6 active torsions:
REMARK  status: ('A' for Active; 'I' for Inactive)
REMARK    1  A    between atoms: C2_2  and  C4_4 
REMARK    2  A    between atoms: C6_6  and  C7_7 
REMARK    3  A    between atoms: C7_7  and  O1_8 
REMARK    4  A    between atoms: C8_10  and  C9_11 
REMARK    5  A    between atoms: C12_14  and  O2_15 
REMARK    6  A    between atoms: C13_17  and  O3_18 
ROOT
HETATM    1  C4  UNL     1      -1.544  -0.026   0.675  1.00  0.00     0.021 C 
HETATM    2  C5  UNL     1      -0.908  -0.883  -0.376  1.00  0.00     0.014 C 
HETATM    3  C6  UNL     1       0.570  -1.119  -0.113  1.00  0.00     0.016 C 
HETATM    4  C8  UNL     1       1.234   0.056   0.459  1.00  0.00     0.026 C 
HETATM    5  C12 UNL     1       0.472   1.357   0.174  1.00  0.00     0.152 C 
HETATM    6  C13 UNL     1      -0.821   1.246   0.960  1.00  0.00     0.151 C 
ENDROOT
BRANCH   1   7
HETATM    7  C2  UNL     1      -2.993   0.176   0.320  1.00  0.00    -0.016 C 
HETATM    8  C1  UNL     1      -3.763  -1.111   0.240  1.00  0.00     0.010 C 
HETATM    9  C3  UNL     1      -3.172   0.891  -1.000  1.00  0.00     0.010 C 
ENDBRANCH   1   7
BRANCH   6  10
HETATM   10  O3  UNL     1      -0.449   1.358   2.321  1.00  0.00    -0.393 OA
ATOM     11  H3  UNL     1       0.012   2.169   2.503  1.00  0.00     0.210 HD
ENDBRANCH   6  10
BRANCH   3  12
HETATM   12  C7  UNL     1       1.158  -1.684  -1.374  1.00  0.00     0.169 C 
BRANCH  12  13
HETATM   13  O1  UNL     1       1.048  -0.879  -2.471  1.00  0.00    -0.400 OA
ATOM     14  H1  UNL     1       1.420  -1.236  -3.269  1.00  0.00     0.209 HD
ENDBRANCH  12  13
ENDBRANCH   3  12
BRANCH   5  15
HETATM   15  O2  UNL     1       0.284   1.579  -1.163  1.00  0.00    -0.393 OA
ATOM     16  H2  UNL     1      -0.188   2.384  -1.339  1.00  0.00     0.210 HD
ENDBRANCH   5  15
BRANCH   4  17
HETATM   17  C9  UNL     1       2.693   0.221   0.163  1.00  0.00    -0.016 C 
HETATM   18  C10 UNL     1       3.140   1.511   0.868  1.00  0.00     0.010 C 
HETATM   19  C11 UNL     1       3.455  -0.900   0.824  1.00  0.00     0.010 C 
ENDBRANCH   4  17
TORSDOF 6
