REMARK  9 active torsions:
REMARK  status: ('A' for Active; 'I' for Inactive)
REMARK    1  A    between atoms: O1_2  and  C2_3 
REMARK    2  A    between atoms: C5_6  and  N1_7 
REMARK    3  A    between atoms: N1_7  and  C6_9 
REMARK    4  A    between atoms: C6_9  and  C7_10 
REMARK    5  A    between atoms: C7_10  and  N2_11 
REMARK    6  A    between atoms: C9_16  and  C10_17 
REMARK    7  A    between atoms: C10_17  and  O2_20 
REMARK    8  A    between atoms: C15_27  and  O4_28 
REMARK    9  A    between atoms: C17_30  and  O5_31 
ROOT
HETATM    1  C2  UNL     1      -2.158   2.245  -0.249  1.00  0.00     0.105 A 
HETATM    2  C3  UNL     1      -1.221   1.313  -0.703  1.00  0.00     0.055 A 
HETATM    3  C4  UNL     1      -1.048   0.115  -0.032  1.00  0.00     0.024 A 
HETATM    4  C5  UNL     1      -0.121  -0.842  -0.501  1.00  0.00     0.055 A 
HETATM    5  C9  UNL     1       0.015  -2.059   0.183  1.00  0.00     0.070 A 
HETATM    6  C13 UNL     1      -0.765  -2.294   1.307  1.00  0.00     0.257 A 
HETATM    7  O3  UNL     1      -0.640  -3.378   1.911  1.00  0.00    -0.267 OA
HETATM    8  N5  UNL     1      -1.643  -1.360   1.732  1.00  0.00    -0.320 N 
ATOM      9  H5  UNL     1      -2.212  -1.544   2.559  1.00  0.00     0.169 HD
HETATM   10  C14 UNL     1      -1.777  -0.199   1.085  1.00  0.00     0.084 A 
HETATM   11  C15 UNL     1      -2.706   0.721   1.538  1.00  0.00     0.132 A 
HETATM   12  C17 UNL     1      -2.871   1.909   0.866  1.00  0.00     0.137 A 
ENDROOT
BRANCH   4  13
HETATM   13  N1  UNL     1       0.578  -0.478  -1.645  1.00  0.00    -0.387 N 
ATOM     14  H1  UNL     1       0.106  -0.663  -2.530  1.00  0.00     0.159 HD
BRANCH  13  15
HETATM   15  C6  UNL     1       1.856   0.114  -1.742  1.00  0.00     0.139 C 
BRANCH  15  16
HETATM   16  C7  UNL     1       2.286   1.034  -0.621  1.00  0.00     0.141 C 
BRANCH  16  17
HETATM   17  N2  UNL     1       3.658   1.516  -0.887  1.00  0.00    -0.365 N 
HETATM   18  C8  UNL     1       4.684   1.029  -0.308  1.00  0.00     0.197 C 
HETATM   19  N3  UNL     1       5.955   1.570  -0.640  1.00  0.00    -0.067 NA
HETATM   20  N4  UNL     1       4.549  -0.024   0.637  1.00  0.00    -0.067 NA
ATOM     21  H2  UNL     1       3.789   2.270  -1.562  1.00  0.00     0.161 HD
ENDBRANCH  16  17
ENDBRANCH  15  16
ENDBRANCH  13  15
ENDBRANCH   4  13
BRANCH   5  22
HETATM   22  C10 UNL     1       0.980  -3.042  -0.305  1.00  0.00     0.085 C 
HETATM   23  C11 UNL     1       0.619  -3.451  -1.766  1.00  0.00     0.051 C 
HETATM   24  C12 UNL     1       0.986  -4.359   0.432  1.00  0.00     0.051 C 
BRANCH  22  25
HETATM   25  O2  UNL     1       2.302  -2.604  -0.283  1.00  0.00    -0.386 OA
ATOM     26  H2  UNL     1       2.929  -3.243  -0.600  1.00  0.00     0.211 HD
ENDBRANCH  22  25
ENDBRANCH   5  22
BRANCH   1  27
HETATM   27  O1  UNL     1      -2.353   3.455  -0.901  1.00  0.00    -0.353 OA
HETATM   28  C1  UNL     1      -1.620   3.795  -2.045  1.00  0.00     0.210 C 
ENDBRANCH   1  27
BRANCH  11  29
HETATM   29  O4  UNL     1      -3.442   0.405   2.666  1.00  0.00    -0.351 OA
HETATM   30  C16 UNL     1      -3.006   0.736   3.966  1.00  0.00     0.210 C 
ENDBRANCH  11  29
BRANCH  12  31
HETATM   31  O5  UNL     1      -3.812   2.801   1.355  1.00  0.00    -0.351 OA
HETATM   32  C18 UNL     1      -5.139   2.703   0.874  1.00  0.00     0.210 C 
ENDBRANCH  12  31
TORSDOF 9
