REMARK  11 active torsions:
REMARK  status: ('A' for Active; 'I' for Inactive)
REMARK    1  A    between atoms: O1_2  and  C2_3 
REMARK    2  A    between atoms: C2_3  and  C3_4 
REMARK    3  A    between atoms: C3_4  and  C4_5 
REMARK    4  A    between atoms: C4_5  and  N1_6 
REMARK       I    between atoms: N1_6  and  C5_8 
REMARK    5  A    between atoms: C5_8  and  C6_10 
REMARK    6  A    between atoms: C9_13  and  C10_14 
REMARK    7  A    between atoms: C9_13  and  O3_20 
REMARK    8  A    between atoms: C10_14  and  N2_15 
REMARK    9  A    between atoms: O3_20  and  C15_21 
REMARK   10  A    between atoms: C15_21  and  N4_26 
REMARK   11  A    between atoms: N3_22  and  O4_24 
REMARK       I    between atoms: N4_26  and  C16_28 
ROOT
HETATM    1  C6  UNL     1       0.868  -1.346  -0.545  1.00  0.00     0.078 C 
HETATM    2  C7  UNL     1      -0.174  -1.500   0.577  1.00  0.00     0.017 C 
HETATM    3  C8  UNL     1      -1.516  -1.283  -0.155  1.00  0.00     0.041 C 
HETATM    4  C9  UNL     1      -1.705   0.156  -0.319  1.00  0.00     0.097 C 
HETATM    5  C17 UNL     1      -0.551   0.643  -1.227  1.00  0.00     0.041 C 
HETATM    6  C18 UNL     1       0.422  -0.411  -1.603  1.00  0.00     0.017 C 
ENDROOT
BRANCH   4   7
HETATM    7  C10 UNL     1      -2.958   0.527  -1.042  1.00  0.00     0.310 C 
BRANCH   7   8
HETATM    8  N2  UNL     1      -3.224  -0.192  -2.236  1.00  0.00     0.091 N 
HETATM    9  C11 UNL     1      -4.235   0.556  -3.044  1.00  0.00     0.272 C 
HETATM   10  C12 UNL     1      -5.483   0.498  -2.196  1.00  0.00     0.032 C 
HETATM   11  C13 UNL     1      -5.337  -0.832  -1.527  1.00  0.00     0.032 C 
HETATM   12  C14 UNL     1      -4.011  -1.393  -2.050  1.00  0.00     0.272 C 
ENDBRANCH   7   8
ENDBRANCH   4   7
BRANCH   4  13
HETATM   13  O3  UNL     1      -1.523   0.923   0.857  1.00  0.00    -0.307 OA
BRANCH  13  14
HETATM   14  C15 UNL     1      -2.205   0.784   2.025  1.00  0.00     0.248 C 
HETATM   15  N3  UNL     1      -3.171  -0.021   2.060  1.00  0.00    -0.232 N 
ATOM     16  H3  UNL     1      -3.422  -0.547   1.223  1.00  0.00     0.198 HD
BRANCH  15  17
HETATM   17  O4  UNL     1      -3.887  -0.196   3.213  1.00  0.00    -0.287 OA
ATOM     18  H4  UNL     1      -4.617  -0.804   3.239  1.00  0.00     0.244 HD
ENDBRANCH  15  17
BRANCH  14  19
HETATM   19  N4  UNL     1      -1.859   1.522   3.208  1.00  0.00    -0.275 N 
HETATM   20  C16 UNL     1      -0.774   2.407   3.132  1.00  0.00     0.335 C 
HETATM   21  N5  UNL     1      -0.389   3.163   4.257  1.00  0.00    -0.040 NA
HETATM   22  O5  UNL     1      -0.139   2.535   2.067  1.00  0.00    -0.251 OA
ATOM     23  H4  UNL     1      -2.385   1.406   4.074  1.00  0.00     0.173 HD
ENDBRANCH  14  19
ENDBRANCH  13  14
ENDBRANCH   4  13
BRANCH   1  24
HETATM   24  C5  UNL     1       2.203  -1.142  -0.011  1.00  0.00     0.221 C 
HETATM   25  N1  UNL     1       3.290  -0.740  -0.785  1.00  0.00    -0.361 N 
ATOM     26  H1  UNL     1       3.140  -0.570  -1.779  1.00  0.00     0.162 HD
HETATM   27  O2  UNL     1       2.367  -1.351   1.236  1.00  0.00    -0.273 OA
BRANCH  25  28
HETATM   28  C4  UNL     1       4.615  -0.552  -0.252  1.00  0.00     0.124 C 
BRANCH  28  29
HETATM   29  C3  UNL     1       4.727   0.472   0.826  1.00  0.00     0.046 C 
BRANCH  29  30
HETATM   30  C2  UNL     1       6.211   0.508   1.235  1.00  0.00     0.168 C 
BRANCH  30  31
HETATM   31  O1  UNL     1       6.547  -0.765   1.675  1.00  0.00    -0.396 OA
HETATM   32  C1  UNL     1       7.876  -0.851   2.077  1.00  0.00     0.201 C 
ENDBRANCH  30  31
ENDBRANCH  29  30
ENDBRANCH  28  29
ENDBRANCH  25  28
ENDBRANCH   1  24
TORSDOF 11
