REMARK  3 active torsions:
REMARK  status: ('A' for Active; 'I' for Inactive)
REMARK    1  A    between atoms: C2_5  and  N3_6 
REMARK    2  A    between atoms: N5_12  and  C4_14 
REMARK    3  A    between atoms: C4_14  and  C5_15 
ROOT
HETATM    1  C1  UNL     1      -3.933   2.124   0.246  1.00  0.00     0.182 C 
HETATM    2  N1  UNL     1      -3.120   0.941   0.052  1.00  0.00    -0.245 N 
HETATM    3  N2  UNL     1      -3.636  -0.259  -0.181  1.00  0.00    -0.128 N 
ATOM      4  H2  UNL     1      -4.650  -0.362  -0.227  1.00  0.00     0.206 HD
HETATM    5  C2  UNL     1      -2.861  -1.342  -0.358  1.00  0.00     0.692 A 
HETATM    6  N4  UNL     1      -1.518  -1.170  -0.291  1.00  0.00    -0.170 N 
ATOM      7  H4  UNL     1      -0.910  -1.978  -0.422  1.00  0.00     0.186 HD
HETATM    8  C3  UNL     1      -0.965   0.026  -0.058  1.00  0.00     0.187 A 
HETATM    9  N5  UNL     1       0.305   0.190   0.006  1.00  0.00    -0.364 N 
ATOM     10  H5  UNL     1       0.706   1.111   0.185  1.00  0.00     0.161 HD
HETATM   11  C8  UNL     1      -1.778   1.118   0.120  1.00  0.00     0.306 A 
HETATM   12  O1  UNL     1      -1.272   2.262   0.342  1.00  0.00    -0.262 OA
ENDROOT
BRANCH   9  13
HETATM   13  C4  UNL     1       1.157  -0.970  -0.183  1.00  0.00     0.197 C 
BRANCH  13  14
HETATM   14  C5  UNL     1       2.554  -0.511   0.055  1.00  0.00     0.090 C 
HETATM   15  N6  UNL     1       3.327  -0.992   0.969  1.00  0.00    -0.377 N 
HETATM   16  C6  UNL     1       4.611  -0.346   0.947  1.00  0.00     0.140 C 
ATOM     17  H6  UNL     1       3.063  -1.731   1.620  1.00  0.00     0.160 HD
HETATM   18  C7  UNL     1       4.639   0.288  -0.427  1.00  0.00     0.140 C 
HETATM   19  N7  UNL     1       3.227   0.504  -0.679  1.00  0.00    -0.377 N 
ATOM     20  H7  UNL     1       2.806   1.230  -1.259  1.00  0.00     0.160 HD
ENDBRANCH  13  14
ENDBRANCH   9  13
BRANCH   5  21
HETATM   21  N3  UNL     1      -3.366  -2.506  -0.584  1.00  0.00    -0.233 N 
ATOM     22  H32 UNL     1      -4.376  -2.635  -0.634  1.00  0.00     0.174 HD
ATOM     23  H31 UNL     1      -2.778  -3.328  -0.718  1.00  0.00     0.174 HD
ENDBRANCH   5  21
TORSDOF 3
