REMARK  4 active torsions:
REMARK  status: ('A' for Active; 'I' for Inactive)
REMARK    1  A    between atoms: C1_4  and  C2_6 
REMARK    2  A    between atoms: N3_9  and  C5_10 
REMARK    3  A    between atoms: C5_10  and  C6_11 
REMARK    4  A    between atoms: C6_11  and  N4_12 
ROOT
HETATM    1  C2  UNL     1      -2.346   0.181   0.229  1.00  0.00     0.007 A 
HETATM    2  C3  UNL     1      -1.424   0.869  -0.541  1.00  0.00     0.032 A 
HETATM    3  C4  UNL     1      -0.272   0.262  -0.995  1.00  0.00     0.091 A 
HETATM    4  N3  UNL     1       0.005  -1.024  -0.709  1.00  0.00    -0.365 N 
HETATM    5  C9  UNL     1      -0.879  -1.700   0.035  1.00  0.00     0.091 A 
HETATM    6  C10 UNL     1      -2.059  -1.127   0.517  1.00  0.00     0.032 A 
ENDROOT
BRANCH   4   7
HETATM    7  C5  UNL     1       1.207  -1.671  -1.179  1.00  0.00     0.149 C 
BRANCH   7   8
HETATM    8  C6  UNL     1       2.373  -1.565  -0.244  1.00  0.00     0.170 C 
BRANCH   8   9
HETATM    9  N4  UNL     1       2.759  -0.192   0.013  1.00  0.00    -0.286 N 
HETATM   10  C7  UNL     1       2.335   0.634   0.980  1.00  0.00     0.130 A 
HETATM   11  C8  UNL     1       2.969   1.821   0.831  1.00  0.00     0.127 A 
HETATM   12  N5  UNL     1       3.783   1.713  -0.234  1.00  0.00    -0.296 N 
HETATM   13  N6  UNL     1       3.634   0.489  -0.705  1.00  0.00    -0.241 N 
ATOM     14  H5  UNL     1       4.397   2.437  -0.606  1.00  0.00     0.187 HD
ATOM     15  H6  UNL     1       4.129   0.118  -1.516  1.00  0.00     0.208 HD
ENDBRANCH   8   9
ENDBRANCH   7   8
ENDBRANCH   4   7
BRANCH   1  16
HETATM   16  C1  UNL     1      -3.571   0.841   0.707  1.00  0.00     0.120 C 
HETATM   17  N1  UNL     1      -4.445   0.244   1.418  1.00  0.00    -0.387 N 
ATOM     18  H12 UNL     1      -5.294   0.702   1.749  1.00  0.00     0.157 HD
ATOM     19  H11 UNL     1      -4.287  -0.733   1.665  1.00  0.00     0.157 HD
HETATM   20  N2  UNL     1      -3.790   2.193   0.365  1.00  0.00    -0.082 NA
ENDBRANCH   1  16
TORSDOF 4
