REMARK  4 active torsions:
REMARK  status: ('A' for Active; 'I' for Inactive)
REMARK    1  A    between atoms: C3_3  and  C4_4 
REMARK    2  A    between atoms: C4_4  and  N1_5 
REMARK    3  A    between atoms: N4_15  and  C9_17 
REMARK    4  A    between atoms: C9_17  and  C10_18 
ROOT
HETATM    1  C1  UNL     1      -4.865   2.550   0.405  1.00  0.00     0.012 C 
HETATM    2  C2  UNL     1      -4.567   1.424   0.094  1.00  0.00    -0.116 C 
HETATM    3  C3  UNL     1      -4.220   0.036  -0.295  1.00  0.00     0.113 C 
ENDROOT
BRANCH   3   4
HETATM    4  C4  UNL     1      -3.508  -0.610   0.880  1.00  0.00     0.150 C 
BRANCH   4   5
HETATM    5  N1  UNL     1      -2.302   0.101   1.229  1.00  0.00    -0.225 N 
HETATM    6  C5  UNL     1      -1.159  -0.046   0.641  1.00  0.00     0.694 A 
HETATM    7  N2  UNL     1      -0.942  -0.942  -0.442  1.00  0.00    -0.177 N 
HETATM    8  N5  UNL     1      -0.045   0.715   1.081  1.00  0.00    -0.022 N 
HETATM    9  C6  UNL     1       0.344  -1.071  -1.063  1.00  0.00     0.127 A 
ATOM     10  H2  UNL     1      -1.719  -1.506  -0.785  1.00  0.00     0.185 HD
HETATM   11  C7  UNL     1       0.495  -1.915  -2.064  1.00  0.00     0.064 C 
HETATM   12  N3  UNL     1       1.461  -0.308  -0.622  1.00  0.00    -0.177 N 
HETATM   13  C8  UNL     1       1.255   0.588   0.457  1.00  0.00     0.694 A 
ATOM     14  H3  UNL     1       2.375  -0.402  -1.065  1.00  0.00     0.185 HD
HETATM   15  N4  UNL     1       2.227   1.304   0.900  1.00  0.00    -0.222 N 
ATOM     16  H4  UNL     1       2.020   1.930   1.678  1.00  0.00     0.178 HD
ATOM     17  H5  UNL     1      -0.163   1.368   1.856  1.00  0.00     0.203 HD
ATOM     18  H1  UNL     1      -2.355   0.770   1.997  1.00  0.00     0.177 HD
BRANCH  15  19
HETATM   19  C9  UNL     1       3.557   1.309   0.413  1.00  0.00     0.164 C 
BRANCH  19  20
HETATM   20  C10 UNL     1       4.355   0.344   1.256  1.00  0.00    -0.017 C 
HETATM   21  C11 UNL     1       4.955  -0.699   0.710  1.00  0.00     0.008 C 
ENDBRANCH  19  20
ENDBRANCH  15  19
ENDBRANCH   4   5
ENDBRANCH   3   4
TORSDOF 4
