REMARK  2 active torsions:
REMARK  status: ('A' for Active; 'I' for Inactive)
REMARK    1  A    between atoms: C1_2  and  N1_3 
REMARK    2  A    between atoms: N1_3  and  C2_5 
ROOT
HETATM    1  C2  UNL     1       1.567  -0.387  -0.207  1.00  0.00     0.087 C 
HETATM    2  C3  UNL     1       1.701   0.954  -0.803  1.00  0.00     0.026 C 
HETATM    3  C4  UNL     1       1.017   2.075  -0.132  1.00  0.00     0.004 C 
HETATM    4  C5  UNL     1       0.035   1.739   0.928  1.00  0.00     0.025 C 
HETATM    5  C6  UNL     1      -1.264   1.225   0.296  1.00  0.00     0.077 C 
HETATM    6  C7  UNL     1      -1.943   0.198   1.122  1.00  0.00     0.029 C 
HETATM    7  C8  UNL     1      -1.757  -1.215   0.680  1.00  0.00    -0.010 C 
HETATM    8  C9  UNL     1      -1.968  -1.284  -0.840  1.00  0.00     0.029 C 
HETATM    9  C10 UNL     1      -0.717  -0.508  -1.284  1.00  0.00     0.083 C 
HETATM   10  N2  UNL     1      -0.966   0.856  -1.042  1.00  0.00    -0.412 N 
ATOM     11  H2  UNL     1      -0.934   1.546  -1.792  1.00  0.00     0.154 HD
HETATM   12  C11 UNL     1       0.354  -1.166  -0.511  1.00  0.00     0.031 C 
HETATM   13  C12 UNL     1      -0.325  -1.683   0.764  1.00  0.00     0.013 C 
ENDROOT
BRANCH   1  14
HETATM   14  N1  UNL     1       2.751  -1.163  -0.624  1.00  0.00    -0.385 N 
ATOM     15  H1  UNL     1       2.703  -1.722  -1.476  1.00  0.00     0.160 HD
BRANCH  14  16
HETATM   16  C1  UNL     1       3.825  -1.153   0.048  1.00  0.00     0.166 C 
HETATM   17  S1  UNL     1       5.039  -1.540   1.024  1.00  0.00    -0.075 SA
ENDBRANCH  14  16
ENDBRANCH   1  14
TORSDOF 2
