REMARK  1 active torsions:
REMARK  status: ('A' for Active; 'I' for Inactive)
REMARK    1  A    between atoms: C4_4  and  C5_5 
ROOT
HETATM    1  C5  UNL     1      -0.715  -0.779  -0.475  1.00  0.00     0.080 C 
HETATM    2  C6  UNL     1      -1.508  -2.064  -0.483  1.00  0.00     0.051 C 
HETATM    3  C7  UNL     1       0.371  -0.917  -1.509  1.00  0.00     0.093 C 
HETATM    4  C8  UNL     1       1.611  -1.458  -0.843  1.00  0.00    -0.017 C 
HETATM    5  N1  UNL     1       1.870  -2.680  -1.095  1.00  0.00    -0.405 N 
ATOM      6  H11 UNL     1       2.709  -3.046  -0.645  1.00  0.00     0.155 HD
ATOM      7  H12 UNL     1       1.219  -3.162  -1.715  1.00  0.00     0.155 HD
HETATM    8  C9  UNL     1       2.543  -0.769   0.044  1.00  0.00     0.062 C 
HETATM    9  C10 UNL     1       2.034   0.519   0.614  1.00  0.00    -0.021 C 
HETATM   10  C11 UNL     1       2.356   1.647  -0.371  1.00  0.00     0.017 C 
HETATM   11  C12 UNL     1       2.834   0.803   1.877  1.00  0.00     0.017 C 
HETATM   12  C13 UNL     1       0.577   0.562   0.882  1.00  0.00     0.178 C 
HETATM   13  O1  UNL     1      -0.097  -0.618   0.757  1.00  0.00    -0.375 OA
ENDROOT
BRANCH   1  14
HETATM   14  C4  UNL     1      -1.614   0.355  -0.823  1.00  0.00     0.013 C 
HETATM   15  C2  UNL     1      -2.709   0.648  -0.163  1.00  0.00    -0.088 C 
HETATM   16  C1  UNL     1      -3.180  -0.125   1.016  1.00  0.00     0.042 C 
HETATM   17  C3  UNL     1      -3.527   1.804  -0.603  1.00  0.00     0.042 C 
ENDBRANCH   1  14
TORSDOF 1
