REMARK  4 active torsions:
REMARK  status: ('A' for Active; 'I' for Inactive)
REMARK       I    between atoms: C2_2  and  N1_4 
REMARK    1  A    between atoms: C5_8  and  C6_9 
REMARK    2  A    between atoms: C6_9  and  C9_12 
REMARK    3  A    between atoms: C9_12  and  C10_13 
REMARK    4  A    between atoms: C10_13  and  C11_14 
ROOT
HETATM    1  C6  UNL     1       0.961   0.980   1.238  1.00  0.00     0.060 C 
HETATM    2  C7  UNL     1       0.902   2.376   0.584  1.00  0.00     0.035 C 
HETATM    3  C8  UNL     1       1.198   1.218   2.704  1.00  0.00     0.035 C 
ENDROOT
BRANCH   1   4
HETATM    4  C5  UNL     1       2.111   0.286   0.629  1.00  0.00     0.049 A 
HETATM    5  C4  UNL     1       3.316   0.940   0.377  1.00  0.00     0.078 A 
HETATM    6  C3  UNL     1       4.217   0.040  -0.203  1.00  0.00     0.124 A 
HETATM    7  N1  UNL     1       5.417   0.342  -0.552  1.00  0.00    -0.312 N 
HETATM    8  N5  UNL     1       3.527  -1.106  -0.276  1.00  0.00    -0.285 N 
HETATM    9  C2  UNL     1       6.339  -0.521  -1.132  1.00  0.00     0.219 C 
ATOM     10  H1  UNL     1       5.720   1.302  -0.388  1.00  0.00     0.170 HD
HETATM   11  C1  UNL     1       7.554   0.062  -1.826  1.00  0.00     0.117 C 
HETATM   12  O1  UNL     1       6.231  -1.772  -1.116  1.00  0.00    -0.274 OA
HETATM   13  N4  UNL     1       2.286  -0.978   0.212  1.00  0.00    -0.301 N 
ATOM     14  H5  UNL     1       3.902  -1.974  -0.658  1.00  0.00     0.188 HD
ATOM     15  H4  UNL     1       1.588  -1.720   0.259  1.00  0.00     0.186 HD
ENDBRANCH   1   4
BRANCH   1  16
HETATM   16  C9  UNL     1      -0.304   0.339   0.946  1.00  0.00    -0.089 C 
BRANCH  16  17
HETATM   17  C10 UNL     1      -1.373  -0.168   0.713  1.00  0.00    -0.079 C 
BRANCH  17  18
HETATM   18  C11 UNL     1      -2.682  -0.757   0.438  1.00  0.00     0.176 C 
HETATM   19  C12 UNL     1      -2.659  -1.514  -0.859  1.00  0.00     0.141 C 
HETATM   20  C13 UNL     1      -4.022  -2.104  -1.046  1.00  0.00     0.230 C 
HETATM   21  O2  UNL     1      -4.225  -3.247  -1.555  1.00  0.00    -0.273 OA
HETATM   22  N2  UNL     1      -5.182  -1.382  -0.659  1.00  0.00    -0.274 N 
HETATM   23  C14 UNL     1      -6.540  -1.839  -0.909  1.00  0.00     0.164 C 
HETATM   24  C15 UNL     1      -5.019  -0.139   0.026  1.00  0.00     0.327 C 
HETATM   25  O3  UNL     1      -6.023   0.527   0.390  1.00  0.00    -0.247 OA
HETATM   26  N3  UNL     1      -3.690   0.293   0.268  1.00  0.00    -0.322 N 
HETATM   27  C16 UNL     1      -3.370   1.684   0.348  1.00  0.00     0.156 C 
ENDBRANCH  17  18
ENDBRANCH  16  17
ENDBRANCH   1  16
TORSDOF 4
