REMARK  1 active torsions:
REMARK  status: ('A' for Active; 'I' for Inactive)
REMARK    1  A    between atoms: C10_14  and  N2_15 
REMARK       I    between atoms: N2_15  and  C11_17 
REMARK       I    between atoms: N4_19  and  C12_21 
REMARK       I    between atoms: C12_21  and  N6_25 
ROOT
HETATM    1  C1  UNL     1       4.336   1.660   2.235  1.00  0.00     0.049 C 
HETATM    2  C2  UNL     1       3.290   1.042   1.389  1.00  0.00    -0.054 A 
HETATM    3  C3  UNL     1       1.967   1.202   1.670  1.00  0.00     0.008 A 
HETATM    4  C4  UNL     1       0.994   0.622   0.874  1.00  0.00     0.017 A 
HETATM    5  C5  UNL     1       1.303  -0.153  -0.250  1.00  0.00     0.033 A 
HETATM    6  C6  UNL     1       2.623  -0.296  -0.506  1.00  0.00     0.100 A 
HETATM    7  C7  UNL     1       3.596   0.269   0.268  1.00  0.00    -0.032 A 
HETATM    8  C8  UNL     1       5.038   0.094  -0.038  1.00  0.00     0.050 C 
HETATM    9  S1  UNL     1       2.765  -1.285  -1.930  1.00  0.00     0.267 S 
HETATM   10  O1  UNL     1       3.384  -0.515  -3.065  1.00  0.00    -0.200 OA
HETATM   11  O2  UNL     1       3.508  -2.559  -1.661  1.00  0.00    -0.200 OA
HETATM   12  N1  UNL     1       1.105  -1.529  -2.217  1.00  0.00    -0.260 N 
HETATM   13  C9  UNL     1       0.492  -2.295  -3.293  1.00  0.00     0.171 C 
HETATM   14  C10 UNL     1       0.406  -0.806  -1.153  1.00  0.00     0.131 A 
ENDROOT
BRANCH  14  15
HETATM   15  N2  UNL     1      -0.865  -0.862  -1.185  1.00  0.00    -0.315 N 
HETATM   16  C11 UNL     1      -1.822  -0.321  -0.372  1.00  0.00     0.208 C 
HETATM   17  N3  UNL     1      -2.347   1.006  -0.648  1.00  0.00    -0.063 NA
HETATM   18  N4  UNL     1      -2.343  -0.935   0.660  1.00  0.00    -0.164 N 
HETATM   19  C12 UNL     1      -3.323  -0.267   1.418  1.00  0.00     0.675 C 
ATOM     20  H4  UNL     1      -2.045  -1.878   0.910  1.00  0.00     0.187 HD
HETATM   21  N5  UNL     1      -3.143  -0.017   2.655  1.00  0.00    -0.235 N 
HETATM   22  N6  UNL     1      -4.523   0.122   0.758  1.00  0.00    -0.227 N 
ATOM     23  H52 UNL     1      -2.283  -0.296   3.128  1.00  0.00     0.174 HD
ATOM     24  H51 UNL     1      -3.853   0.467   3.204  1.00  0.00     0.174 HD
HETATM   25  C13 UNL     1      -5.172   1.391   1.067  1.00  0.00     0.168 C 
HETATM   26  C14 UNL     1      -5.083  -0.789  -0.237  1.00  0.00     0.168 C 
ATOM     27  H2  UNL     1      -1.238  -1.411  -1.959  1.00  0.00     0.170 HD
ENDBRANCH  14  15
TORSDOF 1
