REMARK  6 active torsions:
REMARK  status: ('A' for Active; 'I' for Inactive)
REMARK    1  A    between atoms: O1_2  and  C2_3 
REMARK    2  A    between atoms: C2_3  and  C3_5 
REMARK    3  A    between atoms: C5_7  and  C6_8 
REMARK    4  A    between atoms: C6_8  and  C7_9 
REMARK    5  A    between atoms: C16_20  and  O3_21 
REMARK    6  A    between atoms: C37_45  and  O4_46 
ROOT
HETATM    1  C7  UNL     1       1.750  -0.050   0.570  1.00  0.00    -0.004 C 
HETATM    2  C8  UNL     1       1.005   1.125   0.324  1.00  0.00     0.014 C 
HETATM    3  C9  UNL     1       1.046   2.539   0.429  1.00  0.00     0.016 C 
HETATM    4  C10 UNL     1      -0.379   3.029  -0.030  1.00  0.00     0.096 C 
HETATM    5  N1  UNL     1      -1.425   2.550   0.810  1.00  0.00    -0.277 NA
HETATM    6  C11 UNL     1      -1.495   3.749   1.730  1.00  0.00     0.140 C 
HETATM    7  C12 UNL     1      -2.044   4.914   0.964  1.00  0.00     0.072 C 
HETATM    8  N2  UNL     1      -2.760   4.719  -0.212  1.00  0.00    -0.391 N 
HETATM    9  C13 UNL     1      -3.944   5.550  -0.329  1.00  0.00     0.149 C 
HETATM   10  C14 UNL     1      -2.935   3.424  -0.760  1.00  0.00     0.177 C 
HETATM   11  C15 UNL     1      -2.742   2.386   0.351  1.00  0.00     0.057 C 
HETATM   12  C16 UNL     1      -3.504   1.187   0.208  1.00  0.00     0.155 C 
HETATM   13  N3  UNL     1      -3.401  -0.077  -0.413  1.00  0.00    -0.361 N 
ATOM     14  H3  UNL     1      -4.268  -0.441  -0.809  1.00  0.00     0.162 HD
HETATM   15  C17 UNL     1      -2.228  -0.942  -0.570  1.00  0.00     0.118 C 
HETATM   16  C18 UNL     1      -2.112  -1.079  -2.100  1.00  0.00     0.017 C 
HETATM   17  C19 UNL     1      -1.511   0.050  -2.830  1.00  0.00     0.034 C 
HETATM   18  C20 UNL     1      -0.218  -0.133  -3.522  1.00  0.00    -0.026 C 
HETATM   19  C21 UNL     1       1.027  -0.489  -2.860  1.00  0.00     0.002 C 
HETATM   20  C22 UNL     1       1.129  -1.409  -1.679  1.00  0.00    -0.047 C 
HETATM   21  C23 UNL     1      -0.125  -2.103  -1.339  1.00  0.00     0.021 C 
HETATM   22  C24 UNL     1      -1.171  -2.179  -2.355  1.00  0.00     0.016 C 
HETATM   23  C25 UNL     1      -0.187  -3.499  -0.807  1.00  0.00     0.043 C 
HETATM   24  C26 UNL     1      -1.376  -3.336   0.160  1.00  0.00    -0.074 C 
HETATM   25  C27 UNL     1      -2.119  -4.643   0.287  1.00  0.00     0.034 C 
HETATM   26  C28 UNL     1      -2.829  -4.563   1.645  1.00  0.00     0.005 C 
HETATM   27  C29 UNL     1      -3.568  -3.296   1.866  1.00  0.00     0.013 C 
HETATM   28  C30 UNL     1      -2.681  -2.033   1.587  1.00  0.00     0.039 C 
HETATM   29  C31 UNL     1      -1.684  -2.064   2.657  1.00  0.00    -0.017 C 
HETATM   30  C32 UNL     1      -0.831  -0.979   3.031  1.00  0.00    -0.001 C 
HETATM   31  C33 UNL     1       0.363  -0.479   2.728  1.00  0.00    -0.083 C 
HETATM   32  C34 UNL     1       0.732   0.773   3.540  1.00  0.00     0.043 C 
HETATM   33  C35 UNL     1       1.390  -0.903   1.793  1.00  0.00     0.046 C 
HETATM   34  C36 UNL     1      -2.274  -2.227   0.134  1.00  0.00    -0.047 C 
HETATM   35  C37 UNL     1       2.032  -0.986  -0.587  1.00  0.00     0.156 C 
ENDROOT
BRANCH   1  36
HETATM   36  C6  UNL     1       3.190   0.441   0.901  1.00  0.00     0.040 C 
BRANCH  36  37
HETATM   37  C5  UNL     1       3.881   1.107  -0.185  1.00  0.00    -0.013 C 
HETATM   38  C3  UNL     1       5.057   0.771  -0.630  1.00  0.00     0.009 C 
HETATM   39  C4  UNL     1       5.636   1.605  -1.804  1.00  0.00     0.054 C 
BRANCH  38  40
HETATM   40  C2  UNL     1       5.948  -0.272  -0.214  1.00  0.00     0.288 C 
HETATM   41  O2  UNL     1       5.686  -1.055   0.709  1.00  0.00    -0.260 OA
BRANCH  40  42
HETATM   42  O1  UNL     1       7.203  -0.491  -0.828  1.00  0.00    -0.323 OA
HETATM   43  C1  UNL     1       8.056  -1.536  -0.384  1.00  0.00     0.213 C 
ENDBRANCH  40  42
ENDBRANCH  38  40
ENDBRANCH  36  37
ENDBRANCH   1  36
BRANCH  35  44
HETATM   44  O4  UNL     1       2.568  -2.145   0.061  1.00  0.00    -0.390 OA
ATOM     45  H4  UNL     1       2.745  -2.732  -0.665  1.00  0.00     0.210 HD
ENDBRANCH  35  44
BRANCH  12  46
HETATM   46  O3  UNL     1      -4.680   1.194   0.816  1.00  0.00    -0.345 OA
ATOM     47  H3  UNL     1      -5.187   0.396   0.721  1.00  0.00     0.219 HD
ENDBRANCH  12  46
TORSDOF 6
