REMARK  3 active torsions:
REMARK  status: ('A' for Active; 'I' for Inactive)
REMARK    1  A    between atoms: C8_10  and  O3_11 
REMARK    2  A    between atoms: C20_24  and  O4_25 
REMARK    3  A    between atoms: C27_33  and  N1_34 
ROOT
HETATM    1  C1  UNL     1       7.219   1.035   0.607  1.00  0.00     0.012 C 
HETATM    2  C2  UNL     1       6.240   0.487   1.638  1.00  0.00     0.006 C 
HETATM    3  C3  UNL     1       6.060  -1.017   1.451  1.00  0.00     0.012 C 
HETATM    4  C4  UNL     1       4.591  -1.389   1.451  1.00  0.00     0.074 C 
HETATM    5  C5  UNL     1       3.899  -0.764   0.276  1.00  0.00     0.189 C 
HETATM    6  O1  UNL     1       4.534   0.484   0.070  1.00  0.00    -0.351 OA
HETATM    7  C6  UNL     1       4.875   1.085   1.275  1.00  0.00     0.176 C 
HETATM    8  O2  UNL     1       2.536  -0.604   0.470  1.00  0.00    -0.342 OA
HETATM    9  C7  UNL     1       1.948   0.087  -0.565  1.00  0.00     0.164 C 
HETATM   10  C8  UNL     1       1.186   1.352  -0.112  1.00  0.00     0.157 C 
HETATM   11  C9  UNL     1      -0.103   1.368  -0.926  1.00  0.00    -0.001 C 
HETATM   12  C10 UNL     1      -0.051   2.797  -1.570  1.00  0.00     0.019 C 
HETATM   13  C11 UNL     1       0.335   0.542  -2.039  1.00  0.00     0.009 C 
HETATM   14  C12 UNL     1      -0.338  -0.014  -3.148  1.00  0.00     0.007 C 
HETATM   15  C13 UNL     1      -0.355  -1.534  -2.887  1.00  0.00     0.006 C 
HETATM   16  C14 UNL     1       0.319  -1.736  -1.551  1.00  0.00    -0.002 C 
HETATM   17  C15 UNL     1      -0.462  -2.074  -0.370  1.00  0.00     0.011 C 
HETATM   18  C16 UNL     1      -1.915  -2.030  -0.337  1.00  0.00    -0.001 C 
HETATM   19  C17 UNL     1      -2.591  -0.828   0.248  1.00  0.00    -0.004 C 
HETATM   20  C18 UNL     1      -4.058  -1.275   0.016  1.00  0.00     0.013 C 
HETATM   21  C19 UNL     1      -4.000  -2.706   0.513  1.00  0.00     0.023 C 
HETATM   22  C20 UNL     1      -4.490  -2.739   1.937  1.00  0.00     0.123 C 
HETATM   23  C21 UNL     1      -3.384  -3.444   2.698  1.00  0.00     0.033 C 
HETATM   24  C22 UNL     1      -2.094  -3.120   1.931  1.00  0.00     0.012 C 
HETATM   25  C23 UNL     1      -2.555  -3.126   0.540  1.00  0.00    -0.034 C 
HETATM   26  C24 UNL     1      -2.369  -4.423  -0.200  1.00  0.00     0.016 C 
HETATM   27  C25 UNL     1      -2.429   0.405  -0.595  1.00  0.00     0.003 C 
HETATM   28  C26 UNL     1      -3.516   1.395  -0.342  1.00  0.00     0.042 C 
HETATM   29  C27 UNL     1      -2.400   2.473  -0.363  1.00  0.00     0.233 C 
HETATM   30  C32 UNL     1      -1.370   1.372  -0.194  1.00  0.00     0.001 C 
HETATM   31  C33 UNL     1      -1.308   1.277   1.353  1.00  0.00     0.019 C 
HETATM   32  C34 UNL     1       1.252  -0.621  -1.570  1.00  0.00    -0.000 C 
HETATM   33  C35 UNL     1       2.276  -0.978  -2.675  1.00  0.00     0.040 C 
HETATM   34  C36 UNL     1       3.673  -1.032  -2.246  1.00  0.00    -0.018 C 
HETATM   35  C37 UNL     1       4.116  -1.581  -0.968  1.00  0.00    -0.026 C 
HETATM   36  C38 UNL     1       3.835  -3.035  -0.708  1.00  0.00     0.049 C 
ENDROOT
BRANCH  10  37
HETATM   37  O3  UNL     1       1.214   1.293   1.209  1.00  0.00    -0.392 OA
ATOM     38  H3  UNL     1       0.745   2.071   1.488  1.00  0.00     0.210 HD
ENDBRANCH  10  37
BRANCH  29  39
HETATM   39  N1  UNL     1      -2.780   3.314   0.750  1.00  0.00     0.098 N 
HETATM   40  C28 UNL     1      -4.128   3.885   0.504  1.00  0.00     0.299 C 
HETATM   41  C29 UNL     1      -4.273   5.256   1.099  1.00  0.00     0.198 C 
HETATM   42  O5  UNL     1      -3.477   6.222   0.496  1.00  0.00    -0.388 OA
HETATM   43  C30 UNL     1      -2.342   5.595  -0.017  1.00  0.00     0.198 C 
HETATM   44  C31 UNL     1      -2.025   4.488   1.000  1.00  0.00     0.299 C 
ENDBRANCH  29  39
BRANCH  22  45
HETATM   45  O4  UNL     1      -5.669  -3.494   1.944  1.00  0.00    -0.395 OA
ATOM     46  H4  UNL     1      -5.978  -3.515   2.842  1.00  0.00     0.210 HD
ENDBRANCH  22  45
TORSDOF 3
