REMARK  8 active torsions:
REMARK  status: ('A' for Active; 'I' for Inactive)
REMARK    1  A    between atoms: N1_2  and  C2_3 
REMARK       I    between atoms: N1_2  and  C9_11 
REMARK    2  A    between atoms: C2_3  and  C3_4 
REMARK       I    between atoms: C9_11  and  N2_13 
REMARK    3  A    between atoms: N2_13  and  S1_15 
REMARK    4  A    between atoms: S1_15  and  C10_18 
REMARK    5  A    between atoms: C13_21  and  S2_22 
REMARK    6  A    between atoms: S2_22  and  N3_25 
REMARK       I    between atoms: N3_25  and  C14_27 
REMARK    7  A    between atoms: C14_27  and  C15_29 
REMARK    8  A    between atoms: C15_29  and  C16_30 
ROOT
HETATM    1  C10 UNL     1      -0.531  -0.282   1.286  1.00  0.00     0.080 A 
HETATM    2  C11 UNL     1      -0.093  -1.592   1.290  1.00  0.00     0.027 A 
HETATM    3  C12 UNL     1       0.973  -2.023   0.524  1.00  0.00     0.027 A 
HETATM    4  C13 UNL     1       1.667  -1.154  -0.302  1.00  0.00     0.080 A 
HETATM    5  C22 UNL     1       1.245   0.155  -0.321  1.00  0.00     0.027 A 
HETATM    6  C23 UNL     1       0.182   0.588   0.443  1.00  0.00     0.027 A 
ENDROOT
BRANCH   1   7
HETATM    7  S1  UNL     1      -1.836   0.273   2.290  1.00  0.00     0.266 S 
HETATM    8  O2  UNL     1      -1.791   1.787   2.373  1.00  0.00    -0.200 OA
HETATM    9  O3  UNL     1      -1.669  -0.313   3.687  1.00  0.00    -0.200 OA
BRANCH   7  10
HETATM   10  N2  UNL     1      -3.346  -0.237   1.664  1.00  0.00    -0.232 N 
HETATM   11  C9  UNL     1      -3.487  -0.651   0.336  1.00  0.00     0.331 C 
HETATM   12  N1  UNL     1      -4.721  -1.078  -0.196  1.00  0.00    -0.334 N 
HETATM   13  O1  UNL     1      -2.444  -0.639  -0.408  1.00  0.00    -0.246 OA
HETATM   14  C1  UNL     1      -4.779  -1.565  -1.582  1.00  0.00     0.154 C 
ATOM     15  H2  UNL     1      -4.163  -0.239   2.275  1.00  0.00     0.183 HD
BRANCH  12  16
HETATM   16  C2  UNL     1      -5.936  -1.034   0.547  1.00  0.00     0.165 C 
BRANCH  16  17
HETATM   17  C3  UNL     1      -6.700   0.187   0.230  1.00  0.00    -0.040 A 
HETATM   18  C4  UNL     1      -8.077   0.064   0.009  1.00  0.00     0.012 A 
HETATM   19  C5  UNL     1      -8.863   1.153  -0.285  1.00  0.00     0.043 A 
HETATM   20  C6  UNL     1      -8.308   2.408  -0.370  1.00  0.00     0.116 A 
HETATM   21  F1  UNL     1      -9.139   3.455  -0.667  1.00  0.00    -0.206 F 
HETATM   22  C7  UNL     1      -6.967   2.557  -0.159  1.00  0.00     0.043 A 
HETATM   23  C8  UNL     1      -6.191   1.438   0.137  1.00  0.00     0.012 A 
ENDBRANCH  16  17
ENDBRANCH  12  16
ENDBRANCH   7  10
ENDBRANCH   1   7
BRANCH   4  24
HETATM   24  S2  UNL     1       3.007  -1.730  -1.278  1.00  0.00     0.265 S 
HETATM   25  O4  UNL     1       2.654  -3.104  -1.838  1.00  0.00    -0.200 OA
HETATM   26  O5  UNL     1       3.067  -0.816  -2.486  1.00  0.00    -0.200 OA
BRANCH  24  27
HETATM   27  N3  UNL     1       4.459  -1.818  -0.416  1.00  0.00    -0.250 N 
HETATM   28  C14 UNL     1       5.119  -0.648   0.085  1.00  0.00     0.235 C 
HETATM   29  O6  UNL     1       4.586   0.470  -0.140  1.00  0.00    -0.272 OA
ATOM     30  H3  UNL     1       4.879  -2.732  -0.247  1.00  0.00     0.181 HD
BRANCH  28  31
HETATM   31  C15 UNL     1       6.391  -0.751   0.842  1.00  0.00     0.142 C 
BRANCH  31  32
HETATM   32  C16 UNL     1       7.346   0.312   0.411  1.00  0.00    -0.049 A 
HETATM   33  C17 UNL     1       7.297   1.559   0.968  1.00  0.00     0.007 A 
HETATM   34  C18 UNL     1       8.189   2.559   0.586  1.00  0.00     0.001 A 
HETATM   35  C19 UNL     1       9.142   2.292  -0.370  1.00  0.00     0.000 A 
HETATM   36  C20 UNL     1       9.190   1.014  -0.939  1.00  0.00     0.001 A 
HETATM   37  C21 UNL     1       8.303   0.052  -0.548  1.00  0.00     0.007 A 
ENDBRANCH  31  32
ENDBRANCH  28  31
ENDBRANCH  24  27
ENDBRANCH   4  24
TORSDOF 8
