REMARK  9 active torsions:
REMARK  status: ('A' for Active; 'I' for Inactive)
REMARK       I    between atoms: N1_2  and  C2_3 
REMARK    1  A    between atoms: N1_2  and  C16_29 
REMARK    2  A    between atoms: C2_3  and  C3_5 
REMARK    3  A    between atoms: C3_5  and  N2_6 
REMARK    4  A    between atoms: N2_6  and  C4_7 
REMARK    5  A    between atoms: N2_6  and  S1_14 
REMARK    6  A    between atoms: S1_14  and  C10_17 
REMARK    7  A    between atoms: C13_20  and  S2_21 
REMARK    8  A    between atoms: S2_21  and  N3_22 
REMARK    9  A    between atoms: C20_33  and  C21_34 
ROOT
HETATM    1  N2  UNL     1       0.716   1.246  -0.680  1.00  0.00    -0.263 N 
ENDROOT
BRANCH   1   2
HETATM    2  C3  UNL     1      -0.050   0.064  -0.865  1.00  0.00     0.245 C 
BRANCH   2   3
HETATM    3  C2  UNL     1      -1.313  -0.020  -0.108  1.00  0.00     0.243 C 
HETATM    4  N1  UNL     1      -2.175  -1.140  -0.226  1.00  0.00    -0.321 N 
HETATM    5  C1  UNL     1      -1.794  -2.210  -1.132  1.00  0.00     0.159 C 
HETATM    6  O1  UNL     1      -1.623   0.924   0.654  1.00  0.00    -0.271 OA
BRANCH   4   7
HETATM    7  C16 UNL     1      -3.376  -1.214   0.511  1.00  0.00     0.037 A 
HETATM    8  C17 UNL     1      -3.674  -2.301   1.331  1.00  0.00     0.030 A 
HETATM    9  C18 UNL     1      -4.841  -2.370   2.048  1.00  0.00     0.003 A 
HETATM   10  C19 UNL     1      -5.766  -1.350   1.978  1.00  0.00     0.017 A 
HETATM   11  C20 UNL     1      -5.518  -0.269   1.191  1.00  0.00     0.031 A 
HETATM   12  C22 UNL     1      -4.323  -0.215   0.466  1.00  0.00     0.046 A 
BRANCH  11  13
HETATM   13  C21 UNL     1      -6.492   0.806   1.116  1.00  0.00     0.265 C 
HETATM   14  N4  UNL     1      -7.718   0.680   1.867  1.00  0.00    -0.057 NA
HETATM   15  O6  UNL     1      -6.325   1.824   0.442  1.00  0.00    -0.271 OA
ENDBRANCH  11  13
ENDBRANCH   4   7
ENDBRANCH   2   3
ENDBRANCH   1   2
BRANCH   1  16
HETATM   16  C4  UNL     1       0.560   2.322  -1.625  1.00  0.00     0.048 A 
HETATM   17  C5  UNL     1      -0.337   3.349  -1.467  1.00  0.00     0.030 A 
HETATM   18  C6  UNL     1      -0.435   4.356  -2.421  1.00  0.00     0.005 A 
HETATM   19  C7  UNL     1       0.353   4.364  -3.550  1.00  0.00     0.042 A 
HETATM   20  C8  UNL     1       1.251   3.337  -3.709  1.00  0.00     0.118 A 
HETATM   21  F1  UNL     1       2.021   3.357  -4.825  1.00  0.00    -0.206 F 
HETATM   22  C9  UNL     1       1.359   2.332  -2.771  1.00  0.00     0.072 A 
ENDBRANCH   1  16
BRANCH   1  23
HETATM   23  S1  UNL     1       1.838   1.418   0.610  1.00  0.00     0.265 S 
HETATM   24  O2  UNL     1       1.082   1.214   1.887  1.00  0.00    -0.200 OA
HETATM   25  O3  UNL     1       2.451   2.803   0.621  1.00  0.00    -0.200 OA
BRANCH  23  26
HETATM   26  C10 UNL     1       3.112   0.227   0.521  1.00  0.00     0.080 A 
HETATM   27  C11 UNL     1       4.211   0.376  -0.295  1.00  0.00     0.027 A 
HETATM   28  C12 UNL     1       5.207  -0.595  -0.334  1.00  0.00     0.027 A 
HETATM   29  C13 UNL     1       5.123  -1.731   0.442  1.00  0.00     0.079 A 
HETATM   30  C14 UNL     1       4.019  -1.868   1.254  1.00  0.00     0.027 A 
HETATM   31  C15 UNL     1       3.009  -0.917   1.314  1.00  0.00     0.027 A 
BRANCH  29  32
HETATM   32  S2  UNL     1       6.382  -2.966   0.353  1.00  0.00     0.256 S 
HETATM   33  O4  UNL     1       5.822  -4.174   1.075  1.00  0.00    -0.201 OA
HETATM   34  O5  UNL     1       6.693  -3.288  -1.054  1.00  0.00    -0.201 OA
BRANCH  32  35
HETATM   35  N3  UNL     1       7.833  -2.451   1.143  1.00  0.00    -0.324 N 
ATOM     36  H32 UNL     1       7.933  -1.544   1.599  1.00  0.00     0.169 HD
ATOM     37  H31 UNL     1       8.560  -3.164   1.092  1.00  0.00     0.169 HD
ENDBRANCH  32  35
ENDBRANCH  29  32
ENDBRANCH  23  26
ENDBRANCH   1  23
TORSDOF 9
