REMARK  13 active torsions:
REMARK  status: ('A' for Active; 'I' for Inactive)
REMARK       I    between atoms: N1_2  and  C2_4 
REMARK    1  A    between atoms: C2_4  and  C3_6 
REMARK    2  A    between atoms: C8_12  and  N2_13 
REMARK    3  A    between atoms: N2_13  and  C9_14 
REMARK    4  A    between atoms: C9_14  and  O2_15 
REMARK    5  A    between atoms: C9_14  and  C10_17 
REMARK    6  A    between atoms: C10_17  and  O3_18 
REMARK    7  A    between atoms: O3_18  and  C11_19 
REMARK    8  A    between atoms: C11_19  and  O4_20 
REMARK    9  A    between atoms: C11_19  and  C12_22 
REMARK   10  A    between atoms: C12_22  and  C13_23 
REMARK   11  A    between atoms: C13_23  and  S1_24 
REMARK   12  A    between atoms: S1_24  and  N3_27 
REMARK       I    between atoms: N3_27  and  C15_29 
REMARK   13  A    between atoms: C15_29  and  C16_31 
ROOT
HETATM    1  C10 UNL     1      -3.274   1.446  -0.461  1.00  0.00     0.271 C 
ENDROOT
BRANCH   1   2
HETATM    2  C9  UNL     1      -3.427   0.711   0.883  1.00  0.00     0.214 C 
BRANCH   2   3
HETATM    3  N2  UNL     1      -4.082  -0.448   1.096  1.00  0.00    -0.382 NA
BRANCH   3   4
HETATM    4  C8  UNL     1      -4.735  -1.608   1.321  1.00  0.00     0.125 A 
HETATM    5  C3  UNL     1      -5.890  -1.963   0.660  1.00  0.00     0.073 A 
HETATM    6  C4  UNL     1      -6.357  -3.259   0.676  1.00  0.00     0.039 A 
HETATM    7  C5  UNL     1      -5.667  -4.261   1.381  1.00  0.00     0.012 A 
HETATM    8 BR1  UNL     1      -6.335  -6.047   1.394  1.00  0.00    -0.051 Br
HETATM    9  C6  UNL     1      -4.544  -3.903   2.034  1.00  0.00     0.022 A 
HETATM   10  C7  UNL     1      -4.030  -2.644   2.051  1.00  0.00     0.047 A 
BRANCH   5  11
HETATM   11  C2  UNL     1      -6.754  -0.920   0.092  1.00  0.00     0.254 C 
HETATM   12  N1  UNL     1      -7.928  -1.273  -0.623  1.00  0.00    -0.361 N 
HETATM   13  C1  UNL     1      -8.828  -0.232  -1.166  1.00  0.00     0.149 C 
ATOM     14  H1  UNL     1      -8.154  -2.257  -0.764  1.00  0.00     0.162 HD
HETATM   15  O1  UNL     1      -6.488   0.259   0.216  1.00  0.00    -0.268 OA
ENDBRANCH   5  11
ENDBRANCH   3   4
ENDBRANCH   2   3
BRANCH   2  16
HETATM   16  O2  UNL     1      -2.790   1.354   1.822  1.00  0.00    -0.337 OA
ATOM     17  H2  UNL     1      -2.328   2.171   1.672  1.00  0.00     0.220 HD
ENDBRANCH   2  16
ENDBRANCH   1   2
BRANCH   1  18
HETATM   18  O3  UNL     1      -2.011   2.208  -0.223  1.00  0.00    -0.352 OA
BRANCH  18  19
HETATM   19  C11 UNL     1      -0.919   1.310  -0.019  1.00  0.00     0.258 C 
BRANCH  19  20
HETATM   20  O4  UNL     1      -1.238   0.058  -0.174  1.00  0.00    -0.371 OA
ATOM     21  H4  UNL     1      -0.512  -0.539  -0.038  1.00  0.00     0.212 HD
ENDBRANCH  19  20
BRANCH  19  22
HETATM   22  C12 UNL     1       0.436   1.656   0.340  1.00  0.00     0.077 C 
BRANCH  22  23
HETATM   23  C13 UNL     1       1.569   1.024  -0.404  1.00  0.00     0.168 C 
BRANCH  23  24
HETATM   24  S1  UNL     1       3.074   1.431   0.513  1.00  0.00     0.234 S 
HETATM   25  O5  UNL     1       3.220   2.872   0.766  1.00  0.00    -0.205 OA
HETATM   26  O6  UNL     1       2.882   0.774   1.868  1.00  0.00    -0.205 OA
BRANCH  24  27
HETATM   27  N3  UNL     1       4.468   0.766  -0.268  1.00  0.00    -0.249 N 
HETATM   28  C14 UNL     1       4.310  -0.462  -0.954  1.00  0.00     0.172 C 
HETATM   29  C15 UNL     1       5.649   1.503  -0.174  1.00  0.00     0.240 C 
HETATM   30  O7  UNL     1       5.541   2.651   0.405  1.00  0.00    -0.272 OA
BRANCH  29  31
HETATM   31  C16 UNL     1       7.012   1.153  -0.644  1.00  0.00     0.031 C 
HETATM   32  C17 UNL     1       7.969   2.333  -0.399  1.00  0.00     0.025 C 
HETATM   33  C18 UNL     1       7.022   0.895  -2.108  1.00  0.00     0.025 C 
HETATM   34  C19 UNL     1       7.538   0.031   0.219  1.00  0.00     0.025 C 
ENDBRANCH  29  31
ENDBRANCH  24  27
ENDBRANCH  23  24
ENDBRANCH  22  23
ENDBRANCH  19  22
ENDBRANCH  18  19
ENDBRANCH   1  18
TORSDOF 13
