REMARK  10 active torsions:
REMARK  status: ('A' for Active; 'I' for Inactive)
REMARK    1  A    between atoms: O1_1  and  C1_3 
REMARK    2  A    between atoms: C1_3  and  C2_4 
REMARK    3  A    between atoms: C1_3  and  N2_25 
REMARK    4  A    between atoms: C2_4  and  O2_5 
REMARK    5  A    between atoms: O2_5  and  C3_6 
REMARK    6  A    between atoms: C3_6  and  C4_7 
REMARK    7  A    between atoms: N1_14  and  C11_15 
REMARK    8  A    between atoms: C11_15  and  O3_16 
REMARK    9  A    between atoms: C11_15  and  C12_18 
REMARK   10  A    between atoms: N3_28  and  C19_29 
ROOT
HETATM    1  C4  UNL     1       1.241   1.563  -1.244  1.00  0.00     0.146 C 
HETATM    2  C5  UNL     1       1.603   1.892  -2.669  1.00  0.00     0.034 C 
HETATM    3  C6  UNL     1       3.076   1.683  -2.819  1.00  0.00     0.006 C 
HETATM    4  C7  UNL     1       3.752   1.168  -1.576  1.00  0.00     0.038 C 
HETATM    5  C8  UNL     1       3.261   1.768  -0.308  1.00  0.00     0.067 C 
HETATM    6  C9  UNL     1       4.235   2.782   0.263  1.00  0.00     0.058 C 
HETATM    7  C10 UNL     1       5.587   2.145   0.563  1.00  0.00     0.130 C 
HETATM    8  N1  UNL     1       5.328   0.729   0.960  1.00  0.00    -0.334 N 
HETATM    9  C15 UNL     1       4.138   0.556   1.703  1.00  0.00     0.275 C 
HETATM   10  F1  UNL     1       3.996  -0.586   2.406  1.00  0.00    -0.227 F 
HETATM   11  C16 UNL     1       2.988   0.630   0.680  1.00  0.00     0.097 C 
HETATM   12  O4  UNL     1       2.026   2.429  -0.440  1.00  0.00    -0.372 OA
ENDROOT
BRANCH   1  13
HETATM   13  C3  UNL     1      -0.231   1.760  -0.939  1.00  0.00     0.200 C 
BRANCH  13  14
HETATM   14  O2  UNL     1      -0.976   0.935  -1.728  1.00  0.00    -0.381 OA
BRANCH  14  15
HETATM   15  C2  UNL     1      -0.830  -0.400  -1.603  1.00  0.00     0.251 C 
BRANCH  15  16
HETATM   16  C1  UNL     1      -1.309  -1.002  -0.366  1.00  0.00     0.138 C 
BRANCH  16  17
HETATM   17  O1  UNL     1      -0.758  -2.104   0.055  1.00  0.00    -0.348 OA
ATOM     18  H1  UNL     1      -1.070  -2.497   0.862  1.00  0.00     0.219 HD
ENDBRANCH  16  17
BRANCH  16  19
HETATM   19  N2  UNL     1      -2.335  -0.506   0.435  1.00  0.00    -0.360 N 
HETATM   20  C17 UNL     1      -3.160   0.637   0.134  1.00  0.00     0.155 C 
HETATM   21  C18 UNL     1      -4.575   0.244   0.618  1.00  0.00     0.292 C 
HETATM   22  N3  UNL     1      -4.699  -1.169   0.451  1.00  0.00     0.096 N 
HETATM   23  C24 UNL     1      -3.977  -1.910   1.468  1.00  0.00     0.292 C 
HETATM   24  C25 UNL     1      -2.661  -1.165   1.730  1.00  0.00     0.155 C 
BRANCH  22  25
HETATM   25  C19 UNL     1      -6.020  -1.649   0.197  1.00  0.00     0.223 C 
HETATM   26  C20 UNL     1      -6.972  -1.364   1.326  1.00  0.00     0.036 C 
HETATM   27  C21 UNL     1      -8.263  -1.068   0.640  1.00  0.00     0.002 C 
HETATM   28  C22 UNL     1      -7.870  -0.366  -0.655  1.00  0.00     0.002 C 
HETATM   29  C23 UNL     1      -6.564  -1.027  -1.054  1.00  0.00     0.036 C 
ENDBRANCH  22  25
ENDBRANCH  16  19
ENDBRANCH  15  16
ENDBRANCH  14  15
ENDBRANCH  13  14
ENDBRANCH   1  13
BRANCH   8  30
HETATM   30  C11 UNL     1       6.249  -0.220   0.565  1.00  0.00     0.119 C 
BRANCH  30  31
HETATM   31  O3  UNL     1       7.310   0.144  -0.099  1.00  0.00    -0.349 OA
ATOM     32  H3  UNL     1       7.944  -0.509  -0.371  1.00  0.00     0.219 HD
ENDBRANCH  30  31
BRANCH  30  33
HETATM   33  C12 UNL     1       6.152  -1.660   0.825  1.00  0.00     0.060 A 
HETATM   34  C13 UNL     1       7.444  -2.388   0.989  1.00  0.00     0.013 A 
HETATM   35  C14 UNL     1       6.745  -2.522  -0.289  1.00  0.00     0.013 A 
ENDBRANCH  30  33
ENDBRANCH   8  30
TORSDOF 10
