REMARK  6 active torsions:
REMARK  status: ('A' for Active; 'I' for Inactive)
REMARK       I    between atoms: N1_7  and  C6_8 
REMARK    1  A    between atoms: C6_8  and  C7_10 
REMARK    2  A    between atoms: C7_10  and  C8_11 
REMARK    3  A    between atoms: C8_11  and  S1_12 
REMARK    4  A    between atoms: S1_12  and  N2_15 
REMARK    5  A    between atoms: C12_19  and  C13_20 
REMARK       I    between atoms: C13_20  and  N3_22 
REMARK    6  A    between atoms: N3_22  and  C14_24 
ROOT
HETATM    1  C14 UNL     1       6.060   1.660   0.716  1.00  0.00     0.122 A 
HETATM    2  C15 UNL     1       5.713   2.021   2.095  1.00  0.00     0.091 C 
HETATM    3  N4  UNL     1       5.429   2.297   3.195  1.00  0.00    -0.195 NA
HETATM    4  C16 UNL     1       6.702   2.682  -0.171  1.00  0.00     0.050 A 
HETATM    5  C17 UNL     1       7.532   1.608   0.438  1.00  0.00     0.050 A 
ENDROOT
BRANCH   1   6
HETATM    6  N3  UNL     1       5.224   0.636   0.147  1.00  0.00    -0.338 N 
HETATM    7  C13 UNL     1       3.821   0.708   0.048  1.00  0.00     0.229 C 
HETATM    8  O4  UNL     1       3.206   1.685   0.462  1.00  0.00    -0.273 OA
ATOM      9  H3  UNL     1       5.681  -0.203  -0.211  1.00  0.00     0.164 HD
BRANCH   7  10
HETATM   10  C12 UNL     1       3.057  -0.445  -0.582  1.00  0.00     0.058 C 
HETATM   11  C11 UNL     1       3.459  -1.770  -0.050  1.00  0.00     0.022 C 
HETATM   12  C10 UNL     1       2.288  -2.717   0.073  1.00  0.00     0.017 C 
HETATM   13  C9  UNL     1       1.068  -2.003   0.538  1.00  0.00     0.107 C 
HETATM   14  N2  UNL     1       0.607  -1.020  -0.436  1.00  0.00    -0.205 NA
HETATM   15  C20 UNL     1       1.668  -0.165  -0.919  1.00  0.00     0.091 C 
HETATM   16  C19 UNL     1       1.927  -0.401  -2.406  1.00  0.00     0.023 C 
HETATM   17  C18 UNL     1       3.377  -0.406  -2.087  1.00  0.00     0.022 C 
BRANCH  14  18
HETATM   18  S1  UNL     1      -0.508  -0.040   0.547  1.00  0.00     0.213 S 
HETATM   19  O2  UNL     1       0.214   0.615   1.665  1.00  0.00    -0.211 OA
HETATM   20  O3  UNL     1      -1.060   1.006  -0.355  1.00  0.00    -0.211 OA
BRANCH  18  21
HETATM   21  C8  UNL     1      -1.758  -1.163   1.132  1.00  0.00     0.177 C 
BRANCH  21  22
HETATM   22  C7  UNL     1      -2.799  -0.505   1.967  1.00  0.00     0.055 A 
HETATM   23  C21 UNL     1      -2.648  -0.505   3.452  1.00  0.00     0.021 A 
HETATM   24  C22 UNL     1      -3.561  -1.557   2.859  1.00  0.00     0.021 A 
BRANCH  22  25
HETATM   25  C6  UNL     1      -3.742   0.486   1.431  1.00  0.00     0.230 C 
HETATM   26  N1  UNL     1      -4.592   0.392   0.284  1.00  0.00    -0.344 N 
HETATM   27  C2  UNL     1      -5.451   1.466  -0.187  1.00  0.00     0.086 C 
HETATM   28  C5  UNL     1      -4.845  -0.791  -0.516  1.00  0.00     0.163 C 
HETATM   29  C1  UNL     1      -4.706   2.365  -1.110  1.00  0.00     0.032 C 
HETATM   30  C3  UNL     1      -6.536   0.766  -0.987  1.00  0.00     0.064 C 
HETATM   31  C4  UNL     1      -5.841  -0.427  -1.560  1.00  0.00     0.190 C 
HETATM   32  F1  UNL     1      -5.227  -0.230  -2.760  1.00  0.00    -0.248 F 
HETATM   33  O1  UNL     1      -3.830   1.586   2.099  1.00  0.00    -0.272 OA
ENDBRANCH  22  25
ENDBRANCH  21  22
ENDBRANCH  18  21
ENDBRANCH  14  18
ENDBRANCH   7  10
ENDBRANCH   1   6
TORSDOF 6
