REMARK  7 active torsions:
REMARK  status: ('A' for Active; 'I' for Inactive)
REMARK    1  A    between atoms: C2_2  and  C3_4 
REMARK    2  A    between atoms: C3_4  and  N1_5 
REMARK    3  A    between atoms: C3_4  and  C18_27 
REMARK       I    between atoms: N1_5  and  C4_7 
REMARK    4  A    between atoms: C4_7  and  C5_9 
REMARK    5  A    between atoms: C8_12  and  N2_13 
REMARK    6  A    between atoms: N2_13  and  S1_15 
REMARK    7  A    between atoms: S1_15  and  C10_18 
ROOT
HETATM    1  C5  UNL     1       1.331  -0.058   0.712  1.00  0.00     0.032 A 
HETATM    2  C6  UNL     1       0.860  -0.011   2.006  1.00  0.00     0.019 A 
HETATM    3  C7  UNL     1      -0.434  -0.340   2.276  1.00  0.00     0.031 A 
HETATM    4  C8  UNL     1      -1.320  -0.729   1.272  1.00  0.00     0.044 A 
HETATM    5  C16 UNL     1      -0.856  -0.776  -0.012  1.00  0.00     0.031 A 
HETATM    6  C17 UNL     1       0.467  -0.440  -0.279  1.00  0.00     0.019 A 
ENDROOT
BRANCH   4   7
HETATM    7  N2  UNL     1      -2.668  -1.072   1.543  1.00  0.00    -0.276 N 
HETATM    8  C9  UNL     1      -2.976  -2.453   1.843  1.00  0.00     0.170 C 
BRANCH   7   9
HETATM    9  S1  UNL     1      -3.876   0.141   1.508  1.00  0.00     0.264 S 
HETATM   10  O3  UNL     1      -4.483   0.195   2.886  1.00  0.00    -0.200 OA
HETATM   11  O4  UNL     1      -3.219   1.462   1.229  1.00  0.00    -0.200 OA
BRANCH   9  12
HETATM   12  C10 UNL     1      -5.085  -0.167   0.297  1.00  0.00     0.080 A 
HETATM   13  C11 UNL     1      -6.216  -0.899   0.581  1.00  0.00     0.027 A 
HETATM   14  C12 UNL     1      -7.185  -1.143  -0.397  1.00  0.00     0.020 A 
HETATM   15  C13 UNL     1      -7.019  -0.652  -1.661  1.00  0.00     0.011 A 
HETATM   16 BR1  UNL     1      -8.360  -0.999  -2.984  1.00  0.00    -0.051 Br
HETATM   17  C14 UNL     1      -5.889   0.083  -1.953  1.00  0.00     0.020 A 
HETATM   18  C15 UNL     1      -4.937   0.319  -0.983  1.00  0.00     0.027 A 
ENDBRANCH   9  12
ENDBRANCH   7   9
ENDBRANCH   4   7
BRANCH   1  19
HETATM   19  C4  UNL     1       2.732   0.289   0.418  1.00  0.00     0.252 C 
HETATM   20  N1  UNL     1       3.150   0.602  -0.883  1.00  0.00    -0.339 N 
ATOM     21  H1  UNL     1       2.449   0.584  -1.624  1.00  0.00     0.164 HD
HETATM   22  O2  UNL     1       3.527   0.291   1.382  1.00  0.00    -0.268 OA
BRANCH  20  23
HETATM   23  C3  UNL     1       4.515   0.951  -1.251  1.00  0.00     0.223 C 
BRANCH  23  24
HETATM   24  C2  UNL     1       4.951   2.200  -0.617  1.00  0.00     0.152 C 
HETATM   25  C1  UNL     1       6.254   2.870  -0.771  1.00  0.00     0.093 C 
HETATM   26  O1  UNL     1       4.149   2.784   0.143  1.00  0.00    -0.296 OA
ENDBRANCH  23  24
BRANCH  23  27
HETATM   27  C18 UNL     1       5.444  -0.165  -0.981  1.00  0.00     0.152 C 
HETATM   28  C19 UNL     1       6.884  -0.086  -1.285  1.00  0.00     0.093 C 
HETATM   29  O5  UNL     1       5.043  -1.222  -0.484  1.00  0.00    -0.296 OA
ENDBRANCH  23  27
ENDBRANCH  20  23
ENDBRANCH   1  19
TORSDOF 7
