REMARK  7 active torsions:
REMARK  status: ('A' for Active; 'I' for Inactive)
REMARK       I    between atoms: C2_2  and  N1_4 
REMARK    1  A    between atoms: C3_6  and  O2_7 
REMARK    2  A    between atoms: C3_6  and  C14_25 
REMARK    3  A    between atoms: O2_7  and  C4_8 
REMARK    4  A    between atoms: C4_8  and  C6_10 
REMARK       I    between atoms: C6_10  and  N2_12 
REMARK    5  A    between atoms: N2_12  and  N3_14 
REMARK    6  A    between atoms: N3_14  and  S1_16 
REMARK    7  A    between atoms: S1_16  and  C8_19 
ROOT
HETATM    1  C6  UNL     1      -0.333  -0.415  -0.483  1.00  0.00     0.262 C 
HETATM    2  O3  UNL     1      -0.230   0.738  -0.941  1.00  0.00    -0.269 OA
HETATM    3  N2  UNL     1       0.716  -1.337  -0.682  1.00  0.00    -0.274 N 
ATOM      4  H2  UNL     1       0.585  -2.270  -0.292  1.00  0.00     0.185 HD
ENDROOT
BRANCH   1   5
HETATM    5  C4  UNL     1      -1.562  -0.778   0.261  1.00  0.00     0.219 C 
HETATM    6  C5  UNL     1      -1.244  -1.211   1.675  1.00  0.00     0.050 C 
BRANCH   5   7
HETATM    7  O2  UNL     1      -2.389   0.392   0.363  1.00  0.00    -0.320 OA
BRANCH   7   8
HETATM    8  C3  UNL     1      -3.612   0.257   1.067  1.00  0.00     0.163 C 
HETATM    9  N1  UNL     1      -4.101  -0.908   1.134  1.00  0.00    -0.307 N 
HETATM   10  C2  UNL     1      -5.254  -1.379   1.735  1.00  0.00     0.219 C 
ATOM     11  H1  UNL     1      -3.549  -1.624   0.663  1.00  0.00     0.171 HD
HETATM   12  C1  UNL     1      -6.510  -1.520   0.958  1.00  0.00     0.117 C 
HETATM   13  O1  UNL     1      -5.299  -1.713   2.962  1.00  0.00    -0.274 OA
BRANCH   8  14
HETATM   14  C14 UNL     1      -4.199   1.459   1.648  1.00  0.00     0.064 C 
HETATM   15 BR1  UNL     1      -5.846   1.417   2.634  1.00  0.00    -0.046 Br
HETATM   16  C15 UNL     1      -3.559   2.619   1.477  1.00  0.00    -0.058 A 
HETATM   17  C16 UNL     1      -3.454   4.078   1.687  1.00  0.00     0.040 A 
HETATM   18  C17 UNL     1      -2.379   3.390   0.888  1.00  0.00     0.040 A 
ENDBRANCH   8  14
ENDBRANCH   7   8
ENDBRANCH   5   7
ENDBRANCH   1   5
BRANCH   3  19
HETATM   19  N3  UNL     1       1.904  -1.106  -1.352  1.00  0.00    -0.118 NA
HETATM   20  C7  UNL     1       2.586  -2.406  -1.515  1.00  0.00     0.156 C 
BRANCH  19  21
HETATM   21  S1  UNL     1       2.984  -0.102  -0.461  1.00  0.00     0.260 S 
HETATM   22  O4  UNL     1       2.462   1.244  -0.155  1.00  0.00    -0.204 OA
HETATM   23  O5  UNL     1       3.376  -0.759   0.856  1.00  0.00    -0.204 OA
BRANCH  21  24
HETATM   24  C8  UNL     1       4.467   0.105  -1.377  1.00  0.00     0.076 A 
HETATM   25  C9  UNL     1       5.570  -0.689  -1.123  1.00  0.00     0.025 A 
HETATM   26  C10 UNL     1       6.760  -0.552  -1.840  1.00  0.00     0.002 A 
HETATM   27  C11 UNL     1       6.853   0.402  -2.839  1.00  0.00     0.000 A 
HETATM   28  C12 UNL     1       5.736   1.185  -3.075  1.00  0.00     0.002 A 
HETATM   29  C13 UNL     1       4.568   1.053  -2.373  1.00  0.00     0.025 A 
ENDBRANCH  21  24
ENDBRANCH  19  21
ENDBRANCH   3  19
TORSDOF 7
