REMARK  7 active torsions:
REMARK  status: ('A' for Active; 'I' for Inactive)
REMARK    1  A    between atoms: C4_4  and  C5_5 
REMARK       I    between atoms: C5_5  and  N1_7 
REMARK    2  A    between atoms: C9_11  and  C10_12 
REMARK       I    between atoms: C10_12  and  N2_14 
REMARK    3  A    between atoms: C13_17  and  C14_19 
REMARK    4  A    between atoms: C14_19  and  O4_21 
REMARK    5  A    between atoms: O4_21  and  C15_22 
REMARK    6  A    between atoms: C15_22  and  C16_23 
REMARK    7  A    between atoms: C16_23  and  N3_24 
ROOT
HETATM    1  C10 UNL     1      -1.225  -1.194  -0.194  1.00  0.00     0.225 C 
HETATM    2  O2  UNL     1      -1.181  -2.118  -1.089  1.00  0.00    -0.273 OA
HETATM    3  N2  UNL     1      -0.387  -1.287   0.942  1.00  0.00    -0.352 N 
HETATM    4  C11 UNL     1      -0.428  -0.254   1.944  1.00  0.00     0.129 C 
HETATM    5  C12 UNL     1       0.897  -0.104   2.651  1.00  0.00     0.074 C 
HETATM    6  C13 UNL     1       2.053  -0.586   1.821  1.00  0.00     0.193 C 
HETATM    7  F1  UNL     1       3.192  -0.559   2.601  1.00  0.00    -0.232 F 
HETATM    8  C22 UNL     1       1.891  -1.930   1.228  1.00  0.00     0.074 C 
HETATM    9  C23 UNL     1       0.499  -2.436   1.066  1.00  0.00     0.129 C 
ENDROOT
BRANCH   1  10
HETATM   10  C9  UNL     1      -2.135  -0.042  -0.331  1.00  0.00     0.096 C 
HETATM   11  C8  UNL     1      -2.836  -0.218  -1.693  1.00  0.00     0.017 C 
HETATM   12  C7  UNL     1      -3.311   1.181  -2.059  1.00  0.00     0.021 C 
HETATM   13  C6  UNL     1      -4.247   1.611  -0.942  1.00  0.00     0.126 C 
HETATM   14  N1  UNL     1      -4.423   0.577   0.036  1.00  0.00    -0.348 N 
HETATM   15  C5  UNL     1      -5.687   0.060   0.418  1.00  0.00     0.243 C 
HETATM   16  C24 UNL     1      -3.223   0.015   0.693  1.00  0.00     0.140 C 
HETATM   17  O1  UNL     1      -5.761  -0.863   1.295  1.00  0.00    -0.268 OA
BRANCH  15  18
HETATM   18  C4  UNL     1      -6.941   0.526  -0.140  1.00  0.00     0.076 C 
HETATM   19  C2  UNL     1      -8.135   0.072   0.186  1.00  0.00    -0.082 C 
HETATM   20  C1  UNL     1      -9.359   0.663  -0.488  1.00  0.00     0.043 C 
HETATM   21  C3  UNL     1      -8.309  -1.001   1.196  1.00  0.00     0.043 C 
ENDBRANCH  15  18
ENDBRANCH   1  10
BRANCH   6  22
HETATM   22  C14 UNL     1       2.304   0.401   0.712  1.00  0.00     0.299 C 
HETATM   23  O3  UNL     1       1.582   1.415   0.615  1.00  0.00    -0.261 OA
BRANCH  22  24
HETATM   24  O4  UNL     1       3.306   0.228  -0.207  1.00  0.00    -0.317 OA
BRANCH  24  25
HETATM   25  C15 UNL     1       3.589   1.120  -1.272  1.00  0.00     0.198 C 
BRANCH  25  26
HETATM   26  C16 UNL     1       4.775   0.523  -2.019  1.00  0.00     0.152 C 
BRANCH  26  27
HETATM   27  N3  UNL     1       5.923   0.396  -1.148  1.00  0.00    -0.350 N 
HETATM   28  C17 UNL     1       6.922   1.420  -0.975  1.00  0.00     0.126 C 
HETATM   29  C18 UNL     1       8.322   0.876  -0.984  1.00  0.00     0.020 C 
HETATM   30  C19 UNL     1       8.483  -0.427  -0.274  1.00  0.00     0.011 C 
HETATM   31  C20 UNL     1       7.257  -0.770   0.577  1.00  0.00     0.103 C 
HETATM   32  C21 UNL     1       6.112  -0.810  -0.394  1.00  0.00     0.219 C 
HETATM   33  O5  UNL     1       5.398  -1.814  -0.521  1.00  0.00    -0.273 OA
ENDBRANCH  26  27
ENDBRANCH  25  26
ENDBRANCH  24  25
ENDBRANCH  22  24
ENDBRANCH   6  22
TORSDOF 7
