REMARK  9 active torsions:
REMARK  status: ('A' for Active; 'I' for Inactive)
REMARK    1  A    between atoms: C1_2  and  O2_3 
REMARK    2  A    between atoms: C1_2  and  C20_30 
REMARK    3  A    between atoms: O2_3  and  C2_4 
REMARK    4  A    between atoms: C2_4  and  C3_5 
REMARK    5  A    between atoms: C2_4  and  C14_24 
REMARK    6  A    between atoms: C3_5  and  O3_6 
REMARK    7  A    between atoms: C3_5  and  N1_8 
REMARK    8  A    between atoms: N2_11  and  S1_12 
REMARK    9  A    between atoms: S1_12  and  C6_15 
ROOT
HETATM    1  C3  UNL     1      -1.353  -1.638   1.301  1.00  0.00     0.148 C 
ENDROOT
BRANCH   1   2
HETATM    2  C2  UNL     1      -2.624  -1.009   0.904  1.00  0.00     0.239 C 
BRANCH   2   3
HETATM    3  O2  UNL     1      -2.394   0.231   0.295  1.00  0.00    -0.301 OA
BRANCH   3   4
HETATM    4  C1  UNL     1      -3.053   1.353   0.769  1.00  0.00     0.291 C 
HETATM    5  O1  UNL     1      -3.839   1.235   1.730  1.00  0.00    -0.263 OA
BRANCH   4   6
HETATM    6  C20 UNL     1      -2.830   2.651   0.151  1.00  0.00     0.286 C 
HETATM    7  C21 UNL     1      -3.592   2.889  -1.152  1.00  0.00     0.071 C 
HETATM    8  C22 UNL     1      -3.578   4.337  -0.644  1.00  0.00     0.236 C 
HETATM    9  N3  UNL     1      -3.555   3.758   0.709  1.00  0.00    -0.062 N 
ATOM     10  H32 UNL     1      -4.416   3.613   1.236  1.00  0.00     0.278 HD
ATOM     11  H31 UNL     1      -3.187   4.284   1.502  1.00  0.00     0.278 HD
ENDBRANCH   4   6
ENDBRANCH   3   4
ENDBRANCH   2   3
BRANCH   2  12
HETATM   12  C14 UNL     1      -3.242  -1.970  -0.088  1.00  0.00    -0.021 A 
HETATM   13  C15 UNL     1      -2.716  -2.047  -1.355  1.00  0.00     0.010 A 
HETATM   14  C16 UNL     1      -3.236  -2.903  -2.306  1.00  0.00     0.001 A 
HETATM   15  C17 UNL     1      -4.305  -3.692  -1.959  1.00  0.00     0.000 A 
HETATM   16  C18 UNL     1      -4.844  -3.617  -0.670  1.00  0.00     0.001 A 
HETATM   17  C19 UNL     1      -4.308  -2.746   0.282  1.00  0.00     0.010 A 
ENDBRANCH   2  12
ENDBRANCH   1   2
BRANCH   1  18
HETATM   18  O3  UNL     1      -1.405  -2.764   1.950  1.00  0.00    -0.347 OA
ATOM     19  H3  UNL     1      -0.585  -3.170   2.206  1.00  0.00     0.219 HD
ENDBRANCH   1  18
BRANCH   1  20
HETATM   20  N1  UNL     1      -0.075  -1.159   1.056  1.00  0.00    -0.361 N 
HETATM   21  C4  UNL     1       0.289   0.037   0.361  1.00  0.00     0.140 C 
HETATM   22  C5  UNL     1       1.775   0.103   0.065  1.00  0.00     0.127 C 
HETATM   23  N2  UNL     1       2.592  -0.113   1.217  1.00  0.00    -0.203 NA
HETATM   24  C12 UNL     1       1.976  -0.929   2.231  1.00  0.00     0.127 C 
HETATM   25  C13 UNL     1       1.084  -1.946   1.553  1.00  0.00     0.140 C 
BRANCH  23  26
HETATM   26  S1  UNL     1       4.112  -0.813   0.807  1.00  0.00     0.243 S 
HETATM   27  O4  UNL     1       3.924  -2.115   0.052  1.00  0.00    -0.206 OA
HETATM   28  O5  UNL     1       4.921  -1.135   2.018  1.00  0.00    -0.206 OA
BRANCH  26  29
HETATM   29  C6  UNL     1       4.993   0.287  -0.254  1.00  0.00     0.074 A 
HETATM   30  C7  UNL     1       4.883   0.243  -1.621  1.00  0.00     0.028 A 
HETATM   31  C8  UNL     1       5.576   1.109  -2.455  1.00  0.00     0.044 A 
HETATM   32  C9  UNL     1       6.406   2.047  -1.902  1.00  0.00     0.116 A 
HETATM   33  F1  UNL     1       7.099   2.911  -2.713  1.00  0.00    -0.206 F 
HETATM   34  C10 UNL     1       6.531   2.108  -0.532  1.00  0.00     0.044 A 
HETATM   35  C11 UNL     1       5.838   1.244   0.287  1.00  0.00     0.028 A 
ENDBRANCH  26  29
ENDBRANCH  23  26
ENDBRANCH   1  20
TORSDOF 9
