REMARK  6 active torsions:
REMARK  status: ('A' for Active; 'I' for Inactive)
REMARK       I    between atoms: C1_2  and  N1_3 
REMARK    1  A    between atoms: C1_2  and  C20_30 
REMARK    2  A    between atoms: N1_3  and  C2_5 
REMARK    3  A    between atoms: C2_5  and  C3_6 
REMARK    4  A    between atoms: C2_5  and  C9_15 
REMARK    5  A    between atoms: C3_6  and  C4_7 
REMARK       I    between atoms: C4_7  and  N2_9 
REMARK       I    between atoms: C9_15  and  N3_17 
REMARK    6  A    between atoms: N4_20  and  C12_21 
ROOT
HETATM    1  C2  UNL     1      -0.964   0.800  -1.275  1.00  0.00     0.185 C 
ENDROOT
BRANCH   1   2
HETATM    2  N1  UNL     1      -1.688   2.046  -0.994  1.00  0.00    -0.343 N 
HETATM    3  C1  UNL     1      -2.699   2.466  -1.860  1.00  0.00     0.252 C 
HETATM    4  O1  UNL     1      -2.972   1.764  -2.874  1.00  0.00    -0.268 OA
ATOM      5  H1  UNL     1      -1.454   2.601  -0.171  1.00  0.00     0.163 HD
BRANCH   3   6
HETATM    6  C20 UNL     1      -3.452   3.688  -1.637  1.00  0.00     0.032 A 
HETATM    7  C21 UNL     1      -3.295   4.466  -0.519  1.00  0.00     0.017 A 
HETATM    8  C22 UNL     1      -4.042   5.636  -0.350  1.00  0.00     0.001 A 
HETATM    9  C23 UNL     1      -4.958   6.051  -1.292  1.00  0.00     0.000 A 
HETATM   10  C24 UNL     1      -5.117   5.271  -2.416  1.00  0.00     0.001 A 
HETATM   11  C25 UNL     1      -4.376   4.121  -2.571  1.00  0.00     0.017 A 
ENDBRANCH   3   6
ENDBRANCH   1   2
BRANCH   1  12
HETATM   12  C3  UNL     1      -1.289  -0.212  -0.193  1.00  0.00     0.138 C 
BRANCH  12  13
HETATM   13  C4  UNL     1      -0.904   0.182   1.161  1.00  0.00     0.222 C 
HETATM   14  O2  UNL     1      -0.294   1.243   1.437  1.00  0.00    -0.273 OA
HETATM   15  N2  UNL     1      -1.262  -0.724   2.214  1.00  0.00    -0.348 N 
HETATM   16  C5  UNL     1      -1.964  -1.962   1.958  1.00  0.00     0.152 C 
HETATM   17  C8  UNL     1      -0.917  -0.399   3.552  1.00  0.00     0.152 C 
HETATM   18  C6  UNL     1      -2.920  -2.141   3.125  1.00  0.00     0.187 C 
HETATM   19  O3  UNL     1      -2.151  -2.368   4.244  1.00  0.00    -0.388 OA
HETATM   20  C7  UNL     1      -1.303  -1.362   4.591  1.00  0.00     0.187 C 
ENDBRANCH  12  13
ENDBRANCH   1  12
BRANCH   1  21
HETATM   21  C9  UNL     1       0.476   1.083  -1.377  1.00  0.00     0.243 C 
HETATM   22  O4  UNL     1       0.891   2.231  -0.987  1.00  0.00    -0.271 OA
HETATM   23  N3  UNL     1       1.417   0.169  -1.881  1.00  0.00    -0.347 N 
HETATM   24  C10 UNL     1       1.132  -1.141  -2.417  1.00  0.00     0.145 C 
HETATM   25  C19 UNL     1       2.839   0.584  -1.862  1.00  0.00     0.145 C 
HETATM   26  C11 UNL     1       1.840  -2.165  -1.543  1.00  0.00     0.143 C 
HETATM   27  N4  UNL     1       3.225  -1.749  -1.364  1.00  0.00    -0.378 N 
HETATM   28  C18 UNL     1       3.671  -0.643  -2.161  1.00  0.00     0.143 C 
BRANCH  27  29
HETATM   29  C12 UNL     1       4.034  -2.449  -0.435  1.00  0.00     0.030 A 
HETATM   30  C13 UNL     1       3.495  -3.527   0.288  1.00  0.00     0.032 A 
HETATM   31  C14 UNL     1       4.223  -4.247   1.202  1.00  0.00     0.044 A 
HETATM   32  C15 UNL     1       5.541  -3.943   1.459  1.00  0.00     0.116 A 
HETATM   33  F1  UNL     1       6.267  -4.660   2.370  1.00  0.00    -0.206 F 
HETATM   34  C16 UNL     1       6.091  -2.893   0.765  1.00  0.00     0.044 A 
HETATM   35  C17 UNL     1       5.352  -2.162  -0.163  1.00  0.00     0.032 A 
ENDBRANCH  27  29
ENDBRANCH   1  21
TORSDOF 6
