REMARK  7 active torsions:
REMARK  status: ('A' for Active; 'I' for Inactive)
REMARK    1  A    between atoms: C2_2  and  O1_3 
REMARK    2  A    between atoms: C2_2  and  C3_5 
REMARK    3  A    between atoms: C3_5  and  C4_6 
REMARK    4  A    between atoms: C4_6  and  C5_7 
REMARK    5  A    between atoms: C5_7  and  C6_8 
REMARK    6  A    between atoms: C6_8  and  C7_10 
REMARK    7  A    between atoms: C8_11  and  C9_12 
REMARK       I    between atoms: C9_12  and  N1_14 
REMARK       I    between atoms: N3_21  and  C15_22 
ROOT
HETATM    1  C9  UNL     1       1.864  -1.304   0.766  1.00  0.00     0.243 C 
HETATM    2  O2  UNL     1       2.204  -2.532   0.859  1.00  0.00    -0.268 OA
HETATM    3  N1  UNL     1       0.564  -0.938   1.074  1.00  0.00    -0.347 N 
HETATM    4  C10 UNL     1      -0.315  -2.040   1.452  1.00  0.00     0.128 C 
HETATM    5  C11 UNL     1      -1.434  -2.186   0.450  1.00  0.00     0.048 C 
HETATM    6  C12 UNL     1      -1.914  -0.913  -0.134  1.00  0.00     0.240 C 
HETATM    7  N2  UNL     1      -2.300   0.162   0.673  1.00  0.00    -0.054 N 
HETATM    8  C13 UNL     1      -2.485   1.296  -0.253  1.00  0.00     0.258 C 
HETATM    9  C14 UNL     1      -3.569   1.084  -1.254  1.00  0.00     0.153 C 
HETATM   10  N3  UNL     1      -4.679   0.284  -0.825  1.00  0.00    -0.352 N 
HETATM   11  C15 UNL     1      -5.792   0.115  -1.656  1.00  0.00     0.184 C 
HETATM   12  N4  UNL     1      -5.935   0.840  -2.701  1.00  0.00    -0.374 N 
ATOM     13  H41 UNL     1      -6.746   0.717  -3.307  1.00  0.00     0.158 HD
ATOM     14  H42 UNL     1      -5.218   1.537  -2.902  1.00  0.00     0.158 HD
HETATM   15  N5  UNL     1      -6.785  -0.851  -1.377  1.00  0.00    -0.064 NA
HETATM   16  C16 UNL     1      -4.664  -0.368   0.453  1.00  0.00     0.164 C 
HETATM   17  C17 UNL     1      -3.549   0.106   1.359  1.00  0.00     0.139 C 
HETATM   18  C18 UNL     1      -3.578  -0.681   2.623  1.00  0.00     0.048 C 
HETATM   19  C19 UNL     1      -4.021   1.518   1.778  1.00  0.00     0.048 C 
HETATM   20  C20 UNL     1      -1.241   0.619   1.561  1.00  0.00     0.258 C 
HETATM   21  C21 UNL     1       0.141   0.436   1.005  1.00  0.00     0.154 C 
ENDROOT
BRANCH   1  22
HETATM   22  C8  UNL     1       2.895  -0.379   0.326  1.00  0.00     0.076 C 
HETATM   23  C7  UNL     1       4.100  -0.799   0.004  1.00  0.00     0.033 C 
BRANCH  23  24
HETATM   24  C6  UNL     1       5.157   0.115  -0.439  1.00  0.00     0.056 C 
HETATM   25 BR1  UNL     1       4.672   1.990  -0.441  1.00  0.00    -0.042 Br
BRANCH  24  26
HETATM   26  C5  UNL     1       6.356  -0.338  -0.787  1.00  0.00    -0.109 C 
BRANCH  26  27
HETATM   27  C4  UNL     1       7.555  -0.810  -1.133  1.00  0.00     0.059 C 
BRANCH  27  28
HETATM   28  C3  UNL     1       8.671  -0.241  -1.532  1.00  0.00     0.040 C 
BRANCH  28  29
HETATM   29  C2  UNL     1       8.987   1.114  -1.731  1.00  0.00     0.040 C 
HETATM   30  C1  UNL     1       8.201   2.335  -1.552  1.00  0.00     0.076 C 
BRANCH  29  31
HETATM   31  O1  UNL     1      10.220   1.356  -2.160  1.00  0.00    -0.365 OA
ATOM     32  H1  UNL     1      10.730   0.563  -2.276  1.00  0.00     0.217 HD
ENDBRANCH  29  31
ENDBRANCH  28  29
ENDBRANCH  27  28
ENDBRANCH  26  27
ENDBRANCH  24  26
ENDBRANCH  23  24
ENDBRANCH   1  22
TORSDOF 7
