REMARK  9 active torsions:
REMARK  status: ('A' for Active; 'I' for Inactive)
REMARK    1  A    between atoms: N1_1  and  C1_5 
REMARK    2  A    between atoms: C1_5  and  C2_6 
REMARK       I    between atoms: C2_6  and  N2_8 
REMARK    3  A    between atoms: N2_8  and  C3_10 
REMARK    4  A    between atoms: C3_10  and  C4_11 
REMARK    5  A    between atoms: C4_11  and  O2_12 
REMARK    6  A    between atoms: C4_11  and  N3_14 
REMARK    7  A    between atoms: N4_23  and  C11_24 
REMARK    8  A    between atoms: C11_24  and  O3_25 
REMARK    9  A    between atoms: C11_24  and  C12_27 
ROOT
HETATM    1  C3  UNL     1      -2.034  -0.720  -0.304  1.00  0.00     0.100 C 
HETATM    2  C9  UNL     1      -1.273  -1.783  -1.104  1.00  0.00     0.059 C 
HETATM    3  C10 UNL     1      -0.060  -2.293  -0.411  1.00  0.00     0.127 C 
HETATM    4  N4  UNL     1       0.721  -1.167   0.087  1.00  0.00    -0.365 N 
HETATM    5  C22 UNL     1       0.034  -0.182   0.864  1.00  0.00     0.127 C 
HETATM    6  C23 UNL     1      -1.416  -0.722   1.056  1.00  0.00     0.059 C 
ENDROOT
BRANCH   1   7
HETATM    7  N2  UNL     1      -1.864   0.569  -0.969  1.00  0.00    -0.342 N 
HETATM    8  C2  UNL     1      -2.473   1.742  -0.509  1.00  0.00     0.255 C 
HETATM    9  O1  UNL     1      -3.214   1.830   0.504  1.00  0.00    -0.271 OA
ATOM     10  H2  UNL     1      -1.278   0.616  -1.802  1.00  0.00     0.163 HD
BRANCH   8  11
HETATM   11  C1  UNL     1      -2.271   3.048  -1.237  1.00  0.00     0.203 A 
HETATM   12  C24 UNL     1      -2.355   4.310  -0.496  1.00  0.00     0.052 A 
HETATM   13  C25 UNL     1      -3.486   3.932  -1.399  1.00  0.00     0.052 A 
BRANCH  11  14
HETATM   14  N1  UNL     1      -1.427   2.998  -2.410  1.00  0.00    -0.061 N 
ATOM     15  H13 UNL     1      -0.522   2.594  -2.168  1.00  0.00     0.275 HD
ATOM     16  H12 UNL     1      -1.777   2.292  -3.058  1.00  0.00     0.275 HD
ATOM     17  H11 UNL     1      -1.290   3.881  -2.902  1.00  0.00     0.275 HD
ENDBRANCH  11  14
ENDBRANCH   8  11
ENDBRANCH   1   7
BRANCH   1  18
HETATM   18  C4  UNL     1      -3.462  -1.075  -0.368  1.00  0.00     0.143 C 
BRANCH  18  19
HETATM   19  O2  UNL     1      -4.277  -0.298  -1.020  1.00  0.00    -0.348 OA
ATOM     20  H2  UNL     1      -5.198  -0.527  -1.061  1.00  0.00     0.219 HD
ENDBRANCH  18  19
BRANCH  18  21
HETATM   21  N3  UNL     1      -4.102  -2.198   0.209  1.00  0.00    -0.357 N 
HETATM   22  C5  UNL     1      -5.512  -2.478   0.062  1.00  0.00     0.131 C 
HETATM   23  C6  UNL     1      -5.855  -3.406   1.185  1.00  0.00     0.100 C 
HETATM   24  C7  UNL     1      -4.600  -4.301   1.172  1.00  0.00     0.261 C 
HETATM   25  F1  UNL     1      -4.703  -5.094   0.052  1.00  0.00    -0.204 F 
HETATM   26  F2  UNL     1      -4.478  -5.024   2.314  1.00  0.00    -0.204 F 
HETATM   27  C8  UNL     1      -3.516  -3.226   1.017  1.00  0.00     0.203 C 
ENDBRANCH  18  21
ENDBRANCH   1  18
BRANCH   4  28
HETATM   28  C11 UNL     1       2.073  -1.093  -0.213  1.00  0.00     0.122 C 
BRANCH  28  29
HETATM   29  O3  UNL     1       2.502  -2.067  -0.972  1.00  0.00    -0.349 OA
ATOM     30  H3  UNL     1       3.428  -2.016  -1.178  1.00  0.00     0.219 HD
ENDBRANCH  28  29
BRANCH  28  31
HETATM   31  C12 UNL     1       3.108  -0.133   0.162  1.00  0.00     0.026 C 
HETATM   32  C13 UNL     1       3.493  -0.157   1.626  1.00  0.00     0.022 C 
HETATM   33  C14 UNL     1       4.626   0.833   1.823  1.00  0.00    -0.013 C 
HETATM   34  C15 UNL     1       4.254   2.233   1.440  1.00  0.00     0.009 C 
HETATM   35  C19 UNL     1       5.867   0.459   1.045  1.00  0.00     0.009 C 
HETATM   36  C16 UNL     1       3.880   2.222  -0.026  1.00  0.00    -0.013 C 
HETATM   37  C17 UNL     1       5.007   1.785  -0.892  1.00  0.00     0.009 C 
HETATM   38  C21 UNL     1       2.718   1.262  -0.203  1.00  0.00     0.022 C 
HETATM   39  C18 UNL     1       5.490   0.428  -0.423  1.00  0.00    -0.013 C 
HETATM   40  C20 UNL     1       4.388  -0.551  -0.586  1.00  0.00     0.022 C 
ENDBRANCH  28  31
ENDBRANCH   4  28
TORSDOF 9
