REMARK  10 active torsions:
REMARK  status: ('A' for Active; 'I' for Inactive)
REMARK    1  A    between atoms: C2_2  and  C4_4 
REMARK    2  A    between atoms: C4_4  and  N1_5 
REMARK    3  A    between atoms: C4_4  and  C22_28 
REMARK    4  A    between atoms: N1_5  and  C5_7 
REMARK    5  A    between atoms: C5_7  and  O1_8 
REMARK    6  A    between atoms: C5_7  and  C6_10 
REMARK    7  A    between atoms: C11_15  and  N2_16 
REMARK    8  A    between atoms: C22_28  and  O2_29 
REMARK    9  A    between atoms: C22_28  and  N3_31 
REMARK   10  A    between atoms: N3_31  and  O3_33 
ROOT
HETATM    1  C6  UNL     1      -0.778   0.891  -0.652  1.00  0.00     0.060 C 
HETATM    2  C7  UNL     1      -1.065   1.419  -2.103  1.00  0.00     0.025 C 
HETATM    3  C8  UNL     1      -2.244   2.306  -2.171  1.00  0.00    -0.013 C 
HETATM    4  C9  UNL     1      -3.438   1.538  -1.715  1.00  0.00     0.007 C 
HETATM    5  C10 UNL     1      -3.017   0.247  -1.160  1.00  0.00     0.042 C 
HETATM    6  C11 UNL     1      -1.904   0.235  -0.075  1.00  0.00     0.157 C 
HETATM    7  C17 UNL     1      -2.453   1.070   1.098  1.00  0.00     0.096 C 
HETATM    8 BR1  UNL     1      -1.488   0.728   2.761  1.00  0.00    -0.088 Br
HETATM    9  C18 UNL     1      -2.576   2.522   0.953  1.00  0.00     0.023 C 
HETATM   10  C19 UNL     1      -1.615   3.192   0.046  1.00  0.00    -0.012 C 
HETATM   11  C20 UNL     1      -2.114   3.517  -1.317  1.00  0.00     0.009 C 
HETATM   12  C21 UNL     1      -0.450   2.283  -0.004  1.00  0.00     0.025 C 
ENDROOT
BRANCH   1  13
HETATM   13  C5  UNL     1       0.620   0.473  -0.786  1.00  0.00     0.123 C 
BRANCH  13  14
HETATM   14  N1  UNL     1       1.577   0.125   0.172  1.00  0.00    -0.361 N 
ATOM     15  H1  UNL     1       1.245   0.130   1.136  1.00  0.00     0.162 HD
BRANCH  14  16
HETATM   16  C4  UNL     1       2.975  -0.243   0.003  1.00  0.00     0.163 C 
BRANCH  16  17
HETATM   17  C2  UNL     1       3.294  -1.680   0.027  1.00  0.00     0.008 C 
HETATM   18  C1  UNL     1       4.789  -1.991  -0.186  1.00  0.00     0.012 C 
HETATM   19  C3  UNL     1       2.664  -2.295  -1.255  1.00  0.00     0.012 C 
ENDBRANCH  16  17
BRANCH  16  20
HETATM   20  C22 UNL     1       3.710   0.687   0.864  1.00  0.00     0.161 C 
BRANCH  20  21
HETATM   21  O2  UNL     1       3.299   1.924   0.682  1.00  0.00    -0.346 OA
ATOM     22  H2  UNL     1       3.776   2.527   1.240  1.00  0.00     0.219 HD
ENDBRANCH  20  21
BRANCH  20  23
HETATM   23  N3  UNL     1       4.710   0.576   1.809  1.00  0.00    -0.245 N 
HETATM   24  C23 UNL     1       5.229   1.841   2.419  1.00  0.00     0.187 C 
BRANCH  23  25
HETATM   25  O3  UNL     1       5.299  -0.502   2.339  1.00  0.00    -0.286 OA
ATOM     26  H3  UNL     1       5.987  -0.578   2.989  1.00  0.00     0.244 HD
ENDBRANCH  23  25
ENDBRANCH  20  23
ENDBRANCH  16  20
ENDBRANCH  14  16
ENDBRANCH  13  14
BRANCH  13  27
HETATM   27  O1  UNL     1       1.151   0.393  -1.978  1.00  0.00    -0.349 OA
ATOM     28  H1  UNL     1       0.501   0.629  -2.629  1.00  0.00     0.219 HD
ENDBRANCH  13  27
ENDBRANCH   1  13
BRANCH   6  29
HETATM   29  N2  UNL     1      -2.018  -1.139   0.304  1.00  0.00    -0.060 N 
HETATM   30  C12 UNL     1      -3.218  -1.460   1.050  1.00  0.00     0.273 C 
HETATM   31  C13 UNL     1      -2.147  -2.059  -0.862  1.00  0.00     0.238 C 
HETATM   32  C14 UNL     1      -2.043  -3.468  -0.247  1.00  0.00     0.029 C 
HETATM   33  C15 UNL     1      -1.586  -3.254   1.140  1.00  0.00     0.029 C 
HETATM   34  C16 UNL     1      -0.967  -1.854   0.896  1.00  0.00     0.238 C 
ENDBRANCH   6  29
TORSDOF 10
