REMARK  7 active torsions:
REMARK  status: ('A' for Active; 'I' for Inactive)
REMARK    1  A    between atoms: C2_2  and  N1_3 
REMARK    2  A    between atoms: N1_3  and  C3_4 
REMARK    3  A    between atoms: N1_3  and  C5_6 
REMARK    4  A    between atoms: C5_6  and  N2_8 
REMARK    5  A    between atoms: C8_11  and  N3_12 
REMARK       I    between atoms: N3_12  and  C9_14 
REMARK    6  A    between atoms: C9_14  and  C10_16 
REMARK    7  A    between atoms: C15_21  and  C16_22 
ROOT
HETATM    1  C10 UNL     1      -2.392  -0.634   0.423  1.00  0.00     0.051 C 
HETATM    2  C11 UNL     1      -2.255  -1.840  -0.463  1.00  0.00     0.024 C 
HETATM    3  C12 UNL     1      -3.312  -2.871  -0.386  1.00  0.00    -0.013 C 
HETATM    4  C13 UNL     1      -4.499  -2.591  -1.281  1.00  0.00     0.006 C 
HETATM    5  C14 UNL     1      -4.605  -1.121  -1.551  1.00  0.00     0.020 C 
HETATM    6  C15 UNL     1      -4.706  -0.310  -0.250  1.00  0.00     0.048 C 
HETATM    7  C17 UNL     1      -5.160  -1.106   0.917  1.00  0.00     0.024 C 
HETATM    8  C18 UNL     1      -4.112  -1.869   1.654  1.00  0.00    -0.012 C 
HETATM    9  C19 UNL     1      -3.774  -3.183   1.004  1.00  0.00     0.009 C 
HETATM   10  C20 UNL     1      -2.858  -1.095   1.822  1.00  0.00     0.025 C 
HETATM   11  C21 UNL     1      -3.358   0.398  -0.025  1.00  0.00    -0.004 A 
HETATM   12  C22 UNL     1      -2.956   1.369  -1.058  1.00  0.00     0.017 A 
HETATM   13  C23 UNL     1      -3.396   1.784   0.342  1.00  0.00    -0.007 A 
HETATM   14  C24 UNL     1      -2.368   2.540   1.144  1.00  0.00     0.011 C 
ENDROOT
BRANCH   1  15
HETATM   15  C9  UNL     1      -0.989  -0.158   0.619  1.00  0.00     0.227 C 
HETATM   16  N3  UNL     1      -0.090   0.061  -0.463  1.00  0.00    -0.356 N 
ATOM     17  H3  UNL     1      -0.424  -0.120  -1.410  1.00  0.00     0.162 HD
HETATM   18  O1  UNL     1      -0.513   0.081   1.762  1.00  0.00    -0.273 OA
BRANCH  16  19
HETATM   19  C8  UNL     1       1.270   0.525  -0.297  1.00  0.00     0.087 C 
HETATM   20  C7  UNL     1       1.483   1.885  -0.931  1.00  0.00     0.045 C 
HETATM   21  C6  UNL     1       2.809   2.430  -0.480  1.00  0.00     0.127 C 
HETATM   22  N2  UNL     1       3.863   1.358  -0.537  1.00  0.00    -0.358 N 
HETATM   23  C26 UNL     1       3.465   0.319  -1.444  1.00  0.00     0.127 C 
HETATM   24  C25 UNL     1       2.299  -0.457  -0.842  1.00  0.00     0.045 C 
BRANCH  22  25
HETATM   25  C5  UNL     1       5.020   1.486   0.194  1.00  0.00     0.172 C 
HETATM   26  S1  UNL     1       5.112   2.931   1.080  1.00  0.00    -0.041 SA
BRANCH  25  27
HETATM   27  N1  UNL     1       6.114   0.658   0.345  1.00  0.00    -0.359 N 
BRANCH  27  28
HETATM   28  C2  UNL     1       7.233   1.176   1.216  1.00  0.00     0.120 C 
HETATM   29  C1  UNL     1       7.298   0.364   2.485  1.00  0.00     0.026 C 
ENDBRANCH  27  28
BRANCH  27  30
HETATM   30  C3  UNL     1       6.389  -0.653  -0.168  1.00  0.00     0.120 C 
HETATM   31  C4  UNL     1       7.460  -0.675  -1.220  1.00  0.00     0.026 C 
ENDBRANCH  27  30
ENDBRANCH  25  27
ENDBRANCH  22  25
ENDBRANCH  16  19
ENDBRANCH   1  15
BRANCH   6  32
HETATM   32  C16 UNL     1      -5.778   0.680  -0.531  1.00  0.00     0.240 C 
HETATM   33  N4  UNL     1      -6.615   1.293   0.435  1.00  0.00    -0.061 NA
HETATM   34  O2  UNL     1      -6.024   1.059  -1.730  1.00  0.00    -0.276 OA
ENDBRANCH   6  32
TORSDOF 7
