REMARK  7 active torsions:
REMARK  status: ('A' for Active; 'I' for Inactive)
REMARK       I    between atoms: C2_2  and  N1_4 
REMARK    1  A    between atoms: N1_4  and  C3_6 
REMARK    2  A    between atoms: N2_9  and  C6_10 
REMARK    3  A    between atoms: C6_10  and  O2_11 
REMARK    4  A    between atoms: C7_13  and  N3_14 
REMARK       I    between atoms: N3_14  and  C8_16 
REMARK    5  A    between atoms: C8_16  and  C9_18 
REMARK    6  A    between atoms: C9_18  and  C10_19 
REMARK    7  A    between atoms: C21_30  and  C22_31 
ROOT
HETATM    1  C6  UNL     1       2.161   0.266   2.831  1.00  0.00     0.153 C 
HETATM    2  C7  UNL     1       1.135   1.129   3.332  1.00  0.00     0.146 C 
ENDROOT
BRANCH   1   3
HETATM    3  N2  UNL     1       2.503  -0.148   1.550  1.00  0.00    -0.360 N 
HETATM    4  C5  UNL     1       3.596  -1.161   1.461  1.00  0.00     0.127 C 
HETATM    5  C4  UNL     1       3.581  -1.773   0.105  1.00  0.00     0.045 C 
HETATM    6  C3  UNL     1       3.830  -0.736  -0.976  1.00  0.00     0.092 C 
HETATM    7  C21 UNL     1       2.985   0.486  -0.765  1.00  0.00     0.036 C 
HETATM    8  C20 UNL     1       1.949   0.346   0.340  1.00  0.00     0.132 C 
BRANCH   6   9
HETATM    9  N1  UNL     1       5.232  -0.354  -0.915  1.00  0.00    -0.356 N 
HETATM   10  C2  UNL     1       6.094  -0.637  -1.996  1.00  0.00     0.213 C 
HETATM   11  C1  UNL     1       7.521  -0.265  -1.970  1.00  0.00     0.117 C 
HETATM   12  O1  UNL     1       5.648  -1.225  -3.024  1.00  0.00    -0.274 OA
ATOM     13  H1  UNL     1       5.594   0.120  -0.088  1.00  0.00     0.162 HD
ENDBRANCH   6   9
BRANCH   7  14
HETATM   14  C22 UNL     1       2.214   0.850  -2.032  1.00  0.00     0.093 C 
HETATM   15 BR1  UNL     1       1.047  -0.581  -2.581  1.00  0.00    -0.096 Br
ENDBRANCH   7  14
ENDBRANCH   1   3
BRANCH   1  16
HETATM   16  O2  UNL     1       2.933  -0.227   3.773  1.00  0.00    -0.345 OA
ATOM     17  H2  UNL     1       2.699   0.056   4.649  1.00  0.00     0.219 HD
ENDBRANCH   1  16
BRANCH   2  18
HETATM   18  N3  UNL     1       0.106   1.670   2.550  1.00  0.00    -0.333 N 
HETATM   19  C8  UNL     1      -0.956   0.875   1.964  1.00  0.00     0.222 C 
HETATM   20  O3  UNL     1      -0.991  -0.361   2.160  1.00  0.00    -0.273 OA
ATOM     21  H3  UNL     1       0.104   2.676   2.384  1.00  0.00     0.168 HD
BRANCH  19  22
HETATM   22  C9  UNL     1      -1.991   1.512   1.143  1.00  0.00     0.112 C 
BRANCH  22  23
HETATM   23  C10 UNL     1      -3.056   0.643   0.582  1.00  0.00    -0.031 C 
HETATM   24  C11 UNL     1      -4.029   1.551  -0.228  1.00  0.00     0.014 C 
HETATM   25  C12 UNL     1      -5.111   0.704  -0.819  1.00  0.00    -0.013 C 
HETATM   26  C13 UNL     1      -4.483  -0.303  -1.787  1.00  0.00     0.009 C 
HETATM   27  C17 UNL     1      -5.899  -0.079   0.186  1.00  0.00     0.009 C 
HETATM   28  C14 UNL     1      -3.560  -1.212  -1.030  1.00  0.00    -0.013 C 
HETATM   29  C15 UNL     1      -4.204  -1.920   0.126  1.00  0.00     0.009 C 
HETATM   30  C19 UNL     1      -2.468  -0.316  -0.422  1.00  0.00     0.014 C 
HETATM   31  C16 UNL     1      -4.935  -0.918   0.979  1.00  0.00    -0.013 C 
HETATM   32  C18 UNL     1      -3.919   0.004   1.622  1.00  0.00     0.014 C 
ENDBRANCH  22  23
ENDBRANCH  19  22
ENDBRANCH   2  18
TORSDOF 7
