REMARK  5 active torsions:
REMARK  status: ('A' for Active; 'I' for Inactive)
REMARK       I    between atoms: N1_2  and  C2_4 
REMARK    1  A    between atoms: C2_4  and  C3_6 
REMARK    2  A    between atoms: C3_6  and  C4_7 
REMARK       I    between atoms: N2_11  and  C7_12 
REMARK       I    between atoms: C7_12  and  N3_14 
REMARK    3  A    between atoms: N3_14  and  C8_16 
REMARK    4  A    between atoms: C16_24  and  C17_25 
REMARK    5  A    between atoms: C17_25  and  N4_26 
ROOT
HETATM    1  C3  UNL     1       4.433   0.541  -0.415  1.00  0.00     0.053 C 
HETATM    2  C5  UNL     1       3.881   0.023   0.900  1.00  0.00     0.040 C 
HETATM    3  C6  UNL     1       2.524   0.637   1.211  1.00  0.00     0.129 C 
HETATM    4  N2  UNL     1       1.592   0.283   0.162  1.00  0.00    -0.334 N 
HETATM    5  C7  UNL     1       0.327  -0.277   0.443  1.00  0.00     0.318 C 
HETATM    6  O2  UNL     1       0.042  -0.456   1.652  1.00  0.00    -0.247 OA
HETATM    7  N3  UNL     1      -0.615  -0.638  -0.538  1.00  0.00    -0.333 N 
ATOM      8  H3  UNL     1      -0.343  -0.471  -1.507  1.00  0.00     0.165 HD
HETATM    9  C22 UNL     1       2.051   0.542  -1.205  1.00  0.00     0.129 C 
HETATM   10  C23 UNL     1       3.358   1.292  -1.172  1.00  0.00     0.040 C 
ENDROOT
BRANCH   7  11
HETATM   11  C8  UNL     1      -1.907  -1.211  -0.335  1.00  0.00     0.041 C 
HETATM   12  C9  UNL     1      -1.694  -2.540   0.382  1.00  0.00     0.036 C 
HETATM   13  C10 UNL     1      -2.997  -3.343   0.478  1.00  0.00    -0.012 C 
HETATM   14  C11 UNL     1      -3.610  -3.572  -0.864  1.00  0.00     0.009 C 
HETATM   15  C15 UNL     1      -3.914  -2.512   1.339  1.00  0.00     0.010 C 
HETATM   16  C12 UNL     1      -3.817  -2.221  -1.567  1.00  0.00    -0.012 C 
HETATM   17  C13 UNL     1      -4.787  -1.468  -0.711  1.00  0.00     0.010 C 
HETATM   18  C21 UNL     1      -2.465  -1.600  -1.693  1.00  0.00     0.036 C 
HETATM   19  C14 UNL     1      -4.150  -1.221   0.629  1.00  0.00    -0.006 C 
HETATM   20  C16 UNL     1      -2.860  -0.412   0.483  1.00  0.00     0.046 C 
BRANCH  20  21
HETATM   21  C17 UNL     1      -3.241   0.916  -0.004  1.00  0.00     0.279 C 
BRANCH  21  22
HETATM   22  N4  UNL     1      -2.241   1.911  -0.182  1.00  0.00     0.089 N 
HETATM   23  C18 UNL     1      -2.746   3.178  -0.745  1.00  0.00     0.274 C 
HETATM   24  C19 UNL     1      -3.151   3.624   0.617  1.00  0.00     0.060 C 
HETATM   25  C20 UNL     1      -2.045   2.693   1.058  1.00  0.00     0.274 C 
ENDBRANCH  21  22
ENDBRANCH  20  21
ENDBRANCH   7  11
BRANCH   1  26
HETATM   26  C2  UNL     1       5.535   1.475  -0.116  1.00  0.00     0.227 C 
HETATM   27  N1  UNL     1       6.598   1.167   0.763  1.00  0.00    -0.365 N 
HETATM   28  C1  UNL     1       7.669   2.141   1.012  1.00  0.00     0.149 C 
ATOM     29  H1  UNL     1       6.622   0.260   1.229  1.00  0.00     0.161 HD
HETATM   30  O1  UNL     1       5.555   2.628  -0.668  1.00  0.00    -0.273 OA
ENDBRANCH   1  26
BRANCH   1  31
HETATM   31  C4  UNL     1       4.853  -0.617  -1.260  1.00  0.00     0.104 C 
HETATM   32 BR1  UNL     1       6.210  -1.731  -0.513  1.00  0.00    -0.095 Br
ENDBRANCH   1  31
TORSDOF 5
