REMARK  9 active torsions:
REMARK  status: ('A' for Active; 'I' for Inactive)
REMARK    1  A    between atoms: C2_2  and  C3_3 
REMARK    2  A    between atoms: C3_3  and  N1_4 
REMARK       I    between atoms: N1_4  and  C4_6 
REMARK       I    between atoms: C4_6  and  N3_10 
REMARK    3  A    between atoms: C8_13  and  C9_14 
REMARK    4  A    between atoms: C9_14  and  O1_15 
REMARK    5  A    between atoms: C9_14  and  N4_17 
REMARK    6  A    between atoms: C15_23  and  C16_24 
REMARK    7  A    between atoms: C16_24  and  O2_25 
REMARK    8  A    between atoms: C16_24  and  N5_27 
REMARK    9  A    between atoms: N5_27  and  C17_29 
ROOT
HETATM    1  N4  UNL     1       0.811   1.867  -1.684  1.00  0.00    -0.359 N 
HETATM    2  C10 UNL     1       0.035   2.503  -2.774  1.00  0.00     0.130 C 
HETATM    3  C11 UNL     1      -1.323   1.797  -2.597  1.00  0.00     0.017 C 
HETATM    4  C12 UNL     1      -1.063   0.359  -2.893  1.00  0.00     0.009 C 
HETATM    5  C13 UNL     1      -0.342  -0.191  -1.684  1.00  0.00     0.026 C 
HETATM    6  C14 UNL     1      -0.066   1.042  -0.882  1.00  0.00     0.098 C 
HETATM    7  C15 UNL     1      -1.363   1.846  -1.089  1.00  0.00     0.088 C 
ENDROOT
BRANCH   1   8
HETATM    8  C9  UNL     1       2.181   2.086  -1.489  1.00  0.00     0.118 C 
BRANCH   8   9
HETATM    9  C8  UNL     1       3.124   1.539  -0.554  1.00  0.00     0.063 C 
HETATM   10  C7  UNL     1       2.782   1.470   0.892  1.00  0.00     0.033 C 
HETATM   11  C6  UNL     1       4.074   1.189   1.664  1.00  0.00     0.142 C 
HETATM   12  N3  UNL     1       4.996   0.372   0.932  1.00  0.00    -0.218 N 
HETATM   13  C4  UNL     1       6.207  -0.010   1.641  1.00  0.00     0.671 C 
HETATM   14  C27 UNL     1       4.882  -0.120  -0.401  1.00  0.00     0.142 C 
HETATM   15  N1  UNL     1       6.254  -1.207   2.416  1.00  0.00    -0.223 N 
HETATM   16  N2  UNL     1       7.215   0.770   1.545  1.00  0.00    -0.231 N 
ATOM     17  H1  UNL     1       5.396  -1.731   2.586  1.00  0.00     0.178 HD
HETATM   18  C5  UNL     1       7.241   1.991   0.782  1.00  0.00     0.165 C 
ATOM     19  H2  UNL     1       8.064   0.508   2.046  1.00  0.00     0.177 HD
HETATM   20  C26 UNL     1       3.504   0.106  -0.960  1.00  0.00     0.033 C 
BRANCH  15  21
HETATM   21  C3  UNL     1       7.488  -1.680   2.957  1.00  0.00     0.164 C 
BRANCH  21  22
HETATM   22  C2  UNL     1       8.454  -2.181   1.973  1.00  0.00    -0.017 C 
HETATM   23  C1  UNL     1       8.267  -2.238   0.669  1.00  0.00     0.008 C 
ENDBRANCH  21  22
ENDBRANCH  15  21
ENDBRANCH   8   9
BRANCH   8  24
HETATM   24  O1  UNL     1       2.696   2.957  -2.335  1.00  0.00    -0.349 OA
ATOM     25  H1  UNL     1       2.072   3.319  -2.953  1.00  0.00     0.219 HD
ENDBRANCH   8  24
ENDBRANCH   1   8
BRANCH   7  26
HETATM   26  C16 UNL     1      -2.535   1.396  -0.411  1.00  0.00     0.118 C 
BRANCH  26  27
HETATM   27  O2  UNL     1      -2.956   2.187   0.546  1.00  0.00    -0.349 OA
ATOM     28  H2  UNL     1      -3.736   1.887   0.997  1.00  0.00     0.219 HD
ENDBRANCH  26  27
BRANCH  26  29
HETATM   29  N5  UNL     1      -3.342   0.266  -0.560  1.00  0.00    -0.369 N 
ATOM     30  H5  UNL     1      -3.093  -0.405  -1.287  1.00  0.00     0.161 HD
BRANCH  29  31
HETATM   31  C17 UNL     1      -4.513  -0.016   0.252  1.00  0.00     0.084 C 
HETATM   32  C18 UNL     1      -4.417  -1.319   1.003  1.00  0.00     0.026 C 
HETATM   33  C19 UNL     1      -5.869  -1.438   1.499  1.00  0.00     0.012 C 
HETATM   34  C20 UNL     1      -6.624  -1.173   0.210  1.00  0.00    -0.036 C 
HETATM   35  C21 UNL     1      -6.909  -2.491  -0.434  1.00  0.00     0.012 C 
HETATM   36  C24 UNL     1      -7.984  -0.556   0.456  1.00  0.00     0.046 C 
HETATM   37  C25 UNL     1      -5.745  -0.262  -0.605  1.00  0.00     0.034 C 
HETATM   38  C22 UNL     1      -8.154  -2.944   0.339  1.00  0.00     0.038 C 
HETATM   39  C23 UNL     1      -8.976  -1.673   0.335  1.00  0.00     0.171 C 
HETATM   40  F1  UNL     1      -9.894  -1.688   1.377  1.00  0.00    -0.249 F 
ENDBRANCH  29  31
ENDBRANCH  26  29
ENDBRANCH   7  26
TORSDOF 9
