REMARK  7 active torsions:
REMARK  status: ('A' for Active; 'I' for Inactive)
REMARK    1  A    between atoms: C3_3  and  N1_4 
REMARK    2  A    between atoms: N1_4  and  C4_6 
REMARK    3  A    between atoms: C4_6  and  O1_7 
REMARK    4  A    between atoms: C4_6  and  C5_9 
REMARK    5  A    between atoms: C5_9  and  N2_10 
REMARK       I    between atoms: N2_10  and  C6_12 
REMARK    6  A    between atoms: C6_12  and  C7_14 
REMARK       I    between atoms: N3_19  and  C12_20 
REMARK    7  A    between atoms: C12_20  and  C13_22 
ROOT
HETATM    1  C1  UNL     1       6.859   4.168  -0.662  1.00  0.00     0.014 C 
HETATM    2  C2  UNL     1       5.676   4.094  -0.484  1.00  0.00    -0.098 C 
HETATM    3  C3  UNL     1       4.220   3.999  -0.198  1.00  0.00     0.215 C 
ENDROOT
BRANCH   3   4
HETATM    4  N1  UNL     1       4.001   2.608   0.191  1.00  0.00    -0.362 N 
ATOM      5  H1  UNL     1       3.761   2.435   1.167  1.00  0.00     0.162 HD
BRANCH   4   6
HETATM    6  C4  UNL     1       4.087   1.505  -0.635  1.00  0.00     0.141 C 
BRANCH   6   7
HETATM    7  O1  UNL     1       4.311   1.747  -1.903  1.00  0.00    -0.348 OA
ATOM      8  H1  UNL     1       4.370   0.988  -2.471  1.00  0.00     0.219 HD
ENDBRANCH   6   7
BRANCH   6   9
HETATM    9  C5  UNL     1       3.947   0.078  -0.279  1.00  0.00     0.100 C 
HETATM   10  C24 UNL     1       5.011  -0.096   0.832  1.00  0.00     0.070 C 
HETATM   11  C25 UNL     1       5.317  -1.537   1.103  1.00  0.00     0.275 C 
HETATM   12  N4  UNL     1       5.634  -2.266  -0.110  1.00  0.00     0.084 N 
HETATM   13  C26 UNL     1       6.789  -3.059   0.095  1.00  0.00     0.309 C 
HETATM   14  C27 UNL     1       5.645  -1.453  -1.279  1.00  0.00     0.275 C 
HETATM   15  C28 UNL     1       4.360  -0.749  -1.495  1.00  0.00     0.070 C 
BRANCH   9  16
HETATM   16  N2  UNL     1       2.660  -0.238   0.153  1.00  0.00    -0.342 N 
HETATM   17  C6  UNL     1       1.345  -0.149  -0.341  1.00  0.00     0.241 C 
HETATM   18  O2  UNL     1       1.131   0.329  -1.460  1.00  0.00    -0.271 OA
ATOM     19  H2  UNL     1       2.675  -0.648   1.087  1.00  0.00     0.163 HD
BRANCH  17  20
HETATM   20  C7  UNL     1       0.312  -0.663   0.579  1.00  0.00     0.182 C 
HETATM   21  C8  UNL     1       0.354  -2.148   0.574  1.00  0.00     0.065 C 
HETATM   22  C9  UNL     1      -1.182  -1.987   0.683  1.00  0.00     0.031 C 
HETATM   23  C10 UNL     1      -1.520  -2.333   2.127  1.00  0.00     0.038 C 
HETATM   24  C11 UNL     1      -1.739  -2.946  -0.351  1.00  0.00     0.038 C 
HETATM   25  N3  UNL     1      -1.082  -0.600   0.383  1.00  0.00    -0.329 N 
HETATM   26  C12 UNL     1      -2.035   0.443   0.061  1.00  0.00     0.233 C 
HETATM   27  O3  UNL     1      -1.420   1.553  -0.201  1.00  0.00    -0.272 OA
BRANCH  26  28
HETATM   28  C13 UNL     1      -3.476   0.463  -0.004  1.00  0.00     0.078 C 
HETATM   29  C14 UNL     1      -4.119  -0.286   1.151  1.00  0.00     0.027 C 
HETATM   30  C15 UNL     1      -5.601  -0.084   1.191  1.00  0.00    -0.012 C 
HETATM   31  C16 UNL     1      -6.159  -0.716  -0.065  1.00  0.00     0.009 C 
HETATM   32  C20 UNL     1      -6.002   1.349   1.271  1.00  0.00     0.012 C 
HETATM   33  C17 UNL     1      -5.593  -0.013  -1.252  1.00  0.00    -0.012 C 
HETATM   34  C18 UNL     1      -6.016   1.440  -1.177  1.00  0.00     0.012 C 
HETATM   35  C23 UNL     1      -4.078  -0.069  -1.269  1.00  0.00     0.027 C 
HETATM   36  C19 UNL     1      -5.441   2.032   0.071  1.00  0.00     0.027 C 
HETATM   37  C21 UNL     1      -3.930   1.922   0.094  1.00  0.00     0.119 C 
HETATM   38  C22 UNL     1      -3.382   2.791  -0.999  1.00  0.00     0.053 C 
HETATM   39  F1  UNL     1      -3.524   2.389   1.324  1.00  0.00    -0.242 F 
ENDBRANCH  26  28
ENDBRANCH  17  20
ENDBRANCH   9  16
ENDBRANCH   6   9
ENDBRANCH   4   6
ENDBRANCH   3   4
TORSDOF 7
