REMARK  6 active torsions:
REMARK  status: ('A' for Active; 'I' for Inactive)
REMARK       I    between atoms: N1_2  and  C2_4 
REMARK    1  A    between atoms: C2_4  and  C3_6 
REMARK    2  A    between atoms: C7_10  and  C8_11 
REMARK       I    between atoms: N2_15  and  C11_16 
REMARK    3  A    between atoms: C11_16  and  C12_18 
REMARK    4  A    between atoms: C12_18  and  C13_19 
REMARK    5  A    between atoms: C18_24  and  C19_25 
REMARK       I    between atoms: C19_25  and  N3_27 
REMARK    6  A    between atoms: N3_27  and  C20_29 
ROOT
HETATM    1  C3  UNL     1       3.015   0.747  -0.729  1.00  0.00     0.184 C 
HETATM    2  C4  UNL     1       4.364   0.124  -0.526  1.00  0.00     0.027 A 
HETATM    3  C5  UNL     1       4.471  -1.169  -1.305  1.00  0.00     0.009 A 
HETATM    4  C6  UNL     1       4.628  -1.902  -0.001  1.00  0.00     0.011 A 
HETATM    5  C7  UNL     1       4.580  -0.580   0.737  1.00  0.00    -0.024 A 
HETATM    6  C9  UNL     1       3.508  -0.481   1.764  1.00  0.00     0.030 C 
HETATM    7  C10 UNL     1       2.115  -0.528   1.244  1.00  0.00     0.127 C 
HETATM    8  N2  UNL     1       1.956   0.060  -0.053  1.00  0.00    -0.338 N 
HETATM    9  C11 UNL     1       0.655  -0.070  -0.669  1.00  0.00     0.221 C 
HETATM   10  O2  UNL     1       0.517   0.446  -1.807  1.00  0.00    -0.273 OA
ENDROOT
BRANCH   9  11
HETATM   11  C12 UNL     1      -0.448  -0.761  -0.012  1.00  0.00     0.108 C 
BRANCH  11  12
HETATM   12  C13 UNL     1      -1.703  -0.930  -0.774  1.00  0.00     0.007 C 
HETATM   13  C14 UNL     1      -1.565  -1.733  -2.024  1.00  0.00     0.006 C 
HETATM   14  C15 UNL     1      -1.273  -3.196  -1.741  1.00  0.00     0.000 C 
HETATM   15  C16 UNL     1      -2.120  -3.733  -0.610  1.00  0.00     0.001 C 
HETATM   16  C17 UNL     1      -3.292  -2.807  -0.445  1.00  0.00     0.014 C 
HETATM   17  C18 UNL     1      -2.819  -1.488   0.117  1.00  0.00     0.082 C 
BRANCH  17  18
HETATM   18  C19 UNL     1      -3.980  -0.573   0.194  1.00  0.00     0.222 C 
HETATM   19  O3  UNL     1      -5.100  -0.985  -0.193  1.00  0.00    -0.273 OA
HETATM   20  N3  UNL     1      -3.824   0.757   0.701  1.00  0.00    -0.353 N 
ATOM     21  H3  UNL     1      -2.906   1.075   1.011  1.00  0.00     0.163 HD
BRANCH  20  22
HETATM   22  C20 UNL     1      -4.947   1.645   0.776  1.00  0.00     0.022 C 
HETATM   23  C21 UNL     1      -4.517   2.976   1.341  1.00  0.00     0.037 C 
HETATM   24  C22 UNL     1      -5.578   1.875  -0.600  1.00  0.00     0.037 C 
HETATM   25  C23 UNL     1      -6.031   1.108   1.705  1.00  0.00     0.037 C 
ENDBRANCH  20  22
ENDBRANCH  17  18
ENDBRANCH  11  12
ENDBRANCH   9  11
BRANCH   1  26
HETATM   26  C2  UNL     1       3.013   2.201  -0.429  1.00  0.00     0.240 C 
HETATM   27  N1  UNL     1       3.988   3.034  -1.028  1.00  0.00    -0.364 N 
HETATM   28  C1  UNL     1       4.043   4.466  -0.778  1.00  0.00     0.149 C 
ATOM     29  H1  UNL     1       4.675   2.616  -1.656  1.00  0.00     0.161 HD
HETATM   30  O1  UNL     1       2.176   2.741   0.341  1.00  0.00    -0.271 OA
ENDBRANCH   1  26
BRANCH   5  31
HETATM   31  C8  UNL     1       5.943  -0.356   1.407  1.00  0.00     0.095 C 
HETATM   32 BR1  UNL     1       6.034  -1.366   3.055  1.00  0.00    -0.096 Br
ENDBRANCH   5  31
TORSDOF 6
