REMARK  6 active torsions:
REMARK  status: ('A' for Active; 'I' for Inactive)
REMARK    1  A    between atoms: C3_5  and  C4_6 
REMARK    2  A    between atoms: C4_6  and  C5_7 
REMARK    3  A    between atoms: C11_15  and  O1_16 
REMARK    4  A    between atoms: O1_16  and  C12_17 
REMARK    5  A    between atoms: C12_17  and  C13_18 
REMARK    6  A    between atoms: C17_23  and  C18_24 
REMARK       I    between atoms: C18_24  and  N2_26 
ROOT
HETATM    1  C5  UNL     1       1.645  -1.268  -0.183  1.00  0.00     0.008 A 
HETATM    2  C6  UNL     1       1.819  -2.573  -0.503  1.00  0.00    -0.032 A 
HETATM    3  C7  UNL     1       0.826  -3.272  -1.327  1.00  0.00     0.050 C 
HETATM    4  C8  UNL     1       2.934  -3.299  -0.069  1.00  0.00     0.019 A 
HETATM    5 BR1  UNL     1       3.124  -5.130  -0.553  1.00  0.00    -0.051 Br
HETATM    6  C9  UNL     1       3.847  -2.621   0.701  1.00  0.00     0.041 A 
HETATM    7  C10 UNL     1       3.700  -1.269   1.054  1.00  0.00     0.046 A 
HETATM    8 BR2  UNL     1       5.030  -0.520   2.213  1.00  0.00    -0.048 Br
HETATM    9  C11 UNL     1       2.599  -0.599   0.608  1.00  0.00     0.097 A 
ENDROOT
BRANCH   1  10
HETATM   10  C4  UNL     1       0.486  -0.537  -0.642  1.00  0.00     0.044 C 
BRANCH  10  11
HETATM   11  C3  UNL     1      -0.633  -0.442   0.046  1.00  0.00     0.040 A 
HETATM   12  N1  UNL     1      -0.899  -0.974   1.235  1.00  0.00    -0.356 N 
HETATM   13  C2  UNL     1      -2.176  -0.651   1.618  1.00  0.00     0.039 A 
ATOM     14  H1  UNL     1      -0.249  -1.539   1.782  1.00  0.00     0.166 HD
HETATM   15  C1  UNL     1      -2.704  -1.059   2.760  1.00  0.00     0.044 C 
HETATM   16  C17 UNL     1      -2.749   0.125   0.621  1.00  0.00     0.066 A 
HETATM   17  C15 UNL     1      -1.776   0.252  -0.360  1.00  0.00    -0.017 A 
HETATM   18  C16 UNL     1      -1.911   1.018  -1.627  1.00  0.00     0.052 C 
BRANCH  16  19
HETATM   19  C18 UNL     1      -4.089   0.704   0.658  1.00  0.00     0.254 C 
HETATM   20  O3  UNL     1      -4.675   0.749   1.811  1.00  0.00    -0.268 OA
HETATM   21  N2  UNL     1      -4.827   1.217  -0.397  1.00  0.00    -0.361 N 
HETATM   22  C19 UNL     1      -6.160   1.761  -0.153  1.00  0.00     0.149 C 
ATOM     23  H2  UNL     1      -4.440   1.215  -1.341  1.00  0.00     0.162 HD
ENDBRANCH  16  19
ENDBRANCH  10  11
ENDBRANCH   1  10
BRANCH   9  24
HETATM   24  O1  UNL     1       2.379   0.730   0.912  1.00  0.00    -0.346 OA
BRANCH  24  25
HETATM   25  C12 UNL     1       2.627   1.807   0.100  1.00  0.00     0.209 C 
BRANCH  25  26
HETATM   26  C13 UNL     1       3.968   2.149  -0.397  1.00  0.00     0.169 A 
HETATM   27  C14 UNL     1       4.449   3.602  -0.274  1.00  0.00     0.202 A 
HETATM   28  O2  UNL     1       5.022   2.543   0.385  1.00  0.00    -0.379 OA
ENDBRANCH  25  26
ENDBRANCH  24  25
ENDBRANCH   9  24
TORSDOF 6
