REMARK  5 active torsions:
REMARK  status: ('A' for Active; 'I' for Inactive)
REMARK    1  A    between atoms: N2_12  and  C10_14 
REMARK    2  A    between atoms: C10_14  and  C11_15 
REMARK    3  A    between atoms: C11_15  and  C12_16 
REMARK    4  A    between atoms: C11_15  and  N3_19 
REMARK       I    between atoms: N3_19  and  C13_20 
REMARK    5  A    between atoms: N3_19  and  C14_23 
ROOT
HETATM    1  C1  UNL     1       3.626   3.163   0.705  1.00  0.00     0.070 C 
HETATM    2  C2  UNL     1       3.343   1.734   0.433  1.00  0.00     0.029 A 
HETATM    3  N1  UNL     1       4.327   0.834   0.578  1.00  0.00    -0.358 N 
ATOM      4  H1  UNL     1       5.255   1.140   0.871  1.00  0.00     0.166 HD
HETATM    5  C3  UNL     1       4.098  -0.469   0.339  1.00  0.00     0.045 A 
HETATM    6  C4  UNL     1       5.128  -1.397   0.493  1.00  0.00     0.030 A 
HETATM    7  C5  UNL     1       4.877  -2.710   0.246  1.00  0.00     0.002 A 
HETATM    8  C6  UNL     1       3.644  -3.165  -0.152  1.00  0.00     0.001 A 
HETATM    9  C7  UNL     1       2.638  -2.210  -0.296  1.00  0.00     0.016 A 
HETATM   10  C8  UNL     1       2.852  -0.883  -0.057  1.00  0.00     0.019 A 
HETATM   11  C9  UNL     1       1.773   0.013  -0.229  1.00  0.00     0.063 A 
HETATM   12  N2  UNL     1       0.712  -0.452  -0.582  1.00  0.00    -0.386 N 
ATOM     13  H2  UNL     1       0.865  -1.456  -0.677  1.00  0.00     0.159 HD
HETATM   14  C17 UNL     1       2.065   1.329   0.030  1.00  0.00     0.094 A 
HETATM   15  C18 UNL     1       1.055   2.323  -0.108  1.00  0.00     0.103 C 
HETATM   16  N5  UNL     1       0.267   3.134  -0.205  1.00  0.00    -0.191 NA
ENDROOT
BRANCH  12  17
HETATM   17  C10 UNL     1      -0.599  -0.240  -0.911  1.00  0.00     0.147 C 
BRANCH  17  18
HETATM   18  C11 UNL     1      -1.506  -0.302   0.326  1.00  0.00     0.131 C 
BRANCH  18  19
HETATM   19  C12 UNL     1      -1.419  -1.631   0.997  1.00  0.00     0.154 C 
HETATM   20 BR1  UNL     1      -2.555  -1.652   2.536  1.00  0.00    -0.077 Br
HETATM   21 BR2  UNL     1      -1.597  -3.168  -0.113  1.00  0.00    -0.077 Br
ENDBRANCH  18  19
BRANCH  18  22
HETATM   22  N3  UNL     1      -2.845   0.144  -0.014  1.00  0.00    -0.324 N 
HETATM   23  C13 UNL     1      -3.416   1.268   0.625  1.00  0.00     0.331 C 
HETATM   24  N4  UNL     1      -2.724   2.021   1.639  1.00  0.00    -0.040 NA
HETATM   25  O1  UNL     1      -4.558   1.674   0.343  1.00  0.00    -0.251 OA
BRANCH  22  26
HETATM   26  C14 UNL     1      -3.665  -0.485  -1.016  1.00  0.00     0.081 C 
HETATM   27  C15 UNL     1      -3.944   0.476  -2.184  1.00  0.00     0.032 C 
HETATM   28  C16 UNL     1      -5.006  -0.805  -0.409  1.00  0.00     0.032 C 
ENDBRANCH  22  26
ENDBRANCH  18  22
ENDBRANCH  17  18
ENDBRANCH  12  17
TORSDOF 5
