REMARK  6 active torsions:
REMARK  status: ('A' for Active; 'I' for Inactive)
REMARK    1  A    between atoms: C2_2  and  C3_3 
REMARK    2  A    between atoms: C3_3  and  C4_4 
REMARK       I    between atoms: C4_4  and  N1_6 
REMARK    3  A    between atoms: N1_6  and  C5_8 
REMARK       I    between atoms: N2_11  and  C8_12 
REMARK    4  A    between atoms: C8_12  and  C9_14 
REMARK       I    between atoms: N3_19  and  C14_20 
REMARK       I    between atoms: C14_20  and  N4_22 
REMARK    5  A    between atoms: N4_22  and  C15_24 
REMARK    6  A    between atoms: C15_24  and  C16_25 
ROOT
HETATM    1  C5  UNL     1      -3.385  -0.373  -0.260  1.00  0.00     0.087 C 
HETATM    2  C6  UNL     1      -2.522  -0.724   0.953  1.00  0.00     0.045 C 
HETATM    3  C7  UNL     1      -1.079  -0.631   0.482  1.00  0.00     0.127 C 
HETATM    4  N2  UNL     1      -0.838  -1.645  -0.522  1.00  0.00    -0.352 N 
HETATM    5  C8  UNL     1       0.454  -1.994  -1.006  1.00  0.00     0.224 C 
HETATM    6  O2  UNL     1       0.542  -2.839  -1.918  1.00  0.00    -0.273 OA
HETATM    7  C21 UNL     1      -2.030  -2.350  -1.017  1.00  0.00     0.127 C 
HETATM    8  C22 UNL     1      -3.073  -1.324  -1.370  1.00  0.00     0.045 C 
ENDROOT
BRANCH   5   9
HETATM    9  C9  UNL     1       1.640  -1.381  -0.447  1.00  0.00     0.079 C 
HETATM   10  C10 UNL     1       1.711   0.124  -0.380  1.00  0.00     0.023 C 
HETATM   11  C11 UNL     1       3.242  -0.073  -0.489  1.00  0.00    -0.036 C 
HETATM   12  C12 UNL     1       3.938   0.957  -1.277  1.00  0.00     0.029 C 
HETATM   13  C19 UNL     1       3.839  -0.554   0.765  1.00  0.00     0.029 C 
HETATM   14  C20 UNL     1       2.852  -1.290  -1.369  1.00  0.00     0.023 C 
HETATM   15  C13 UNL     1       4.936   1.803  -0.522  1.00  0.00     0.128 C 
HETATM   16  N3  UNL     1       5.700   0.870   0.333  1.00  0.00    -0.334 N 
HETATM   17  C14 UNL     1       7.068   0.621   0.094  1.00  0.00     0.318 C 
HETATM   18  C18 UNL     1       4.931   0.289   1.376  1.00  0.00     0.128 C 
HETATM   19  O3  UNL     1       7.574   1.248  -0.861  1.00  0.00    -0.247 OA
HETATM   20  N4  UNL     1       7.808  -0.262   0.865  1.00  0.00    -0.337 N 
ATOM     21  H4  UNL     1       7.285  -0.734   1.603  1.00  0.00     0.164 HD
BRANCH  20  22
HETATM   22  C15 UNL     1       9.176  -0.610   0.787  1.00  0.00     0.202 C 
BRANCH  22  23
HETATM   23  C16 UNL     1      10.164   0.424   1.144  1.00  0.00     0.255 C 
HETATM   24  C17 UNL     1      10.266   1.686   0.411  1.00  0.00     0.091 C 
HETATM   25  F1  UNL     1      11.460  -0.161   1.110  1.00  0.00    -0.205 F 
HETATM   26  F2  UNL     1       9.953   0.725   2.516  1.00  0.00    -0.205 F 
ENDBRANCH  22  23
ENDBRANCH  20  22
ENDBRANCH   5   9
BRANCH   1  27
HETATM   27  N1  UNL     1      -4.770  -0.300   0.121  1.00  0.00    -0.356 N 
HETATM   28  C4  UNL     1      -5.558   0.871  -0.064  1.00  0.00     0.227 C 
HETATM   29  O1  UNL     1      -4.942   1.852  -0.608  1.00  0.00    -0.273 OA
ATOM     30  H1  UNL     1      -5.206  -1.121   0.541  1.00  0.00     0.162 HD
BRANCH  28  31
HETATM   31  C3  UNL     1      -6.973   1.015   0.311  1.00  0.00     0.048 A 
HETATM   32  C23 UNL     1      -7.491   2.393   0.354  1.00  0.00     0.030 A 
HETATM   33  C24 UNL     1      -7.939   1.544  -0.763  1.00  0.00    -0.030 A 
HETATM   34  C25 UNL     1      -7.353   1.559  -2.127  1.00  0.00     0.016 C 
HETATM   35  C26 UNL     1      -9.405   1.134  -0.674  1.00  0.00     0.016 C 
BRANCH  31  36
HETATM   36  C2  UNL     1      -7.604  -0.127   1.080  1.00  0.00     0.015 C 
HETATM   37  C1  UNL     1      -6.916  -0.383   2.407  1.00  0.00     0.006 C 
ENDBRANCH  31  36
ENDBRANCH  28  31
ENDBRANCH   1  27
TORSDOF 6
