REMARK  5 active torsions:
REMARK  status: ('A' for Active; 'I' for Inactive)
REMARK    1  A    between atoms: C2_2  and  C17_22 
REMARK       I    between atoms: N1_3  and  C3_5 
REMARK    2  A    between atoms: C3_5  and  C4_7 
REMARK       I    between atoms: C17_22  and  N2_24 
REMARK    3  A    between atoms: N2_24  and  C18_26 
REMARK    4  A    between atoms: C18_26  and  C19_27 
REMARK    5  A    between atoms: C19_27  and  N3_28 
ROOT
HETATM    1  C1  UNL     1       2.461   2.600   0.723  1.00  0.00     0.074 C 
HETATM    2  C2  UNL     1       2.156   1.139   0.562  1.00  0.00     0.076 C 
HETATM    3  N1  UNL     1       1.008   0.752   0.917  1.00  0.00    -0.326 N 
ATOM      4  H1  UNL     1       0.412   1.496   1.279  1.00  0.00     0.168 HD
HETATM    5  C3  UNL     1       0.409  -0.495   0.906  1.00  0.00     0.231 C 
HETATM    6  O1  UNL     1       0.908  -1.416   1.634  1.00  0.00    -0.272 OA
ENDROOT
BRANCH   5   7
HETATM    7  C4  UNL     1      -0.809  -0.826   0.074  1.00  0.00     0.049 C 
HETATM    8  C5  UNL     1      -0.591  -0.692  -1.363  1.00  0.00     0.020 C 
HETATM    9  C6  UNL     1      -1.141   0.405  -2.151  1.00  0.00     0.002 C 
HETATM   10  C7  UNL     1      -1.780   1.571  -1.477  1.00  0.00     0.005 C 
HETATM   11  C8  UNL     1      -3.218   1.267  -1.009  1.00  0.00    -0.013 C 
HETATM   12  C9  UNL     1      -3.670   2.335  -0.072  1.00  0.00     0.010 C 
HETATM   13  C10 UNL     1      -3.051  -0.085  -0.375  1.00  0.00     0.010 C 
HETATM   14  C11 UNL     1      -4.258  -0.691   0.227  1.00  0.00     0.077 C 
HETATM   15  C16 UNL     1      -1.942   0.055   0.615  1.00  0.00     0.010 C 
HETATM   16 BR1  UNL     1      -5.774  -0.195  -0.911  1.00  0.00    -0.089 Br
HETATM   17  C12 UNL     1      -4.044  -2.193   0.213  1.00  0.00     0.073 C 
HETATM   18 BR2  UNL     1      -4.885  -3.084   1.694  1.00  0.00    -0.090 Br
HETATM   19  C13 UNL     1      -2.623  -2.616  -0.023  1.00  0.00     0.022 C 
HETATM   20  C14 UNL     1      -1.545  -1.955   0.691  1.00  0.00     0.005 C 
HETATM   21  C15 UNL     1      -2.014  -0.940   1.743  1.00  0.00     0.012 C 
ENDBRANCH   5   7
BRANCH   2  22
HETATM   22  C17 UNL     1       3.229   0.329   0.008  1.00  0.00     0.263 C 
HETATM   23  O2  UNL     1       3.048  -0.899  -0.157  1.00  0.00    -0.266 OA
HETATM   24  N2  UNL     1       4.485   0.878  -0.356  1.00  0.00    -0.354 N 
ATOM     25  H2  UNL     1       4.631   1.879  -0.222  1.00  0.00     0.162 HD
BRANCH  24  26
HETATM   26  C18 UNL     1       5.567   0.100  -0.905  1.00  0.00     0.150 C 
BRANCH  26  27
HETATM   27  C19 UNL     1       6.055  -0.994   0.008  1.00  0.00     0.249 C 
BRANCH  27  28
HETATM   28  N3  UNL     1       6.516  -0.366   1.240  1.00  0.00    -0.078 N 
ATOM     29  H33 UNL     1       7.216   0.358   1.079  1.00  0.00     0.274 HD
ATOM     30  H32 UNL     1       5.808   0.226   1.673  1.00  0.00     0.274 HD
ATOM     31  H31 UNL     1       6.846  -1.107   1.858  1.00  0.00     0.274 HD
ENDBRANCH  27  28
ENDBRANCH  26  27
ENDBRANCH  24  26
ENDBRANCH   2  22
TORSDOF 5
