REMARK  12 active torsions:
REMARK  status: ('A' for Active; 'I' for Inactive)
REMARK    1  A    between atoms: C2_2  and  C4_4 
REMARK    2  A    between atoms: C4_4  and  C5_5 
REMARK    3  A    between atoms: C5_5  and  N1_6 
REMARK    4  A    between atoms: C5_5  and  C13_16 
REMARK       I    between atoms: N1_6  and  C6_8 
REMARK    5  A    between atoms: C6_8  and  C7_10 
REMARK    6  A    between atoms: C13_16  and  C14_17 
REMARK    7  A    between atoms: C13_16  and  N2_19 
REMARK       I    between atoms: N2_19  and  C15_21 
REMARK    8  A    between atoms: C15_21  and  C16_23 
REMARK    9  A    between atoms: C16_23  and  C17_24 
REMARK   10  A    between atoms: C20_27  and  C21_28 
REMARK   11  A    between atoms: C21_28  and  N3_29 
REMARK   12  A    between atoms: C24_34  and  C25_35 
ROOT
HETATM    1  N2  UNL     1      -0.739  -0.659   0.263  1.00  0.00    -0.348 N 
ATOM      2  H2  UNL     1      -0.948  -0.486   1.246  1.00  0.00     0.163 HD
HETATM    3  C15 UNL     1       0.259   0.090  -0.393  1.00  0.00     0.218 C 
HETATM    4  O3  UNL     1       0.494  -0.157  -1.610  1.00  0.00    -0.274 OA
ENDROOT
BRANCH   1   5
HETATM    5  C13 UNL     1      -1.473  -1.687  -0.476  1.00  0.00     0.168 C 
BRANCH   5   6
HETATM    6  C5  UNL     1      -2.931  -1.322  -0.550  1.00  0.00     0.114 C 
BRANCH   6   7
HETATM    7  C4  UNL     1      -3.683  -2.314  -1.361  1.00  0.00     0.031 C 
BRANCH   7   8
HETATM    8  C2  UNL     1      -3.124  -2.467  -2.742  1.00  0.00    -0.021 C 
HETATM    9  C1  UNL     1      -3.989  -3.503  -3.477  1.00  0.00     0.009 C 
HETATM   10  C3  UNL     1      -3.095  -1.189  -3.533  1.00  0.00     0.009 C 
ENDBRANCH   7   8
ENDBRANCH   6   7
BRANCH   6  11
HETATM   11  N1  UNL     1      -3.499  -1.191   0.791  1.00  0.00    -0.354 N 
HETATM   12  C6  UNL     1      -4.048   0.022   1.284  1.00  0.00     0.222 C 
HETATM   13  O1  UNL     1      -4.044   1.025   0.537  1.00  0.00    -0.273 OA
ATOM     14  H1  UNL     1      -3.501  -2.009   1.400  1.00  0.00     0.163 HD
BRANCH  12  15
HETATM   15  C7  UNL     1      -4.598   0.068   2.640  1.00  0.00     0.078 C 
HETATM   16  C8  UNL     1      -5.130   1.401   3.046  1.00  0.00     0.014 C 
HETATM   17  C9  UNL     1      -6.485   1.733   2.510  1.00  0.00     0.001 C 
HETATM   18  C10 UNL     1      -7.478   0.618   2.553  1.00  0.00     0.000 C 
HETATM   19  C11 UNL     1      -6.898  -0.719   2.139  1.00  0.00     0.001 C 
HETATM   20  C12 UNL     1      -5.643  -0.996   2.913  1.00  0.00     0.014 C 
ENDBRANCH  12  15
ENDBRANCH   6  11
ENDBRANCH   5   6
BRANCH   5  21
HETATM   21  C14 UNL     1      -1.265  -3.022   0.136  1.00  0.00     0.258 C 
HETATM   22  O2  UNL     1      -0.566  -3.175   1.107  1.00  0.00    -0.305 OA
ENDBRANCH   5  21
ENDBRANCH   1   5
BRANCH   3  23
HETATM   23  C16 UNL     1       0.988   1.125   0.350  1.00  0.00     0.107 C 
BRANCH  23  24
HETATM   24  C17 UNL     1       2.046   1.810  -0.445  1.00  0.00    -0.006 C 
HETATM   25  C18 UNL     1       2.697   2.873   0.439  1.00  0.00     0.005 C 
HETATM   26  C19 UNL     1       3.909   2.241   1.091  1.00  0.00     0.006 C 
HETATM   27  C20 UNL     1       5.036   2.144   0.037  1.00  0.00     0.004 C 
HETATM   28  C26 UNL     1       4.432   1.543  -1.164  1.00  0.00     0.006 C 
HETATM   29  C27 UNL     1       3.104   0.810  -0.875  1.00  0.00     0.005 C 
BRANCH  27  30
HETATM   30  C21 UNL     1       6.186   1.511   0.704  1.00  0.00     0.134 C 
BRANCH  30  31
HETATM   31  N3  UNL     1       7.368   1.285  -0.042  1.00  0.00    -0.311 N 
HETATM   32  C22 UNL     1       8.423   2.278  -0.278  1.00  0.00     0.363 C 
HETATM   33  O4  UNL     1       8.649   3.186   0.542  1.00  0.00    -0.238 OA
HETATM   34  O5  UNL     1       8.971   1.923  -1.494  1.00  0.00    -0.301 OA
HETATM   35  C23 UNL     1       8.311   0.749  -2.025  1.00  0.00     0.217 C 
HETATM   36  C24 UNL     1       7.882   0.129  -0.688  1.00  0.00     0.214 C 
BRANCH  36  37
HETATM   37  C25 UNL     1       7.179  -1.106  -0.763  1.00  0.00     0.199 C 
HETATM   38  O6  UNL     1       7.607  -2.047  -1.527  1.00  0.00    -0.646 OA
HETATM   39  O7  UNL     1       6.036  -1.410  -0.068  1.00  0.00    -0.646 OA
ENDBRANCH  36  37
ENDBRANCH  30  31
ENDBRANCH  27  30
ENDBRANCH  23  24
ENDBRANCH   3  23
TORSDOF 12
