REMARK  15 active torsions:
REMARK  status: ('A' for Active; 'I' for Inactive)
REMARK    1  A    between atoms: C2_2  and  C3_4 
REMARK    2  A    between atoms: C7_8  and  C8_9 
REMARK       I    between atoms: C8_9  and  N1_11 
REMARK    3  A    between atoms: N1_11  and  C9_13 
REMARK    4  A    between atoms: C9_13  and  C10_14 
REMARK    5  A    between atoms: C9_13  and  C14_18 
REMARK    6  A    between atoms: C10_14  and  C11_15 
REMARK    7  A    between atoms: C14_18  and  O3_19 
REMARK    8  A    between atoms: C14_18  and  C15_21 
REMARK       I    between atoms: C15_21  and  N2_23 
REMARK    9  A    between atoms: N2_23  and  C16_25 
REMARK   10  A    between atoms: C16_25  and  C17_26 
REMARK   11  A    between atoms: C16_25  and  C21_30 
REMARK   12  A    between atoms: C17_26  and  C18_27 
REMARK   13  A    between atoms: C21_30  and  C22_32 
REMARK       I    between atoms: C22_32  and  N3_34 
REMARK   14  A    between atoms: N3_34  and  C23_36 
REMARK   15  A    between atoms: C23_36  and  C24_37 
ROOT
HETATM    1  C14 UNL     1       1.521   0.964  -0.359  1.00  0.00     0.134 C 
ENDROOT
BRANCH   1   2
HETATM    2  C9  UNL     1       2.721   1.164   0.513  1.00  0.00     0.147 C 
BRANCH   2   3
HETATM    3  N1  UNL     1       3.459  -0.086   0.576  1.00  0.00    -0.350 N 
HETATM    4  C8  UNL     1       4.647  -0.342  -0.146  1.00  0.00     0.223 C 
HETATM    5  O2  UNL     1       5.127   0.533  -0.894  1.00  0.00    -0.273 OA
ATOM      6  H1  UNL     1       3.097  -0.825   1.179  1.00  0.00     0.163 HD
BRANCH   4   7
HETATM    7  C7  UNL     1       5.312  -1.644  -0.007  1.00  0.00     0.089 C 
HETATM    8  C3  UNL     1       6.432  -1.903  -0.953  1.00  0.00     0.068 C 
HETATM    9  C4  UNL     1       6.530  -3.421  -0.940  1.00  0.00     0.013 C 
HETATM   10  C5  UNL     1       5.172  -3.952  -0.565  1.00  0.00     0.002 C 
HETATM   11  C6  UNL     1       4.316  -2.775  -0.181  1.00  0.00     0.015 C 
BRANCH   8  12
HETATM   12  C2  UNL     1       6.271  -1.371  -2.309  1.00  0.00     0.128 C 
HETATM   13  C1  UNL     1       5.130  -1.783  -3.157  1.00  0.00     0.091 C 
HETATM   14  O1  UNL     1       7.079  -0.580  -2.755  1.00  0.00    -0.298 OA
ENDBRANCH   8  12
ENDBRANCH   4   7
ENDBRANCH   2   3
BRANCH   2  15
HETATM   15  C10 UNL     1       2.400   1.827   1.777  1.00  0.00     0.036 C 
BRANCH  15  16
HETATM   16  C11 UNL     1       3.543   2.213   2.672  1.00  0.00    -0.020 C 
HETATM   17  C12 UNL     1       4.391   1.080   3.167  1.00  0.00     0.009 C 
HETATM   18  C13 UNL     1       2.920   2.883   3.908  1.00  0.00     0.009 C 
ENDBRANCH  15  16
ENDBRANCH   2  15
ENDBRANCH   1   2
BRANCH   1  19
HETATM   19  O3  UNL     1       1.713   0.263  -1.440  1.00  0.00    -0.358 OA
ATOM     20  H3  UNL     1       0.951   0.136  -1.993  1.00  0.00     0.217 HD
ENDBRANCH   1  19
BRANCH   1  21
HETATM   21  C15 UNL     1       0.191   1.441  -0.157  1.00  0.00     0.273 C 
HETATM   22  O4  UNL     1      -0.136   2.076   0.868  1.00  0.00    -0.266 OA
HETATM   23  N2  UNL     1      -0.823   1.207  -1.122  1.00  0.00    -0.344 N 
ATOM     24  H2  UNL     1      -0.589   0.696  -1.973  1.00  0.00     0.163 HD
BRANCH  23  25
HETATM   25  C16 UNL     1      -2.218   1.687  -0.925  1.00  0.00     0.165 C 
BRANCH  25  26
HETATM   26  C17 UNL     1      -2.391   2.693  -2.016  1.00  0.00     0.037 C 
BRANCH  26  27
HETATM   27  C18 UNL     1      -3.643   3.414  -2.171  1.00  0.00    -0.020 C 
HETATM   28  C19 UNL     1      -4.902   2.708  -2.434  1.00  0.00     0.009 C 
HETATM   29  C20 UNL     1      -3.471   4.470  -3.282  1.00  0.00     0.009 C 
ENDBRANCH  26  27
ENDBRANCH  25  26
BRANCH  25  30
HETATM   30  C21 UNL     1      -3.019   0.455  -1.084  1.00  0.00     0.239 C 
HETATM   31  O5  UNL     1      -2.747  -0.380  -1.964  1.00  0.00    -0.285 OA
BRANCH  30  32
HETATM   32  C22 UNL     1      -4.160   0.182  -0.196  1.00  0.00     0.293 C 
HETATM   33  O6  UNL     1      -4.392   1.039   0.701  1.00  0.00    -0.264 OA
HETATM   34  N3  UNL     1      -4.919  -0.989  -0.380  1.00  0.00    -0.333 N 
ATOM     35  H3  UNL     1      -4.602  -1.560  -1.164  1.00  0.00     0.168 HD
BRANCH  34  36
HETATM   36  C23 UNL     1      -6.025  -1.532   0.296  1.00  0.00     0.072 C 
BRANCH  36  37
HETATM   37  C24 UNL     1      -5.891  -1.999   1.699  1.00  0.00    -0.019 C 
HETATM   38  C25 UNL     1      -7.267  -2.575   2.133  1.00  0.00     0.020 C 
HETATM   39  C26 UNL     1      -4.917  -3.176   1.812  1.00  0.00     0.020 C 
HETATM   40  C27 UNL     1      -5.587  -0.949   2.711  1.00  0.00     0.020 C 
ENDBRANCH  36  37
ENDBRANCH  34  36
ENDBRANCH  30  32
ENDBRANCH  25  30
ENDBRANCH  23  25
ENDBRANCH   1  21
TORSDOF 15
