REMARK  13 active torsions:
REMARK  status: ('A' for Active; 'I' for Inactive)
REMARK    1  A    between atoms: C2_2  and  O1_3 
REMARK    2  A    between atoms: O1_3  and  C3_4 
REMARK    3  A    between atoms: C3_4  and  C4_6 
REMARK    4  A    between atoms: C4_6  and  C5_7 
REMARK    5  A    between atoms: C4_6  and  N1_19 
REMARK    6  A    between atoms: C5_7  and  S1_8 
REMARK    7  A    between atoms: S1_8  and  C6_9 
REMARK    8  A    between atoms: C6_9  and  C7_10 
REMARK       I    between atoms: N1_19  and  C16_21 
REMARK    9  A    between atoms: C16_21  and  C17_23 
REMARK   10  A    between atoms: C17_23  and  N2_24 
REMARK   11  A    between atoms: C17_23  and  C19_32 
REMARK   12  A    between atoms: N2_24  and  S2_26 
REMARK   13  A    between atoms: S2_26  and  N3_29 
ROOT
HETATM    1  N1  UNL     1      -1.884   0.902   1.111  1.00  0.00    -0.345 N 
ATOM      2  H1  UNL     1      -2.464   1.172   1.905  1.00  0.00     0.163 HD
HETATM    3  C16 UNL     1      -2.525   0.290   0.020  1.00  0.00     0.242 C 
HETATM    4  O3  UNL     1      -1.824  -0.081  -0.962  1.00  0.00    -0.271 OA
ENDROOT
BRANCH   1   5
HETATM    5  C4  UNL     1      -0.492   1.174   1.196  1.00  0.00     0.193 C 
BRANCH   5   6
HETATM    6  C3  UNL     1      -0.135   2.253   2.121  1.00  0.00     0.282 C 
HETATM    7  O2  UNL     1      -0.988   3.126   2.425  1.00  0.00    -0.263 OA
BRANCH   6   8
HETATM    8  O1  UNL     1       1.134   2.367   2.710  1.00  0.00    -0.320 OA
BRANCH   8   9
HETATM    9  C2  UNL     1       1.482   3.381   3.613  1.00  0.00     0.174 C 
HETATM   10  C1  UNL     1       0.612   3.384   4.858  1.00  0.00     0.034 C 
ENDBRANCH   8   9
ENDBRANCH   6   8
ENDBRANCH   5   6
BRANCH   5  11
HETATM   11  C5  UNL     1       0.274  -0.112   1.569  1.00  0.00     0.109 C 
BRANCH  11  12
HETATM   12  S1  UNL     1       2.062   0.269   1.417  1.00  0.00    -0.166 SA
BRANCH  12  13
HETATM   13  C6  UNL     1       2.902  -0.969   0.421  1.00  0.00     0.079 C 
BRANCH  13  14
HETATM   14  C7  UNL     1       4.321  -0.540   0.125  1.00  0.00    -0.001 C 
HETATM   15  C8  UNL     1       4.334   0.728  -0.688  1.00  0.00     0.006 C 
HETATM   16  C9  UNL     1       5.444   0.810  -1.697  1.00  0.00     0.000 C 
HETATM   17  C10 UNL     1       6.826   0.742  -1.142  1.00  0.00     0.000 C 
HETATM   18  C11 UNL     1       7.352  -0.678  -1.102  1.00  0.00     0.005 C 
HETATM   19  C12 UNL     1       6.605  -1.377   0.010  1.00  0.00    -0.010 C 
HETATM   20  C13 UNL     1       6.724  -2.886   0.000  1.00  0.00     0.005 C 
HETATM   21  C15 UNL     1       5.178  -1.567  -0.499  1.00  0.00    -0.006 C 
HETATM   22  C14 UNL     1       5.228  -2.911   0.211  1.00  0.00     0.006 C 
ENDBRANCH  13  14
ENDBRANCH  12  13
ENDBRANCH  11  12
ENDBRANCH   5  11
ENDBRANCH   1   5
BRANCH   3  23
HETATM   23  C17 UNL     1      -4.000   0.046  -0.066  1.00  0.00     0.190 C 
BRANCH  23  24
HETATM   24  N2  UNL     1      -4.188  -1.187  -0.775  1.00  0.00    -0.289 N 
ATOM     25  H2  UNL     1      -3.904  -1.302  -1.748  1.00  0.00     0.174 HD
BRANCH  24  26
HETATM   26  S2  UNL     1      -4.915  -2.445   0.109  1.00  0.00     0.315 S 
HETATM   27  O4  UNL     1      -5.891  -3.246  -0.740  1.00  0.00    -0.183 OA
HETATM   28  O5  UNL     1      -5.730  -1.908   1.270  1.00  0.00    -0.183 OA
BRANCH  26  29
HETATM   29  N3  UNL     1      -3.787  -3.550   0.795  1.00  0.00    -0.307 N 
HETATM   30  C18 UNL     1      -3.607  -4.727   0.020  1.00  0.00     0.161 C 
ATOM     31  H3  UNL     1      -3.296  -3.377   1.672  1.00  0.00     0.173 HD
ENDBRANCH  26  29
ENDBRANCH  24  26
ENDBRANCH  23  24
BRANCH  23  32
HETATM   32  C19 UNL     1      -4.674   1.215  -0.736  1.00  0.00     0.018 C 
HETATM   33  C20 UNL     1      -6.140   1.034  -0.833  1.00  0.00     0.007 C 
HETATM   34  C21 UNL     1      -6.672   0.481  -2.120  1.00  0.00     0.000 C 
HETATM   35  C22 UNL     1      -6.376   1.429  -3.241  1.00  0.00     0.000 C 
HETATM   36  C23 UNL     1      -5.160   2.232  -2.907  1.00  0.00     0.000 C 
HETATM   37  C24 UNL     1      -4.122   1.468  -2.120  1.00  0.00     0.007 C 
ENDBRANCH  23  32
ENDBRANCH   3  23
TORSDOF 13
