REMARK  14 active torsions:
REMARK  status: ('A' for Active; 'I' for Inactive)
REMARK    1  A    between atoms: C2_2  and  C3_3 
REMARK    2  A    between atoms: C3_3  and  C5_5 
REMARK    3  A    between atoms: C5_5  and  C6_6 
REMARK    4  A    between atoms: C6_6  and  C7_7 
REMARK    5  A    between atoms: C6_6  and  N2_19 
REMARK    6  A    between atoms: C7_7  and  C8_8 
REMARK    7  A    between atoms: C8_8  and  N1_10 
REMARK       I    between atoms: N1_10  and  C10_12 
REMARK    8  A    between atoms: C10_12  and  O2_14 
REMARK    9  A    between atoms: O2_14  and  C11_15 
REMARK       I    between atoms: N2_19  and  C14_21 
REMARK   10  A    between atoms: C14_21  and  C15_23 
REMARK       I    between atoms: N3_28  and  C20_29 
REMARK   11  A    between atoms: C20_29  and  C21_31 
REMARK   12  A    between atoms: C21_31  and  N4_32 
REMARK   13  A    between atoms: C21_31  and  C22_36 
REMARK   14  A    between atoms: C22_36  and  C23_37 
ROOT
HETATM    1  N2  UNL     1       1.450  -2.163   0.894  1.00  0.00    -0.355 N 
ATOM      2  H2  UNL     1       1.465  -3.097   1.303  1.00  0.00     0.162 HD
HETATM    3  C14 UNL     1       0.195  -1.562   0.545  1.00  0.00     0.241 C 
HETATM    4  O4  UNL     1       0.166  -0.417   0.044  1.00  0.00    -0.271 OA
ENDROOT
BRANCH   3   5
HETATM    5  C15 UNL     1      -1.072  -2.299   0.781  1.00  0.00     0.179 C 
HETATM    6  C16 UNL     1      -1.079  -3.603   0.061  1.00  0.00     0.035 C 
HETATM    7  C17 UNL     1      -1.065  -3.344  -1.432  1.00  0.00     0.004 C 
HETATM    8  C18 UNL     1      -2.251  -2.543  -1.856  1.00  0.00     0.020 C 
HETATM    9  C19 UNL     1      -2.434  -1.282  -1.030  1.00  0.00     0.127 C 
HETATM   10  N3  UNL     1      -2.206  -1.492   0.366  1.00  0.00    -0.337 N 
HETATM   11  C20 UNL     1      -3.042  -0.961   1.353  1.00  0.00     0.251 C 
HETATM   12  O5  UNL     1      -2.824  -1.202   2.580  1.00  0.00    -0.271 OA
BRANCH  11  13
HETATM   13  C21 UNL     1      -4.201  -0.110   1.033  1.00  0.00     0.275 C 
BRANCH  13  14
HETATM   14  N4  UNL     1      -5.060   0.069   2.212  1.00  0.00    -0.066 N 
ATOM     15  H43 UNL     1      -5.347  -0.826   2.609  1.00  0.00     0.275 HD
ATOM     16  H42 UNL     1      -4.536   0.430   3.009  1.00  0.00     0.275 HD
ATOM     17  H41 UNL     1      -5.863   0.658   1.990  1.00  0.00     0.275 HD
ENDBRANCH  13  14
BRANCH  13  18
HETATM   18  C22 UNL     1      -3.744   1.282   0.579  1.00  0.00     0.047 C 
BRANCH  18  19
HETATM   19  C23 UNL     1      -4.994   2.092   0.272  1.00  0.00    -0.012 C 
HETATM   20  C24 UNL     1      -5.826   1.455  -0.820  1.00  0.00     0.005 C 
HETATM   21  C25 UNL     1      -6.208   2.487  -1.865  1.00  0.00     0.000 C 
HETATM   22  C26 UNL     1      -6.761   3.746  -1.287  1.00  0.00     0.000 C 
HETATM   23  C27 UNL     1      -5.885   4.297  -0.205  1.00  0.00     0.000 C 
HETATM   24  C28 UNL     1      -4.596   3.512  -0.152  1.00  0.00     0.005 C 
ENDBRANCH  18  19
ENDBRANCH  13  18
ENDBRANCH  11  13
ENDBRANCH   3   5
BRANCH   1  25
HETATM   25  C6  UNL     1       2.679  -1.467   0.675  1.00  0.00     0.087 C 
BRANCH  25  26
HETATM   26  C5  UNL     1       3.558  -2.027  -0.387  1.00  0.00     0.033 C 
BRANCH  26  27
HETATM   27  C3  UNL     1       4.333  -3.255  -0.058  1.00  0.00     0.005 C 
HETATM   28  C4  UNL     1       3.544  -4.439   0.385  1.00  0.00     0.014 C 
BRANCH  27  29
HETATM   29  C2  UNL     1       5.118  -3.609  -1.271  1.00  0.00    -0.033 C 
HETATM   30  C1  UNL     1       4.958  -4.746  -1.913  1.00  0.00     0.007 C 
ENDBRANCH  27  29
ENDBRANCH  26  27
ENDBRANCH  25  26
BRANCH  25  31
HETATM   31  C7  UNL     1       3.392  -1.092   1.945  1.00  0.00     0.050 C 
BRANCH  31  32
HETATM   32  C8  UNL     1       4.442  -0.049   1.727  1.00  0.00     0.084 C 
HETATM   33  C9  UNL     1       5.148   0.303   3.039  1.00  0.00     0.032 C 
BRANCH  32  34
HETATM   34  N1  UNL     1       3.844   1.187   1.269  1.00  0.00    -0.333 N 
HETATM   35  C10 UNL     1       4.265   1.886   0.113  1.00  0.00     0.361 C 
HETATM   36  O1  UNL     1       5.219   1.464  -0.614  1.00  0.00    -0.238 OA
ATOM     37  H1  UNL     1       3.074   1.577   1.812  1.00  0.00     0.165 HD
BRANCH  35  38
HETATM   38  O2  UNL     1       3.679   3.068  -0.310  1.00  0.00    -0.294 OA
BRANCH  38  39
HETATM   39  C11 UNL     1       4.120   3.735  -1.458  1.00  0.00     0.181 C 
HETATM   40  C12 UNL     1       4.545   5.160  -1.076  1.00  0.00     0.202 C 
HETATM   41  O3  UNL     1       3.245   5.571  -1.364  1.00  0.00    -0.386 OA
HETATM   42  C13 UNL     1       3.127   4.519  -2.239  1.00  0.00     0.202 C 
ENDBRANCH  38  39
ENDBRANCH  35  38
ENDBRANCH  32  34
ENDBRANCH  31  32
ENDBRANCH  25  31
ENDBRANCH   1  25
TORSDOF 14
