REMARK  14 active torsions:
REMARK  status: ('A' for Active; 'I' for Inactive)
REMARK    1  A    between atoms: C2_2  and  O1_3 
REMARK    2  A    between atoms: O1_3  and  C3_4 
REMARK    3  A    between atoms: C3_4  and  C4_6 
REMARK    4  A    between atoms: C6_8  and  C7_9 
REMARK    5  A    between atoms: C7_9  and  C8_11 
REMARK    6  A    between atoms: C8_11  and  C9_12 
REMARK    7  A    between atoms: C8_11  and  N1_18 
REMARK    8  A    between atoms: C9_12  and  C10_13 
REMARK       I    between atoms: N1_18  and  C15_20 
REMARK    9  A    between atoms: C15_20  and  C16_22 
REMARK       I    between atoms: N2_26  and  C20_27 
REMARK   10  A    between atoms: C20_27  and  C21_29 
REMARK   11  A    between atoms: C21_29  and  N3_30 
REMARK   12  A    between atoms: N3_30  and  C22_32 
REMARK   13  A    between atoms: C22_32  and  O6_33 
REMARK   14  A    between atoms: C22_32  and  C23_35 
ROOT
HETATM    1  N1  UNL     1       1.551  -1.518  -0.527  1.00  0.00    -0.348 N 
ATOM      2  H1  UNL     1       1.480  -2.496  -0.247  1.00  0.00     0.163 HD
HETATM    3  C15 UNL     1       0.384  -0.874  -1.040  1.00  0.00     0.241 C 
HETATM    4  O4  UNL     1       0.457   0.323  -1.389  1.00  0.00    -0.271 OA
ENDROOT
BRANCH   3   5
HETATM    5  C16 UNL     1      -0.844  -1.699  -1.114  1.00  0.00     0.179 C 
HETATM    6  C17 UNL     1      -0.870  -2.420  -2.466  1.00  0.00     0.037 C 
HETATM    7  C18 UNL     1      -2.303  -2.838  -2.575  1.00  0.00     0.022 C 
HETATM    8  C19 UNL     1      -3.078  -1.917  -1.682  1.00  0.00     0.127 C 
HETATM    9  N2  UNL     1      -2.092  -1.051  -1.050  1.00  0.00    -0.337 N 
HETATM   10  C20 UNL     1      -2.460   0.162  -0.471  1.00  0.00     0.237 C 
HETATM   11  O5  UNL     1      -1.688   0.901   0.130  1.00  0.00    -0.272 OA
BRANCH  10  12
HETATM   12  C21 UNL     1      -3.905   0.613  -0.578  1.00  0.00     0.219 C 
BRANCH  12  13
HETATM   13  N3  UNL     1      -4.076   1.861   0.059  1.00  0.00    -0.388 N 
ATOM     14  H3  UNL     1      -3.282   2.284   0.539  1.00  0.00     0.156 HD
BRANCH  13  15
HETATM   15  C22 UNL     1      -5.306   2.537   0.051  1.00  0.00     0.217 C 
BRANCH  15  16
HETATM   16  O6  UNL     1      -5.149   3.890   0.500  1.00  0.00    -0.377 OA
ATOM     17  H6  UNL     1      -5.982   4.348   0.495  1.00  0.00     0.212 HD
ENDBRANCH  15  16
BRANCH  15  18
HETATM   18  C23 UNL     1      -6.469   1.912   0.752  1.00  0.00     0.034 C 
HETATM   19  C24 UNL     1      -7.679   2.882   0.623  1.00  0.00     0.009 C 
HETATM   20  C25 UNL     1      -8.690   2.449   1.672  1.00  0.00     0.001 C 
HETATM   21  C26 UNL     1      -9.103   0.998   1.415  1.00  0.00     0.000 C 
HETATM   22  C27 UNL     1      -8.472   0.496   0.153  1.00  0.00     0.001 C 
HETATM   23  C28 UNL     1      -6.957   0.633   0.141  1.00  0.00     0.009 C 
ENDBRANCH  15  18
ENDBRANCH  13  15
ENDBRANCH  12  13
ENDBRANCH  10  12
ENDBRANCH   3   5
BRANCH   1  24
HETATM   24  C8  UNL     1       2.833  -0.853  -0.383  1.00  0.00     0.155 C 
BRANCH  24  25
HETATM   25  C7  UNL     1       3.897  -1.593  -1.124  1.00  0.00     0.154 C 
HETATM   26  O3  UNL     1       3.600  -2.605  -1.722  1.00  0.00    -0.295 OA
BRANCH  25  27
HETATM   27  C6  UNL     1       5.312  -1.164  -1.174  1.00  0.00     0.072 A 
HETATM   28  C4  UNL     1       6.421  -2.147  -1.216  1.00  0.00     0.097 A 
HETATM   29  C5  UNL     1       6.001  -1.428  -2.482  1.00  0.00     0.028 A 
BRANCH  28  30
HETATM   30  C3  UNL     1       7.709  -1.673  -0.624  1.00  0.00     0.263 C 
HETATM   31  O2  UNL     1       8.507  -2.459  -0.063  1.00  0.00    -0.265 OA
BRANCH  30  32
HETATM   32  O1  UNL     1       8.079  -0.322  -0.672  1.00  0.00    -0.322 OA
BRANCH  32  33
HETATM   33  C2  UNL     1       9.318   0.097  -0.094  1.00  0.00     0.174 C 
HETATM   34  C1  UNL     1      10.422  -0.649  -0.807  1.00  0.00     0.034 C 
ENDBRANCH  32  33
ENDBRANCH  30  32
ENDBRANCH  28  30
ENDBRANCH  25  27
ENDBRANCH  24  25
BRANCH  24  35
HETATM   35  C9  UNL     1       3.259  -0.857   1.074  1.00  0.00     0.037 C 
BRANCH  35  36
HETATM   36  C10 UNL     1       2.322  -0.153   1.992  1.00  0.00    -0.012 C 
HETATM   37  C11 UNL     1       2.133   1.302   1.691  1.00  0.00     0.005 C 
HETATM   38  C12 UNL     1       3.311   1.993   2.358  1.00  0.00     0.000 C 
HETATM   39  C13 UNL     1       3.968   0.978   3.244  1.00  0.00     0.000 C 
HETATM   40  C14 UNL     1       2.935  -0.142   3.376  1.00  0.00     0.005 C 
ENDBRANCH  35  36
ENDBRANCH  24  35
ENDBRANCH   1  24
TORSDOF 14
