REMARK  6 active torsions:
REMARK  status: ('A' for Active; 'I' for Inactive)
REMARK    1  A    between atoms: N3_4  and  C2_6 
REMARK    2  A    between atoms: C2_6  and  C3_7 
REMARK    3  A    between atoms: C3_7  and  C4_8 
REMARK    4  A    between atoms: C4_8  and  C5_9 
REMARK    5  A    between atoms: C5_9  and  C6_10 
REMARK    6  A    between atoms: C6_10  and  N4_11 
ROOT
HETATM    1  N4  UNL     1      -1.278  -0.183  -0.043  1.00  0.00    -0.373 N 
HETATM    2  C7  UNL     1      -1.427  -1.559   0.146  1.00  0.00     0.063 C 
HETATM    3  C8  UNL     1      -2.779  -1.889   0.723  1.00  0.00     0.046 C 
HETATM    4  C9  UNL     1      -3.801  -0.845   0.630  1.00  0.00     0.018 C 
HETATM    5  C10 UNL     1      -3.557   0.342  -0.207  1.00  0.00     0.001 C 
HETATM    6  C11 UNL     1      -3.649   1.640   0.589  1.00  0.00     0.134 C 
HETATM    7  N5  UNL     1      -5.055   1.821   0.739  1.00  0.00    -0.360 N 
ATOM      8  H5  UNL     1      -5.509   2.327   1.500  1.00  0.00     0.162 HD
HETATM    9  C12 UNL     1      -5.721   1.186  -0.338  1.00  0.00     0.218 C 
HETATM   10  O1  UNL     1      -6.959   1.138  -0.551  1.00  0.00    -0.274 OA
HETATM   11  C13 UNL     1      -4.694   0.556  -1.217  1.00  0.00     0.115 C 
HETATM   12  C14 UNL     1      -2.232   0.383  -0.926  1.00  0.00     0.138 C 
ENDROOT
BRANCH   1  13
HETATM   13  C6  UNL     1      -0.196   0.544   0.368  1.00  0.00     0.063 C 
BRANCH  13  14
HETATM   14  C5  UNL     1       1.138   0.393  -0.286  1.00  0.00     0.044 C 
BRANCH  14  15
HETATM   15  C4  UNL     1       1.691  -0.984  -0.226  1.00  0.00     0.007 C 
BRANCH  15  16
HETATM   16  C3  UNL     1       3.069  -1.074  -0.859  1.00  0.00     0.020 C 
BRANCH  16  17
HETATM   17  C2  UNL     1       4.042  -0.169  -0.144  1.00  0.00     0.122 C 
BRANCH  17  18
HETATM   18  N3  UNL     1       5.364  -0.280  -0.740  1.00  0.00    -0.367 N 
HETATM   19  C1  UNL     1       6.351   0.196  -0.089  1.00  0.00     0.196 C 
HETATM   20  N1  UNL     1       7.654   0.106  -0.637  1.00  0.00    -0.067 NA
HETATM   21  N2  UNL     1       6.161   0.794   1.168  1.00  0.00    -0.067 NA
ATOM     22  H3  UNL     1       5.497  -0.724  -1.649  1.00  0.00     0.161 HD
ENDBRANCH  17  18
ENDBRANCH  16  17
ENDBRANCH  15  16
ENDBRANCH  14  15
ENDBRANCH  13  14
ENDBRANCH   1  13
TORSDOF 6
