REMARK  9 active torsions:
REMARK  status: ('A' for Active; 'I' for Inactive)
REMARK    1  A    between atoms: N1_1  and  C1_4 
REMARK    2  A    between atoms: C4_9  and  N3_10 
REMARK    3  A    between atoms: N3_10  and  C5_12 
REMARK    4  A    between atoms: C5_12  and  C6_13 
REMARK    5  A    between atoms: C6_13  and  C7_14 
REMARK    6  A    between atoms: C7_14  and  N4_15 
REMARK    7  A    between atoms: C11_19  and  C12_20 
REMARK    8  A    between atoms: C12_20  and  C13_21 
REMARK    9  A    between atoms: C13_21  and  O1_22 
ROOT
HETATM    1  N3  UNL     1       2.385   0.002  -0.166  1.00  0.00    -0.376 N 
ATOM      2  H3  UNL     1       2.047  -0.654  -0.870  1.00  0.00     0.161 HD
ENDROOT
BRANCH   1   3
HETATM    3  C4  UNL     1       3.578  -0.163   0.239  1.00  0.00     0.100 C 
HETATM    4  N2  UNL     1       4.069   0.683   1.172  1.00  0.00    -0.353 N 
HETATM    5  C3  UNL     1       4.954   0.448   2.153  1.00  0.00     0.092 C 
ATOM      6  H2  UNL     1       3.716   1.639   1.123  1.00  0.00     0.166 HD
HETATM    7  C2  UNL     1       5.843  -0.627   2.253  1.00  0.00     0.046 C 
HETATM    8  C1  UNL     1       5.994  -1.698   1.397  1.00  0.00     0.027 C 
HETATM    9  C16 UNL     1       5.382  -1.871   0.170  1.00  0.00     0.033 C 
HETATM   10  C15 UNL     1       4.251  -1.234  -0.354  1.00  0.00     0.050 C 
BRANCH   8  11
HETATM   11  N1  UNL     1       6.788  -2.599   1.821  1.00  0.00    -0.399 N 
ATOM     12  H12 UNL     1       7.240  -2.471   2.727  1.00  0.00     0.156 HD
ATOM     13  H11 UNL     1       6.900  -3.391   1.188  1.00  0.00     0.156 HD
ENDBRANCH   8  11
ENDBRANCH   1   3
BRANCH   1  14
HETATM   14  C5  UNL     1       1.468   1.008   0.260  1.00  0.00     0.123 C 
BRANCH  14  15
HETATM   15  C6  UNL     1       0.034   0.583   0.222  1.00  0.00     0.040 C 
BRANCH  15  16
HETATM   16  C7  UNL     1      -0.432   0.189  -1.155  1.00  0.00     0.129 C 
BRANCH  16  17
HETATM   17  N4  UNL     1      -1.826  -0.209  -1.111  1.00  0.00    -0.366 N 
HETATM   18  C8  UNL     1      -2.180  -1.500  -0.883  1.00  0.00     0.090 A 
HETATM   19  C9  UNL     1      -3.495  -1.884  -0.839  1.00  0.00     0.018 A 
HETATM   20  C10 UNL     1      -4.482  -0.950  -1.030  1.00  0.00     0.010 A 
HETATM   21  C11 UNL     1      -4.151   0.367  -1.263  1.00  0.00    -0.041 A 
HETATM   22  C14 UNL     1      -2.816   0.702  -1.297  1.00  0.00     0.097 A 
BRANCH  21  23
HETATM   23  C12 UNL     1      -5.258   1.330  -1.461  1.00  0.00     0.066 C 
BRANCH  23  24
HETATM   24  C13 UNL     1      -5.703   1.947  -0.148  1.00  0.00     0.168 C 
BRANCH  24  25
HETATM   25  O1  UNL     1      -6.139   0.933   0.699  1.00  0.00    -0.401 OA
ATOM     26  H1  UNL     1      -6.418   1.319   1.521  1.00  0.00     0.209 HD
ENDBRANCH  24  25
ENDBRANCH  23  24
ENDBRANCH  21  23
ENDBRANCH  16  17
ENDBRANCH  15  16
ENDBRANCH  14  15
ENDBRANCH   1  14
TORSDOF 9
