REMARK  14 active torsions:
REMARK  status: ('A' for Active; 'I' for Inactive)
REMARK       I    between atoms: C2_2  and  N1_4 
REMARK    1  A    between atoms: N1_4  and  C3_6 
REMARK    2  A    between atoms: C4_7  and  O2_8 
REMARK    3  A    between atoms: C5_10  and  N2_11 
REMARK    4  A    between atoms: N2_11  and  C6_12 
REMARK    5  A    between atoms: N2_11  and  C7_14 
REMARK       I    between atoms: N3_15  and  C8_17 
REMARK       I    between atoms: C8_17  and  N4_18 
REMARK       I    between atoms: C8_17  and  N5_22 
REMARK    6  A    between atoms: C10_27  and  O4_28 
REMARK    7  A    between atoms: C11_30  and  N6_31 
REMARK       I    between atoms: N6_31  and  C12_33 
REMARK    8  A    between atoms: N7_36  and  C14_37 
REMARK    9  A    between atoms: C14_37  and  O6_38 
REMARK   10  A    between atoms: C14_37  and  C15_40 
REMARK   11  A    between atoms: C15_40  and  N8_41 
REMARK   12  A    between atoms: C15_40  and  C16_45 
REMARK   13  A    between atoms: C16_45  and  O7_46 
REMARK   14  A    between atoms: C18_49  and  O8_50 
ROOT
HETATM    1  C3  UNL     1       0.619   2.554   0.270  1.00  0.00     0.106 A 
HETATM    2  C4  UNL     1       1.681   1.708   0.219  1.00  0.00     0.124 A 
HETATM    3  C5  UNL     1       1.530   0.358  -0.088  1.00  0.00     0.093 A 
HETATM    4  C9  UNL     1       0.286  -0.155  -0.349  1.00  0.00     0.061 A 
HETATM    5  C10 UNL     1      -0.176  -1.415  -0.678  1.00  0.00     0.125 A 
HETATM    6  C11 UNL     1      -1.560  -1.351  -0.835  1.00  0.00     0.147 A 
HETATM    7  N7  UNL     1      -1.924  -0.075  -0.604  1.00  0.00    -0.298 N 
HETATM    8  C17 UNL     1      -0.847   0.686  -0.308  1.00  0.00     0.089 A 
HETATM    9  C18 UNL     1      -0.641   2.008  -0.000  1.00  0.00     0.123 A 
ENDROOT
BRANCH   3  10
HETATM   10  N2  UNL     1       2.689  -0.472  -0.123  1.00  0.00    -0.282 N 
BRANCH  10  11
HETATM   11  C6  UNL     1       3.062  -1.081   1.080  1.00  0.00     0.361 C 
HETATM   12  O3  UNL     1       2.418  -0.917   2.173  1.00  0.00    -0.283 OA
ENDBRANCH  10  11
BRANCH  10  13
HETATM   13  C7  UNL     1       3.454  -0.637  -1.301  1.00  0.00     0.189 C 
HETATM   14  N3  UNL     1       4.478  -1.270  -1.489  1.00  0.00    -0.337 N 
HETATM   15  C8  UNL     1       5.461  -2.079  -0.983  1.00  0.00     0.481 C 
ATOM     16  H3  UNL     1       4.709  -1.136  -2.473  1.00  0.00     0.164 HD
HETATM   17  N4  UNL     1       6.527  -1.398  -0.249  1.00  0.00    -0.033 N 
HETATM   18  N5  UNL     1       6.171  -2.724  -2.120  1.00  0.00    -0.033 N 
ATOM     19  H43 UNL     1       6.941  -0.670  -0.832  1.00  0.00     0.278 HD
ATOM     20  H42 UNL     1       6.127  -0.828   0.497  1.00  0.00     0.278 HD
ATOM     21  H41 UNL     1       7.259  -2.000   0.128  1.00  0.00     0.278 HD
ATOM     22  H53 UNL     1       5.538  -3.221  -2.746  1.00  0.00     0.278 HD
ATOM     23  H52 UNL     1       6.529  -2.047  -2.793  1.00  0.00     0.278 HD
ATOM     24  H51 UNL     1       6.903  -3.326  -1.743  1.00  0.00     0.278 HD
ENDBRANCH  10  13
ENDBRANCH   3  10
BRANCH   2  25
HETATM   25  O2  UNL     1       2.971   2.143   0.469  1.00  0.00    -0.356 OA
ATOM     26  H2  UNL     1       3.714   1.551   0.433  1.00  0.00     0.218 HD
ENDBRANCH   2  25
BRANCH   1  27
HETATM   27  N1  UNL     1       0.754   3.945   0.583  1.00  0.00    -0.323 N 
HETATM   28  C2  UNL     1       0.688   4.446   1.890  1.00  0.00     0.218 C 
HETATM   29  C1  UNL     1       0.836   5.901   2.141  1.00  0.00     0.117 C 
HETATM   30  O1  UNL     1       0.505   3.699   2.880  1.00  0.00    -0.274 OA
ATOM     31  H1  UNL     1       0.905   4.602  -0.182  1.00  0.00     0.169 HD
ENDBRANCH   1  27
BRANCH   5  32
HETATM   32  O4  UNL     1       0.560  -2.509  -0.824  1.00  0.00    -0.356 OA
ATOM     33  H4  UNL     1       0.242  -3.375  -1.050  1.00  0.00     0.218 HD
ENDBRANCH   5  32
BRANCH   9  34
HETATM   34  O8  UNL     1      -1.707   2.892   0.057  1.00  0.00    -0.356 OA
ATOM     35  H8  UNL     1      -2.562   2.521  -0.126  1.00  0.00     0.218 HD
ENDBRANCH   9  34
BRANCH   6  36
HETATM   36  N6  UNL     1      -2.482  -2.371  -1.171  1.00  0.00    -0.311 N 
HETATM   37  C12 UNL     1      -2.265  -3.723  -1.415  1.00  0.00     0.219 C 
HETATM   38  C13 UNL     1      -3.447  -4.601  -1.774  1.00  0.00     0.117 C 
HETATM   39  O5  UNL     1      -1.192  -4.310  -1.372  1.00  0.00    -0.274 OA
ATOM     40  H6  UNL     1      -3.453  -2.069  -1.246  1.00  0.00     0.170 HD
ENDBRANCH   6  36
BRANCH   7  41
HETATM   41  C14 UNL     1      -3.248   0.470  -0.639  1.00  0.00     0.259 C 
BRANCH  41  42
HETATM   42  O6  UNL     1      -3.882   0.040  -1.830  1.00  0.00    -0.374 OA
ATOM     43  H6  UNL     1      -4.760   0.402  -1.853  1.00  0.00     0.212 HD
ENDBRANCH  41  42
BRANCH  41  44
HETATM   44  C15 UNL     1      -4.088   0.029   0.530  1.00  0.00     0.255 C 
BRANCH  44  45
HETATM   45  N8  UNL     1      -5.425   0.607   0.474  1.00  0.00    -0.069 N 
ATOM     46  H83 UNL     1      -5.390   1.624   0.402  1.00  0.00     0.275 HD
ATOM     47  H82 UNL     1      -5.884   0.402  -0.414  1.00  0.00     0.275 HD
ATOM     48  H81 UNL     1      -5.994   0.308   1.266  1.00  0.00     0.275 HD
ENDBRANCH  44  45
BRANCH  44  49
HETATM   49  C16 UNL     1      -3.493   0.394   1.875  1.00  0.00     0.201 C 
BRANCH  49  50
HETATM   50  O7  UNL     1      -4.256  -0.103   2.917  1.00  0.00    -0.399 OA
ATOM     51  H7  UNL     1      -3.883   0.126   3.760  1.00  0.00     0.209 HD
ENDBRANCH  49  50
ENDBRANCH  44  49
ENDBRANCH  41  44
ENDBRANCH   7  41
TORSDOF 14
