REMARK  12 active torsions:
REMARK  status: ('A' for Active; 'I' for Inactive)
REMARK    1  A    between atoms: C4_9  and  N3_10 
REMARK    2  A    between atoms: N3_10  and  C5_12 
REMARK    3  A    between atoms: C5_12  and  C6_13 
REMARK    4  A    between atoms: C5_12  and  C7_16 
REMARK    5  A    between atoms: C6_13  and  O1_14 
REMARK    6  A    between atoms: N9_31  and  C11_32 
REMARK    7  A    between atoms: C11_32  and  C12_33 
REMARK    8  A    between atoms: C12_33  and  O2_34 
REMARK    9  A    between atoms: C12_33  and  C13_36 
REMARK   10  A    between atoms: C13_36  and  O3_37 
REMARK   11  A    between atoms: C14_39  and  N10_40 
REMARK   12  A    between atoms: N10_40  and  C15_42 
ROOT
HETATM    1  C5  UNL     1       0.178  -0.993  -0.913  1.00  0.00     0.158 C 
ENDROOT
BRANCH   1   2
HETATM    2  N3  UNL     1      -0.729   0.073  -1.121  1.00  0.00    -0.372 N 
ATOM      3  H3  UNL     1      -0.937   0.237  -2.106  1.00  0.00     0.160 HD
BRANCH   2   4
HETATM    4  C4  UNL     1      -1.399   0.947  -0.266  1.00  0.00     0.117 A 
HETATM    5  C3  UNL     1      -0.884   2.233  -0.071  1.00  0.00     0.131 A 
HETATM    6  N1  UNL     1      -1.482   3.119   0.777  1.00  0.00    -0.331 N 
HETATM    7  N2  UNL     1       0.137   2.697  -0.696  1.00  0.00    -0.383 N 
HETATM    8  C2  UNL     1      -2.587   2.815   1.464  1.00  0.00     0.080 A 
ATOM      9  H1  UNL     1      -1.071   4.046   0.890  1.00  0.00     0.168 HD
HETATM   10  C1  UNL     1      -3.216   3.823   2.395  1.00  0.00     0.089 C 
HETATM   11  N13 UNL     1      -3.103   1.606   1.299  1.00  0.00    -0.330 N 
HETATM   12  C14 UNL     1      -2.535   0.677   0.455  1.00  0.00     0.139 A 
ATOM     13  H13 UNL     1      -3.947   1.355   1.813  1.00  0.00     0.168 HD
ATOM     14  H22 UNL     1       0.512   3.635  -0.554  1.00  0.00     0.157 HD
ATOM     15  H21 UNL     1       0.584   2.035  -1.330  1.00  0.00     0.157 HD
BRANCH  12  16
HETATM   16  N10 UNL     1      -3.195  -0.575   0.331  1.00  0.00    -0.327 N 
ATOM     17  H10 UNL     1      -2.814  -1.409   0.777  1.00  0.00     0.169 HD
BRANCH  16  18
HETATM   18  C15 UNL     1      -4.281  -0.638  -0.353  1.00  0.00     0.108 A 
HETATM   19  C16 UNL     1      -4.938  -1.868  -0.477  1.00  0.00     0.075 A 
HETATM   20  C17 UNL     1      -6.102  -2.010  -1.191  1.00  0.00     0.051 A 
HETATM   21  N11 UNL     1      -6.767  -3.279  -1.315  1.00  0.00    -0.102 NA
HETATM   22  C18 UNL     1      -6.640  -0.888  -1.809  1.00  0.00     0.043 A 
HETATM   23  C19 UNL     1      -5.972   0.307  -1.670  1.00  0.00     0.091 A 
HETATM   24  N12 UNL     1      -4.829   0.423  -0.964  1.00  0.00    -0.352 N 
ATOM     25  H12 UNL     1      -4.373   1.333  -0.893  1.00  0.00     0.166 HD
ENDBRANCH  16  18
ENDBRANCH  12  16
ENDBRANCH   2   4
ENDBRANCH   1   2
BRANCH   1  26
HETATM   26  C6  UNL     1      -0.511  -2.293  -0.498  1.00  0.00     0.195 C 
BRANCH  26  27
HETATM   27  O1  UNL     1      -1.341  -2.664  -1.558  1.00  0.00    -0.398 OA
ATOM     28  H1  UNL     1      -1.769  -3.472  -1.300  1.00  0.00     0.209 HD
ENDBRANCH  26  27
ENDBRANCH   1  26
BRANCH   1  29
HETATM   29  C7  UNL     1       1.299  -0.822   0.001  1.00  0.00     0.083 A 
HETATM   30  N4  UNL     1       1.268  -1.325   1.259  1.00  0.00    -0.191 N 
HETATM   31  C8  UNL     1       2.292  -1.120   2.142  1.00  0.00     0.677 A 
ATOM     32  H4  UNL     1       0.459  -1.871   1.555  1.00  0.00     0.184 HD
HETATM   33  N5  UNL     1       2.241  -1.608   3.336  1.00  0.00    -0.234 N 
HETATM   34  N6  UNL     1       3.383  -0.415   1.821  1.00  0.00    -0.173 N 
ATOM     35  H52 UNL     1       1.409  -2.145   3.581  1.00  0.00     0.174 HD
ATOM     36  H51 UNL     1       3.005  -1.455   3.995  1.00  0.00     0.174 HD
HETATM   37  C9  UNL     1       3.462   0.101   0.589  1.00  0.00     0.169 A 
ATOM     38  H6  UNL     1       4.134  -0.275   2.497  1.00  0.00     0.186 HD
HETATM   39  C10 UNL     1       2.434  -0.104  -0.299  1.00  0.00     0.120 A 
HETATM   40  N9  UNL     1       4.465   0.831   0.014  1.00  0.00    -0.257 N 
HETATM   41  N7  UNL     1       2.852   0.524  -1.424  1.00  0.00    -0.281 N 
HETATM   42  N8  UNL     1       4.063   1.070  -1.204  1.00  0.00    -0.238 N 
ATOM     43  H7  UNL     1       2.331   0.575  -2.300  1.00  0.00     0.188 HD
ATOM     44  H8  UNL     1       4.594   1.599  -1.896  1.00  0.00     0.208 HD
BRANCH  40  45
HETATM   45  C11 UNL     1       5.680   1.256   0.621  1.00  0.00     0.186 C 
BRANCH  45  46
HETATM   46  C12 UNL     1       6.821   0.306   0.521  1.00  0.00     0.161 C 
BRANCH  46  47
HETATM   47  O2  UNL     1       6.569  -0.929   1.101  1.00  0.00    -0.392 OA
ATOM     48  H2  UNL     1       7.297  -1.535   1.037  1.00  0.00     0.210 HD
ENDBRANCH  46  47
BRANCH  46  49
HETATM   49  C13 UNL     1       7.382   0.140  -0.867  1.00  0.00     0.197 C 
BRANCH  49  50
HETATM   50  O3  UNL     1       6.553  -0.520  -1.747  1.00  0.00    -0.398 OA
ATOM     51  H3  UNL     1       6.907  -0.625  -2.622  1.00  0.00     0.209 HD
ENDBRANCH  49  50
ENDBRANCH  46  49
ENDBRANCH  45  46
ENDBRANCH  40  45
ENDBRANCH   1  29
TORSDOF 12
