REMARK  15 active torsions:
REMARK  status: ('A' for Active; 'I' for Inactive)
REMARK    1  A    between atoms: N1_1  and  C1_4 
REMARK    2  A    between atoms: C3_9  and  N4_10 
REMARK    3  A    between atoms: C4_15  and  N6_16 
REMARK    4  A    between atoms: C7_21  and  N8_22 
REMARK    5  A    between atoms: C8_27  and  N10_28 
REMARK    6  A    between atoms: C10_35  and  N12_36 
REMARK    7  A    between atoms: N12_36  and  C11_38 
REMARK    8  A    between atoms: C11_38  and  C12_39 
REMARK    9  A    between atoms: C12_39  and  C13_40 
REMARK   10  A    between atoms: C13_40  and  C14_41 
REMARK   11  A    between atoms: C14_41  and  C15_42 
REMARK   12  A    between atoms: C15_42  and  C16_43 
REMARK   13  A    between atoms: C16_43  and  O1_44 
REMARK   14  A    between atoms: N13_46  and  N14_48 
REMARK   15  A    between atoms: N14_48  and  N15_50 
ROOT
HETATM    1  C1  UNL     1      -1.432  -2.073   3.494  1.00  0.00     0.691 A 
HETATM    2  N2  UNL     1      -0.591  -1.995   2.447  1.00  0.00    -0.176 N 
ATOM      3  H2  UNL     1       0.331  -2.423   2.533  1.00  0.00     0.185 HD
HETATM    4  C2  UNL     1      -0.911  -1.370   1.273  1.00  0.00     0.151 A 
HETATM    5  N3  UNL     1      -2.065  -0.813   1.117  1.00  0.00    -0.137 N 
HETATM    6  C3  UNL     1      -2.947  -0.883   2.186  1.00  0.00     0.696 A 
HETATM    7  N5  UNL     1      -2.660  -1.482   3.331  1.00  0.00    -0.022 N 
ATOM      8  H5  UNL     1      -3.346  -1.504   4.086  1.00  0.00     0.203 HD
HETATM    9  C4  UNL     1      -2.353  -0.172  -0.148  1.00  0.00     0.284 C 
HETATM   10  S1  UNL     1      -0.664   0.119  -0.757  1.00  0.00    -0.088 SA
HETATM   11  C10 UNL     1       0.050  -1.301   0.122  1.00  0.00     0.218 C 
ENDROOT
BRANCH   9  12
HETATM   12  N6  UNL     1      -3.103   1.042  -0.055  1.00  0.00    -0.294 N 
HETATM   13  C5  UNL     1      -2.880   2.188   0.588  1.00  0.00     0.188 A 
HETATM   14  N7  UNL     1      -3.875   3.074   0.378  1.00  0.00    -0.346 N 
HETATM   15  C6  UNL     1      -4.771   2.484  -0.426  1.00  0.00     0.123 A 
ATOM     16  H7  UNL     1      -3.935   4.018   0.760  1.00  0.00     0.167 HD
HETATM   17  C7  UNL     1      -5.965   2.925  -0.954  1.00  0.00     0.145 A 
HETATM   18  C9  UNL     1      -4.297   1.224  -0.697  1.00  0.00     0.157 A 
HETATM   19  N9  UNL     1      -6.675   2.104  -1.747  1.00  0.00    -0.175 N 
HETATM   20  C8  UNL     1      -6.220   0.871  -2.017  1.00  0.00     0.679 A 
ATOM     21  H9  UNL     1      -7.560   2.419  -2.144  1.00  0.00     0.186 HD
HETATM   22  N11 UNL     1      -5.038   0.435  -1.494  1.00  0.00    -0.174 N 
ATOM     23  H11 UNL     1      -4.711  -0.506  -1.712  1.00  0.00     0.186 HD
BRANCH  17  24
HETATM   24  N8  UNL     1      -6.415   4.131  -0.693  1.00  0.00    -0.383 N 
ATOM     25  H82 UNL     1      -5.876   4.754  -0.091  1.00  0.00     0.157 HD
ATOM     26  H81 UNL     1      -7.299   4.457  -1.084  1.00  0.00     0.157 HD
ENDBRANCH  17  24
BRANCH  20  27
HETATM   27  N10 UNL     1      -6.889   0.075  -2.773  1.00  0.00    -0.234 N 
ATOM     28 2H10 UNL     1      -7.773   0.401  -3.164  1.00  0.00     0.174 HD
ATOM     29 1H10 UNL     1      -6.543  -0.862  -2.978  1.00  0.00     0.174 HD
ENDBRANCH  20  27
ENDBRANCH   9  12
BRANCH   6  30
HETATM   30  N4  UNL     1      -4.114  -0.351   2.078  1.00  0.00    -0.234 N 
ATOM     31  H42 UNL     1      -4.335   0.111   1.196  1.00  0.00     0.174 HD
ATOM     32  H41 UNL     1      -4.762  -0.402   2.864  1.00  0.00     0.174 HD
ENDBRANCH   6  30
BRANCH  11  33
HETATM   33  N12 UNL     1       1.390  -1.070   0.560  1.00  0.00    -0.358 N 
ATOM     34  H12 UNL     1       1.538  -0.983   1.565  1.00  0.00     0.162 HD
BRANCH  33  35
HETATM   35  C11 UNL     1       2.518  -0.952  -0.257  1.00  0.00     0.094 C 
HETATM   36  N13 UNL     1       2.902  -1.853  -1.097  1.00  0.00    -0.275 N 
ATOM     37  H13 UNL     1       3.742  -1.665  -1.644  1.00  0.00     0.189 HD
BRANCH  35  38
HETATM   38  C12 UNL     1       3.332   0.289  -0.154  1.00  0.00     0.077 C 
BRANCH  38  39
HETATM   39  C13 UNL     1       4.525   0.243  -1.126  1.00  0.00     0.007 C 
BRANCH  39  40
HETATM   40  C14 UNL     1       5.251   1.551  -0.913  1.00  0.00     0.002 C 
BRANCH  40  41
HETATM   41  C15 UNL     1       6.451   1.686  -1.799  1.00  0.00     0.026 C 
BRANCH  41  42
HETATM   42  C16 UNL     1       7.413   0.564  -1.502  1.00  0.00     0.164 C 
BRANCH  42  43
HETATM   43  O1  UNL     1       7.785   0.643  -0.161  1.00  0.00    -0.401 OA
ATOM     44  H1  UNL     1       8.391  -0.064   0.026  1.00  0.00     0.209 HD
ENDBRANCH  42  43
ENDBRANCH  41  42
ENDBRANCH  40  41
ENDBRANCH  39  40
ENDBRANCH  38  39
ENDBRANCH  35  38
BRANCH  36  45
HETATM   45  N14 UNL     1       2.250  -3.060  -1.307  1.00  0.00    -0.248 N 
ATOM     46  H14 UNL     1       1.710  -3.159  -2.167  1.00  0.00     0.207 HD
BRANCH  45  47
HETATM   47  N15 UNL     1       2.274  -4.142  -0.441  1.00  0.00    -0.331 N 
ATOM     48 2H15 UNL     1       2.819  -4.025   0.414  1.00  0.00     0.178 HD
ATOM     49 1H15 UNL     1       1.795  -5.029  -0.595  1.00  0.00     0.178 HD
ENDBRANCH  45  47
ENDBRANCH  36  45
ENDBRANCH  33  35
ENDBRANCH  11  33
BRANCH   1  50
HETATM   50  N1  UNL     1      -1.156  -2.627   4.542  1.00  0.00    -0.234 N 
ATOM     51  H12 UNL     1      -0.243  -3.066   4.663  1.00  0.00     0.174 HD
ATOM     52  H11 UNL     1      -1.794  -2.686   5.336  1.00  0.00     0.174 HD
ENDBRANCH   1  50
TORSDOF 15
