REMARK  16 active torsions:
REMARK  status: ('A' for Active; 'I' for Inactive)
REMARK    1  A    between atoms: C2_2  and  N1_3 
REMARK    2  A    between atoms: C2_2  and  C14_34 
REMARK    3  A    between atoms: C6_12  and  O1_13 
REMARK    4  A    between atoms: C7_15  and  C8_16 
REMARK    5  A    between atoms: C8_16  and  O2_17 
REMARK    6  A    between atoms: C8_16  and  N5_19 
REMARK    7  A    between atoms: N5_19  and  C9_21 
REMARK    8  A    between atoms: C9_21  and  O3_22 
REMARK    9  A    between atoms: C9_21  and  C10_24 
REMARK   10  A    between atoms: C12_26  and  C13_27 
REMARK       I    between atoms: C14_34  and  N8_36 
REMARK   11  A    between atoms: N8_36  and  C15_38 
REMARK   12  A    between atoms: C15_38  and  O6_39 
REMARK   13  A    between atoms: C15_38  and  C16_41 
REMARK   14  A    between atoms: C16_41  and  O7_42 
REMARK   15  A    between atoms: C16_41  and  C17_44 
REMARK   16  A    between atoms: C17_44  and  O8_46 
ROOT
HETATM    1  N1  UNL     1       0.804   1.307   0.550  1.00  0.00    -0.362 N 
ATOM      2  H1  UNL     1       0.093   1.753  -0.030  1.00  0.00     0.162 HD
HETATM    3  C3  UNL     1       0.333   0.527   1.421  1.00  0.00     0.120 A 
HETATM    4  N2  UNL     1       1.088  -0.159   2.285  1.00  0.00    -0.329 N 
ATOM      5  H2  UNL     1       2.099  -0.038   2.227  1.00  0.00     0.168 HD
HETATM    6  C4  UNL     1       0.614  -0.997   3.226  1.00  0.00     0.145 A 
HETATM    7  N3  UNL     1       1.505  -1.682   4.102  1.00  0.00    -0.081 NA
HETATM    8  C5  UNL     1      -0.748  -1.147   3.290  1.00  0.00     0.121 A 
HETATM    9  N4  UNL     1      -1.310  -2.018   4.262  1.00  0.00    -0.096 NA
HETATM   10  C6  UNL     1      -1.587  -0.446   2.402  1.00  0.00     0.111 A 
HETATM   11  C7  UNL     1      -1.079   0.402   1.453  1.00  0.00     0.093 A 
ENDROOT
BRANCH   1  12
HETATM   12  C2  UNL     1       2.122   1.682   0.222  1.00  0.00     0.171 C 
HETATM   13  C1  UNL     1       2.939   2.304   1.304  1.00  0.00     0.042 C 
BRANCH  12  14
HETATM   14  C14 UNL     1       2.922   0.563  -0.428  1.00  0.00     0.246 C 
HETATM   15  O5  UNL     1       2.367  -0.528  -0.614  1.00  0.00    -0.271 OA
HETATM   16  N8  UNL     1       4.229   0.858  -0.767  1.00  0.00    -0.304 N 
ATOM     17  H8  UNL     1       4.527   1.806  -0.539  1.00  0.00     0.171 HD
BRANCH  16  18
HETATM   18  C15 UNL     1       5.194   0.076  -1.364  1.00  0.00     0.180 C 
BRANCH  18  19
HETATM   19  O6  UNL     1       6.359   0.663  -1.556  1.00  0.00    -0.344 OA
ATOM     20  H6  UNL     1       7.024   0.124  -1.968  1.00  0.00     0.219 HD
ENDBRANCH  18  19
BRANCH  18  21
HETATM   21  C16 UNL     1       5.154  -1.270  -1.816  1.00  0.00     0.165 C 
BRANCH  21  22
HETATM   22  O7  UNL     1       4.064  -2.104  -1.735  1.00  0.00    -0.354 OA
ATOM     23  H7  UNL     1       4.037  -3.004  -2.037  1.00  0.00     0.218 HD
ENDBRANCH  21  22
BRANCH  21  24
HETATM   24  C17 UNL     1       6.253  -1.812  -2.376  1.00  0.00     0.187 C 
HETATM   25  N9  UNL     1       6.226  -3.158  -2.832  1.00  0.00    -0.072 NA
BRANCH  24  26
HETATM   26  O8  UNL     1       7.442  -1.122  -2.541  1.00  0.00    -0.346 OA
ATOM     27  H8  UNL     1       8.217  -1.504  -2.936  1.00  0.00     0.219 HD
ENDBRANCH  24  26
ENDBRANCH  21  24
ENDBRANCH  18  21
ENDBRANCH  16  18
ENDBRANCH  12  14
ENDBRANCH   1  12
BRANCH  11  28
HETATM   28  C8  UNL     1      -1.876   1.161   0.504  1.00  0.00     0.155 C 
BRANCH  28  29
HETATM   29  O2  UNL     1      -1.234   1.926  -0.337  1.00  0.00    -0.345 OA
ATOM     30  H2  UNL     1      -1.755   2.422  -0.957  1.00  0.00     0.219 HD
ENDBRANCH  28  29
BRANCH  28  31
HETATM   31  N5  UNL     1      -3.270   1.133   0.426  1.00  0.00    -0.339 N 
ATOM     32  H5  UNL     1      -3.826   0.554   1.056  1.00  0.00     0.164 HD
BRANCH  31  33
HETATM   33  C9  UNL     1      -3.911   1.983  -0.614  1.00  0.00     0.272 C 
BRANCH  33  34
HETATM   34  O3  UNL     1      -4.697   2.950   0.024  1.00  0.00    -0.371 OA
ATOM     35  H3  UNL     1      -5.106   3.493  -0.640  1.00  0.00     0.212 HD
ENDBRANCH  33  34
BRANCH  33  36
HETATM   36  C10 UNL     1      -4.730   1.123  -1.504  1.00  0.00     0.083 A 
HETATM   37  C11 UNL     1      -6.007   1.320  -1.983  1.00  0.00     0.072 A 
HETATM   38  C12 UNL     1      -6.326   0.230  -2.772  1.00  0.00     0.115 A 
HETATM   39  O4  UNL     1      -5.290  -0.558  -2.752  1.00  0.00    -0.236 OA
HETATM   40  N7  UNL     1      -4.327  -0.059  -2.010  1.00  0.00    -0.260 N 
ATOM     41  H7  UNL     1      -3.420  -0.496  -1.844  1.00  0.00     0.194 HD
BRANCH  38  42
HETATM   42  C13 UNL     1      -7.591   0.026  -3.481  1.00  0.00     0.120 C 
HETATM   43  N6  UNL     1      -7.718  -1.054  -4.176  1.00  0.00    -0.406 N 
ATOM     44  H62 UNL     1      -6.956  -1.731  -4.220  1.00  0.00     0.155 HD
ATOM     45  H61 UNL     1      -8.599  -1.196  -4.670  1.00  0.00     0.155 HD
ENDBRANCH  38  42
ENDBRANCH  33  36
ENDBRANCH  31  33
ENDBRANCH  28  31
ENDBRANCH  11  28
BRANCH  10  46
HETATM   46  O1  UNL     1      -2.941  -0.651   2.531  1.00  0.00    -0.358 OA
ATOM     47  H1  UNL     1      -3.507  -0.178   1.932  1.00  0.00     0.217 HD
ENDBRANCH  10  46
TORSDOF 16
