REMARK  6 active torsions:
REMARK  status: ('A' for Active; 'I' for Inactive)
REMARK    1  A    between atoms: N1_2  and  C3_4 
REMARK    2  A    between atoms: C4_7  and  N3_8 
REMARK    3  A    between atoms: N3_8  and  C5_10 
REMARK    4  A    between atoms: C7_22  and  C8_23 
REMARK    5  A    between atoms: C8_23  and  C9_24 
REMARK       I    between atoms: C9_24  and  N8_26 
REMARK    6  A    between atoms: N8_26  and  N9_28 
ROOT
HETATM    1  C3  UNL     1      -0.557  -2.164  -0.214  1.00  0.00     0.695 A 
HETATM    2  N2  UNL     1       0.787  -2.037  -0.321  1.00  0.00    -0.022 N 
ATOM      3  H2  UNL     1       1.373  -2.871  -0.338  1.00  0.00     0.203 HD
HETATM    4  C4  UNL     1       1.355  -0.823  -0.405  1.00  0.00     0.700 A 
HETATM    5  N7  UNL     1       0.573   0.269  -0.382  1.00  0.00    -0.179 N 
ATOM      6  H7  UNL     1       1.006   1.190  -0.447  1.00  0.00     0.185 HD
HETATM    7  C7  UNL     1      -0.777   0.181  -0.275  1.00  0.00     0.122 A 
HETATM    8  N10 UNL     1      -1.290  -1.059  -0.194  1.00  0.00    -0.179 N 
ATOM      9  H10 UNL     1      -2.302  -1.156  -0.112  1.00  0.00     0.185 HD
ENDROOT
BRANCH   4  10
HETATM   10  N3  UNL     1       2.636  -0.758  -0.506  1.00  0.00    -0.168 N 
ATOM     11  H3  UNL     1       3.179  -1.622  -0.520  1.00  0.00     0.186 HD
BRANCH  10  12
HETATM   12  C5  UNL     1       3.321   0.503  -0.600  1.00  0.00     0.181 A 
HETATM   13  N4  UNL     1       4.176   0.927  -1.519  1.00  0.00    -0.277 N 
HETATM   14  N5  UNL     1       4.688   2.083  -1.440  1.00  0.00    -0.278 N 
ATOM     15  H4  UNL     1       4.424   0.317  -2.298  1.00  0.00     0.189 HD
HETATM   16  C6  UNL     1       4.350   2.870  -0.416  1.00  0.00     0.160 A 
ATOM     17  H5  UNL     1       5.348   2.407  -2.147  1.00  0.00     0.189 HD
HETATM   18  N6  UNL     1       4.749   4.086  -0.136  1.00  0.00    -0.379 N 
HETATM   19  S1  UNL     1       3.257   1.870   0.439  1.00  0.00    -0.015 SA
ATOM     20  H62 UNL     1       5.401   4.682  -0.646  1.00  0.00     0.158 HD
ATOM     21  H61 UNL     1       4.491   4.687   0.646  1.00  0.00     0.158 HD
ENDBRANCH  10  12
ENDBRANCH   4  10
BRANCH   1  22
HETATM   22  N1  UNL     1      -1.099  -3.478  -0.128  1.00  0.00    -0.226 N 
HETATM   23  C1  UNL     1      -2.528  -3.699  -0.011  1.00  0.00     0.168 C 
HETATM   24  C2  UNL     1      -0.251  -4.646  -0.154  1.00  0.00     0.168 C 
ENDBRANCH   1  22
BRANCH   7  25
HETATM   25  C8  UNL     1      -1.634   1.401  -0.250  1.00  0.00     0.182 C 
BRANCH  25  26
HETATM   26  C9  UNL     1      -1.845   1.895   1.127  1.00  0.00     0.242 C 
HETATM   27  O1  UNL     1      -1.338   1.318   2.120  1.00  0.00    -0.271 OA
HETATM   28  N8  UNL     1      -2.651   3.061   1.285  1.00  0.00    -0.276 N 
ATOM     29  H8  UNL     1      -3.058   3.524   0.473  1.00  0.00     0.189 HD
BRANCH  28  30
HETATM   30  N9  UNL     1      -2.873   3.558   2.572  1.00  0.00    -0.343 N 
ATOM     31  H92 UNL     1      -2.459   3.083   3.374  1.00  0.00     0.176 HD
ATOM     32  H91 UNL     1      -3.449   4.392   2.685  1.00  0.00     0.176 HD
ENDBRANCH  28  30
ENDBRANCH  25  26
ENDBRANCH   7  25
TORSDOF 6
