REMARK  8 active torsions:
REMARK  status: ('A' for Active; 'I' for Inactive)
REMARK    1  A    between atoms: C2_2  and  C3_6 
REMARK    2  A    between atoms: C3_6  and  O1_7 
REMARK    3  A    between atoms: C3_6  and  N2_9 
REMARK    4  A    between atoms: N2_9  and  C4_10 
REMARK    5  A    between atoms: C4_10  and  C5_11 
REMARK    6  A    between atoms: C4_10  and  C6_14 
REMARK    7  A    between atoms: C7_19  and  S1_20 
REMARK    8  A    between atoms: S1_20  and  C8_21 
ROOT
HETATM    1  C6  UNL     1       0.405  -0.188   0.417  1.00  0.00     0.135 A 
HETATM    2  N4  UNL     1      -0.282   0.918  -0.081  1.00  0.00    -0.292 N 
ATOM      3  H4  UNL     1      -1.292   0.962   0.056  1.00  0.00     0.187 HD
HETATM    4  N5  UNL     1       0.288   1.880  -0.700  1.00  0.00    -0.279 N 
ATOM      5  H5  UNL     1      -0.276   2.660  -1.038  1.00  0.00     0.189 HD
HETATM    6  C7  UNL     1       1.596   1.886  -0.912  1.00  0.00     0.167 A 
HETATM    7  N8  UNL     1       2.320   0.878  -0.474  1.00  0.00    -0.322 N 
ATOM      8  H8  UNL     1       3.328   0.873  -0.632  1.00  0.00     0.169 HD
HETATM    9  C9  UNL     1       1.726  -0.176   0.199  1.00  0.00     0.150 A 
HETATM   10  N9  UNL     1       2.610  -1.189   0.604  1.00  0.00    -0.080 NA
ENDROOT
BRANCH   1  11
HETATM   11  C4  UNL     1      -0.436  -1.129   1.094  1.00  0.00     0.206 C 
BRANCH  11  12
HETATM   12  N2  UNL     1      -1.666  -0.854   1.115  1.00  0.00    -0.371 NA
BRANCH  12  13
HETATM   13  C3  UNL     1      -2.829  -0.354   0.989  1.00  0.00     0.237 C 
BRANCH  13  14
HETATM   14  C2  UNL     1      -3.815  -0.733  -0.059  1.00  0.00     0.065 C 
HETATM   15  C1  UNL     1      -5.153  -0.143  -0.188  1.00  0.00     0.073 C 
HETATM   16  N1  UNL     1      -3.435  -1.634  -0.889  1.00  0.00    -0.398 N 
ATOM     17  H12 UNL     1      -4.111  -1.894  -1.607  1.00  0.00     0.156 HD
ATOM     18  H11 UNL     1      -2.505  -2.044  -0.799  1.00  0.00     0.156 HD
ENDBRANCH  13  14
BRANCH  13  19
HETATM   19  O1  UNL     1      -3.303   0.566   1.776  1.00  0.00    -0.334 OA
ATOM     20  H1  UNL     1      -2.673   0.808   2.445  1.00  0.00     0.220 HD
ENDBRANCH  13  19
ENDBRANCH  12  13
ENDBRANCH  11  12
BRANCH  11  21
HETATM   21  C5  UNL     1      -0.108  -2.343   1.781  1.00  0.00     0.298 C 
HETATM   22  N3  UNL     1      -1.186  -3.105   2.421  1.00  0.00    -0.055 NA
HETATM   23  O2  UNL     1       0.994  -2.849   1.911  1.00  0.00    -0.268 OA
ENDBRANCH  11  21
ENDBRANCH   1  11
BRANCH   6  24
HETATM   24  S1  UNL     1       2.289   3.296  -1.777  1.00  0.00    -0.020 SA
BRANCH  24  25
HETATM   25  C8  UNL     1       4.035   3.120  -1.963  1.00  0.00     0.155 C 
HETATM   26  N6  UNL     1       4.792   4.016  -2.492  1.00  0.00    -0.382 N 
ATOM     27  H62 UNL     1       4.335   4.867  -2.821  1.00  0.00     0.157 HD
ATOM     28  H61 UNL     1       5.801   3.914  -2.600  1.00  0.00     0.157 HD
HETATM   29  N7  UNL     1       4.671   1.935  -1.504  1.00  0.00    -0.075 NA
ENDBRANCH  24  25
ENDBRANCH   6  24
TORSDOF 8
