REMARK  4 active torsions:
REMARK  status: ('A' for Active; 'I' for Inactive)
REMARK       I    between atoms: C2_2  and  N1_4 
REMARK    1  A    between atoms: N1_4  and  C3_6 
REMARK    2  A    between atoms: C4_11  and  S1_12 
REMARK    3  A    between atoms: S1_12  and  N4_15 
REMARK    4  A    between atoms: N4_15  and  N5_17 
ROOT
HETATM    1  C3  UNL     1      -1.322   0.420   1.134  1.00  0.00     0.168 A 
HETATM    2  N2  UNL     1      -0.272   0.953   1.766  1.00  0.00    -0.278 N 
ATOM      3  H2  UNL     1      -0.356   1.283   2.727  1.00  0.00     0.189 HD
HETATM    4  N3  UNL     1       0.834   1.040   1.144  1.00  0.00    -0.281 N 
ATOM      5  H3  UNL     1       1.648   1.444   1.608  1.00  0.00     0.188 HD
HETATM    6  C4  UNL     1       0.932   0.608  -0.104  1.00  0.00     0.210 A 
HETATM    7  S2  UNL     1      -0.657   0.047  -0.395  1.00  0.00    -0.020 SA
ENDROOT
BRANCH   6   8
HETATM    8  S1  UNL     1       2.341   0.617  -1.173  1.00  0.00     0.299 S 
HETATM    9  O2  UNL     1       3.162   1.814  -0.779  1.00  0.00    -0.197 OA
HETATM   10  O3  UNL     1       1.884   0.770  -2.590  1.00  0.00    -0.197 OA
BRANCH   8  11
HETATM   11  N4  UNL     1       3.182  -0.848  -0.952  1.00  0.00    -0.228 N 
ATOM     12  H4  UNL     1       2.995  -1.691  -1.495  1.00  0.00     0.199 HD
BRANCH  11  13
HETATM   13  N5  UNL     1       4.154  -0.777   0.049  1.00  0.00    -0.336 N 
ATOM     14  H52 UNL     1       4.330   0.073   0.584  1.00  0.00     0.177 HD
ATOM     15  H51 UNL     1       4.658  -1.654   0.181  1.00  0.00     0.177 HD
ENDBRANCH  11  13
ENDBRANCH   8  11
ENDBRANCH   6   8
BRANCH   1  16
HETATM   16  N1  UNL     1      -2.537   0.244   1.600  1.00  0.00    -0.306 N 
HETATM   17  C2  UNL     1      -3.465  -0.350   0.705  1.00  0.00     0.219 C 
HETATM   18  C1  UNL     1      -4.072   0.397  -0.423  1.00  0.00     0.117 C 
HETATM   19  O1  UNL     1      -3.790  -1.543   0.861  1.00  0.00    -0.274 OA
ATOM     20  H1  UNL     1      -2.798   0.517   2.547  1.00  0.00     0.171 HD
ENDBRANCH   1  16
TORSDOF 4
