REMARK  4 active torsions:
REMARK  status: ('A' for Active; 'I' for Inactive)
REMARK       I    between atoms: C2_2  and  N1_4 
REMARK    1  A    between atoms: N1_4  and  C3_6 
REMARK    2  A    between atoms: C4_11  and  C5_12 
REMARK    3  A    between atoms: C5_12  and  C6_14 
REMARK       I    between atoms: C6_14  and  N4_16 
REMARK    4  A    between atoms: N4_16  and  N5_18 
ROOT
HETATM    1  C3  UNL     1       1.615   1.226   0.737  1.00  0.00     0.168 A 
HETATM    2  N2  UNL     1       0.880   2.340   0.741  1.00  0.00    -0.278 N 
ATOM      3  H2  UNL     1       1.305   3.242   0.956  1.00  0.00     0.189 HD
HETATM    4  N3  UNL     1      -0.361   2.256   0.472  1.00  0.00    -0.288 N 
ATOM      5  H3  UNL     1      -0.940   3.096   0.470  1.00  0.00     0.188 HD
HETATM    6  C4  UNL     1      -0.901   1.082   0.195  1.00  0.00     0.148 A 
HETATM    7  S1  UNL     1       0.450   0.045   0.330  1.00  0.00    -0.029 SA
ENDROOT
BRANCH   6   8
HETATM    8  C5  UNL     1      -2.310   0.773  -0.140  1.00  0.00     0.275 C 
HETATM    9  O2  UNL     1      -3.120   1.705  -0.177  1.00  0.00    -0.279 OA
BRANCH   8  10
HETATM   10  C6  UNL     1      -2.700  -0.584  -0.412  1.00  0.00     0.312 C 
HETATM   11  O3  UNL     1      -1.857  -1.499  -0.366  1.00  0.00    -0.262 OA
HETATM   12  N4  UNL     1      -4.038  -0.885  -0.732  1.00  0.00    -0.270 N 
ATOM     13  H4  UNL     1      -4.713  -0.121  -0.765  1.00  0.00     0.189 HD
BRANCH  12  14
HETATM   14  N5  UNL     1      -4.487  -2.181  -1.007  1.00  0.00    -0.342 N 
ATOM     15  H52 UNL     1      -3.799  -2.933  -0.970  1.00  0.00     0.176 HD
ATOM     16  H51 UNL     1      -5.456  -2.399  -1.239  1.00  0.00     0.176 HD
ENDBRANCH  12  14
ENDBRANCH   8  10
ENDBRANCH   6   8
BRANCH   1  17
HETATM   17  N1  UNL     1       2.902   1.120   0.989  1.00  0.00    -0.306 N 
HETATM   18  C2  UNL     1       3.501  -0.180   0.931  1.00  0.00     0.219 C 
HETATM   19  C1  UNL     1       4.591  -0.459  -0.010  1.00  0.00     0.117 C 
HETATM   20  O1  UNL     1       3.090  -1.086   1.690  1.00  0.00    -0.274 OA
ATOM     21  H1  UNL     1       3.459   1.943   1.220  1.00  0.00     0.171 HD
ENDBRANCH   1  17
TORSDOF 4
