REMARK  12 active torsions:
REMARK  status: ('A' for Active; 'I' for Inactive)
REMARK    1  A    between atoms: C2_2  and  C4_4 
REMARK    2  A    between atoms: C4_4  and  O1_5 
REMARK    3  A    between atoms: C4_4  and  C5_7 
REMARK    4  A    between atoms: C5_7  and  N1_8 
REMARK    5  A    between atoms: N1_8  and  C6_10 
REMARK    6  A    between atoms: C6_10  and  C7_11 
REMARK    7  A    between atoms: C6_10  and  N4_33 
REMARK    8  A    between atoms: C7_11  and  C8_12 
REMARK    9  A    between atoms: C7_11  and  C18_26 
REMARK   10  A    between atoms: C8_12  and  C9_13 
REMARK       I    between atoms: C9_13  and  N2_15 
REMARK   11  A    between atoms: N2_15  and  C10_17 
REMARK   12  A    between atoms: C18_26  and  C19_27 
ROOT
HETATM    1  C10 UNL     1       3.446  -1.744  -0.899  1.00  0.00     0.126 C 
HETATM    2  C11 UNL     1       3.764  -1.763  -2.334  1.00  0.00     0.091 C 
HETATM    3  N3  UNL     1       3.995  -1.786  -3.466  1.00  0.00    -0.195 NA
HETATM    4  C12 UNL     1       4.795  -1.944  -0.186  1.00  0.00     0.051 C 
HETATM    5  C13 UNL     1       4.790  -3.336   0.348  1.00  0.00    -0.011 C 
HETATM    6  C14 UNL     1       3.923  -3.336   1.588  1.00  0.00     0.005 C 
HETATM    7  C15 UNL     1       2.556  -2.963   1.020  1.00  0.00     0.009 C 
HETATM    8  C16 UNL     1       2.709  -2.973  -0.482  1.00  0.00     0.029 C 
HETATM    9  C17 UNL     1       3.821  -4.027  -0.629  1.00  0.00     0.012 C 
ENDROOT
BRANCH   1  10
HETATM   10  N2  UNL     1       2.849  -0.508  -0.505  1.00  0.00    -0.335 N 
HETATM   11  C9  UNL     1       1.616  -0.059  -1.118  1.00  0.00     0.243 C 
HETATM   12  O2  UNL     1       1.075  -0.787  -2.018  1.00  0.00    -0.269 OA
ATOM     13  H2  UNL     1       3.294   0.063   0.213  1.00  0.00     0.164 HD
BRANCH  11  14
HETATM   14  C8  UNL     1       1.022   1.198  -0.705  1.00  0.00     0.088 C 
BRANCH  14  15
HETATM   15  C7  UNL     1      -0.373   1.545  -1.015  1.00  0.00     0.004 C 
BRANCH  15  16
HETATM   16  C6  UNL     1      -1.502   0.859  -0.418  1.00  0.00     0.087 C 
BRANCH  16  17
HETATM   17  N1  UNL     1      -1.833  -0.479  -0.405  1.00  0.00    -0.378 N 
ATOM     18  H1  UNL     1      -2.565  -0.756  -1.059  1.00  0.00     0.160 HD
BRANCH  17  19
HETATM   19  C5  UNL     1      -1.313  -1.495   0.369  1.00  0.00     0.153 C 
BRANCH  19  20
HETATM   20  C4  UNL     1      -2.059  -2.796  -0.015  1.00  0.00     0.139 C 
BRANCH  20  21
HETATM   21  C2  UNL     1      -1.495  -3.957   0.756  1.00  0.00     0.008 C 
HETATM   22  C1  UNL     1      -2.172  -5.220   0.282  1.00  0.00     0.012 C 
HETATM   23  C3  UNL     1      -1.775  -3.789   2.235  1.00  0.00     0.012 C 
ENDBRANCH  20  21
BRANCH  20  24
HETATM   24  O1  UNL     1      -1.816  -2.994  -1.365  1.00  0.00    -0.394 OA
ATOM     25  H1  UNL     1      -2.172  -2.260  -1.852  1.00  0.00     0.210 HD
ENDBRANCH  20  24
ENDBRANCH  19  20
ENDBRANCH  17  19
ENDBRANCH  16  17
BRANCH  16  26
HETATM   26  N4  UNL     1      -2.781   1.627  -0.772  1.00  0.00    -0.277 NA
HETATM   27  C25 UNL     1      -3.775   0.967   0.101  1.00  0.00     0.118 C 
HETATM   28  C26 UNL     1      -3.179   1.268  -2.122  1.00  0.00     0.118 C 
ENDBRANCH  16  26
ENDBRANCH  15  16
BRANCH  15  29
HETATM   29  C18 UNL     1      -0.484   3.053  -1.157  1.00  0.00    -0.007 C 
BRANCH  29  30
HETATM   30  C19 UNL     1      -0.567   3.978  -0.059  1.00  0.00     0.009 C 
HETATM   31  C20 UNL     1      -1.610   4.026   0.962  1.00  0.00     0.008 C 
HETATM   32  C21 UNL     1      -1.198   5.063   2.035  1.00  0.00     0.001 C 
HETATM   33  C22 UNL     1      -0.119   5.971   1.584  1.00  0.00     0.000 C 
HETATM   34  C23 UNL     1      -0.269   6.455   0.164  1.00  0.00     0.001 C 
HETATM   35  C24 UNL     1      -0.671   5.384  -0.779  1.00  0.00     0.008 C 
ENDBRANCH  29  30
ENDBRANCH  15  29
ENDBRANCH  14  15
ENDBRANCH  11  14
ENDBRANCH   1  10
TORSDOF 12
