REMARK  12 active torsions:
REMARK  status: ('A' for Active; 'I' for Inactive)
REMARK    1  A    between atoms: C2_2  and  C3_3 
REMARK    2  A    between atoms: C3_3  and  C4_4 
REMARK    3  A    between atoms: C4_4  and  N1_5 
REMARK    4  A    between atoms: N1_5  and  C5_6 
REMARK    5  A    between atoms: N1_5  and  C9_13 
REMARK    6  A    between atoms: C5_6  and  C6_7 
REMARK    7  A    between atoms: C6_7  and  N2_8 
REMARK    8  A    between atoms: N2_8  and  C7_11 
REMARK    9  A    between atoms: C10_16  and  N4_17 
REMARK   10  A    between atoms: N4_17  and  C11_19 
REMARK   11  A    between atoms: C20_30  and  C21_31 
REMARK   12  A    between atoms: C24_34  and  C25_35 
ROOT
HETATM    1  C9  UNL     1      -0.672  -0.672  -0.310  1.00  0.00     0.136 A 
HETATM    2  N3  UNL     1       0.660  -0.491   0.005  1.00  0.00    -0.175 N 
ATOM      3  H3  UNL     1       0.896   0.219   0.698  1.00  0.00     0.186 HD
HETATM    4  C10 UNL     1       1.644  -1.180  -0.535  1.00  0.00     0.684 A 
HETATM    5  N5  UNL     1       1.319  -2.109  -1.443  1.00  0.00    -0.194 N 
ATOM      6  H5  UNL     1       2.069  -2.652  -1.871  1.00  0.00     0.184 HD
HETATM    7  C20 UNL     1       0.018  -2.367  -1.828  1.00  0.00     0.049 A 
HETATM    8  C24 UNL     1      -0.990  -1.632  -1.247  1.00  0.00     0.097 A 
ENDROOT
BRANCH   1   9
HETATM    9  N1  UNL     1      -1.589   0.150   0.427  1.00  0.00    -0.364 N 
BRANCH   9  10
HETATM   10  C4  UNL     1      -2.263  -0.458   1.517  1.00  0.00     0.124 C 
BRANCH  10  11
HETATM   11  C3  UNL     1      -3.736  -0.526   1.536  1.00  0.00     0.019 C 
BRANCH  11  12
HETATM   12  C2  UNL     1      -4.115  -1.274   2.829  1.00  0.00    -0.003 C 
HETATM   13  C1  UNL     1      -3.616  -0.559   4.058  1.00  0.00     0.005 C 
ENDBRANCH  11  12
ENDBRANCH  10  11
ENDBRANCH   9  10
BRANCH   9  14
HETATM   14  C5  UNL     1      -1.630   1.533   0.117  1.00  0.00     0.152 C 
BRANCH  14  15
HETATM   15  C6  UNL     1      -2.865   2.191  -0.333  1.00  0.00     0.252 C 
BRANCH  15  16
HETATM   16  N2  UNL     1      -2.640   3.632  -0.628  1.00  0.00    -0.074 N 
ATOM     17  H22 UNL     1      -3.525   4.133  -0.710  1.00  0.00     0.277 HD
ATOM     18  H21 UNL     1      -2.252   4.117   0.181  1.00  0.00     0.277 HD
BRANCH  16  19
HETATM   19  C7  UNL     1      -1.827   3.831  -1.785  1.00  0.00     0.228 C 
HETATM   20  C8  UNL     1      -1.708   5.331  -1.989  1.00  0.00     0.034 C 
ENDBRANCH  16  19
ENDBRANCH  15  16
ENDBRANCH  14  15
ENDBRANCH   9  14
ENDBRANCH   1   9
BRANCH   8  21
HETATM   21  C25 UNL     1      -2.356  -1.842  -1.682  1.00  0.00     0.270 C 
HETATM   22  N6  UNL     1      -2.816  -3.208  -1.805  1.00  0.00    -0.057 NA
HETATM   23  O1  UNL     1      -3.179  -0.926  -1.955  1.00  0.00    -0.271 OA
ENDBRANCH   8  21
BRANCH   4  24
HETATM   24  N4  UNL     1       2.890  -1.057  -0.285  1.00  0.00    -0.191 N 
ATOM     25  H4  UNL     1       3.502  -1.683  -0.808  1.00  0.00     0.184 HD
BRANCH  24  26
HETATM   26  C11 UNL     1       3.535  -0.197   0.593  1.00  0.00     0.061 A 
HETATM   27  C12 UNL     1       3.545  -0.476   1.944  1.00  0.00    -0.034 A 
HETATM   28  C13 UNL     1       2.862  -1.683   2.515  1.00  0.00     0.050 C 
HETATM   29  C14 UNL     1       4.201   0.375   2.805  1.00  0.00     0.015 A 
HETATM   30  C15 UNL     1       4.842   1.495   2.326  1.00  0.00    -0.061 A 
HETATM   31  C16 UNL     1       5.552   2.406   3.269  1.00  0.00     0.048 C 
HETATM   32  C17 UNL     1       4.814   1.746   0.971  1.00  0.00     0.015 A 
HETATM   33  C18 UNL     1       4.171   0.925   0.069  1.00  0.00    -0.034 A 
HETATM   34  C19 UNL     1       4.162   1.230  -1.387  1.00  0.00     0.050 C 
ENDBRANCH  24  26
ENDBRANCH   4  24
BRANCH   7  35
HETATM   35  C21 UNL     1      -0.206  -3.385  -2.861  1.00  0.00     0.029 C 
HETATM   36  C22 UNL     1       1.151  -4.047  -3.231  1.00  0.00     0.016 C 
HETATM   37  C23 UNL     1      -0.677  -2.781  -4.158  1.00  0.00     0.016 C 
ENDBRANCH   7  35
TORSDOF 12
