REMARK  14 active torsions:
REMARK  status: ('A' for Active; 'I' for Inactive)
REMARK    1  A    between atoms: C2_2  and  C3_3 
REMARK    2  A    between atoms: C3_3  and  C4_4 
REMARK    3  A    between atoms: C4_4  and  N1_5 
REMARK    4  A    between atoms: N1_5  and  C5_7 
REMARK    5  A    between atoms: C6_10  and  N3_11 
REMARK    6  A    between atoms: N3_11  and  C7_13 
REMARK    7  A    between atoms: C7_13  and  C8_14 
REMARK    8  A    between atoms: C8_14  and  C9_15 
REMARK    9  A    between atoms: C9_15  and  C10_16 
REMARK   10  A    between atoms: C13_19  and  O1_20 
REMARK   11  A    between atoms: O1_20  and  C14_21 
REMARK   12  A    between atoms: C14_21  and  C15_22 
REMARK   13  A    between atoms: C24_33  and  N5_34 
REMARK   14  A    between atoms: N5_34  and  O2_36 
ROOT
HETATM    1  N3  UNL     1      -1.906  -0.253   1.579  1.00  0.00    -0.225 N 
ATOM      2  H3  UNL     1      -1.855  -1.112   1.032  1.00  0.00     0.177 HD
ENDROOT
BRANCH   1   3
HETATM    3  C6  UNL     1      -2.873   0.562   1.375  1.00  0.00     0.707 A 
HETATM    4  N2  UNL     1      -3.784   0.216   0.419  1.00  0.00    -0.022 N 
HETATM    5  C5  UNL     1      -4.842   0.976   0.100  1.00  0.00     0.707 A 
ATOM      6  H2  UNL     1      -3.653  -0.665  -0.078  1.00  0.00     0.203 HD
HETATM    7  N6  UNL     1      -4.999   2.135   0.764  1.00  0.00    -0.020 N 
HETATM    8  C24 UNL     1      -4.129   2.528   1.719  1.00  0.00     0.731 A 
ATOM      9  H6  UNL     1      -5.795   2.732   0.541  1.00  0.00     0.203 HD
HETATM   10  N4  UNL     1      -3.064   1.725   2.014  1.00  0.00    -0.020 N 
ATOM     11  H4  UNL     1      -2.402   2.016   2.734  1.00  0.00     0.203 HD
BRANCH   5  12
HETATM   12  N1  UNL     1      -5.672   0.602  -0.812  1.00  0.00    -0.225 N 
ATOM     13  H1  UNL     1      -6.475   1.184  -1.051  1.00  0.00     0.177 HD
BRANCH  12  14
HETATM   14  C4  UNL     1      -5.448  -0.657  -1.493  1.00  0.00     0.138 C 
BRANCH  14  15
HETATM   15  C3  UNL     1      -6.537  -0.866  -2.536  1.00  0.00     0.020 C 
BRANCH  15  16
HETATM   16  C2  UNL     1      -7.907  -0.894  -1.889  1.00  0.00    -0.003 C 
HETATM   17  C1  UNL     1      -8.939  -1.103  -2.974  1.00  0.00     0.005 C 
ENDBRANCH  15  16
ENDBRANCH  14  15
ENDBRANCH  12  14
ENDBRANCH   5  12
BRANCH   8  18
HETATM   18  N5  UNL     1      -4.254   3.621   2.365  1.00  0.00    -0.096 N 
ATOM     19  H5  UNL     1      -3.559   3.855   3.074  1.00  0.00     0.213 HD
BRANCH  18  20
HETATM   20  O2  UNL     1      -5.285   4.489   2.141  1.00  0.00    -0.271 OA
HETATM   21  C25 UNL     1      -6.386   4.607   3.024  1.00  0.00     0.238 C 
ENDBRANCH  18  20
ENDBRANCH   8  18
ENDBRANCH   1   3
BRANCH   1  22
HETATM   22  C7  UNL     1      -0.899   0.014   2.554  1.00  0.00     0.138 C 
BRANCH  22  23
HETATM   23  C8  UNL     1       0.392  -0.742   2.263  1.00  0.00     0.025 C 
BRANCH  23  24
HETATM   24  C9  UNL     1       0.913  -0.315   0.897  1.00  0.00     0.040 C 
BRANCH  24  25
HETATM   25  C10 UNL     1       2.168  -1.058   0.628  1.00  0.00    -0.058 A 
HETATM   26  C11 UNL     1       2.180  -2.278  -0.002  1.00  0.00     0.010 A 
HETATM   27  C12 UNL     1       3.334  -2.972  -0.262  1.00  0.00     0.037 A 
HETATM   28  C13 UNL     1       4.569  -2.436   0.121  1.00  0.00     0.069 A 
HETATM   29  C22 UNL     1       4.590  -1.215   0.755  1.00  0.00     0.037 A 
HETATM   30  C23 UNL     1       3.390  -0.543   0.999  1.00  0.00     0.010 A 
BRANCH  28  31
HETATM   31  O1  UNL     1       5.715  -3.136  -0.141  1.00  0.00    -0.347 OA
BRANCH  31  32
HETATM   32  C14 UNL     1       7.011  -2.751   0.152  1.00  0.00     0.214 C 
BRANCH  32  33
HETATM   33  C15 UNL     1       7.430  -1.509  -0.543  1.00  0.00    -0.034 A 
HETATM   34  C16 UNL     1       6.772  -1.182  -1.719  1.00  0.00     0.010 A 
HETATM   35  C17 UNL     1       7.132  -0.047  -2.387  1.00  0.00     0.007 A 
HETATM   36  C18 UNL     1       8.134   0.785  -1.923  1.00  0.00    -0.062 A 
HETATM   37  C19 UNL     1       8.497   2.011  -2.676  1.00  0.00     0.048 C 
HETATM   38  C20 UNL     1       8.786   0.466  -0.762  1.00  0.00     0.007 A 
HETATM   39  C21 UNL     1       8.429  -0.678  -0.082  1.00  0.00     0.010 A 
ENDBRANCH  32  33
ENDBRANCH  31  32
ENDBRANCH  28  31
ENDBRANCH  24  25
ENDBRANCH  23  24
ENDBRANCH  22  23
ENDBRANCH   1  22
TORSDOF 14
