REMARK  12 active torsions:
REMARK  status: ('A' for Active; 'I' for Inactive)
REMARK    1  A    between atoms: C2_2  and  C3_3 
REMARK    2  A    between atoms: C3_3  and  C4_4 
REMARK    3  A    between atoms: C4_4  and  C5_5 
REMARK    4  A    between atoms: C5_5  and  C6_6 
REMARK    5  A    between atoms: C6_6  and  C7_7 
REMARK    6  A    between atoms: C7_7  and  N1_8 
REMARK    7  A    between atoms: C7_7  and  C23_34 
REMARK    8  A    between atoms: N1_8  and  C8_10 
REMARK    9  A    between atoms: C9_13  and  C10_14 
REMARK   10  A    between atoms: C10_14  and  C11_15 
REMARK   11  A    between atoms: N4_20  and  C14_22 
REMARK   12  A    between atoms: C18_27  and  C19_28 
ROOT
HETATM    1  C8  UNL     1       0.475  -0.226  -0.157  1.00  0.00     0.694 A 
HETATM    2  N2  UNL     1       0.449  -1.522   0.143  1.00  0.00    -0.180 N 
ATOM      3  H2  UNL     1       1.318  -2.004   0.375  1.00  0.00     0.185 HD
HETATM    4  C9  UNL     1      -0.704  -2.200   0.143  1.00  0.00     0.113 A 
HETATM    5  N3  UNL     1      -1.833  -1.516  -0.174  1.00  0.00    -0.179 N 
ATOM      6  H3  UNL     1      -2.715  -2.028  -0.175  1.00  0.00     0.185 HD
HETATM    7  C13 UNL     1      -1.865  -0.220  -0.484  1.00  0.00     0.698 A 
HETATM    8  N4  UNL     1      -2.873   0.452  -0.860  1.00  0.00    -0.190 N 
ATOM      9  H4  UNL     1      -2.726   1.443  -1.054  1.00  0.00     0.184 HD
HETATM   10  N5  UNL     1      -0.650   0.414  -0.461  1.00  0.00    -0.022 N 
ATOM     11  H5  UNL     1      -0.608   1.408  -0.684  1.00  0.00     0.203 HD
ENDROOT
BRANCH   1  12
HETATM   12  N1  UNL     1       1.610   0.438  -0.227  1.00  0.00    -0.213 N 
ATOM     13  H1  UNL     1       1.628   1.433  -0.453  1.00  0.00     0.178 HD
BRANCH  12  14
HETATM   14  C7  UNL     1       2.844  -0.304   0.031  1.00  0.00     0.189 C 
BRANCH  14  15
HETATM   15  C6  UNL     1       4.055   0.611   0.111  1.00  0.00     0.039 C 
BRANCH  15  16
HETATM   16  C5  UNL     1       4.001   1.625   1.181  1.00  0.00     0.029 C 
BRANCH  16  17
HETATM   17  C4  UNL     1       5.159   2.524   1.241  1.00  0.00    -0.031 C 
BRANCH  17  18
HETATM   18  C3  UNL     1       6.524   2.082   1.489  1.00  0.00    -0.031 C 
BRANCH  18  19
HETATM   19  C2  UNL     1       7.242   1.177   0.567  1.00  0.00     0.022 C 
HETATM   20  C1  UNL     1       7.360   1.710  -0.839  1.00  0.00     0.009 C 
ENDBRANCH  18  19
ENDBRANCH  17  18
ENDBRANCH  16  17
ENDBRANCH  15  16
ENDBRANCH  14  15
BRANCH  14  21
HETATM   21  C23 UNL     1       3.077  -1.165  -1.155  1.00  0.00     0.254 C 
HETATM   22  N6  UNL     1       4.177  -2.050  -1.169  1.00  0.00    -0.060 NA
HETATM   23  O1  UNL     1       2.302  -1.101  -2.131  1.00  0.00    -0.275 OA
ENDBRANCH  14  21
ENDBRANCH  12  14
ENDBRANCH   1  12
BRANCH   4  24
HETATM   24  C10 UNL     1      -0.793  -3.636   0.478  1.00  0.00     0.077 C 
BRANCH  24  25
HETATM   25  C11 UNL     1      -0.618  -4.507  -0.754  1.00  0.00     0.003 C 
HETATM   26  C12 UNL     1      -0.742  -5.973  -0.409  1.00  0.00     0.005 C 
ENDBRANCH  24  25
ENDBRANCH   4  24
BRANCH   8  27
HETATM   27  C14 UNL     1      -4.219  -0.065  -1.039  1.00  0.00     0.063 A 
HETATM   28  C15 UNL     1      -4.426  -1.171  -1.809  1.00  0.00     0.080 A 
HETATM   29  S1  UNL     1      -6.103  -1.386  -1.790  1.00  0.00    -0.104 SA
HETATM   30  C16 UNL     1      -6.531  -0.038  -0.782  1.00  0.00    -0.013 A 
HETATM   31  C17 UNL     1      -7.946   0.287  -0.356  1.00  0.00     0.057 C 
HETATM   32  C18 UNL     1      -5.337   0.529  -0.499  1.00  0.00    -0.013 A 
BRANCH  32  33
HETATM   33  C19 UNL     1      -5.220   1.717   0.433  1.00  0.00     0.026 A 
HETATM   34  C20 UNL     1      -6.389   2.708   0.462  1.00  0.00     0.014 A 
HETATM   35  C21 UNL     1      -5.020   3.102  -0.032  1.00  0.00    -0.009 A 
HETATM   36  C22 UNL     1      -4.309   4.095   0.882  1.00  0.00     0.010 C 
ENDBRANCH  32  33
ENDBRANCH   8  27
TORSDOF 12
