REMARK  6 active torsions:
REMARK  status: ('A' for Active; 'I' for Inactive)
REMARK    1  A    between atoms: S1_2  and  N1_5 
REMARK    2  A    between atoms: N1_5  and  N2_7 
REMARK       I    between atoms: N2_7  and  C2_9 
REMARK    3  A    between atoms: C2_9  and  C3_11 
REMARK    4  A    between atoms: C3_11  and  N3_12 
REMARK    5  A    between atoms: C3_11  and  O4_16 
REMARK    6  A    between atoms: C3_11  and  C4_18 
ROOT
HETATM    1  C3  UNL     1      -0.935  -0.766  -0.643  1.00  0.00     0.365 C 
ENDROOT
BRANCH   1   2
HETATM    2  C2  UNL     1       0.215  -0.010  -0.026  1.00  0.00     0.308 C 
HETATM    3  N2  UNL     1       1.020  -0.642   0.935  1.00  0.00    -0.256 N 
ATOM      4  H2  UNL     1       0.737  -1.601   1.135  1.00  0.00     0.190 HD
HETATM    5  O3  UNL     1       0.372   1.186  -0.440  1.00  0.00    -0.266 OA
BRANCH   3   6
HETATM    6  N1  UNL     1       2.086  -0.240   1.644  1.00  0.00    -0.225 N 
ATOM      7  H1  UNL     1       2.249  -0.663   2.558  1.00  0.00     0.200 HD
BRANCH   6   8
HETATM    8  S1  UNL     1       3.158   0.920   1.101  1.00  0.00     0.240 S 
HETATM    9  C1  UNL     1       4.204   0.251  -0.191  1.00  0.00     0.187 C 
HETATM   10  O1  UNL     1       4.118   1.230   2.283  1.00  0.00    -0.205 OA
HETATM   11  O2  UNL     1       2.618   2.246   0.727  1.00  0.00    -0.205 OA
ENDBRANCH   6   8
ENDBRANCH   3   6
ENDBRANCH   1   2
BRANCH   1  12
HETATM   12  N3  UNL     1      -0.778  -0.932  -2.061  1.00  0.00    -0.030 N 
ATOM     13  H33 UNL     1      -0.636  -0.034  -2.524  1.00  0.00     0.279 HD
ATOM     14  H32 UNL     1       0.115  -1.372  -2.284  1.00  0.00     0.279 HD
ATOM     15  H31 UNL     1      -1.556  -1.443  -2.478  1.00  0.00     0.279 HD
ENDBRANCH   1  12
BRANCH   1  16
HETATM   16  O4  UNL     1      -0.971  -2.026  -0.061  1.00  0.00    -0.352 OA
ATOM     17  H4  UNL     1      -1.695  -2.502  -0.450  1.00  0.00     0.213 HD
ENDBRANCH   1  16
BRANCH   1  18
HETATM   18  C4  UNL     1      -2.220  -0.063  -0.315  1.00  0.00     0.174 A 
HETATM   19  N4  UNL     1      -2.582   0.426   0.885  1.00  0.00    -0.291 N 
HETATM   20  C5  UNL     1      -3.816   0.991   0.785  1.00  0.00     0.340 A 
ATOM     21  H4  UNL     1      -2.020   0.380   1.735  1.00  0.00     0.172 HD
HETATM   22  O5  UNL     1      -4.492   1.551   1.685  1.00  0.00    -0.245 OA
HETATM   23  N5  UNL     1      -4.213   0.844  -0.494  1.00  0.00    -0.250 N 
HETATM   24  N6  UNL     1      -3.247   0.211  -1.140  1.00  0.00    -0.280 N 
ATOM     25  H5  UNL     1      -5.097   1.162  -0.892  1.00  0.00     0.192 HD
ATOM     26  H6  UNL     1      -3.277  -0.036  -2.129  1.00  0.00     0.188 HD
ENDBRANCH   1  18
TORSDOF 6
