REMARK  7 active torsions:
REMARK  status: ('A' for Active; 'I' for Inactive)
REMARK    1  A    between atoms: C2_2  and  N1_3 
REMARK    2  A    between atoms: C2_2  and  C3_7 
REMARK    3  A    between atoms: C3_7  and  O1_8 
REMARK    4  A    between atoms: C3_7  and  C4_10 
REMARK    5  A    between atoms: C4_10  and  O2_11 
REMARK    6  A    between atoms: C4_10  and  C5_13 
REMARK       I    between atoms: C5_13  and  N2_15 
REMARK    7  A    between atoms: N2_15  and  C6_17 
ROOT
HETATM    1  C5  UNL     1      -0.571  -0.431  -0.452  1.00  0.00     0.254 C 
HETATM    2  O3  UNL     1      -0.869  -1.324  -1.260  1.00  0.00    -0.270 OA
HETATM    3  N2  UNL     1       0.684   0.236  -0.717  1.00  0.00    -0.305 N 
ATOM      4  H2  UNL     1       0.702   1.093  -1.269  1.00  0.00     0.170 HD
ENDROOT
BRANCH   1   5
HETATM    5  C4  UNL     1      -1.390  -0.050   0.691  1.00  0.00     0.241 C 
BRANCH   5   6
HETATM    6  C3  UNL     1      -2.635   0.782   0.382  1.00  0.00     0.186 C 
BRANCH   6   7
HETATM    7  C2  UNL     1      -3.767   0.014  -0.244  1.00  0.00     0.211 C 
HETATM    8  C1  UNL     1      -3.652  -0.149  -1.749  1.00  0.00     0.042 C 
BRANCH   7   9
HETATM    9  N1  UNL     1      -4.945   0.914  -0.041  1.00  0.00    -0.073 N 
ATOM     10  H13 UNL     1      -4.883   1.797  -0.549  1.00  0.00     0.274 HD
ATOM     11  H12 UNL     1      -5.800   0.582  -0.487  1.00  0.00     0.274 HD
ATOM     12  H11 UNL     1      -5.022   1.024   0.970  1.00  0.00     0.274 HD
ENDBRANCH   7   9
ENDBRANCH   6   7
BRANCH   6  13
HETATM   13  O1  UNL     1      -3.141   1.013   1.725  1.00  0.00    -0.390 OA
ATOM     14  H1  UNL     1      -2.426   1.498   2.120  1.00  0.00     0.210 HD
ENDBRANCH   6  13
ENDBRANCH   5   6
BRANCH   5  15
HETATM   15  O2  UNL     1      -0.579   0.784   1.563  1.00  0.00    -0.383 OA
ATOM     16  H2  UNL     1       0.195   0.267   1.755  1.00  0.00     0.210 HD
ENDBRANCH   5  15
ENDBRANCH   1   5
BRANCH   3  17
HETATM   17  C6  UNL     1       1.794  -0.263  -0.247  1.00  0.00     0.192 A 
HETATM   18  N3  UNL     1       1.840  -1.381   0.483  1.00  0.00    -0.277 N 
HETATM   19  N4  UNL     1       2.992  -1.868   0.951  1.00  0.00    -0.249 N 
ATOM     20  H3  UNL     1       0.972  -1.876   0.688  1.00  0.00     0.189 HD
HETATM   21  C7  UNL     1       4.146  -1.235   0.694  1.00  0.00     0.343 A 
ATOM     22  H4  UNL     1       2.994  -2.724   1.506  1.00  0.00     0.192 HD
HETATM   23  O4  UNL     1       5.263  -1.660   1.116  1.00  0.00    -0.245 OA
HETATM   24  N5  UNL     1       4.154  -0.106  -0.036  1.00  0.00    -0.266 N 
HETATM   25  C8  UNL     1       5.395   0.579  -0.315  1.00  0.00     0.165 C 
HETATM   26  C9  UNL     1       2.984   0.381  -0.506  1.00  0.00     0.296 A 
HETATM   27  O5  UNL     1       2.978   1.436  -1.190  1.00  0.00    -0.264 OA
ENDBRANCH   3  17
TORSDOF 7
