REMARK  7 active torsions:
REMARK  status: ('A' for Active; 'I' for Inactive)
REMARK    1  A    between atoms: N1_1  and  N2_4 
REMARK       I    between atoms: N2_4  and  C1_6 
REMARK    2  A    between atoms: C1_6  and  C2_8 
REMARK    3  A    between atoms: C3_13  and  N5_14 
REMARK    4  A    between atoms: N5_14  and  C4_16 
REMARK    5  A    between atoms: C4_16  and  C7_23 
REMARK    6  A    between atoms: N6_17  and  C5_19 
REMARK    7  A    between atoms: C5_19  and  C6_20 
ROOT
HETATM    1  C2  UNL     1       2.697  -0.560  -0.326  1.00  0.00     0.206 A 
HETATM    2  N3  UNL     1       2.017  -1.411  -1.097  1.00  0.00    -0.266 N 
ATOM      3  H3  UNL     1       2.418  -2.008  -1.820  1.00  0.00     0.189 HD
HETATM    4  N4  UNL     1       0.724  -1.352  -0.766  1.00  0.00    -0.130 N 
ATOM      5  H4  UNL     1      -0.030  -1.893  -1.190  1.00  0.00     0.205 HD
HETATM    6  C3  UNL     1       0.594  -0.457   0.221  1.00  0.00     0.700 A 
HETATM    7  N9  UNL     1       1.809   0.032   0.493  1.00  0.00    -0.168 N 
ATOM      8  H9  UNL     1       2.025   0.734   1.201  1.00  0.00     0.186 HD
ENDROOT
BRANCH   6   9
HETATM    9  N5  UNL     1      -0.479  -0.124   0.801  1.00  0.00    -0.170 N 
ATOM     10  H5  UNL     1      -0.427   0.576   1.541  1.00  0.00     0.186 HD
BRANCH   9  11
HETATM   11  C4  UNL     1      -1.756  -0.669   0.482  1.00  0.00     0.183 C 
HETATM   12  N6  UNL     1      -2.612   0.056  -0.152  1.00  0.00    -0.363 N 
ATOM     13  H6  UNL     1      -3.532  -0.313  -0.391  1.00  0.00     0.161 HD
BRANCH  12  14
HETATM   14  C5  UNL     1      -2.239   1.402  -0.516  1.00  0.00     0.220 C 
BRANCH  14  15
HETATM   15  C6  UNL     1      -3.455   2.234  -0.625  1.00  0.00     0.248 C 
HETATM   16  N7  UNL     1      -4.718   1.656  -0.381  1.00  0.00    -0.061 NA
HETATM   17  O2  UNL     1      -3.345   3.442  -0.934  1.00  0.00    -0.275 OA
ENDBRANCH  14  15
ENDBRANCH  12  14
BRANCH  11  18
HETATM   18  C7  UNL     1      -2.144  -2.012   0.839  1.00  0.00     0.299 C 
HETATM   19  N8  UNL     1      -3.418  -2.512   0.504  1.00  0.00    -0.054 NA
HETATM   20  O3  UNL     1      -1.337  -2.740   1.454  1.00  0.00    -0.268 OA
ENDBRANCH  11  18
ENDBRANCH   9  11
ENDBRANCH   6   9
BRANCH   1  21
HETATM   21  C1  UNL     1       4.142  -0.351  -0.402  1.00  0.00     0.305 C 
HETATM   22  N2  UNL     1       4.806   0.573   0.451  1.00  0.00    -0.270 N 
ATOM     23  H2  UNL     1       4.272   1.108   1.136  1.00  0.00     0.189 HD
HETATM   24  O1  UNL     1       4.829  -0.992  -1.233  1.00  0.00    -0.263 OA
BRANCH  22  25
HETATM   25  N1  UNL     1       6.175   0.748   0.354  1.00  0.00    -0.342 N 
ATOM     26  H12 UNL     1       6.694   0.205  -0.336  1.00  0.00     0.176 HD
ATOM     27  H11 UNL     1       6.651   1.411   0.966  1.00  0.00     0.176 HD
ENDBRANCH  22  25
ENDBRANCH   1  21
TORSDOF 7
