REMARK  6 active torsions:
REMARK  status: ('A' for Active; 'I' for Inactive)
REMARK    1  A    between atoms: N1_2  and  C2_4 
REMARK    2  A    between atoms: N3_9  and  C4_10 
REMARK    3  A    between atoms: C4_10  and  C5_11 
REMARK    4  A    between atoms: C5_11  and  N4_12 
REMARK    5  A    between atoms: C5_11  and  C6_16 
REMARK    6  A    between atoms: C7_19  and  N6_20 
REMARK       I    between atoms: N6_20  and  C8_22 
ROOT
HETATM    1  C2  UNL     1      -1.386  -1.409  -1.855  1.00  0.00     0.696 A 
HETATM    2  N2  UNL     1      -0.263  -2.139  -1.752  1.00  0.00    -0.140 N 
ATOM      3  H2  UNL     1      -0.206  -3.034  -2.238  1.00  0.00     0.189 HD
HETATM    4  C3  UNL     1       0.788  -1.722  -1.025  1.00  0.00     0.355 A 
HETATM    5  O1  UNL     1       1.837  -2.435  -0.947  1.00  0.00    -0.245 OA
HETATM    6  N3  UNL     1       0.717  -0.524  -0.372  1.00  0.00    -0.129 N 
HETATM    7  C7  UNL     1      -0.401   0.213  -0.469  1.00  0.00     0.705 A 
HETATM    8  N9  UNL     1      -1.441  -0.240  -1.211  1.00  0.00    -0.022 N 
ATOM      9  H9  UNL     1      -2.287   0.326  -1.279  1.00  0.00     0.203 HD
ENDROOT
BRANCH   6  10
HETATM   10  C4  UNL     1       1.866  -0.090   0.401  1.00  0.00     0.195 C 
BRANCH  10  11
HETATM   11  C5  UNL     1       1.873  -0.559   1.816  1.00  0.00     0.290 C 
BRANCH  11  12
HETATM   12  N4  UNL     1       0.754  -0.132   2.603  1.00  0.00    -0.065 N 
ATOM     13  H43 UNL     1       0.668   0.884   2.570  1.00  0.00     0.275 HD
ATOM     14  H42 UNL     1      -0.119  -0.400   2.148  1.00  0.00     0.275 HD
ATOM     15  H41 UNL     1       0.759  -0.453   3.571  1.00  0.00     0.275 HD
ENDBRANCH  11  12
BRANCH  11  16
HETATM   16  C6  UNL     1       3.123  -0.032   2.443  1.00  0.00     0.263 C 
HETATM   17  N5  UNL     1       4.367  -0.323   1.843  1.00  0.00    -0.060 NA
HETATM   18  O2  UNL     1       3.062   0.661   3.490  1.00  0.00    -0.275 OA
ENDBRANCH  11  16
ENDBRANCH  10  11
ENDBRANCH   6  10
BRANCH   7  19
HETATM   19  N6  UNL     1      -0.450   1.333   0.141  1.00  0.00    -0.163 N 
HETATM   20  C8  UNL     1      -1.558   2.207   0.126  1.00  0.00     0.200 C 
HETATM   21  N7  UNL     1      -2.614   1.882   0.793  1.00  0.00    -0.373 N 
HETATM   22  N8  UNL     1      -1.467   3.402  -0.617  1.00  0.00    -0.063 NA
ATOM     23  H72 UNL     1      -2.680   1.018   1.330  1.00  0.00     0.158 HD
ATOM     24  H71 UNL     1      -3.415   2.514   0.782  1.00  0.00     0.158 HD
ATOM     25  H6  UNL     1       0.370   1.617   0.677  1.00  0.00     0.187 HD
ENDBRANCH   7  19
BRANCH   1  26
HETATM   26  N1  UNL     1      -2.360  -1.825  -2.545  1.00  0.00    -0.230 N 
HETATM   27  C1  UNL     1      -3.592  -1.119  -2.713  1.00  0.00     0.165 C 
ATOM     28  H1  UNL     1      -2.260  -2.725  -3.014  1.00  0.00     0.177 HD
ENDBRANCH   1  26
TORSDOF 6
