REMARK  6 active torsions:
REMARK  status: ('A' for Active; 'I' for Inactive)
REMARK    1  A    between atoms: N1_1  and  C1_4 
REMARK    2  A    between atoms: C2_7  and  C3_8 
REMARK       I    between atoms: C3_8  and  N3_10 
REMARK    3  A    between atoms: N3_10  and  C4_12 
REMARK    4  A    between atoms: C4_12  and  C5_13 
REMARK    5  A    between atoms: C6_15  and  O3_17 
REMARK    6  A    between atoms: N5_19  and  O4_20 
ROOT
HETATM    1  C1  UNL     1      -3.145   1.781   0.118  1.00  0.00     0.681 A 
HETATM    2  N2  UNL     1      -1.813   1.635   0.247  1.00  0.00    -0.169 N 
ATOM      3  H2  UNL     1      -1.246   2.471   0.388  1.00  0.00     0.186 HD
HETATM    4  C2  UNL     1      -1.193   0.443   0.199  1.00  0.00     0.221 A 
HETATM    5  N5  UNL     1      -1.990  -0.603   0.009  1.00  0.00    -0.149 N 
HETATM    6  C7  UNL     1      -3.318  -0.499  -0.128  1.00  0.00     0.366 A 
HETATM    7  O5  UNL     1      -4.000  -1.576  -0.324  1.00  0.00    -0.244 OA
HETATM    8  N6  UNL     1      -3.903   0.705  -0.069  1.00  0.00    -0.139 N 
ATOM      9  H6  UNL     1      -4.914   0.795  -0.166  1.00  0.00     0.189 HD
ENDROOT
BRANCH   4  10
HETATM   10  C3  UNL     1       0.292   0.418   0.275  1.00  0.00     0.293 C 
HETATM   11  O1  UNL     1       0.845   1.559   0.475  1.00  0.00    -0.264 OA
HETATM   12  N3  UNL     1       1.105  -0.669   0.156  1.00  0.00    -0.315 N 
ATOM     13  H3  UNL     1       0.570  -1.520  -0.013  1.00  0.00     0.169 HD
BRANCH  12  14
HETATM   14  C4  UNL     1       2.493  -0.930   0.205  1.00  0.00     0.121 C 
HETATM   15  C6  UNL     1       3.558   0.013   0.195  1.00  0.00     0.180 C 
HETATM   16  N4  UNL     1       4.016   0.899  -0.862  1.00  0.00    -0.072 NA
BRANCH  14  17
HETATM   17  C5  UNL     1       2.900  -2.283  -0.185  1.00  0.00     0.292 C 
HETATM   18  O2  UNL     1       2.169  -3.269  -0.064  1.00  0.00    -0.300 OA
ENDBRANCH  14  17
BRANCH  15  19
HETATM   19  O3  UNL     1       4.286   0.184   1.267  1.00  0.00    -0.347 OA
ATOM     20  H3  UNL     1       4.997   0.814   1.260  1.00  0.00     0.219 HD
ENDBRANCH  15  19
ENDBRANCH  12  14
ENDBRANCH   4  10
BRANCH   5  21
HETATM   21  O4  UNL     1      -1.514  -1.867  -0.052  1.00  0.00    -0.277 OA
ATOM     22  H4  UNL     1      -2.084  -2.615  -0.188  1.00  0.00     0.245 HD
ENDBRANCH   5  21
BRANCH   1  23
HETATM   23  N1  UNL     1      -3.715   2.912   0.155  1.00  0.00    -0.234 N 
ATOM     24  H12 UNL     1      -3.133   3.738   0.298  1.00  0.00     0.174 HD
ATOM     25  H11 UNL     1      -4.724   3.023   0.057  1.00  0.00     0.174 HD
ENDBRANCH   1  23
TORSDOF 6
