REMARK  4 active torsions:
REMARK  status: ('A' for Active; 'I' for Inactive)
REMARK    1  A    between atoms: C2_2  and  C3_3 
REMARK    2  A    between atoms: C3_3  and  C4_4 
REMARK    3  A    between atoms: C4_4  and  C5_5 
REMARK    4  A    between atoms: C13_20  and  C14_21 
ROOT
HETATM    1  C14 UNL     1      -2.143   2.777  -1.855  1.00  0.00     0.047 C 
HETATM    2  C15 UNL     1      -2.012   4.269  -2.177  1.00  0.00     0.062 C 
HETATM    3  C16 UNL     1      -3.351   2.194  -2.221  1.00  0.00     0.097 C 
HETATM    4  N4  UNL     1      -4.339   1.711  -2.550  1.00  0.00    -0.192 NA
ENDROOT
BRANCH   1   5
HETATM    5  C13 UNL     1      -1.138   2.289  -0.953  1.00  0.00     0.075 A 
HETATM    6  N3  UNL     1       0.145   2.895  -1.070  1.00  0.00    -0.349 N 
HETATM    7  C12 UNL     1       1.016   2.276  -0.310  1.00  0.00     0.189 A 
ATOM      8  H3  UNL     1       0.357   3.698  -1.662  1.00  0.00     0.166 HD
HETATM    9  N2  UNL     1       0.388   1.286   0.312  1.00  0.00    -0.305 N 
HETATM   10  C11 UNL     1       1.162   0.399   1.154  1.00  0.00     0.070 A 
HETATM   11  C17 UNL     1      -0.911   1.283  -0.052  1.00  0.00     0.073 A 
HETATM   12  C8  UNL     1       0.610  -0.215   2.259  1.00  0.00     0.101 A 
HETATM   13  C10 UNL     1       2.502   0.159   0.956  1.00  0.00    -0.008 A 
HETATM   14  C7  UNL     1      -0.802  -0.221   2.705  1.00  0.00     0.261 C 
HETATM   15  S1  UNL     1       1.881  -1.071   2.994  1.00  0.00    -0.078 SA
HETATM   16  N1  UNL     1      -1.847  -0.082   1.805  1.00  0.00    -0.342 N 
HETATM   17  O1  UNL     1      -0.910  -0.363   3.936  1.00  0.00    -0.267 OA
HETATM   18  C5  UNL     1      -2.028   0.488   0.485  1.00  0.00     0.075 C 
ATOM     19  H1  UNL     1      -2.712  -0.485   2.165  1.00  0.00     0.164 HD
HETATM   20  C6  UNL     1      -3.240   1.351   0.836  1.00  0.00     0.045 C 
HETATM   21  C9  UNL     1       3.125  -0.647   1.880  1.00  0.00     0.060 A 
HETATM   22  C23 UNL     1       4.568  -0.954   1.793  1.00  0.00     0.167 C 
HETATM   23  C22 UNL     1       5.375  -0.710   0.572  1.00  0.00     0.093 C 
HETATM   24  O2  UNL     1       5.117  -1.440   2.802  1.00  0.00    -0.292 OA
HETATM   25  C19 UNL     1       4.355  -0.617  -0.561  1.00  0.00    -0.037 C 
HETATM   26  C18 UNL     1       3.433   0.556  -0.171  1.00  0.00     0.051 C 
HETATM   27  C20 UNL     1       5.072  -0.202  -1.813  1.00  0.00     0.015 C 
HETATM   28  C21 UNL     1       3.600  -1.897  -0.733  1.00  0.00     0.015 C 
BRANCH  18  29
HETATM   29  C4  UNL     1      -2.341  -0.727  -0.344  1.00  0.00     0.037 C 
BRANCH  29  30
HETATM   30  C3  UNL     1      -3.304  -1.706   0.267  1.00  0.00     0.002 C 
BRANCH  30  31
HETATM   31  C2  UNL     1      -3.551  -2.876  -0.703  1.00  0.00    -0.004 C 
HETATM   32  C1  UNL     1      -4.511  -3.839  -0.080  1.00  0.00     0.005 C 
ENDBRANCH  30  31
ENDBRANCH  29  30
ENDBRANCH  18  29
ENDBRANCH   1   5
TORSDOF 4
