REMARK  5 active torsions:
REMARK  status: ('A' for Active; 'I' for Inactive)
REMARK    1  A    between atoms: C2_2  and  C3_3 
REMARK    2  A    between atoms: C3_3  and  C4_4 
REMARK    3  A    between atoms: C4_4  and  O2_6 
REMARK    4  A    between atoms: O2_6  and  C5_7 
REMARK    5  A    between atoms: C21_26  and  C23_28 
ROOT
HETATM    1  C5  UNL     1      -1.009   0.134  -0.851  1.00  0.00     0.177 C 
HETATM    2  C6  UNL     1      -0.348  -0.912  -1.687  1.00  0.00     0.044 C 
HETATM    3  C7  UNL     1      -0.053  -2.084  -0.783  1.00  0.00     0.030 C 
HETATM    4  C8  UNL     1      -0.897  -3.293  -1.113  1.00  0.00     0.184 C 
HETATM    5  O3  UNL     1      -0.185  -4.315  -0.398  1.00  0.00    -0.320 OA
HETATM    6  C9  UNL     1       1.165  -3.994  -0.351  1.00  0.00     0.267 C 
HETATM    7  O4  UNL     1       2.038  -4.735   0.147  1.00  0.00    -0.264 OA
HETATM    8  C10 UNL     1       1.336  -2.646  -0.989  1.00  0.00     0.050 C 
HETATM    9  C11 UNL     1       1.621  -2.883  -2.451  1.00  0.00     0.026 C 
HETATM   10  C12 UNL     1       2.413  -1.845  -0.322  1.00  0.00     0.020 C 
HETATM   11  C13 UNL     1       2.379  -1.906   1.165  1.00  0.00     0.001 C 
HETATM   12  C14 UNL     1       2.257  -0.505   1.780  1.00  0.00     0.000 C 
HETATM   13  C15 UNL     1       3.568   0.144   2.010  1.00  0.00     0.000 C 
HETATM   14  C16 UNL     1       3.735   1.508   1.456  1.00  0.00     0.000 C 
HETATM   15  C17 UNL     1       2.492   2.348   1.449  1.00  0.00     0.002 C 
HETATM   16  C18 UNL     1       2.080   2.546  -0.016  1.00  0.00     0.032 C 
HETATM   17  C19 UNL     1       0.694   3.072  -0.152  1.00  0.00     0.119 C 
HETATM   18  C20 UNL     1       0.395   3.893   1.132  1.00  0.00     0.039 C 
HETATM   19  O5  UNL     1      -0.321   2.268  -0.303  1.00  0.00    -0.362 OA
HETATM   20  C21 UNL     1      -0.746   1.553  -1.322  1.00  0.00     0.171 C 
HETATM   21  C22 UNL     1      -2.179   2.108  -1.600  1.00  0.00     0.061 C 
ENDROOT
BRANCH   1  22
HETATM   22  O2  UNL     1      -2.390  -0.178  -0.785  1.00  0.00    -0.312 OA
BRANCH  22  23
HETATM   23  C4  UNL     1      -3.073  -0.504   0.364  1.00  0.00     0.259 C 
HETATM   24  O1  UNL     1      -2.442  -0.532   1.449  1.00  0.00    -0.265 OA
BRANCH  23  25
HETATM   25  C3  UNL     1      -4.522  -0.811   0.291  1.00  0.00     0.111 C 
BRANCH  25  26
HETATM   26  C2  UNL     1      -5.055  -1.140   1.675  1.00  0.00     0.005 C 
HETATM   27  C1  UNL     1      -4.849   0.032   2.594  1.00  0.00     0.005 C 
ENDBRANCH  25  26
ENDBRANCH  23  25
ENDBRANCH  22  23
ENDBRANCH   1  22
BRANCH  20  28
HETATM   28  C23 UNL     1      -0.131   1.633  -2.632  1.00  0.00     0.211 C 
HETATM   29  O6  UNL     1      -0.561   0.944  -3.575  1.00  0.00    -0.646 OA
HETATM   30  O7  UNL     1       0.929   2.455  -2.882  1.00  0.00    -0.646 OA
ENDBRANCH  20  28
TORSDOF 5
