REMARK  7 active torsions:
REMARK  status: ('A' for Active; 'I' for Inactive)
REMARK    1  A    between atoms: N2_10  and  C8_12 
REMARK    2  A    between atoms: C8_12  and  C9_13 
REMARK    3  A    between atoms: N3_14  and  O1_16 
REMARK    4  A    between atoms: C10_19  and  C11_20 
REMARK    5  A    between atoms: C11_20  and  O3_22 
REMARK    6  A    between atoms: O3_22  and  C12_23 
REMARK    7  A    between atoms: C12_23  and  C13_24 
ROOT
HETATM    1  C1  UNL     1       3.002   3.590  -0.455  1.00  0.00     0.010 C 
HETATM    2  C2  UNL     1       3.179   2.309  -1.210  1.00  0.00    -0.013 C 
HETATM    3  C3  UNL     1       1.908   1.590  -1.519  1.00  0.00     0.005 C 
HETATM    4  C4  UNL     1       1.237   0.935  -0.357  1.00  0.00     0.012 C 
HETATM    5  C5  UNL     1       2.270   0.424   0.625  1.00  0.00     0.055 C 
HETATM    6  C6  UNL     1       3.503   0.198  -0.109  1.00  0.00    -0.005 C 
HETATM    7  N1  UNL     1       4.031  -0.919  -0.408  1.00  0.00    -0.344 N 
ATOM      8  H1  UNL     1       4.907  -0.894  -0.931  1.00  0.00     0.167 HD
HETATM    9  C7  UNL     1       3.518  -2.179  -0.084  1.00  0.00     0.141 C 
HETATM   10  N2  UNL     1       4.118  -3.301  -0.187  1.00  0.00    -0.366 N 
ATOM     11  H2  UNL     1       3.653  -4.170   0.077  1.00  0.00     0.162 HD
HETATM   12  S1  UNL     1       1.831  -2.214   0.551  1.00  0.00    -0.078 SA
HETATM   13  C10 UNL     1       1.781  -0.652   1.517  1.00  0.00     0.164 C 
HETATM   14  C23 UNL     1       4.241   1.426  -0.574  1.00  0.00     0.057 C 
ENDROOT
BRANCH  13  15
HETATM   15  C11 UNL     1       0.451  -0.369   2.049  1.00  0.00     0.274 C 
HETATM   16  O2  UNL     1       0.319  -0.284   3.309  1.00  0.00    -0.264 OA
BRANCH  15  17
HETATM   17  O3  UNL     1      -0.690  -0.182   1.294  1.00  0.00    -0.320 OA
BRANCH  17  18
HETATM   18  C12 UNL     1      -1.959   0.092   1.874  1.00  0.00     0.188 C 
BRANCH  18  19
HETATM   19  C13 UNL     1      -3.037   0.255   0.861  1.00  0.00    -0.017 C 
HETATM   20  C14 UNL     1      -2.782   1.384  -0.107  1.00  0.00     0.016 C 
HETATM   21  C15 UNL     1      -3.982   1.554  -0.997  1.00  0.00    -0.013 C 
HETATM   22  C16 UNL     1      -5.194   1.874  -0.179  1.00  0.00     0.009 C 
HETATM   23  C20 UNL     1      -4.204   0.308  -1.837  1.00  0.00     0.009 C 
HETATM   24  C17 UNL     1      -5.503   0.668   0.682  1.00  0.00    -0.013 C 
HETATM   25  C18 UNL     1      -5.696  -0.576  -0.130  1.00  0.00     0.009 C 
HETATM   26  C22 UNL     1      -4.344   0.460   1.607  1.00  0.00     0.016 C 
HETATM   27  C19 UNL     1      -4.411  -0.840  -0.886  1.00  0.00    -0.013 C 
HETATM   28  C21 UNL     1      -3.225  -1.011   0.024  1.00  0.00     0.016 C 
ENDBRANCH  18  19
ENDBRANCH  17  18
ENDBRANCH  15  17
ENDBRANCH  13  15
BRANCH  10  29
HETATM   29  C8  UNL     1       5.490  -3.308  -0.694  1.00  0.00     0.168 C 
BRANCH  29  30
HETATM   30  C9  UNL     1       5.842  -4.716  -0.972  1.00  0.00     0.106 C 
HETATM   31  N3  UNL     1       6.010  -5.529  -0.005  1.00  0.00    -0.283 N 
ATOM     32  H3  UNL     1       6.254  -6.499  -0.204  1.00  0.00     0.192 HD
BRANCH  31  33
HETATM   33  O1  UNL     1       5.870  -5.128   1.289  1.00  0.00    -0.291 OA
ATOM     34  H1  UNL     1       5.995  -5.734   2.010  1.00  0.00     0.244 HD
ENDBRANCH  31  33
ENDBRANCH  29  30
ENDBRANCH  10  29
TORSDOF 7
