REMARK  7 active torsions:
REMARK  status: ('A' for Active; 'I' for Inactive)
REMARK    1  A    between atoms: C3_4  and  O1_5 
REMARK    2  A    between atoms: C3_4  and  C4_7 
REMARK    3  A    between atoms: C5_9  and  N2_10 
REMARK       I    between atoms: N2_10  and  C6_12 
REMARK    4  A    between atoms: C6_12  and  C7_14 
REMARK    5  A    between atoms: C7_14  and  S2_15 
REMARK    6  A    between atoms: S2_15  and  C8_16 
REMARK    7  A    between atoms: C9_19  and  C10_20 
ROOT
HETATM    1  N2  UNL     1       1.744   1.352   2.589  1.00  0.00    -0.306 N 
ATOM      2  H2  UNL     1       1.284   0.860   3.355  1.00  0.00     0.171 HD
HETATM    3  C6  UNL     1       1.242   2.581   2.098  1.00  0.00     0.233 C 
HETATM    4  O2  UNL     1       1.951   3.614   2.278  1.00  0.00    -0.272 OA
ENDROOT
BRANCH   1   5
HETATM    5  C5  UNL     1       2.831   0.866   2.017  1.00  0.00     0.153 A 
HETATM    6  S1  UNL     1       3.669  -0.563   2.369  1.00  0.00    -0.046 SA
HETATM    7  C4  UNL     1       4.962  -0.427   1.154  1.00  0.00     0.097 A 
HETATM    8  C16 UNL     1       4.599   0.742   0.588  1.00  0.00     0.127 A 
HETATM    9  N4  UNL     1       3.535   1.376   1.028  1.00  0.00    -0.326 N 
HETATM   10 CL1  UNL     1       5.530   1.485  -0.760  1.00  0.00    -0.063 Cl
ATOM     11  H4  UNL     1       3.255   2.261   0.604  1.00  0.00     0.169 HD
BRANCH   7  12
HETATM   12  C3  UNL     1       5.989  -1.424   1.024  1.00  0.00     0.158 C 
HETATM   13  N1  UNL     1       7.068  -1.640   0.243  1.00  0.00    -0.369 N 
HETATM   14  C1  UNL     1       7.842  -2.915   0.558  1.00  0.00     0.151 C 
HETATM   15  C2  UNL     1       7.668  -0.923  -0.846  1.00  0.00     0.151 C 
BRANCH  12  16
HETATM   16  O1  UNL     1       5.812  -2.398   1.934  1.00  0.00    -0.345 OA
ATOM     17  H1  UNL     1       5.052  -2.246   2.484  1.00  0.00     0.219 HD
ENDBRANCH  12  16
ENDBRANCH   7  12
ENDBRANCH   1   5
BRANCH   3  18
HETATM   18  C7  UNL     1      -0.065   2.640   1.401  1.00  0.00     0.184 C 
BRANCH  18  19
HETATM   19  S2  UNL     1      -0.757   0.981   1.349  1.00  0.00    -0.096 SA
BRANCH  19  20
HETATM   20  C8  UNL     1      -2.353   1.024   0.502  1.00  0.00     0.112 A 
HETATM   21  N3  UNL     1      -3.164   0.006   0.267  1.00  0.00    -0.348 N 
HETATM   22  C9  UNL     1      -4.278   0.207  -0.357  1.00  0.00     0.021 A 
ATOM     23  H3  UNL     1      -2.912  -0.933   0.576  1.00  0.00     0.167 HD
HETATM   24  C15 UNL     1      -4.569   1.489  -0.750  1.00  0.00     0.077 A 
HETATM   25  S3  UNL     1      -3.195   2.338  -0.187  1.00  0.00    -0.075 SA
BRANCH  22  26
HETATM   26  C10 UNL     1      -5.257  -0.909  -0.662  1.00  0.00     0.036 C 
HETATM   27  C11 UNL     1      -5.537  -0.977  -2.131  1.00  0.00     0.011 C 
HETATM   28  C12 UNL     1      -6.922  -0.459  -2.363  1.00  0.00     0.001 C 
HETATM   29  C13 UNL     1      -7.524  -0.138  -1.029  1.00  0.00     0.001 C 
HETATM   30  C14 UNL     1      -6.577  -0.630   0.020  1.00  0.00     0.011 C 
ENDBRANCH  22  26
ENDBRANCH  19  20
ENDBRANCH  18  19
ENDBRANCH   3  18
TORSDOF 7
