REMARK  7 active torsions:
REMARK  status: ('A' for Active; 'I' for Inactive)
REMARK    1  A    between atoms: C2_2  and  O1_3 
REMARK    2  A    between atoms: O1_3  and  C3_4 
REMARK    3  A    between atoms: C3_4  and  C4_6 
REMARK    4  A    between atoms: C7_10  and  O3_11 
REMARK    5  A    between atoms: C7_10  and  C8_13 
REMARK    6  A    between atoms: C9_14  and  N2_15 
REMARK       I    between atoms: N2_15  and  C10_17 
REMARK    7  A    between atoms: C10_17  and  C11_19 
ROOT
HETATM    1  C8  UNL     1      -1.931  -1.285  -1.211  1.00  0.00     0.056 A 
HETATM    2  C9  UNL     1      -3.157  -0.712  -1.042  1.00  0.00     0.092 A 
HETATM    3  S1  UNL     1      -4.261  -2.057  -1.271  1.00  0.00    -0.075 SA
HETATM    4  C15 UNL     1      -3.120  -3.277  -1.556  1.00  0.00    -0.008 A 
HETATM    5  C16 UNL     1      -1.927  -2.650  -1.481  1.00  0.00    -0.028 A 
HETATM    6  C17 UNL     1      -0.868  -3.703  -1.802  1.00  0.00     0.041 C 
HETATM    7  C18 UNL     1      -1.651  -4.840  -2.428  1.00  0.00     0.010 C 
HETATM    8  C19 UNL     1      -3.004  -4.771  -1.841  1.00  0.00     0.047 C 
ENDROOT
BRANCH   1   9
HETATM    9  C7  UNL     1      -0.753  -0.385  -1.427  1.00  0.00     0.151 C 
HETATM   10  N1  UNL     1       0.585  -0.526  -1.250  1.00  0.00    -0.361 N 
HETATM   11  C6  UNL     1       1.457   0.609  -1.683  1.00  0.00     0.126 C 
HETATM   12  C20 UNL     1       1.315  -1.558  -0.593  1.00  0.00     0.126 C 
HETATM   13  C5  UNL     1       1.976   1.328  -0.458  1.00  0.00     0.034 C 
HETATM   14  C4  UNL     1       2.134   0.356   0.701  1.00  0.00     0.088 C 
HETATM   15  C21 UNL     1       2.509  -1.003   0.189  1.00  0.00     0.034 C 
BRANCH  14  16
HETATM   16  C3  UNL     1       3.175   0.791   1.663  1.00  0.00     0.263 C 
HETATM   17  O2  UNL     1       2.881   1.026   2.877  1.00  0.00    -0.265 OA
BRANCH  16  18
HETATM   18  O1  UNL     1       4.490   0.957   1.284  1.00  0.00    -0.322 OA
BRANCH  18  19
HETATM   19  C2  UNL     1       5.524   1.369   2.157  1.00  0.00     0.174 C 
HETATM   20  C1  UNL     1       5.229   2.720   2.733  1.00  0.00     0.034 C 
ENDBRANCH  18  19
ENDBRANCH  16  18
ENDBRANCH  14  16
BRANCH   9  21
HETATM   21  O3  UNL     1      -1.070   0.828  -1.883  1.00  0.00    -0.345 OA
ATOM     22  H3  UNL     1      -2.007   0.927  -2.007  1.00  0.00     0.219 HD
ENDBRANCH   9  21
ENDBRANCH   1   9
BRANCH   2  23
HETATM   23  N2  UNL     1      -3.628   0.542  -0.527  1.00  0.00    -0.314 N 
HETATM   24  C10 UNL     1      -2.949   1.304   0.433  1.00  0.00     0.283 C 
HETATM   25  O4  UNL     1      -1.875   0.980   0.993  1.00  0.00    -0.265 OA
ATOM     26  H2  UNL     1      -4.514   0.902  -0.883  1.00  0.00     0.170 HD
BRANCH  24  27
HETATM   27  C11 UNL     1      -3.517   2.616   0.851  1.00  0.00     0.181 A 
HETATM   28  O5  UNL     1      -4.613   3.140   0.414  1.00  0.00    -0.314 OA
HETATM   29  C12 UNL     1      -4.840   4.300   0.973  1.00  0.00     0.146 A 
HETATM   30  C13 UNL     1      -3.811   4.557   1.846  1.00  0.00     0.070 A 
HETATM   31  C14 UNL     1      -2.950   3.457   1.763  1.00  0.00     0.157 A 
HETATM   32  F1  UNL     1      -1.817   3.345   2.479  1.00  0.00    -0.203 F 
ENDBRANCH  24  27
ENDBRANCH   2  23
TORSDOF 7
