REMARK  6 active torsions:
REMARK  status: ('A' for Active; 'I' for Inactive)
REMARK    1  A    between atoms: C2_2  and  C4_4 
REMARK    2  A    between atoms: C7_7  and  N1_8 
REMARK       I    between atoms: N1_8  and  C8_10 
REMARK    3  A    between atoms: C8_10  and  C9_12 
REMARK    4  A    between atoms: C10_16  and  C11_17 
REMARK       I    between atoms: N3_21  and  C15_22 
REMARK    5  A    between atoms: C15_22  and  O4_24 
REMARK    6  A    between atoms: O4_24  and  C16_25 
ROOT
HETATM    1  C9  UNL     1       0.811  -0.256  -0.585  1.00  0.00     0.196 A 
HETATM    2  N2  UNL     1       0.420  -0.750   0.610  1.00  0.00    -0.238 N 
ATOM      3  H2  UNL     1       1.032  -0.920   1.408  1.00  0.00     0.196 HD
HETATM    4  O2  UNL     1      -0.868  -0.976   0.582  1.00  0.00    -0.222 OA
HETATM    5  C10 UNL     1      -1.362  -0.652  -0.589  1.00  0.00     0.154 A 
HETATM    6  N4  UNL     1      -0.316  -0.204  -1.316  1.00  0.00    -0.318 N 
ATOM      7  H4  UNL     1      -0.373   0.126  -2.280  1.00  0.00     0.169 HD
ENDROOT
BRANCH   1   8
HETATM    8  C8  UNL     1       2.158   0.123  -0.960  1.00  0.00     0.287 C 
HETATM    9  N1  UNL     1       3.235  -0.001  -0.055  1.00  0.00    -0.350 N 
ATOM     10  H1  UNL     1       3.042  -0.366   0.878  1.00  0.00     0.163 HD
HETATM   11  O1  UNL     1       2.370   0.567  -2.107  1.00  0.00    -0.264 OA
BRANCH   9  12
HETATM   12  C7  UNL     1       4.584   0.359  -0.377  1.00  0.00     0.084 C 
HETATM   13  C6  UNL     1       5.467  -0.843  -0.237  1.00  0.00     0.025 C 
HETATM   14  C5  UNL     1       6.841  -0.461   0.266  1.00  0.00     0.007 C 
HETATM   15  C4  UNL     1       7.258   0.839  -0.354  1.00  0.00    -0.011 C 
HETATM   16  C22 UNL     1       6.377   1.982   0.092  1.00  0.00     0.007 C 
HETATM   17  C21 UNL     1       5.026   1.472   0.551  1.00  0.00     0.025 C 
BRANCH  15  18
HETATM   18  C2  UNL     1       8.679   1.171  -0.002  1.00  0.00    -0.019 C 
HETATM   19  C1  UNL     1       8.841   1.293   1.490  1.00  0.00     0.010 C 
HETATM   20  C3  UNL     1       9.614   0.112  -0.571  1.00  0.00     0.010 C 
ENDBRANCH  15  18
ENDBRANCH   9  12
ENDBRANCH   1   8
BRANCH   5  21
HETATM   21  C11 UNL     1      -2.795  -0.759  -1.027  1.00  0.00     0.081 C 
HETATM   22  C12 UNL     1      -3.293  -2.163  -0.973  1.00  0.00     0.016 C 
HETATM   23  C13 UNL     1      -4.592  -2.248  -1.742  1.00  0.00     0.021 C 
HETATM   24  C14 UNL     1      -5.345  -0.924  -1.708  1.00  0.00     0.128 C 
HETATM   25  N3  UNL     1      -5.049  -0.239  -0.483  1.00  0.00    -0.327 N 
HETATM   26  C15 UNL     1      -6.067   0.111   0.416  1.00  0.00     0.363 C 
HETATM   27  C20 UNL     1      -3.689   0.099  -0.165  1.00  0.00     0.141 C 
HETATM   28  O3  UNL     1      -5.877   0.711   1.505  1.00  0.00    -0.238 OA
BRANCH  26  29
HETATM   29  O4  UNL     1      -7.378  -0.217   0.108  1.00  0.00    -0.294 OA
BRANCH  29  30
HETATM   30  C16 UNL     1      -8.428   0.109   0.971  1.00  0.00     0.061 C 
HETATM   31  C17 UNL     1      -8.547   1.589   1.213  1.00  0.00     0.046 C 
HETATM   32  C18 UNL     1      -9.725  -0.323   0.273  1.00  0.00     0.046 C 
HETATM   33  C19 UNL     1      -8.279  -0.637   2.288  1.00  0.00     0.046 C 
ENDBRANCH  29  30
ENDBRANCH  26  29
ENDBRANCH   5  21
TORSDOF 6
