REMARK  7 active torsions:
REMARK  status: ('A' for Active; 'I' for Inactive)
REMARK    1  A    between atoms: C11_12  and  C12_13 
REMARK    2  A    between atoms: C12_13  and  C13_14 
REMARK    3  A    between atoms: C13_14  and  C14_15 
REMARK    4  A    between atoms: C14_15  and  C15_16 
REMARK    5  A    between atoms: C15_16  and  O2_17 
REMARK    6  A    between atoms: C15_16  and  C16_19 
REMARK    7  A    between atoms: C17_20  and  C18_21 
ROOT
HETATM    1  C1  UNL     1      -2.732  -1.251   2.977  1.00  0.00     0.055 C 
HETATM    2  C2  UNL     1      -3.262  -0.200   2.058  1.00  0.00     0.125 C 
HETATM    3  C3  UNL     1      -3.887   0.889   2.938  1.00  0.00     0.055 C 
HETATM    4  O1  UNL     1      -4.245  -0.759   1.211  1.00  0.00    -0.332 OA
HETATM    5  C4  UNL     1      -4.670  -0.485  -0.071  1.00  0.00     0.083 A 
HETATM    6  C5  UNL     1      -6.012  -0.639  -0.311  1.00  0.00     0.077 A 
HETATM    7  C6  UNL     1      -6.605  -0.406  -1.541  1.00  0.00     0.107 A 
HETATM    8  C7  UNL     1      -5.803   0.006  -2.594  1.00  0.00     0.106 A 
HETATM    9  C8  UNL     1      -4.454   0.163  -2.362  1.00  0.00     0.054 A 
HETATM   10  C9  UNL     1      -3.884  -0.074  -1.129  1.00  0.00     0.001 A 
HETATM   11  C10 UNL     1      -2.449   0.149  -1.092  1.00  0.00     0.025 C 
HETATM   12  C11 UNL     1      -1.641   0.364  -0.014  1.00  0.00    -0.008 C 
HETATM   13  C24 UNL     1      -2.146   0.457   1.329  1.00  0.00     0.189 C 
HETATM   14  O4  UNL     1      -1.525   1.267   2.062  1.00  0.00    -0.289 OA
HETATM   15  O5  UNL     1      -6.641   0.166  -3.703  1.00  0.00    -0.323 OA
HETATM   16  C25 UNL     1      -7.982  -0.115  -3.341  1.00  0.00     0.352 A 
HETATM   17  O6  UNL     1      -7.919  -0.503  -1.976  1.00  0.00    -0.323 OA
ENDROOT
BRANCH  12  18
HETATM   18  C12 UNL     1      -0.245   0.543  -0.392  1.00  0.00     0.042 C 
BRANCH  18  19
HETATM   19  C13 UNL     1       0.723  -0.525  -0.087  1.00  0.00     0.008 C 
BRANCH  19  20
HETATM   20  C14 UNL     1       1.069  -0.864   1.310  1.00  0.00     0.045 C 
BRANCH  20  21
HETATM   21  C15 UNL     1       1.797   0.225   2.073  1.00  0.00     0.196 C 
BRANCH  21  22
HETATM   22  O2  UNL     1       2.035  -0.260   3.363  1.00  0.00    -0.383 OA
ATOM     23  H2  UNL     1       2.491   0.422   3.841  1.00  0.00     0.211 HD
ENDBRANCH  21  22
BRANCH  21  24
HETATM   24  C16 UNL     1       3.092   0.389   1.354  1.00  0.00    -0.074 C 
HETATM   25  C17 UNL     1       4.144   0.538   0.784  1.00  0.00    -0.091 C 
BRANCH  25  26
HETATM   26  C18 UNL     1       5.425   0.743   0.102  1.00  0.00     0.134 C 
HETATM   27  C19 UNL     1       5.134   1.068  -1.331  1.00  0.00     0.025 C 
HETATM   28  C20 UNL     1       6.341   0.735  -2.171  1.00  0.00     0.002 C 
HETATM   29  C21 UNL     1       7.614   0.765  -1.373  1.00  0.00     0.007 C 
HETATM   30  C22 UNL     1       7.610  -0.438  -0.457  1.00  0.00     0.079 C 
HETATM   31  C23 UNL     1       6.308  -0.444   0.255  1.00  0.00     0.142 C 
HETATM   32  O3  UNL     1       6.025  -1.414   0.927  1.00  0.00    -0.297 OA
ENDBRANCH  25  26
ENDBRANCH  21  24
ENDBRANCH  20  21
ENDBRANCH  19  20
ENDBRANCH  18  19
ENDBRANCH  12  18
TORSDOF 7
