REMARK  5 active torsions:
REMARK  status: ('A' for Active; 'I' for Inactive)
REMARK    1  A    between atoms: O1_2  and  C2_3 
REMARK    2  A    between atoms: C7_8  and  O2_9 
REMARK    3  A    between atoms: O2_9  and  C8_10 
REMARK    4  A    between atoms: C8_10  and  C9_11 
REMARK    5  A    between atoms: C9_11  and  O3_13 
ROOT
HETATM    1  C2  UNL     1       1.986   0.497   2.205  1.00  0.00     0.102 A 
HETATM    2  C3  UNL     1       1.234   1.498   2.708  1.00  0.00     0.040 A 
HETATM    3  C4  UNL     1       0.322   2.098   1.910  1.00  0.00     0.010 A 
HETATM    4  C5  UNL     1       0.089   1.767   0.599  1.00  0.00    -0.049 A 
HETATM    5  C6  UNL     1       0.878   0.723   0.089  1.00  0.00    -0.013 A 
HETATM    6  C7  UNL     1       1.817   0.086   0.861  1.00  0.00     0.109 A 
HETATM    7  C11 UNL     1       0.632   0.283  -1.287  1.00  0.00     0.083 C 
HETATM    8  C12 UNL     1      -0.287  -0.900  -1.418  1.00  0.00     0.100 C 
HETATM    9  C13 UNL     1       0.340  -2.228  -1.193  1.00  0.00     0.041 C 
HETATM   10  C14 UNL     1      -0.607  -3.166  -1.953  1.00  0.00     0.003 C 
HETATM   11  C15 UNL     1      -1.352  -2.326  -2.935  1.00  0.00     0.003 C 
HETATM   12  C16 UNL     1      -0.593  -0.997  -2.926  1.00  0.00     0.041 C 
HETATM   13  O4  UNL     1      -1.494  -0.788  -0.802  1.00  0.00    -0.229 OA
HETATM   14  O5  UNL     1      -1.499  -0.223   0.380  1.00  0.00    -0.229 OA
HETATM   15  C17 UNL     1      -2.613   0.658   0.358  1.00  0.00     0.097 C 
HETATM   16  C18 UNL     1      -3.664  -0.103  -0.437  1.00  0.00     0.048 C 
HETATM   17  C19 UNL     1      -5.022   0.556  -0.313  1.00  0.00     0.081 C 
HETATM   18  C20 UNL     1      -5.385   0.350   1.122  1.00  0.00     0.127 C 
HETATM   19  O6  UNL     1      -6.408  -0.196   1.473  1.00  0.00    -0.298 OA
HETATM   20  C21 UNL     1      -4.442   0.843   2.122  1.00  0.00     0.081 C 
HETATM   21  C22 UNL     1      -3.042   1.047   1.719  1.00  0.00     0.048 C 
HETATM   22  C23 UNL     1      -2.176   1.810  -0.507  1.00  0.00     0.046 C 
HETATM   23  C24 UNL     1      -0.924   2.492  -0.162  1.00  0.00     0.042 C 
ENDROOT
BRANCH   6  24
HETATM   24  O2  UNL     1       2.651  -0.948   0.489  1.00  0.00    -0.345 OA
BRANCH  24  25
HETATM   25  C8  UNL     1       3.954  -0.973   0.096  1.00  0.00     0.207 C 
BRANCH  25  26
HETATM   26  C9  UNL     1       4.474  -0.305  -1.099  1.00  0.00     0.138 C 
HETATM   27  C10 UNL     1       5.993  -0.571  -1.138  1.00  0.00     0.041 C 
BRANCH  26  28
HETATM   28  O3  UNL     1       4.021  -0.768  -2.327  1.00  0.00    -0.394 OA
ATOM     29  H3  UNL     1       4.358  -0.335  -3.102  1.00  0.00     0.210 HD
ENDBRANCH  26  28
ENDBRANCH  25  26
ENDBRANCH  24  25
ENDBRANCH   6  24
BRANCH   1  30
HETATM   30  O1  UNL     1       2.946  -0.152   3.008  1.00  0.00    -0.353 OA
HETATM   31  C1  UNL     1       3.171   0.194   4.337  1.00  0.00     0.210 C 
ENDBRANCH   1  30
TORSDOF 5
