REMARK  6 active torsions:
REMARK  status: ('A' for Active; 'I' for Inactive)
REMARK    1  A    between atoms: C2_2  and  C3_3 
REMARK    2  A    between atoms: C16_20  and  C18_22 
REMARK    3  A    between atoms: C18_22  and  C19_23 
REMARK    4  A    between atoms: C19_23  and  C20_24 
REMARK    5  A    between atoms: C22_26  and  O5_27 
REMARK    6  A    between atoms: O5_27  and  C23_28 
ROOT
HETATM    1  C3  UNL     1      -1.121   1.386   0.985  1.00  0.00     0.038 C 
HETATM    2  C4  UNL     1      -2.070   0.256   1.399  1.00  0.00     0.024 C 
HETATM    3  C5  UNL     1      -2.151  -0.643   0.293  1.00  0.00     0.002 C 
HETATM    4  C6  UNL     1      -2.699   0.202  -0.694  1.00  0.00     0.123 C 
HETATM    5  C7  UNL     1      -4.175   0.158  -0.229  1.00  0.00     0.260 C 
HETATM    6  O1  UNL     1      -4.949   1.058   0.078  1.00  0.00    -0.265 OA
HETATM    7  O2  UNL     1      -4.374  -1.205  -0.261  1.00  0.00    -0.312 OA
HETATM    8  C8  UNL     1      -3.096  -1.725  -0.104  1.00  0.00     0.171 C 
HETATM    9  C9  UNL     1      -2.427  -2.186  -1.417  1.00  0.00     0.167 C 
HETATM   10  O3  UNL     1      -2.422  -3.621  -1.415  1.00  0.00    -0.313 OA
HETATM   11  C10 UNL     1      -1.580  -3.969  -2.453  1.00  0.00     0.259 C 
HETATM   12  O4  UNL     1      -1.676  -4.887  -3.308  1.00  0.00    -0.265 OA
HETATM   13  C11 UNL     1      -0.477  -3.018  -2.379  1.00  0.00     0.118 C 
HETATM   14  C12 UNL     1      -1.025  -1.732  -1.734  1.00  0.00     0.032 C 
HETATM   15  C13 UNL     1      -0.141  -1.277  -0.626  1.00  0.00     0.008 C 
HETATM   16  C14 UNL     1      -1.004  -1.508   0.539  1.00  0.00    -0.002 C 
HETATM   17  C15 UNL     1      -0.346  -1.591   1.839  1.00  0.00     0.011 C 
HETATM   18  C16 UNL     1       0.537   0.065  -0.635  1.00  0.00    -0.012 C 
HETATM   19  C17 UNL     1       0.759   0.283  -2.167  1.00  0.00     0.018 C 
HETATM   20  C22 UNL     1      -0.025   1.208   0.037  1.00  0.00     0.148 C 
ENDROOT
BRANCH  18  21
HETATM   21  C18 UNL     1       1.955  -0.248  -0.237  1.00  0.00     0.012 C 
BRANCH  21  22
HETATM   22  C19 UNL     1       3.040   0.655  -0.082  1.00  0.00     0.000 C 
BRANCH  22  23
HETATM   23  C20 UNL     1       4.322  -0.187   0.268  1.00  0.00    -0.005 C 
HETATM   24  C21 UNL     1       4.082  -0.946   1.551  1.00  0.00     0.005 C 
ENDBRANCH  22  23
ENDBRANCH  21  22
ENDBRANCH  18  21
BRANCH  20  25
HETATM   25  O5  UNL     1       0.920   2.197   0.442  1.00  0.00    -0.315 OA
BRANCH  25  26
HETATM   26  C23 UNL     1       1.132   3.426  -0.164  1.00  0.00     0.255 C 
HETATM   27  C24 UNL     1       2.132   4.419   0.303  1.00  0.00     0.126 C 
HETATM   28  O6  UNL     1       0.433   3.707  -1.166  1.00  0.00    -0.266 OA
ENDBRANCH  25  26
ENDBRANCH  20  25
BRANCH   1  29
HETATM   29  C2  UNL     1      -0.735   2.018   2.285  1.00  0.00    -0.030 C 
HETATM   30  C1  UNL     1      -1.221   3.141   2.752  1.00  0.00     0.007 C 
ENDBRANCH   1  29
TORSDOF 6
