REMARK  5 active torsions:
REMARK  status: ('A' for Active; 'I' for Inactive)
REMARK    1  A    between atoms: N1_1  and  C1_5 
REMARK    2  A    between atoms: C1_5  and  C2_6 
REMARK    3  A    between atoms: C2_6  and  C3_7 
REMARK    4  A    between atoms: C5_9  and  C6_10 
REMARK    5  A    between atoms: C6_10  and  N2_11 
ROOT
HETATM    1  C3  UNL     1      -0.298  -0.939   0.287  1.00  0.00     0.190 C 
HETATM    2  C4  UNL     1       0.298  -0.324  -0.936  1.00  0.00     0.067 C 
HETATM    3  C5  UNL     1       1.107   0.499   0.039  1.00  0.00     0.213 C 
HETATM    4  N3  UNL     1       0.921  -0.569   1.004  1.00  0.00    -0.065 N 
ATOM      5  H31 UNL     1       1.657  -1.255   1.173  1.00  0.00     0.278 HD
ATOM      6  H32 UNL     1       0.899  -0.372   2.004  1.00  0.00     0.278 HD
ENDROOT
BRANCH   1   7
HETATM    7  C2  UNL     1      -1.457  -0.200   0.864  1.00  0.00     0.060 C 
BRANCH   7   8
HETATM    8  C1  UNL     1      -2.625  -0.067  -0.084  1.00  0.00     0.231 C 
BRANCH   8   9
HETATM    9  N1  UNL     1      -3.655   0.672   0.652  1.00  0.00    -0.079 N 
ATOM     10  H13 UNL     1      -3.901   0.247   1.546  1.00  0.00     0.274 HD
ATOM     11  H12 UNL     1      -3.329   1.563   1.026  1.00  0.00     0.274 HD
ATOM     12  H11 UNL     1      -4.444   0.762   0.012  1.00  0.00     0.274 HD
ENDBRANCH   8   9
ENDBRANCH   7   8
ENDBRANCH   1   7
BRANCH   3  13
HETATM   13  C6  UNL     1       2.532   0.697  -0.406  1.00  0.00     0.262 C 
BRANCH  13  14
HETATM   14  N2  UNL     1       3.246  -0.554  -0.564  1.00  0.00    -0.077 N 
ATOM     15  H23 UNL     1       3.203  -1.111   0.290  1.00  0.00     0.274 HD
ATOM     16  H22 UNL     1       2.749  -1.182  -1.196  1.00  0.00     0.274 HD
ATOM     17  H21 UNL     1       4.211  -0.420  -0.865  1.00  0.00     0.274 HD
ENDBRANCH  13  14
ENDBRANCH   3  13
TORSDOF 5
