REMARK  4 active torsions:
REMARK  status: ('A' for Active; 'I' for Inactive)
REMARK    1  A    between atoms: N1_1  and  C1_5 
REMARK    2  A    between atoms: C1_5  and  C2_6 
REMARK    3  A    between atoms: C2_6  and  C3_7 
REMARK    4  A    between atoms: C3_7  and  C4_8 
ROOT
HETATM    1  C4  UNL     1       1.167   0.232  -0.253  1.00  0.00     0.096 A 
HETATM    2  N2  UNL     1       1.408  -0.107   1.019  1.00  0.00    -0.340 N 
ATOM      3  H2  UNL     1       0.702  -0.180   1.752  1.00  0.00     0.168 HD
HETATM    4  C5  UNL     1       2.726  -0.338   1.184  1.00  0.00     0.198 A 
HETATM    5  N3  UNL     1       3.311  -0.142   0.009  1.00  0.00    -0.295 N 
ATOM      6  H3  UNL     1       4.308  -0.240  -0.185  1.00  0.00     0.187 HD
HETATM    7  N4  UNL     1       2.387   0.201  -0.865  1.00  0.00    -0.288 N 
ATOM      8  H4  UNL     1       2.557   0.411  -1.849  1.00  0.00     0.188 HD
ENDROOT
BRANCH   1   9
HETATM    9  C3  UNL     1      -0.062   0.582  -0.970  1.00  0.00     0.079 C 
BRANCH   9  10
HETATM   10  C2  UNL     1      -1.304   0.552  -0.157  1.00  0.00     0.034 C 
BRANCH  10  11
HETATM   11  C1  UNL     1      -1.671  -0.753   0.453  1.00  0.00     0.230 C 
BRANCH  11  12
HETATM   12  N1  UNL     1      -2.922  -0.533   1.196  1.00  0.00    -0.079 N 
ATOM     13  H13 UNL     1      -2.860   0.226   1.875  1.00  0.00     0.274 HD
ATOM     14  H12 UNL     1      -3.665  -0.132   0.624  1.00  0.00     0.274 HD
ATOM     15  H11 UNL     1      -3.174  -1.428   1.615  1.00  0.00     0.274 HD
ENDBRANCH  11  12
ENDBRANCH  10  11
ENDBRANCH   9  10
ENDBRANCH   1   9
TORSDOF 4
