REMARK  4 active torsions:
REMARK  status: ('A' for Active; 'I' for Inactive)
REMARK    1  A    between atoms: N1_1  and  C1_5 
REMARK    2  A    between atoms: C1_5  and  C2_6 
REMARK    3  A    between atoms: C2_6  and  C3_7 
REMARK    4  A    between atoms: C3_7  and  N2_8 
ROOT
HETATM    1  N2  UNL     1      -0.236  -0.834   0.389  1.00  0.00    -0.362 N 
ATOM      2  H2  UNL     1      -0.069  -1.708   0.888  1.00  0.00     0.162 HD
HETATM    3  C4  UNL     1      -1.438  -0.388   0.230  1.00  0.00     0.171 C 
HETATM    4  N3  UNL     1      -1.822   0.822  -0.449  1.00  0.00    -0.361 N 
ATOM      5  H3  UNL     1      -1.239   1.647  -0.592  1.00  0.00     0.162 HD
HETATM    6  C5  UNL     1      -3.192   0.650  -0.892  1.00  0.00     0.142 C 
HETATM    7  C6  UNL     1      -3.780  -0.158   0.247  1.00  0.00     0.142 C 
HETATM    8  N4  UNL     1      -2.663  -0.961   0.673  1.00  0.00    -0.361 N 
ATOM      9  H4  UNL     1      -2.739  -1.821   1.217  1.00  0.00     0.162 HD
ENDROOT
BRANCH   1  10
HETATM   10  C3  UNL     1       0.870  -0.072  -0.154  1.00  0.00     0.124 C 
BRANCH  10  11
HETATM   11  C2  UNL     1       2.173  -0.444   0.512  1.00  0.00     0.047 C 
BRANCH  11  12
HETATM   12  C1  UNL     1       3.266   0.400  -0.119  1.00  0.00     0.231 C 
BRANCH  12  13
HETATM   13  N1  UNL     1       4.566   0.107   0.465  1.00  0.00    -0.079 N 
ATOM     14  H13 UNL     1       4.552   0.211   1.480  1.00  0.00     0.274 HD
ATOM     15  H12 UNL     1       4.784  -0.888   0.412  1.00  0.00     0.274 HD
ATOM     16  H11 UNL     1       5.300   0.674   0.041  1.00  0.00     0.274 HD
ENDBRANCH  12  13
ENDBRANCH  11  12
ENDBRANCH  10  11
ENDBRANCH   1  10
TORSDOF 4
