REMARK  5 active torsions:
REMARK  status: ('A' for Active; 'I' for Inactive)
REMARK    1  A    between atoms: O1_2  and  C2_3 
REMARK    2  A    between atoms: C2_3  and  C3_4 
REMARK    3  A    between atoms: C2_3  and  C4_13 
REMARK    4  A    between atoms: C3_4  and  N1_5 
REMARK    5  A    between atoms: C3_4  and  N2_9 
ROOT
HETATM    1  C3  UNL     1      -1.262  -0.953  -0.287  1.00  0.00     0.406 C 
ENDROOT
BRANCH   1   2
HETATM    2  C2  UNL     1      -0.175   0.131  -0.355  1.00  0.00     0.182 C 
BRANCH   2   3
HETATM    3  O1  UNL     1      -0.803   1.303   0.067  1.00  0.00    -0.386 OA
HETATM    4  C1  UNL     1      -0.758   2.294  -0.907  1.00  0.00     0.202 C 
ENDBRANCH   2   3
BRANCH   2   5
HETATM    5  C4  UNL     1       0.872  -0.194   0.702  1.00  0.00     0.018 A 
HETATM    6  C5  UNL     1       1.956   0.878   0.926  1.00  0.00     0.008 A 
HETATM    7  C6  UNL     1       2.269  -0.464   0.335  1.00  0.00     0.008 A 
ENDBRANCH   2   5
ENDBRANCH   1   2
BRANCH   1   8
HETATM    8  N1  UNL     1      -1.762  -1.088   1.058  1.00  0.00    -0.048 N 
ATOM      9  H13 UNL     1      -1.011  -1.263   1.725  1.00  0.00     0.276 HD
ATOM     10  H12 UNL     1      -2.092  -0.197   1.430  1.00  0.00     0.276 HD
ATOM     11  H11 UNL     1      -2.484  -1.808   1.103  1.00  0.00     0.276 HD
ENDBRANCH   1   8
BRANCH   1  12
HETATM   12  N2  UNL     1      -0.742  -2.222  -0.724  1.00  0.00    -0.048 N 
ATOM     13  H23 UNL     1      -0.327  -2.161  -1.654  1.00  0.00     0.276 HD
ATOM     14  H22 UNL     1       0.092  -2.489  -0.201  1.00  0.00     0.276 HD
ATOM     15  H21 UNL     1      -1.464  -2.942  -0.679  1.00  0.00     0.276 HD
ENDBRANCH   1  12
TORSDOF 5
