REMARK  4 active torsions:
REMARK  status: ('A' for Active; 'I' for Inactive)
REMARK    1  A    between atoms: N1_1  and  C1_5 
REMARK    2  A    between atoms: C1_5  and  C2_6 
REMARK    3  A    between atoms: C2_6  and  N2_7 
REMARK    4  A    between atoms: N2_7  and  N3_8 
ROOT
HETATM    1  C2  UNL     1      -1.582  -0.134  -0.640  1.00  0.00     0.157 C 
ENDROOT
BRANCH   1   2
HETATM    2  C1  UNL     1      -2.936  -0.365  -0.038  1.00  0.00     0.247 C 
BRANCH   2   3
HETATM    3  N1  UNL     1      -3.767   0.808  -0.209  1.00  0.00    -0.078 N 
ATOM      4  H13 UNL     1      -3.323   1.647   0.164  1.00  0.00     0.274 HD
ATOM      5  H12 UNL     1      -3.828   1.092  -1.187  1.00  0.00     0.274 HD
ATOM      6  H11 UNL     1      -4.688   0.651   0.200  1.00  0.00     0.274 HD
ENDBRANCH   2   3
ENDBRANCH   1   2
BRANCH   1   7
HETATM    7  N2  UNL     1      -0.548  -0.728   0.206  1.00  0.00    -0.147 NA
BRANCH   7   8
HETATM    8  N3  UNL     1       0.666  -0.279  -0.306  1.00  0.00    -0.149 NA
HETATM    9  C3  UNL     1       1.272   0.576   0.679  1.00  0.00     0.131 C 
HETATM   10  C4  UNL     1       2.711   0.610   0.189  1.00  0.00     0.035 C 
HETATM   11  C5  UNL     1       2.866  -0.637  -0.640  1.00  0.00     0.131 C 
HETATM   12  N4  UNL     1       1.568  -1.299  -0.573  1.00  0.00    -0.149 NA
ENDBRANCH   7   8
ENDBRANCH   1   7
TORSDOF 4
