REMARK  7 active torsions:
REMARK  status: ('A' for Active; 'I' for Inactive)
REMARK    1  A    between atoms: C2_2  and  C3_3 
REMARK    2  A    between atoms: C3_3  and  N1_4 
REMARK    3  A    between atoms: C3_3  and  C18_22 
REMARK    4  A    between atoms: N1_4  and  C4_6 
REMARK    5  A    between atoms: C7_9  and  C8_10 
REMARK    6  A    between atoms: C8_10  and  N2_11 
REMARK    7  A    between atoms: N2_11  and  C9_13 
ROOT
HETATM    1  C4  UNL     1      -2.106   0.844   0.295  1.00  0.00     0.081 C 
HETATM    2  C5  UNL     1      -1.178   0.267  -0.702  1.00  0.00     0.025 C 
HETATM    3  C6  UNL     1      -0.077  -0.531   0.000  1.00  0.00     0.008 C 
HETATM    4  C7  UNL     1       0.573   0.254   1.085  1.00  0.00     0.003 C 
HETATM    5  C16 UNL     1       0.144   1.705   1.007  1.00  0.00     0.008 C 
HETATM    6  C17 UNL     1      -1.346   1.698   1.292  1.00  0.00     0.025 C 
ENDROOT
BRANCH   1   7
HETATM    7  N1  UNL     1      -2.966  -0.034   0.934  1.00  0.00    -0.388 N 
ATOM      8  H1  UNL     1      -2.779  -0.222   1.919  1.00  0.00     0.159 HD
BRANCH   7   9
HETATM    9  C3  UNL     1      -4.051  -0.682   0.374  1.00  0.00     0.016 C 
BRANCH   9  10
HETATM   10  C2  UNL     1      -3.949  -1.670  -0.708  1.00  0.00     0.053 C 
HETATM   11  C1  UNL     1      -3.133  -2.872  -0.297  1.00  0.00     0.011 C 
ENDBRANCH   9  10
BRANCH   9  12
HETATM   12  C18 UNL     1      -5.221   0.275   0.132  1.00  0.00     0.002 A 
HETATM   13  C19 UNL     1      -5.858   0.277  -1.073  1.00  0.00     0.016 A 
HETATM   14  C20 UNL     1      -6.915   1.149  -1.254  1.00  0.00     0.018 A 
HETATM   15  C21 UNL     1      -7.279   1.971  -0.223  1.00  0.00     0.087 A 
HETATM   16  N3  UNL     1      -6.654   1.974   0.970  1.00  0.00    -0.374 N 
HETATM   17  C22 UNL     1      -5.623   1.121   1.140  1.00  0.00     0.101 A 
ATOM     18  H3  UNL     1      -6.950   2.600   1.719  1.00  0.00     0.164 HD
ENDBRANCH   9  12
ENDBRANCH   7   9
ENDBRANCH   1   7
BRANCH   4  19
HETATM   19  C8  UNL     1       2.049   0.082   1.252  1.00  0.00     0.118 C 
BRANCH  19  20
HETATM   20  N2  UNL     1       2.864   0.391   0.142  1.00  0.00    -0.416 N 
ATOM     21  H2  UNL     1       2.472   0.560  -0.784  1.00  0.00     0.153 HD
BRANCH  20  22
HETATM   22  C9  UNL     1       4.240   0.452   0.384  1.00  0.00     0.081 C 
HETATM   23  C10 UNL     1       4.922  -0.805   0.893  1.00  0.00     0.029 C 
HETATM   24  C11 UNL     1       6.352  -0.723   0.420  1.00  0.00    -0.012 C 
HETATM   25  C12 UNL     1       6.383  -1.376  -0.949  1.00  0.00     0.005 C 
HETATM   26  C15 UNL     1       6.461   0.738  -0.052  1.00  0.00     0.011 C 
HETATM   27  C13 UNL     1       5.292  -0.531  -1.634  1.00  0.00     0.007 C 
HETATM   28  C14 UNL     1       5.118   0.712  -0.831  1.00  0.00     0.008 C 
ENDBRANCH  20  22
ENDBRANCH  19  20
ENDBRANCH   4  19
TORSDOF 7
