REMARK  9 active torsions:
REMARK  status: ('A' for Active; 'I' for Inactive)
REMARK    1  A    between atoms: C2_2  and  O1_3 
REMARK    2  A    between atoms: C2_2  and  C3_5 
REMARK    3  A    between atoms: C3_5  and  C4_6 
REMARK    4  A    between atoms: C4_6  and  C5_7 
REMARK    5  A    between atoms: C9_11  and  C10_12 
REMARK    6  A    between atoms: C10_12  and  C11_13 
REMARK    7  A    between atoms: C11_13  and  O2_15 
REMARK    8  A    between atoms: C18_22  and  C19_23 
REMARK    9  A    between atoms: C19_23  and  C20_24 
ROOT
HETATM    1  C5  UNL     1       1.978   0.143   0.254  1.00  0.00    -0.006 C 
HETATM    2  C6  UNL     1       1.277   0.297  -1.068  1.00  0.00    -0.010 C 
HETATM    3  C7  UNL     1       0.684  -1.030  -1.393  1.00  0.00     0.006 C 
HETATM    4  C8  UNL     1      -0.737  -1.236  -1.048  1.00  0.00     0.010 C 
HETATM    5  C9  UNL     1      -1.233  -0.727   0.265  1.00  0.00    -0.034 C 
HETATM    6  C13 UNL     1      -0.066  -0.906   1.284  1.00  0.00     0.015 C 
HETATM    7  C14 UNL     1       0.927   0.167   1.315  1.00  0.00    -0.009 C 
HETATM    8  C15 UNL     1       0.364   1.553   1.371  1.00  0.00     0.010 C 
HETATM    9  C16 UNL     1      -0.489   1.667   0.114  1.00  0.00    -0.009 C 
HETATM   10  C17 UNL     1       0.266   1.395  -1.128  1.00  0.00     0.010 C 
HETATM   11  C18 UNL     1      -1.636   0.677   0.374  1.00  0.00     0.001 C 
ENDROOT
BRANCH   1  12
HETATM   12  C4  UNL     1       3.096   1.083   0.501  1.00  0.00     0.008 C 
BRANCH  12  13
HETATM   13  C3  UNL     1       4.206   0.968  -0.517  1.00  0.00     0.032 C 
BRANCH  13  14
HETATM   14  C2  UNL     1       4.825  -0.415  -0.548  1.00  0.00     0.114 C 
HETATM   15  C1  UNL     1       5.417  -0.775   0.793  1.00  0.00     0.039 C 
BRANCH  14  16
HETATM   16  O1  UNL     1       5.885  -0.354  -1.465  1.00  0.00    -0.396 OA
ATOM     17  H1  UNL     1       5.512  -0.127  -2.309  1.00  0.00     0.210 HD
ENDBRANCH  14  16
ENDBRANCH  13  14
ENDBRANCH  12  13
ENDBRANCH   1  12
BRANCH   5  18
HETATM   18  C10 UNL     1      -2.276  -1.655   0.838  1.00  0.00     0.041 C 
BRANCH  18  19
HETATM   19  C11 UNL     1      -3.479  -1.959   0.047  1.00  0.00     0.114 C 
HETATM   20  C12 UNL     1      -4.416  -2.922   0.836  1.00  0.00     0.039 C 
BRANCH  19  21
HETATM   21  O2  UNL     1      -3.172  -2.811  -1.064  1.00  0.00    -0.396 OA
ATOM     22  H2  UNL     1      -3.949  -3.007  -1.575  1.00  0.00     0.210 HD
ENDBRANCH  19  21
ENDBRANCH  18  19
ENDBRANCH   5  18
BRANCH  11  23
HETATM   23  C19 UNL     1      -2.870   1.171  -0.268  1.00  0.00     0.039 C 
BRANCH  23  24
HETATM   24  C20 UNL     1      -2.953   2.694   0.024  1.00  0.00     0.145 A 
HETATM   25  C21 UNL     1      -4.190   3.311  -0.593  1.00  0.00     0.200 A 
HETATM   26  O3  UNL     1      -2.893   3.561  -1.029  1.00  0.00    -0.381 OA
ENDBRANCH  23  24
ENDBRANCH  11  23
TORSDOF 9
