REMARK  8 active torsions:
REMARK  status: ('A' for Active; 'I' for Inactive)
REMARK    1  A    between atoms: C1_2  and  C2_3 
REMARK       I    between atoms: C1_2  and  N1_10 
REMARK    2  A    between atoms: C2_3  and  C3_4 
REMARK    3  A    between atoms: N1_10  and  C9_12 
REMARK    4  A    between atoms: C9_12  and  C10_13 
REMARK    5  A    between atoms: C10_13  and  C11_14 
REMARK    6  A    between atoms: C11_14  and  O2_15 
REMARK    7  A    between atoms: C11_14  and  C12_17 
REMARK    8  A    between atoms: C11_14  and  C16_22 
ROOT
HETATM    1  C10 UNL     1      -1.755  -0.592   1.080  1.00  0.00     0.063 C 
ENDROOT
BRANCH   1   2
HETATM    2  C9  UNL     1      -1.549  -2.081   1.158  1.00  0.00     0.126 C 
BRANCH   2   3
HETATM    3  N1  UNL     1      -0.191  -2.448   0.637  1.00  0.00    -0.361 N 
HETATM    4  C1  UNL     1       0.965  -1.884   1.162  1.00  0.00     0.217 C 
HETATM    5  O1  UNL     1       0.920  -1.003   2.081  1.00  0.00    -0.274 OA
ATOM      6  H1  UNL     1      -0.115  -3.127  -0.120  1.00  0.00     0.162 HD
BRANCH   4   7
HETATM    7  C2  UNL     1       2.311  -2.312   0.649  1.00  0.00     0.107 C 
BRANCH   7   8
HETATM    8  C3  UNL     1       3.249  -1.108   0.917  1.00  0.00    -0.006 C 
HETATM    9  C4  UNL     1       4.659  -1.409   0.490  1.00  0.00     0.005 C 
HETATM   10  C5  UNL     1       5.513  -0.195   0.897  1.00  0.00     0.000 C 
HETATM   11  C6  UNL     1       5.055   1.020   0.109  1.00  0.00     0.000 C 
HETATM   12  C7  UNL     1       3.841   0.700  -0.705  1.00  0.00     0.000 C 
HETATM   13  C8  UNL     1       2.725   0.045   0.056  1.00  0.00     0.005 C 
ENDBRANCH   7   8
ENDBRANCH   4   7
ENDBRANCH   2   3
ENDBRANCH   1   2
BRANCH   1  14
HETATM   14  C11 UNL     1      -1.881  -0.164  -0.401  1.00  0.00     0.090 C 
BRANCH  14  15
HETATM   15  O2  UNL     1      -0.769  -0.683  -1.033  1.00  0.00    -0.385 OA
ATOM     16  H2  UNL     1      -0.846  -0.420  -1.943  1.00  0.00     0.211 HD
ENDBRANCH  14  15
BRANCH  14  17
HETATM   17  C12 UNL     1      -3.188  -0.632  -0.978  1.00  0.00    -0.017 A 
HETATM   18  C13 UNL     1      -4.288  -0.959  -0.287  1.00  0.00     0.018 A 
HETATM   19  C14 UNL     1      -5.368  -1.414  -0.959  1.00  0.00     0.050 A 
HETATM   20  S1  UNL     1      -4.893  -1.403  -2.599  1.00  0.00    -0.113 SA
HETATM   21  C15 UNL     1      -3.260  -0.793  -2.343  1.00  0.00     0.059 A 
ENDBRANCH  14  17
BRANCH  14  22
HETATM   22  C16 UNL     1      -1.638   1.305  -0.401  1.00  0.00     0.025 C 
HETATM   23  C17 UNL     1      -1.684   2.044  -1.674  1.00  0.00     0.008 C 
HETATM   24  C18 UNL     1      -2.768   3.122  -1.516  1.00  0.00     0.001 C 
HETATM   25  C19 UNL     1      -3.463   2.825  -0.221  1.00  0.00     0.001 C 
HETATM   26  C20 UNL     1      -2.397   2.114   0.614  1.00  0.00     0.008 C 
ENDBRANCH  14  22
ENDBRANCH   1  14
TORSDOF 8
