REMARK  6 active torsions:
REMARK  status: ('A' for Active; 'I' for Inactive)
REMARK    1  A    between atoms: C4_6  and  C5_7 
REMARK       I    between atoms: C5_7  and  N2_9 
REMARK    2  A    between atoms: N2_9  and  C6_11 
REMARK    3  A    between atoms: C9_14  and  C10_15 
REMARK    4  A    between atoms: C10_15  and  C12_18 
REMARK    5  A    between atoms: C12_18  and  C13_19 
REMARK    6  A    between atoms: C13_19  and  O2_22 
ROOT
HETATM    1  C5  UNL     1       1.640   0.449  -1.267  1.00  0.00     0.275 C 
HETATM    2  O1  UNL     1       1.176   0.475  -2.435  1.00  0.00    -0.265 OA
HETATM    3  N2  UNL     1       0.865   0.383  -0.104  1.00  0.00    -0.351 N 
ATOM      4  H2  UNL     1       1.353   0.367   0.792  1.00  0.00     0.163 HD
ENDROOT
BRANCH   3   5
HETATM    5  C6  UNL     1      -0.579   0.336  -0.085  1.00  0.00     0.084 C 
HETATM    6  C7  UNL     1      -1.121   1.435   0.752  1.00  0.00     0.026 C 
HETATM    7  C8  UNL     1      -2.450   1.251   1.361  1.00  0.00     0.010 C 
HETATM    8  C9  UNL     1      -3.184  -0.005   1.112  1.00  0.00     0.025 C 
HETATM    9  C16 UNL     1      -2.496  -1.049   0.312  1.00  0.00     0.010 C 
HETATM   10  C17 UNL     1      -0.978  -0.980   0.544  1.00  0.00     0.026 C 
BRANCH   8  11
HETATM   11  C10 UNL     1      -4.533   0.355   0.462  1.00  0.00     0.106 C 
HETATM   12  C11 UNL     1      -4.214   1.071  -0.823  1.00  0.00     0.052 C 
HETATM   13  F1  UNL     1      -5.152   1.192   1.376  1.00  0.00    -0.243 F 
BRANCH  11  14
HETATM   14  C12 UNL     1      -5.246  -0.917   0.240  1.00  0.00     0.080 C 
BRANCH  14  15
HETATM   15  C13 UNL     1      -6.581  -0.911  -0.367  1.00  0.00     0.053 C 
HETATM   16  C14 UNL     1      -7.563  -0.096   0.487  1.00  0.00     0.045 C 
HETATM   17  C15 UNL     1      -6.747  -0.509  -1.773  1.00  0.00     0.045 C 
BRANCH  15  18
HETATM   18  O2  UNL     1      -7.085  -2.236  -0.260  1.00  0.00    -0.391 OA
ATOM     19  H2  UNL     1      -7.950  -2.232  -0.653  1.00  0.00     0.210 HD
ENDBRANCH  15  18
ENDBRANCH  14  15
ENDBRANCH  11  14
ENDBRANCH   8  11
ENDBRANCH   3   5
BRANCH   1  20
HETATM   20  C4  UNL     1       3.117   0.492  -1.163  1.00  0.00     0.143 A 
HETATM   21  N1  UNL     1       3.867   0.478  -0.071  1.00  0.00    -0.348 N 
HETATM   22  C3  UNL     1       5.155   0.522  -0.170  1.00  0.00     0.036 A 
ATOM     23  H1  UNL     1       3.428   0.432   0.848  1.00  0.00     0.166 HD
HETATM   24  C2  UNL     1       6.210   0.516   0.927  1.00  0.00     0.138 C 
HETATM   25  C18 UNL     1       5.698   0.585  -1.430  1.00  0.00     0.036 A 
HETATM   26  C1  UNL     1       5.625   0.146   2.247  1.00  0.00     0.025 C 
HETATM   27  C21 UNL     1       7.219  -0.533   0.439  1.00  0.00     0.446 C 
HETATM   28  N3  UNL     1       7.942   0.051  -0.638  1.00  0.00     0.161 N 
HETATM   29  F2  UNL     1       8.088  -0.885   1.427  1.00  0.00    -0.172 F 
HETATM   30  F3  UNL     1       6.521  -1.662  -0.010  1.00  0.00    -0.172 F 
HETATM   31  C19 UNL     1       7.177   0.641  -1.675  1.00  0.00     0.328 C 
HETATM   32  C20 UNL     1       8.982  -0.840  -1.106  1.00  0.00     0.318 C 
HETATM   33  S1  UNL     1       4.292   0.574  -2.406  1.00  0.00    -0.068 SA
ENDBRANCH   1  20
TORSDOF 6
