REMARK  10 active torsions:
REMARK  status: ('A' for Active; 'I' for Inactive)
REMARK    1  A    between atoms: C2_2  and  C3_3 
REMARK    2  A    between atoms: C6_6  and  C7_7 
REMARK       I    between atoms: C7_7  and  N1_9 
REMARK    3  A    between atoms: N1_9  and  N2_11 
REMARK    4  A    between atoms: N2_11  and  C8_13 
REMARK    5  A    between atoms: C8_13  and  O2_14 
REMARK    6  A    between atoms: C8_13  and  C9_16 
REMARK    7  A    between atoms: C12_19  and  C13_20 
REMARK    8  A    between atoms: C14_26  and  O3_27 
REMARK    9  A    between atoms: O3_27  and  C15_28 
REMARK   10  A    between atoms: C15_28  and  C16_30 
ROOT
HETATM    1  C9  UNL     1       1.326  -2.985  -0.679  1.00  0.00     0.068 A 
HETATM    2  C10 UNL     1       1.331  -4.356  -1.030  1.00  0.00     0.022 A 
HETATM    3  C11 UNL     1       2.493  -5.060  -1.045  1.00  0.00     0.035 A 
HETATM    4  C12 UNL     1       3.665  -4.387  -0.706  1.00  0.00     0.118 A 
HETATM    5  N3  UNL     1       3.640  -3.090  -0.379  1.00  0.00    -0.332 N 
ATOM      6  H3  UNL     1       4.518  -2.631  -0.137  1.00  0.00     0.168 HD
HETATM    7  C14 UNL     1       2.496  -2.356  -0.355  1.00  0.00     0.166 A 
ENDROOT
BRANCH   1   8
HETATM    8  C8  UNL     1       0.056  -2.314  -0.626  1.00  0.00     0.169 C 
BRANCH   8   9
HETATM    9  N2  UNL     1      -0.227  -1.007  -0.250  1.00  0.00    -0.277 N 
ATOM     10  H2  UNL     1       0.535  -0.390   0.032  1.00  0.00     0.189 HD
BRANCH   9  11
HETATM   11  N1  UNL     1      -1.568  -0.513  -0.252  1.00  0.00    -0.264 N 
HETATM   12  C7  UNL     1      -1.872   0.592   0.560  1.00  0.00     0.270 C 
HETATM   13  O1  UNL     1      -0.976   1.116   1.254  1.00  0.00    -0.266 OA
ATOM     14  H1  UNL     1      -2.286  -0.952  -0.828  1.00  0.00     0.190 HD
BRANCH  12  15
HETATM   15  C6  UNL     1      -3.244   1.117   0.585  1.00  0.00     0.033 A 
HETATM   16  C5  UNL     1      -4.147   0.757  -0.384  1.00  0.00     0.018 A 
HETATM   17  C4  UNL     1      -5.435   1.233  -0.343  1.00  0.00     0.012 A 
HETATM   18  C3  UNL     1      -5.887   2.086   0.657  1.00  0.00    -0.037 A 
HETATM   19  C23 UNL     1      -4.974   2.448   1.634  1.00  0.00     0.012 A 
HETATM   20  C22 UNL     1      -3.679   1.960   1.580  1.00  0.00     0.018 A 
BRANCH  18  21
HETATM   21  C2  UNL     1      -7.262   2.535   0.620  1.00  0.00     0.001 C 
HETATM   22  C1  UNL     1      -7.788   3.297   1.552  1.00  0.00     0.012 C 
ENDBRANCH  18  21
ENDBRANCH  12  15
ENDBRANCH   9  11
ENDBRANCH   8   9
BRANCH   8  23
HETATM   23  O2  UNL     1      -0.998  -2.996  -0.971  1.00  0.00    -0.344 OA
ATOM     24  H2  UNL     1      -0.804  -3.890  -1.228  1.00  0.00     0.219 HD
ENDBRANCH   8  23
ENDBRANCH   1   8
BRANCH   7  25
HETATM   25  O3  UNL     1       2.611  -1.007  -0.004  1.00  0.00    -0.256 OA
BRANCH  25  26
HETATM   26  C15 UNL     1       3.411  -0.140  -0.748  1.00  0.00     0.299 C 
HETATM   27  O4  UNL     1       4.009  -0.689  -1.733  1.00  0.00    -0.259 OA
BRANCH  26  28
HETATM   28  C16 UNL     1       3.604   1.261  -0.496  1.00  0.00     0.040 A 
HETATM   29  C17 UNL     1       3.001   1.981   0.505  1.00  0.00     0.017 A 
HETATM   30  C18 UNL     1       3.234   3.328   0.703  1.00  0.00     0.001 A 
HETATM   31  C19 UNL     1       4.111   4.009  -0.131  1.00  0.00     0.000 A 
HETATM   32  C20 UNL     1       4.723   3.301  -1.139  1.00  0.00     0.001 A 
HETATM   33  C21 UNL     1       4.479   1.977  -1.315  1.00  0.00     0.017 A 
ENDBRANCH  26  28
ENDBRANCH  25  26
ENDBRANCH   7  25
BRANCH   4  34
HETATM   34  C13 UNL     1       4.955  -5.153  -0.718  1.00  0.00     0.432 C 
HETATM   35  F1  UNL     1       5.554  -5.122   0.549  1.00  0.00    -0.165 F 
HETATM   36  F2  UNL     1       5.872  -4.584  -1.597  1.00  0.00    -0.165 F 
HETATM   37  F3  UNL     1       4.719  -6.469  -1.009  1.00  0.00    -0.165 F 
ENDBRANCH   4  34
TORSDOF 10
