REMARK  5 active torsions:
REMARK  status: ('A' for Active; 'I' for Inactive)
REMARK    1  A    between atoms: N2_10  and  C7_11 
REMARK    2  A    between atoms: C8_14  and  C9_15 
REMARK    3  A    between atoms: C12_18  and  N4_19 
REMARK    4  A    between atoms: N4_19  and  C13_20 
REMARK    5  A    between atoms: C26_38  and  N8_39 
ROOT
HETATM    1  C7  UNL     1      -3.393  -0.153   0.383  1.00  0.00     0.696 A 
HETATM    2  N3  UNL     1      -2.073   0.087   0.302  1.00  0.00    -0.175 N 
ATOM      3  H3  UNL     1      -1.749   1.052   0.242  1.00  0.00     0.186 HD
HETATM    4  C8  UNL     1      -1.167  -0.907   0.298  1.00  0.00     0.146 A 
HETATM    5  N7  UNL     1      -1.620  -2.166   0.379  1.00  0.00    -0.175 N 
ATOM      6  H7  UNL     1      -0.942  -2.928   0.377  1.00  0.00     0.186 HD
HETATM    7  C26 UNL     1      -2.924  -2.470   0.463  1.00  0.00     0.696 A 
HETATM    8  N10 UNL     1      -3.777  -1.433   0.462  1.00  0.00    -0.022 N 
ATOM      9  H10 UNL     1      -4.775  -1.632   0.525  1.00  0.00     0.203 HD
ENDROOT
BRANCH   4  10
HETATM   10  C9  UNL     1       0.251  -0.583   0.213  1.00  0.00     0.009 A 
HETATM   11  C10 UNL     1       1.186  -1.596   0.212  1.00  0.00     0.018 A 
HETATM   12  C11 UNL     1       2.514  -1.331   0.143  1.00  0.00     0.045 A 
HETATM   13  C12 UNL     1       3.012   0.007   0.069  1.00  0.00     0.109 A 
HETATM   14  C24 UNL     1       2.022   1.002   0.073  1.00  0.00     0.045 A 
HETATM   15  C25 UNL     1       0.690   0.718   0.142  1.00  0.00     0.018 A 
BRANCH  13  16
HETATM   16  N4  UNL     1       4.302   0.245   0.014  1.00  0.00    -0.385 NA
BRANCH  16  17
HETATM   17  C13 UNL     1       5.469   0.468  -0.037  1.00  0.00     0.207 A 
HETATM   18  N5  UNL     1       6.395  -0.547   0.117  1.00  0.00    -0.327 N 
HETATM   19  C14 UNL     1       7.702  -0.375   0.089  1.00  0.00     0.062 A 
ATOM     20  H5  UNL     1       6.043  -1.493   0.262  1.00  0.00     0.168 HD
HETATM   21  C15 UNL     1       8.590  -1.439   0.256  1.00  0.00     0.032 A 
HETATM   22  C19 UNL     1       8.164   0.905  -0.108  1.00  0.00     0.066 A 
HETATM   23  C16 UNL     1       9.948  -1.250   0.231  1.00  0.00     0.002 A 
HETATM   24  C17 UNL     1      10.419   0.034   0.032  1.00  0.00     0.002 A 
HETATM   25  C18 UNL     1       9.527   1.077  -0.132  1.00  0.00     0.032 A 
HETATM   26  N6  UNL     1       7.351   1.954  -0.269  1.00  0.00    -0.316 N 
HETATM   27  C20 UNL     1       7.565   3.276  -0.475  1.00  0.00     0.098 A 
HETATM   28  C23 UNL     1       6.027   1.751  -0.236  1.00  0.00     0.098 A 
HETATM   29  C21 UNL     1       6.385   3.952  -0.580  1.00  0.00     0.020 A 
HETATM   30  C22 UNL     1       5.401   2.961  -0.424  1.00  0.00     0.036 A 
ENDBRANCH  16  17
ENDBRANCH  13  16
ENDBRANCH   4  10
BRANCH   1  31
HETATM   31  N2  UNL     1      -4.276   0.959   0.379  1.00  0.00    -0.216 N 
HETATM   32  C6  UNL     1      -5.698   0.759   0.703  1.00  0.00     0.142 C 
HETATM   33  C5  UNL     1      -6.353   2.089   0.697  1.00  0.00     0.041 C 
HETATM   34  C4  UNL     1      -5.330   3.042   0.130  1.00  0.00     0.060 C 
HETATM   35  C1  UNL     1      -5.709   3.550  -1.190  1.00  0.00     0.228 C 
HETATM   36  C3  UNL     1      -5.308   4.253   1.004  1.00  0.00     0.041 C 
HETATM   37  C31 UNL     1      -4.002   2.325   0.091  1.00  0.00     0.160 C 
HETATM   38  O1  UNL     1      -5.911   2.875  -2.234  1.00  0.00    -0.273 OA
HETATM   39  N1  UNL     1      -5.829   4.964  -1.160  1.00  0.00    -0.360 N 
HETATM   40  C2  UNL     1      -5.195   5.445   0.072  1.00  0.00     0.124 C 
ATOM     41  H1  UNL     1      -6.277   5.543  -1.870  1.00  0.00     0.162 HD
ENDBRANCH   1  31
BRANCH   7  42
HETATM   42  N8  UNL     1      -3.373  -3.816   0.549  1.00  0.00    -0.214 N 
HETATM   43  C27 UNL     1      -2.434  -4.907   0.717  1.00  0.00     0.168 C 
HETATM   44  C28 UNL     1      -2.717  -5.962  -0.327  1.00  0.00     0.252 C 
HETATM   45  N9  UNL     1      -4.093  -6.399  -0.186  1.00  0.00    -0.072 N 
HETATM   46  C29 UNL     1      -4.929  -5.260  -0.582  1.00  0.00     0.252 C 
ATOM     47  H92 UNL     1      -4.302  -7.254  -0.702  1.00  0.00     0.277 HD
ATOM     48  H91 UNL     1      -4.311  -6.758   0.744  1.00  0.00     0.277 HD
HETATM   49  C30 UNL     1      -4.778  -4.168   0.467  1.00  0.00     0.168 C 
ENDBRANCH   7  42
TORSDOF 5
