REMARK  5 active torsions:
REMARK  status: ('A' for Active; 'I' for Inactive)
REMARK    1  A    between atoms: N2_6  and  C5_7 
REMARK    2  A    between atoms: C7_9  and  C8_10 
REMARK    3  A    between atoms: C11_15  and  C12_16 
REMARK    4  A    between atoms: C14_20  and  N5_21 
REMARK    5  A    between atoms: C20_32  and  N7_33 
ROOT
HETATM    1  C5  UNL     1      -1.482  -0.961  -0.369  1.00  0.00     0.033 A 
HETATM    2  C6  UNL     1      -0.169  -0.646  -0.090  1.00  0.00     0.041 A 
HETATM    3  C7  UNL     1       0.900  -1.233  -0.748  1.00  0.00    -0.020 A 
HETATM    4  C19 UNL     1       0.622  -2.187  -1.736  1.00  0.00     0.041 A 
HETATM    5  C20 UNL     1      -0.680  -2.521  -2.035  1.00  0.00     0.033 A 
HETATM    6  C24 UNL     1      -1.702  -1.904  -1.349  1.00  0.00     0.058 A 
ENDROOT
BRANCH   3   7
HETATM    7  C8  UNL     1       2.271  -0.878  -0.429  1.00  0.00    -0.009 A 
HETATM    8  C9  UNL     1       2.669   0.381  -0.005  1.00  0.00     0.100 A 
HETATM    9  N3  UNL     1       3.923   0.723   0.290  1.00  0.00    -0.363 N 
HETATM   10  C10 UNL     1       4.957  -0.179   0.194  1.00  0.00     0.061 A 
ATOM     11  H3  UNL     1       4.121   1.676   0.594  1.00  0.00     0.165 HD
HETATM   12  C11 UNL     1       6.262   0.070   0.471  1.00  0.00     0.011 A 
HETATM   13  C17 UNL     1       4.630  -1.432  -0.218  1.00  0.00     0.033 A 
HETATM   14  C16 UNL     1       7.136  -0.972   0.309  1.00  0.00     0.065 A 
HETATM   15  S1  UNL     1       6.131  -2.243  -0.215  1.00  0.00    -0.099 SA
HETATM   16  C18 UNL     1       3.304  -1.788  -0.529  1.00  0.00     0.034 A 
BRANCH  12  17
HETATM   17  C12 UNL     1       6.797   1.391   0.934  1.00  0.00     0.009 A 
HETATM   18  C13 UNL     1       6.138   2.079   1.923  1.00  0.00     0.120 A 
HETATM   19  N4  UNL     1       6.643   3.264   2.317  1.00  0.00    -0.201 N 
HETATM   20  C14 UNL     1       7.768   3.773   1.764  1.00  0.00     0.675 A 
ATOM     21  H4  UNL     1       6.166   3.790   3.049  1.00  0.00     0.183 HD
HETATM   22  N6  UNL     1       8.420   3.109   0.797  1.00  0.00    -0.201 N 
HETATM   23  C15 UNL     1       7.937   1.934   0.392  1.00  0.00     0.120 A 
ATOM     24  H6  UNL     1       9.267   3.495   0.381  1.00  0.00     0.183 HD
BRANCH  20  25
HETATM   25  N5  UNL     1       8.251   4.911   2.144  1.00  0.00    -0.234 N 
ATOM     26  H52 UNL     1       7.755   5.416   2.879  1.00  0.00     0.174 HD
ATOM     27  H51 UNL     1       9.099   5.295   1.727  1.00  0.00     0.174 HD
ENDBRANCH  20  25
ENDBRANCH  12  17
ENDBRANCH   3   7
BRANCH   1  28
HETATM   28  N2  UNL     1      -2.582  -0.329   0.338  1.00  0.00    -0.381 N 
HETATM   29  C4  UNL     1      -2.310   0.608   1.374  1.00  0.00     0.125 C 
HETATM   30  C3  UNL     1      -3.442   0.954   2.273  1.00  0.00     0.048 C 
HETATM   31  C2  UNL     1      -4.689   1.168   1.404  1.00  0.00     0.048 C 
HETATM   32  N1  UNL     1      -5.807   1.546   2.227  1.00  0.00    -0.186 NA
HETATM   33  C26 UNL     1      -4.987  -0.149   0.771  1.00  0.00     0.048 C 
HETATM   34  C27 UNL     1      -4.373   2.266   0.454  1.00  0.00     0.159 C 
HETATM   35  C1  UNL     1      -5.414   2.121   3.491  1.00  0.00     0.132 C 
HETATM   36  S2  UNL     1      -6.660   2.716   1.247  1.00  0.00     0.299 S 
HETATM   37  N8  UNL     1      -5.599   2.739  -0.143  1.00  0.00    -0.305 N 
HETATM   38  O1  UNL     1      -8.013   2.242   0.868  1.00  0.00    -0.188 OA
HETATM   39  O2  UNL     1      -6.669   4.056   1.929  1.00  0.00    -0.188 OA
ATOM     40  H8  UNL     1      -5.793   3.011  -1.107  1.00  0.00     0.173 HD
HETATM   41  C25 UNL     1      -3.894  -0.696  -0.067  1.00  0.00     0.125 C 
ENDBRANCH   1  28
BRANCH   5  42
HETATM   42  N7  UNL     1      -0.916  -3.489  -3.041  1.00  0.00    -0.381 N 
HETATM   43  C21 UNL     1      -0.107  -4.295  -3.928  1.00  0.00     0.124 C 
HETATM   44  C22 UNL     1      -1.281  -4.328  -4.885  1.00  0.00     0.040 C 
HETATM   45  C23 UNL     1      -2.089  -4.096  -3.616  1.00  0.00     0.124 C 
ENDBRANCH   5  42
TORSDOF 5
