REMARK  8 active torsions:
REMARK  status: ('A' for Active; 'I' for Inactive)
REMARK    1  A    between atoms: C2_2  and  C5_5 
REMARK    2  A    between atoms: C5_5  and  N2_9 
REMARK    3  A    between atoms: C8_12  and  N3_13 
REMARK    4  A    between atoms: C11_16  and  O1_17 
REMARK    5  A    between atoms: N4_22  and  C15_23 
REMARK    6  A    between atoms: C16_26  and  N6_27 
REMARK    7  A    between atoms: C17_32  and  N8_33 
REMARK    8  A    between atoms: N9_36  and  C20_37 
ROOT
HETATM    1  N2  UNL     1      -2.746  -1.443   0.593  1.00  0.00    -0.369 N 
HETATM    2  C6  UNL     1      -3.444  -0.518  -0.279  1.00  0.00     0.126 C 
HETATM    3  C7  UNL     1      -4.354   0.408   0.497  1.00  0.00     0.055 C 
HETATM    4  C8  UNL     1      -4.288   1.823  -0.009  1.00  0.00     0.226 C 
HETATM    5  C13 UNL     1      -2.916   2.425   0.072  1.00  0.00     0.056 C 
HETATM    6  C14 UNL     1      -2.175   2.144   1.319  1.00  0.00     0.143 C 
HETATM    7  N4  UNL     1      -1.057   1.238   1.105  1.00  0.00    -0.215 N 
HETATM    8  C28 UNL     1      -1.003  -0.078   1.693  1.00  0.00     0.161 C 
HETATM    9  C29 UNL     1      -1.302  -1.199   0.754  1.00  0.00     0.144 C 
ENDROOT
BRANCH   7  10
HETATM   10  C15 UNL     1       0.023   1.696   0.287  1.00  0.00     0.709 A 
HETATM   11  N5  UNL     1       0.020   2.928  -0.260  1.00  0.00    -0.022 N 
HETATM   12  C16 UNL     1       0.982   3.424  -1.025  1.00  0.00     0.705 A 
ATOM     13  H5  UNL     1      -0.785   3.525  -0.070  1.00  0.00     0.203 HD
HETATM   14  N7  UNL     1       2.044   2.655  -1.284  1.00  0.00    -0.022 N 
HETATM   15  C17 UNL     1       2.122   1.410  -0.774  1.00  0.00     0.709 A 
ATOM     16  H7  UNL     1       2.799   3.012  -1.870  1.00  0.00     0.203 HD
HETATM   17  N10 UNL     1       1.103   0.945   0.010  1.00  0.00    -0.021 N 
ATOM     18  H10 UNL     1       1.164   0.003   0.395  1.00  0.00     0.203 HD
BRANCH  12  19
HETATM   19  N6  UNL     1       0.869   4.627  -1.500  1.00  0.00    -0.234 N 
ATOM     20  H62 UNL     1       0.059   5.214  -1.302  1.00  0.00     0.174 HD
ATOM     21  H61 UNL     1       1.609   5.009  -2.089  1.00  0.00     0.174 HD
ENDBRANCH  12  19
BRANCH  15  22
HETATM   22  N8  UNL     1       3.239   0.589  -1.040  1.00  0.00    -0.214 N 
HETATM   23  C18 UNL     1       3.308  -0.734  -0.483  1.00  0.00     0.160 C 
HETATM   24  C19 UNL     1       4.744  -1.251  -0.664  1.00  0.00     0.137 C 
HETATM   25  N9  UNL     1       5.652  -0.223  -0.290  1.00  0.00    -0.405 N 
HETATM   26  C26 UNL     1       5.584   0.996  -1.016  1.00  0.00     0.137 C 
HETATM   27  C27 UNL     1       4.331   1.034  -1.861  1.00  0.00     0.160 C 
BRANCH  25  28
HETATM   28  C20 UNL     1       6.962  -0.647   0.061  1.00  0.00     0.079 C 
HETATM   29  C21 UNL     1       7.736  -1.327  -1.039  1.00  0.00     0.025 C 
HETATM   30  C22 UNL     1       9.202  -1.239  -0.674  1.00  0.00     0.002 C 
HETATM   31  C23 UNL     1       9.398  -0.992   0.785  1.00  0.00     0.000 C 
HETATM   32  C24 UNL     1       8.434  -1.832   1.613  1.00  0.00     0.002 C 
HETATM   33  C25 UNL     1       6.983  -1.532   1.262  1.00  0.00     0.025 C 
ENDBRANCH  25  28
ENDBRANCH  15  22
ENDBRANCH   7  10
BRANCH   4  34
HETATM   34  N3  UNL     1      -5.311   2.618   0.644  1.00  0.00     0.095 N 
HETATM   35  C9  UNL     1      -5.282   3.986   0.161  1.00  0.00     0.275 C 
HETATM   36  C10 UNL     1      -6.727   4.421   0.404  1.00  0.00     0.064 C 
HETATM   37  C11 UNL     1      -7.482   3.222  -0.123  1.00  0.00     0.148 C 
HETATM   38  C12 UNL     1      -6.595   2.078   0.249  1.00  0.00     0.304 C 
BRANCH  37  39
HETATM   39  O1  UNL     1      -7.591   3.352  -1.515  1.00  0.00    -0.394 OA
ATOM     40  H1  UNL     1      -8.065   2.599  -1.846  1.00  0.00     0.210 HD
ENDBRANCH  37  39
ENDBRANCH   4  34
BRANCH   1  41
HETATM   41  C5  UNL     1      -3.382  -2.521   1.264  1.00  0.00     0.080 C 
HETATM   42  N1  UNL     1      -3.595  -2.519   2.537  1.00  0.00    -0.388 N 
ATOM     43  H12 UNL     1      -4.052  -3.293   3.019  1.00  0.00     0.157 HD
ATOM     44  H11 UNL     1      -3.264  -1.684   3.021  1.00  0.00     0.157 HD
BRANCH  41  45
HETATM   45  C2  UNL     1      -3.870  -3.753   0.549  1.00  0.00     0.007 C 
HETATM   46  C1  UNL     1      -5.006  -3.448  -0.398  1.00  0.00     0.022 C 
HETATM   47  C3  UNL     1      -2.728  -4.305  -0.290  1.00  0.00     0.022 C 
HETATM   48  C4  UNL     1      -4.325  -4.817   1.506  1.00  0.00     0.022 C 
ENDBRANCH  41  45
ENDBRANCH   1  41
TORSDOF 8
