REMARK  10 active torsions:
REMARK  status: ('A' for Active; 'I' for Inactive)
REMARK    1  A    between atoms: C4_5  and  C5_6 
REMARK       I    between atoms: C5_6  and  N2_8 
REMARK    2  A    between atoms: N2_8  and  C6_9 
REMARK    3  A    between atoms: C9_15  and  C10_16 
REMARK    4  A    between atoms: C11_17  and  C12_18 
REMARK    5  A    between atoms: C14_21  and  C15_22 
REMARK    6  A    between atoms: C15_22  and  O3_23 
REMARK    7  A    between atoms: C19_30  and  N5_31 
REMARK    8  A    between atoms: N5_31  and  C20_33 
REMARK    9  A    between atoms: C25_38  and  O4_39 
REMARK   10  A    between atoms: O4_39  and  O5_40 
ROOT
HETATM    1  C1  UNL     1       0.595  -4.215  -1.049  1.00  0.00     0.171 C 
HETATM    2  N1  UNL     1       1.238  -2.975  -1.406  1.00  0.00    -0.263 N 
HETATM    3  C2  UNL     1       0.545  -1.761  -1.227  1.00  0.00     0.053 A 
HETATM    4  C3  UNL     1      -0.556  -1.929  -0.426  1.00  0.00     0.050 A 
HETATM    5  C4  UNL     1      -1.372  -0.853  -0.123  1.00  0.00     0.067 A 
HETATM    6  C9  UNL     1      -1.144   0.406  -0.585  1.00  0.00     0.035 A 
HETATM    7  C16 UNL     1      -0.018   0.579  -1.404  1.00  0.00     0.031 A 
HETATM    8  C17 UNL     1       0.807  -0.480  -1.718  1.00  0.00    -0.022 A 
HETATM    9  C18 UNL     1       1.921  -0.071  -2.597  1.00  0.00     0.118 C 
HETATM   10  C19 UNL     1       3.260  -0.449  -2.112  1.00  0.00     0.097 C 
HETATM   11  N6  UNL     1       3.700  -1.632  -1.870  1.00  0.00    -0.256 N 
ATOM     12  H6  UNL     1       4.663  -1.693  -1.538  1.00  0.00     0.181 HD
HETATM   13  S2  UNL     1       2.860  -3.132  -2.038  1.00  0.00     0.326 S 
HETATM   14  O6  UNL     1       2.732  -3.543  -3.467  1.00  0.00    -0.182 OA
HETATM   15  O7  UNL     1       3.587  -4.159  -1.228  1.00  0.00    -0.182 OA
ENDROOT
BRANCH   6  16
HETATM   16  C10 UNL     1      -1.973   1.533  -0.270  1.00  0.00    -0.059 C 
HETATM   17  C11 UNL     1      -2.649   2.509  -0.021  1.00  0.00    -0.043 C 
BRANCH  17  18
HETATM   18  C12 UNL     1      -3.460   3.701   0.263  1.00  0.00     0.094 A 
HETATM   19  C13 UNL     1      -2.909   4.799   0.882  1.00  0.00     0.090 A 
HETATM   20  S1  UNL     1      -4.251   5.856   0.962  1.00  0.00    -0.084 SA
HETATM   21  C14 UNL     1      -5.411   4.852   0.216  1.00  0.00     0.075 A 
HETATM   22  N4  UNL     1      -4.713   3.763  -0.055  1.00  0.00    -0.345 N 
ATOM     23  H4  UNL     1      -5.162   2.971  -0.515  1.00  0.00     0.167 HD
BRANCH  21  24
HETATM   24  C15 UNL     1      -6.858   5.149  -0.056  1.00  0.00     0.229 C 
BRANCH  24  25
HETATM   25  O3  UNL     1      -7.145   6.441   0.417  1.00  0.00    -0.394 OA
ATOM     26  H3  UNL     1      -8.060   6.629   0.245  1.00  0.00     0.209 HD
ENDBRANCH  24  25
ENDBRANCH  21  24
ENDBRANCH  17  18
ENDBRANCH   6  16
BRANCH   5  27
HETATM   27  C5  UNL     1      -2.557  -1.117   0.744  1.00  0.00     0.330 C 
HETATM   28  O1  UNL     1      -3.343  -0.099   0.905  1.00  0.00    -0.251 OA
HETATM   29  N2  UNL     1      -2.805  -2.275   1.308  1.00  0.00    -0.339 NA
BRANCH  29  30
HETATM   30  C6  UNL     1      -3.001  -3.323   1.832  1.00  0.00     0.245 A 
HETATM   31  C7  UNL     1      -2.129  -4.078   2.660  1.00  0.00     0.093 A 
HETATM   32  C8  UNL     1      -2.809  -5.207   3.016  1.00  0.00     0.120 A 
HETATM   33  N3  UNL     1      -4.001  -5.129   2.441  1.00  0.00    -0.269 N 
HETATM   34  O2  UNL     1      -4.125  -4.051   1.757  1.00  0.00    -0.205 OA
ATOM     35  H3  UNL     1      -4.729  -5.838   2.531  1.00  0.00     0.194 HD
ENDBRANCH  29  30
ENDBRANCH   5  27
BRANCH  10  36
HETATM   36  N5  UNL     1       4.218   0.569  -1.864  1.00  0.00    -0.343 N 
ATOM     37  H5  UNL     1       4.603   1.070  -2.665  1.00  0.00     0.167 HD
BRANCH  36  38
HETATM   38  C20 UNL     1       4.671   0.931  -0.572  1.00  0.00     0.070 A 
HETATM   39  C21 UNL     1       4.192   0.295   0.560  1.00  0.00     0.032 A 
HETATM   40  C22 UNL     1       4.619   0.631   1.825  1.00  0.00     0.002 A 
HETATM   41  C23 UNL     1       5.564   1.646   1.974  1.00  0.00     0.003 A 
HETATM   42  C24 UNL     1       6.027   2.264   0.848  1.00  0.00     0.042 A 
HETATM   43  C25 UNL     1       5.591   1.917  -0.409  1.00  0.00     0.133 A 
BRANCH  43  44
HETATM   44  O4  UNL     1       6.080   2.563  -1.530  1.00  0.00    -0.198 OA
BRANCH  44  45
HETATM   45  O5  UNL     1       6.975   3.531  -1.454  1.00  0.00    -0.245 OA
ATOM     46  H5  UNL     1       7.311   3.975  -2.224  1.00  0.00     0.254 HD
ENDBRANCH  44  45
ENDBRANCH  43  44
ENDBRANCH  36  38
ENDBRANCH  10  36
TORSDOF 10
