REMARK  5 active torsions:
REMARK  status: ('A' for Active; 'I' for Inactive)
REMARK    1  A    between atoms: N1_1  and  C1_4 
REMARK    2  A    between atoms: C9_14  and  C10_15 
REMARK       I    between atoms: C10_15  and  N3_17 
REMARK    3  A    between atoms: N4_20  and  C13_21 
REMARK    4  A    between atoms: C21_35  and  C22_36 
REMARK    5  A    between atoms: N10_43  and  C25_45 
ROOT
HETATM    1  C13 UNL     1      -1.329   1.161  -1.412  1.00  0.00     0.119 C 
HETATM    2  N5  UNL     1      -1.239   2.288  -2.209  1.00  0.00    -0.326 N 
ATOM      3  H5  UNL     1      -0.935   2.162  -3.175  1.00  0.00     0.169 HD
HETATM    4  C14 UNL     1      -1.527   3.555  -1.796  1.00  0.00     0.135 A 
HETATM    5  N6  UNL     1      -1.235   4.674  -2.483  1.00  0.00    -0.284 N 
ATOM      6  H6  UNL     1      -0.768   4.703  -3.390  1.00  0.00     0.188 HD
HETATM    7  N7  UNL     1      -1.649   5.739  -1.797  1.00  0.00    -0.298 N 
ATOM      8  H7  UNL     1      -1.546   6.707  -2.101  1.00  0.00     0.187 HD
HETATM    9  C15 UNL     1      -2.223   5.348  -0.643  1.00  0.00     0.063 A 
HETATM   10  C16 UNL     1      -2.815   5.971   0.437  1.00  0.00     0.032 A 
HETATM   11  C17 UNL     1      -3.311   5.220   1.482  1.00  0.00     0.003 A 
HETATM   12  C18 UNL     1      -3.245   3.839   1.503  1.00  0.00     0.012 A 
HETATM   13  C19 UNL     1      -2.662   3.224   0.439  1.00  0.00    -0.019 A 
HETATM   14  C20 UNL     1      -2.651   1.831   0.561  1.00  0.00     0.031 C 
HETATM   15  C21 UNL     1      -2.219   0.921  -0.425  1.00  0.00     0.053 C 
HETATM   16  C28 UNL     1      -2.150   3.951  -0.632  1.00  0.00     0.048 A 
ENDROOT
BRANCH   1  17
HETATM   17  N4  UNL     1      -0.335   0.215  -1.684  1.00  0.00    -0.363 N 
HETATM   18  C12 UNL     1      -0.051  -0.124  -3.071  1.00  0.00     0.144 C 
HETATM   19  C11 UNL     1       1.436  -0.098  -3.348  1.00  0.00     0.146 C 
HETATM   20  N3  UNL     1       2.245  -0.334  -2.176  1.00  0.00    -0.345 N 
HETATM   21  C10 UNL     1       3.572   0.166  -2.144  1.00  0.00     0.257 C 
HETATM   22  C30 UNL     1       1.659  -1.075  -1.086  1.00  0.00     0.146 C 
HETATM   23  O1  UNL     1       4.002   0.802  -3.139  1.00  0.00    -0.267 OA
HETATM   24  C29 UNL     1       0.430  -0.342  -0.599  1.00  0.00     0.144 C 
BRANCH  21  25
HETATM   25  C9  UNL     1       4.479  -0.005  -1.028  1.00  0.00     0.076 A 
HETATM   26  C1  UNL     1       4.494   0.947  -0.037  1.00  0.00     0.115 A 
HETATM   27  N2  UNL     1       5.322   0.821   1.012  1.00  0.00    -0.341 N 
HETATM   28  C2  UNL     1       6.164  -0.216   1.152  1.00  0.00     0.044 A 
ATOM     29  H2  UNL     1       5.311   1.543   1.733  1.00  0.00     0.167 HD
HETATM   30  C3  UNL     1       6.975  -0.254   2.263  1.00  0.00     0.030 A 
HETATM   31  C7  UNL     1       6.177  -1.189   0.178  1.00  0.00    -0.008 A 
HETATM   32  C4  UNL     1       7.836  -1.323   2.395  1.00  0.00     0.002 A 
HETATM   33  C5  UNL     1       7.872  -2.311   1.438  1.00  0.00     0.001 A 
HETATM   34  C6  UNL     1       7.046  -2.245   0.334  1.00  0.00     0.014 A 
HETATM   35  C8  UNL     1       5.336  -1.076  -0.901  1.00  0.00     0.034 A 
BRANCH  26  36
HETATM   36  N1  UNL     1       3.713   1.971  -0.103  1.00  0.00    -0.385 N 
ATOM     37  H12 UNL     1       3.724   2.678   0.633  1.00  0.00     0.157 HD
ATOM     38  H11 UNL     1       3.084   2.067  -0.900  1.00  0.00     0.157 HD
ENDBRANCH  26  36
ENDBRANCH  21  25
ENDBRANCH   1  17
BRANCH  15  39
HETATM   39  C22 UNL     1      -2.787  -0.406  -0.388  1.00  0.00     0.136 A 
HETATM   40  N8  UNL     1      -2.577  -1.271  -1.375  1.00  0.00    -0.337 N 
HETATM   41  C23 UNL     1      -3.093  -2.499  -1.349  1.00  0.00     0.199 A 
ATOM     42  H8  UNL     1      -2.007  -0.988  -2.172  1.00  0.00     0.168 HD
HETATM   43  N9  UNL     1      -3.848  -2.938  -0.337  1.00  0.00    -0.188 N 
HETATM   44  C24 UNL     1      -4.067  -2.062   0.673  1.00  0.00     0.681 A 
ATOM     45  H9  UNL     1      -4.238  -3.881  -0.326  1.00  0.00     0.185 HD
HETATM   46  N10 UNL     1      -4.779  -2.438   1.651  1.00  0.00    -0.217 N 
HETATM   47  N11 UNL     1      -3.547  -0.835   0.639  1.00  0.00    -0.176 N 
ATOM     48  H10 UNL     1      -4.928  -1.760   2.398  1.00  0.00     0.178 HD
ATOM     49  H11 UNL     1      -3.730  -0.200   1.416  1.00  0.00     0.186 HD
BRANCH  46  50
HETATM   50  C25 UNL     1      -5.395  -3.720   1.811  1.00  0.00     0.147 C 
HETATM   51  C26 UNL     1      -6.270  -3.897   3.003  1.00  0.00     0.195 C 
HETATM   52  O2  UNL     1      -7.144  -4.653   2.221  1.00  0.00    -0.387 OA
HETATM   53  C27 UNL     1      -6.689  -3.952   1.106  1.00  0.00     0.195 C 
ENDBRANCH  46  50
ENDBRANCH  15  39
TORSDOF 5
