REMARK  6 active torsions:
REMARK  status: ('A' for Active; 'I' for Inactive)
REMARK    1  A    between atoms: C5_9  and  C6_10 
REMARK    2  A    between atoms: C8_16  and  C9_17 
REMARK       I    between atoms: C9_17  and  N5_19 
REMARK    3  A    between atoms: C17_29  and  C18_30 
REMARK    4  A    between atoms: N10_42  and  C24_43 
REMARK    5  A    between atoms: C24_43  and  C25_44 
REMARK    6  A    between atoms: N11_49  and  O2_50 
ROOT
HETATM    1  C6  UNL     1       1.530   0.633   0.334  1.00  0.00     0.059 A 
HETATM    2  C7  UNL     1       1.879   1.924   0.787  1.00  0.00     0.124 A 
HETATM    3  N3  UNL     1       0.749   2.595   0.893  1.00  0.00    -0.310 N 
ATOM      4  H3  UNL     1       0.682   3.565   1.202  1.00  0.00     0.186 HD
HETATM    5  N4  UNL     1      -0.280   1.854   0.550  1.00  0.00    -0.295 N 
ATOM      6  H4  UNL     1      -1.253   2.161   0.552  1.00  0.00     0.187 HD
HETATM    7  C8  UNL     1       0.152   0.610   0.190  1.00  0.00     0.132 A 
ENDROOT
BRANCH   1   8
HETATM    8  C5  UNL     1       2.516  -0.430   0.108  1.00  0.00     0.121 A 
HETATM    9  N2  UNL     1       2.283  -1.630  -0.406  1.00  0.00    -0.349 N 
HETATM   10  C4  UNL     1       3.225  -2.556  -0.568  1.00  0.00     0.123 A 
ATOM     11  H2  UNL     1       1.330  -1.855  -0.693  1.00  0.00     0.167 HD
HETATM   12  C3  UNL     1       4.519  -2.252  -0.180  1.00  0.00     0.094 A 
HETATM   13  N1  UNL     1       5.677  -2.924  -0.184  1.00  0.00    -0.342 N 
HETATM   14  C23 UNL     1       4.768  -1.014   0.352  1.00  0.00     0.139 A 
HETATM   15  C2  UNL     1       6.652  -2.154   0.326  1.00  0.00     0.081 A 
ATOM     16  H1  UNL     1       5.800  -3.878  -0.524  1.00  0.00     0.167 HD
HETATM   17  C1  UNL     1       8.098  -2.574   0.490  1.00  0.00     0.089 C 
HETATM   18  N10 UNL     1       6.101  -0.982   0.656  1.00  0.00    -0.315 N 
HETATM   19  N9  UNL     1       3.793  -0.115   0.497  1.00  0.00    -0.326 N 
ATOM     20  H9  UNL     1       3.996   0.802   0.895  1.00  0.00     0.169 HD
BRANCH  18  21
HETATM   21  C24 UNL     1       6.711   0.165   1.267  1.00  0.00     0.191 C 
BRANCH  21  22
HETATM   22  C25 UNL     1       7.365   1.123   0.355  1.00  0.00     0.058 A 
HETATM   23  C26 UNL     1       6.702   1.914  -0.556  1.00  0.00     0.029 A 
HETATM   24  C27 UNL     1       7.320   2.829  -1.393  1.00  0.00     0.003 A 
HETATM   25  C28 UNL     1       8.684   2.972  -1.327  1.00  0.00     0.020 A 
HETATM   26  C29 UNL     1       9.352   2.186  -0.420  1.00  0.00     0.123 A 
HETATM   27  N11 UNL     1       8.721   1.314   0.373  1.00  0.00    -0.239 N 
BRANCH  27  28
HETATM   28  O2  UNL     1       9.465   0.587   1.276  1.00  0.00    -0.283 OA
ATOM     29  H2  UNL     1      10.406   0.719   1.288  1.00  0.00     0.245 HD
ENDBRANCH  27  28
ENDBRANCH  21  22
ENDBRANCH  18  21
ENDBRANCH   1   8
BRANCH   7  30
HETATM   30  C9  UNL     1      -0.731  -0.482  -0.198  1.00  0.00     0.279 C 
HETATM   31  O1  UNL     1      -0.231  -1.585  -0.628  1.00  0.00    -0.265 OA
HETATM   32  N5  UNL     1      -2.148  -0.437  -0.142  1.00  0.00    -0.286 N 
HETATM   33  C10 UNL     1      -2.976  -1.463  -0.789  1.00  0.00     0.048 A 
HETATM   34  C22 UNL     1      -3.116   0.417   0.495  1.00  0.00     0.235 C 
HETATM   35  C11 UNL     1      -2.732  -2.258  -1.888  1.00  0.00     0.030 A 
HETATM   36  C15 UNL     1      -4.177  -1.570  -0.129  1.00  0.00    -0.005 A 
HETATM   37  C12 UNL     1      -3.669  -3.173  -2.355  1.00  0.00     0.002 A 
HETATM   38  C13 UNL     1      -4.876  -3.293  -1.708  1.00  0.00     0.001 A 
HETATM   39  C14 UNL     1      -5.108  -2.493  -0.612  1.00  0.00     0.012 A 
HETATM   40  C16 UNL     1      -4.154  -0.623   0.990  1.00  0.00     0.162 C 
HETATM   41  N6  UNL     1      -5.403  -0.028   1.327  1.00  0.00    -0.365 N 
HETATM   42  C17 UNL     1      -6.008   0.891   0.432  1.00  0.00     0.100 C 
ATOM     43  H6  UNL     1      -5.861  -0.262   2.208  1.00  0.00     0.161 HD
HETATM   44  N7  UNL     1      -5.209   1.485  -0.398  1.00  0.00    -0.291 N 
HETATM   45  N8  UNL     1      -3.850   1.251  -0.426  1.00  0.00    -0.309 N 
ATOM     46  H7  UNL     1      -5.602   2.155  -1.059  1.00  0.00     0.188 HD
ATOM     47  H8  UNL     1      -3.316   1.709  -1.164  1.00  0.00     0.182 HD
BRANCH  42  48
HETATM   48  C18 UNL     1      -7.467   1.135   0.471  1.00  0.00     0.009 C 
HETATM   49  C19 UNL     1      -7.789   2.160  -0.600  1.00  0.00     0.023 C 
HETATM   50  C20 UNL     1      -7.944   1.547   1.824  1.00  0.00     0.023 C 
HETATM   51  C21 UNL     1      -8.202  -0.137   0.082  1.00  0.00     0.023 C 
ENDBRANCH  42  48
ENDBRANCH   7  30
TORSDOF 6
