REMARK  5 active torsions:
REMARK  status: ('A' for Active; 'I' for Inactive)
REMARK    1  A    between atoms: N1_1  and  C1_5 
REMARK    2  A    between atoms: C1_5  and  C2_6 
REMARK    3  A    between atoms: C2_6  and  N2_7 
REMARK    4  A    between atoms: N2_7  and  C3_9 
REMARK    5  A    between atoms: N5_19  and  N6_20 
ROOT
HETATM    1  C3  UNL     1       0.491  -0.031  -0.326  1.00  0.00     0.682 A 
HETATM    2  N3  UNL     1       0.438  -1.376  -0.288  1.00  0.00    -0.154 N 
ATOM      3  H3  UNL     1       1.280  -1.933  -0.438  1.00  0.00     0.187 HD
HETATM    4  C4  UNL     1      -0.745  -1.974  -0.049  1.00  0.00     0.290 A 
HETATM    5  O1  UNL     1      -0.848  -3.245  -0.003  1.00  0.00    -0.265 OA
HETATM    6  C5  UNL     1      -1.915  -1.270   0.159  1.00  0.00     0.152 A 
HETATM    7  N4  UNL     1      -3.197  -1.590   0.411  1.00  0.00    -0.299 N 
ATOM      8  H4  UNL     1      -3.566  -2.537   0.502  1.00  0.00     0.171 HD
HETATM    9  C6  UNL     1      -3.914  -0.456   0.524  1.00  0.00     0.347 A 
HETATM   10  O2  UNL     1      -5.158  -0.342   0.759  1.00  0.00    -0.245 OA
HETATM   11  N5  UNL     1      -3.073   0.574   0.342  1.00  0.00    -0.192 N 
HETATM   12  C7  UNL     1      -1.822   0.110   0.113  1.00  0.00     0.179 A 
HETATM   13  N7  UNL     1      -0.631   0.679  -0.127  1.00  0.00    -0.172 N 
ATOM     14  H7  UNL     1      -0.575   1.697  -0.160  1.00  0.00     0.186 HD
ENDROOT
BRANCH   1  15
HETATM   15  N2  UNL     1       1.624   0.554  -0.555  1.00  0.00    -0.224 N 
ATOM     16  H2  UNL     1       1.657   1.573  -0.583  1.00  0.00     0.177 HD
BRANCH  15  17
HETATM   17  C2  UNL     1       2.847  -0.193  -0.773  1.00  0.00     0.165 C 
BRANCH  17  18
HETATM   18  C1  UNL     1       3.992   0.804  -0.564  1.00  0.00     0.249 C 
BRANCH  18  19
HETATM   19  N1  UNL     1       3.846   1.276   0.818  1.00  0.00    -0.078 N 
ATOM     20  H13 UNL     1       2.924   1.659   1.027  1.00  0.00     0.274 HD
ATOM     21  H12 UNL     1       3.822   0.526   1.509  1.00  0.00     0.274 HD
ATOM     22  H11 UNL     1       4.608   1.940   0.957  1.00  0.00     0.274 HD
ENDBRANCH  18  19
ENDBRANCH  17  18
ENDBRANCH  15  17
ENDBRANCH   1  15
BRANCH  11  23
HETATM   23  N6  UNL     1      -3.387   1.945   0.373  1.00  0.00    -0.333 N 
ATOM     24  H62 UNL     1      -4.330   2.295   0.546  1.00  0.00     0.177 HD
ATOM     25  H61 UNL     1      -2.748   2.728   0.235  1.00  0.00     0.177 HD
ENDBRANCH  11  23
TORSDOF 5
