REMARK  3 active torsions:
REMARK  status: ('A' for Active; 'I' for Inactive)
REMARK    1  A    between atoms: N1_1  and  N2_4 
REMARK    2  A    between atoms: N4_8  and  N5_9 
REMARK    3  A    between atoms: N6_11  and  C3_13 
ROOT
HETATM    1  N5  UNL     1      -0.235   0.231   0.083  1.00  0.00    -0.227 N 
ATOM      2  H5  UNL     1       0.171   0.833  -0.633  1.00  0.00     0.209 HD
HETATM    3  N6  UNL     1       0.554  -0.406   0.846  1.00  0.00    -0.279 N 
ATOM      4  H6  UNL     1       0.198  -1.020   1.578  1.00  0.00     0.189 HD
ENDROOT
BRANCH   3   5
HETATM    5  C3  UNL     1       1.949  -0.235   0.647  1.00  0.00     0.133 A 
HETATM    6  C4  UNL     1       2.453   0.667  -0.290  1.00  0.00     0.129 A 
HETATM    7  N7  UNL     1       3.785   0.766  -0.413  1.00  0.00    -0.316 N 
HETATM    8  C5  UNL     1       4.611   0.032   0.328  1.00  0.00     0.327 A 
ATOM      9  H7  UNL     1       4.174   1.420  -1.092  1.00  0.00     0.170 HD
HETATM   10  O1  UNL     1       5.868   0.105   0.232  1.00  0.00    -0.247 OA
HETATM   11  N8  UNL     1       4.150  -0.860   1.254  1.00  0.00    -0.274 N 
HETATM   12  C6  UNL     1       2.829  -0.992   1.412  1.00  0.00     0.279 A 
ATOM     13  H8  UNL     1       4.799  -1.413   1.813  1.00  0.00     0.173 HD
HETATM   14  O2  UNL     1       2.352  -1.799   2.251  1.00  0.00    -0.265 OA
ENDBRANCH   3   5
BRANCH   1  15
HETATM   15  N4  UNL     1      -1.621   0.157   0.166  1.00  0.00    -0.204 N 
HETATM   16  N2  UNL     1      -2.448   1.286   0.143  1.00  0.00    -0.034 NA
HETATM   17  N3  UNL     1      -3.565   0.872   0.853  1.00  0.00    -0.122 NA
HETATM   18  C1  UNL     1      -3.824  -0.477   0.323  1.00  0.00     0.155 C 
HETATM   19  C2  UNL     1      -2.422  -1.047   0.287  1.00  0.00     0.186 C 
BRANCH  16  20
HETATM   20  N1  UNL     1      -2.724   1.647  -1.166  1.00  0.00    -0.329 NA
ATOM     21  H12 UNL     1      -3.327   2.470  -1.183  1.00  0.00     0.174 HD
ATOM     22  H11 UNL     1      -1.902   1.952  -1.688  1.00  0.00     0.174 HD
ENDBRANCH  16  20
ENDBRANCH   1  15
TORSDOF 3
