REMARK  4 active torsions:
REMARK  status: ('A' for Active; 'I' for Inactive)
REMARK    1  A    between atoms: N1_1  and  O1_4 
REMARK    2  A    between atoms: O1_4  and  C1_5 
REMARK    3  A    between atoms: C1_5  and  C2_6 
REMARK    4  A    between atoms: C2_6  and  N2_7 
ROOT
HETATM    1  N2  UNL     1       0.352  -0.799  -0.544  1.00  0.00    -0.262 N 
HETATM    2  C3  UNL     1      -0.112  -1.630   0.418  1.00  0.00     0.331 A 
HETATM    3  O2  UNL     1       0.639  -2.605   0.740  1.00  0.00    -0.246 OA
HETATM    4  N3  UNL     1      -1.303  -1.458   1.023  1.00  0.00    -0.292 N 
ATOM      5  H3  UNL     1      -1.594  -2.120   1.743  1.00  0.00     0.172 HD
HETATM    6  C4  UNL     1      -2.119  -0.437   0.704  1.00  0.00     0.146 A 
HETATM    7  N4  UNL     1      -3.334  -0.019   1.124  1.00  0.00    -0.292 N 
ATOM      8  H4  UNL     1      -3.901  -0.469   1.843  1.00  0.00     0.172 HD
HETATM    9  C5  UNL     1      -3.673   1.090   0.437  1.00  0.00     0.326 A 
HETATM   10  O3  UNL     1      -4.751   1.729   0.593  1.00  0.00    -0.247 OA
HETATM   11  N5  UNL     1      -2.657   1.350  -0.407  1.00  0.00    -0.301 N 
ATOM     12  H5  UNL     1      -2.630   2.134  -1.059  1.00  0.00     0.171 HD
HETATM   13  C6  UNL     1      -1.681   0.433  -0.273  1.00  0.00     0.150 A 
HETATM   14  C7  UNL     1      -0.443   0.232  -0.882  1.00  0.00     0.282 A 
HETATM   15  O4  UNL     1      -0.056   1.023  -1.765  1.00  0.00    -0.265 OA
ENDROOT
BRANCH   1  16
HETATM   16  C2  UNL     1       1.646  -1.043  -1.154  1.00  0.00     0.166 C 
BRANCH  16  17
HETATM   17  C1  UNL     1       2.736  -0.313  -0.359  1.00  0.00     0.220 C 
BRANCH  17  18
HETATM   18  O1  UNL     1       2.470   1.047  -0.364  1.00  0.00    -0.286 OA
BRANCH  18  19
HETATM   19  N1  UNL     1       3.361   1.746   0.299  1.00  0.00    -0.311 N 
ATOM     20  H12 UNL     1       4.161   1.318   0.764  1.00  0.00     0.184 HD
ATOM     21  H11 UNL     1       3.165   2.747   0.295  1.00  0.00     0.184 HD
ENDBRANCH  18  19
ENDBRANCH  17  18
ENDBRANCH  16  17
ENDBRANCH   1  16
TORSDOF 4
