REMARK  5 active torsions:
REMARK  status: ('A' for Active; 'I' for Inactive)
REMARK    1  A    between atoms: O1_2  and  C2_3 
REMARK    2  A    between atoms: C3_6  and  N2_7 
REMARK    3  A    between atoms: N2_7  and  N3_9 
REMARK    4  A    between atoms: C6_13  and  N4_14 
REMARK    5  A    between atoms: C7_20  and  N6_21 
ROOT
HETATM    1  C2  UNL     1       2.292   0.028   0.181  1.00  0.00     0.252 A 
HETATM    2  N1  UNL     1       0.966  -0.008  -0.059  1.00  0.00    -0.152 N 
ATOM      3  H1  UNL     1       0.479  -0.902  -0.124  1.00  0.00     0.188 HD
HETATM    4  C3  UNL     1       0.284   1.159  -0.214  1.00  0.00     0.714 A 
HETATM    5  N5  UNL     1       0.947   2.322  -0.125  1.00  0.00    -0.021 N 
ATOM      6  H5  UNL     1       0.432   3.194  -0.242  1.00  0.00     0.203 HD
HETATM    7  C7  UNL     1       2.289   2.375   0.117  1.00  0.00     0.693 A 
HETATM    8  N7  UNL     1       2.932   1.208   0.266  1.00  0.00    -0.154 N 
ATOM      9  H7  UNL     1       3.935   1.215   0.449  1.00  0.00     0.188 HD
ENDROOT
BRANCH   4  10
HETATM   10  N2  UNL     1      -0.968   1.171  -0.442  1.00  0.00    -0.124 N 
ATOM     11  H2  UNL     1      -1.409   2.085  -0.547  1.00  0.00     0.206 HD
BRANCH  10  12
HETATM   12  N3  UNL     1      -1.784   0.067  -0.560  1.00  0.00    -0.215 N 
HETATM   13  C4  UNL     1      -1.587  -1.269  -0.963  1.00  0.00     0.244 C 
HETATM   14  O2  UNL     1      -0.772  -1.810  -1.742  1.00  0.00    -0.271 OA
HETATM   15  C5  UNL     1      -2.721  -1.652  -0.079  1.00  0.00     0.161 C 
HETATM   16  C6  UNL     1      -3.170  -0.229  -0.337  1.00  0.00     0.316 C 
BRANCH  16  17
HETATM   17  N4  UNL     1      -3.792   0.435   0.777  1.00  0.00    -0.056 N 
ATOM     18  H43 UNL     1      -3.260   0.253   1.628  1.00  0.00     0.276 HD
ATOM     19  H42 UNL     1      -3.665   1.443   0.692  1.00  0.00     0.276 HD
ATOM     20  H41 UNL     1      -4.777   0.225   0.936  1.00  0.00     0.276 HD
ENDBRANCH  16  17
ENDBRANCH  10  12
ENDBRANCH   4  10
BRANCH   1  21
HETATM   21  O1  UNL     1       3.055  -1.128   0.351  1.00  0.00    -0.326 OA
HETATM   22  C1  UNL     1       2.429  -2.406   0.271  1.00  0.00     0.213 C 
ENDBRANCH   1  21
BRANCH   7  23
HETATM   23  N6  UNL     1       2.867   3.522   0.191  1.00  0.00    -0.234 N 
ATOM     24  H62 UNL     1       2.378   4.410   0.078  1.00  0.00     0.174 HD
ATOM     25  H61 UNL     1       3.870   3.562   0.372  1.00  0.00     0.174 HD
ENDBRANCH   7  23
TORSDOF 5
