REMARK  3 active torsions:
REMARK  status: ('A' for Active; 'I' for Inactive)
REMARK    1  A    between atoms: C3_3  and  N1_4 
REMARK    2  A    between atoms: N2_6  and  C4_8 
REMARK    3  A    between atoms: N6_20  and  C9_21 
ROOT
HETATM    1  C1  UNL     1       0.027  -0.871   0.619  1.00  0.00     0.071 C 
HETATM    2  C2  UNL     1      -0.160   0.395  -0.123  1.00  0.00     0.037 A 
HETATM    3  C3  UNL     1       0.853   1.189  -0.612  1.00  0.00     0.094 A 
HETATM    4  C7  UNL     1       0.243   2.246  -1.223  1.00  0.00     0.079 A 
HETATM    5 CL1  UNL     1       1.067   3.582  -2.027  1.00  0.00    -0.080 Cl
HETATM    6  C8  UNL     1      -1.095   2.075  -1.095  1.00  0.00     0.117 A 
HETATM    7  N6  UNL     1      -1.357   0.931  -0.415  1.00  0.00    -0.352 N 
ENDROOT
BRANCH   3   8
HETATM    8  N1  UNL     1       2.238   0.902  -0.471  1.00  0.00    -0.283 N 
HETATM    9  N2  UNL     1       2.861   0.965   0.632  1.00  0.00    -0.130 N 
ATOM     10  H2  UNL     1       2.402   1.230   1.504  1.00  0.00     0.205 HD
ATOM     11  H1  UNL     1       2.760   0.630  -1.304  1.00  0.00     0.187 HD
BRANCH   9  12
HETATM   12  C4  UNL     1       4.262   0.636   0.567  1.00  0.00     0.715 A 
HETATM   13  N3  UNL     1       5.281   1.429   0.886  1.00  0.00    -0.128 N 
HETATM   14  N4  UNL     1       6.431   0.818   0.712  1.00  0.00    -0.261 N 
ATOM     15  H3  UNL     1       5.182   2.387   1.222  1.00  0.00     0.205 HD
HETATM   16  C5  UNL     1       6.128  -0.408   0.266  1.00  0.00     0.207 A 
ATOM     17  H4  UNL     1       7.362   1.199   0.882  1.00  0.00     0.190 HD
HETATM   18  S1  UNL     1       7.216  -1.555  -0.101  1.00  0.00    -0.038 SA
HETATM   19  N5  UNL     1       4.800  -0.554   0.165  1.00  0.00    -0.158 N 
HETATM   20  C6  UNL     1       4.010  -1.683  -0.265  1.00  0.00     0.178 C 
ENDBRANCH   9  12
ENDBRANCH   3   8
BRANCH   7  21
HETATM   21  C9  UNL     1      -2.649   0.426  -0.091  1.00  0.00     0.092 C 
HETATM   22  C10 UNL     1      -3.107   0.811   1.319  1.00  0.00     0.053 C 
HETATM   23  C11 UNL     1      -4.359  -0.010   1.581  1.00  0.00     0.234 C 
HETATM   24  N7  UNL     1      -5.069  -0.331   0.362  1.00  0.00    -0.075 N 
HETATM   25  C12 UNL     1      -4.338  -1.282  -0.456  1.00  0.00     0.234 C 
ATOM     26  H72 UNL     1      -6.014  -0.661   0.559  1.00  0.00     0.277 HD
ATOM     27  H71 UNL     1      -5.300   0.511  -0.165  1.00  0.00     0.277 HD
HETATM   28  C13 UNL     1      -2.825  -1.054  -0.311  1.00  0.00     0.053 C 
ENDBRANCH   7  21
TORSDOF 3
