REMARK  4 active torsions:
REMARK  status: ('A' for Active; 'I' for Inactive)
REMARK    1  A    between atoms: C4_7  and  C5_8 
REMARK    2  A    between atoms: C7_12  and  C8_13 
REMARK    3  A    between atoms: C8_13  and  O2_15 
REMARK    4  A    between atoms: O2_15  and  C9_16 
ROOT
HETATM    1  C5  UNL     1      -3.373  -0.115   0.195  1.00  0.00     0.064 A 
HETATM    2  C6  UNL     1      -2.821  -1.168   0.889  1.00  0.00     0.120 A 
HETATM    3  N2  UNL     1      -1.465  -1.036   0.813  1.00  0.00    -0.345 N 
ATOM      4  H2  UNL     1      -0.783  -1.668   1.233  1.00  0.00     0.167 HD
HETATM    5  C7  UNL     1      -1.172   0.070   0.090  1.00  0.00     0.182 A 
HETATM    6  N3  UNL     1      -2.337   0.601  -0.267  1.00  0.00    -0.336 N 
ATOM      7  H3  UNL     1      -2.432   1.450  -0.825  1.00  0.00     0.168 HD
ENDROOT
BRANCH   5   8
HETATM    8  C8  UNL     1       0.150   0.595  -0.244  1.00  0.00     0.328 C 
HETATM    9  O1  UNL     1       0.256   1.643  -0.930  1.00  0.00    -0.256 OA
BRANCH   8  10
HETATM   10  O2  UNL     1       1.322  -0.019   0.168  1.00  0.00    -0.310 OA
BRANCH  10  11
HETATM   11  C9  UNL     1       2.611   0.476  -0.146  1.00  0.00     0.132 C 
HETATM   12  C10 UNL     1       3.347  -0.468  -1.031  1.00  0.00     0.032 C 
HETATM   13  C11 UNL     1       4.833  -0.404  -0.971  1.00  0.00     0.002 C 
HETATM   14  C12 UNL     1       5.413   0.061   0.310  1.00  0.00     0.000 C 
HETATM   15  C13 UNL     1       4.429  -0.039   1.460  1.00  0.00     0.002 C 
HETATM   16  C14 UNL     1       3.296   0.894   1.090  1.00  0.00     0.032 C 
ENDBRANCH  10  11
ENDBRANCH   8  10
ENDBRANCH   5   8
BRANCH   1  17
HETATM   17  C4  UNL     1      -4.826   0.181  -0.011  1.00  0.00     0.045 A 
HETATM   18  C1  UNL     1      -5.467  -0.345  -1.106  1.00  0.00     0.101 A 
HETATM   19  N1  UNL     1      -4.904  -1.182  -2.132  1.00  0.00    -0.093 NA
HETATM   20  S1  UNL     1      -7.061   0.239  -0.935  1.00  0.00    -0.085 SA
HETATM   21  C2  UNL     1      -6.882   1.126   0.503  1.00  0.00     0.076 A 
HETATM   22  C3  UNL     1      -5.570   0.945   0.822  1.00  0.00     0.055 A 
HETATM   23 CL1  UNL     1      -4.884   1.702   2.291  1.00  0.00    -0.083 Cl
ENDBRANCH   1  17
TORSDOF 4
