REMARK  6 active torsions:
REMARK  status: ('A' for Active; 'I' for Inactive)
REMARK    1  A    between atoms: C4_4  and  C5_5 
REMARK    2  A    between atoms: C5_5  and  N1_6 
REMARK    3  A    between atoms: C8_9  and  N2_10 
REMARK    4  A    between atoms: C9_11  and  O1_12 
REMARK    5  A    between atoms: C11_15  and  N3_16 
REMARK    6  A    between atoms: C16_21  and  O2_22 
ROOT
HETATM    1  N1  UNL     1      -2.720  -0.337  -0.954  1.00  0.00    -0.366 N 
HETATM    2  C6  UNL     1      -1.920  -1.139  -1.854  1.00  0.00     0.126 C 
HETATM    3  C7  UNL     1      -0.455  -1.090  -1.577  1.00  0.00     0.046 C 
HETATM    4  C8  UNL     1      -0.232  -0.474  -0.213  1.00  0.00     0.103 C 
HETATM    5  C17 UNL     1      -0.710   0.980  -0.330  1.00  0.00     0.104 C 
HETATM    6  C18 UNL     1      -2.191   0.888  -0.461  1.00  0.00     0.106 C 
HETATM    7  N4  UNL     1      -2.997   1.851  -0.155  1.00  0.00    -0.212 N 
ATOM      8  H4  UNL     1      -4.007   1.752  -0.259  1.00  0.00     0.201 HD
HETATM    9  F1  UNL     1      -2.446   2.991   0.307  1.00  0.00    -0.100 F 
ENDROOT
BRANCH   4  10
HETATM   10  N2  UNL     1       1.120  -0.565   0.242  1.00  0.00    -0.301 N 
HETATM   11  C9  UNL     1       1.521  -1.175   1.370  1.00  0.00     0.146 A 
HETATM   12  C10 UNL     1       2.905  -1.055   1.471  1.00  0.00     0.089 A 
HETATM   13  C11 UNL     1       3.340  -0.341   0.350  1.00  0.00     0.086 A 
HETATM   14  C16 UNL     1       2.198  -0.062  -0.379  1.00  0.00     0.172 A 
BRANCH  11  15
HETATM   15  O1  UNL     1       0.716  -1.826   2.303  1.00  0.00    -0.346 OA
ATOM     16  H1  UNL     1       1.000  -2.257   3.101  1.00  0.00     0.219 HD
ENDBRANCH  11  15
BRANCH  13  17
HETATM   17  N3  UNL     1       4.676   0.018   0.032  1.00  0.00    -0.377 N 
HETATM   18  C12 UNL     1       5.453  -0.339  -1.130  1.00  0.00     0.123 C 
HETATM   19  C13 UNL     1       6.905  -0.166  -0.744  1.00  0.00     0.021 C 
HETATM   20  C14 UNL     1       6.855   0.114   0.743  1.00  0.00     0.021 C 
HETATM   21  C15 UNL     1       5.527   0.846   0.864  1.00  0.00     0.123 C 
ENDBRANCH  13  17
BRANCH  14  22
HETATM   22  O2  UNL     1       2.139   0.633  -1.579  1.00  0.00    -0.344 OA
ATOM     23  H2  UNL     1       2.902   0.989  -2.019  1.00  0.00     0.219 HD
ENDBRANCH  14  22
ENDBRANCH   4  10
BRANCH   1  24
HETATM   24  C5  UNL     1      -4.019  -0.816  -0.601  1.00  0.00     0.151 C 
BRANCH  24  25
HETATM   25  C4  UNL     1      -4.784   0.023   0.317  1.00  0.00    -0.005 C 
HETATM   26  C2  UNL     1      -5.936   0.519  -0.038  1.00  0.00    -0.090 C 
HETATM   27  C1  UNL     1      -6.490   0.240  -1.376  1.00  0.00     0.042 C 
HETATM   28  C3  UNL     1      -6.703   1.365   0.894  1.00  0.00     0.042 C 
ENDBRANCH  24  25
ENDBRANCH   1  24
TORSDOF 6
