REMARK  5 active torsions:
REMARK  status: ('A' for Active; 'I' for Inactive)
REMARK    1  A    between atoms: N1_3  and  C2_4 
REMARK    2  A    between atoms: C2_4  and  C3_5 
REMARK    3  A    between atoms: C3_5  and  C4_6 
REMARK    4  A    between atoms: N3_14  and  S3_15 
REMARK    5  A    between atoms: S3_15  and  C7_16 
ROOT
HETATM    1  O1  UNL     1      -0.508  -1.446   0.022  1.00  0.00    -0.245 OA
HETATM    2  C1  UNL     1      -0.708  -0.202   0.182  1.00  0.00     0.343 A 
HETATM    3  N1  UNL     1      -1.724   0.369  -0.517  1.00  0.00    -0.275 N 
HETATM    4  C5  UNL     1      -1.940   1.678  -0.355  1.00  0.00     0.184 A 
HETATM    5  S1  UNL     1      -3.116   2.501  -1.161  1.00  0.00    -0.040 SA
HETATM    6  N2  UNL     1      -1.131   2.370   0.502  1.00  0.00    -0.309 N 
ATOM      7  H2  UNL     1      -1.295   3.369   0.627  1.00  0.00     0.170 HD
HETATM    8  C6  UNL     1      -0.131   1.794   1.187  1.00  0.00     0.195 A 
HETATM    9  S2  UNL     1       0.807   2.694   2.207  1.00  0.00    -0.039 SA
HETATM   10  N3  UNL     1       0.088   0.477   1.024  1.00  0.00    -0.206 N 
ENDROOT
BRANCH  10  11
HETATM   11  S3  UNL     1       1.397  -0.255   1.925  1.00  0.00    -0.001 SA
BRANCH  11  12
HETATM   12  C7  UNL     1       2.907  -0.350   0.985  1.00  0.00     0.022 A 
HETATM   13  C8  UNL     1       3.130  -1.479   0.229  1.00  0.00     0.020 A 
HETATM   14  C9  UNL     1       4.267  -1.651  -0.534  1.00  0.00     0.001 A 
HETATM   15  C10 UNL     1       5.227  -0.665  -0.552  1.00  0.00     0.000 A 
HETATM   16  C11 UNL     1       5.028   0.461   0.188  1.00  0.00     0.001 A 
HETATM   17  C12 UNL     1       3.873   0.632   0.962  1.00  0.00     0.020 A 
ENDBRANCH  11  12
ENDBRANCH  10  11
BRANCH   3  18
HETATM   18  C2  UNL     1      -2.514  -0.432  -1.417  1.00  0.00     0.137 C 
BRANCH  18  19
HETATM   19  C3  UNL     1      -3.656  -1.146  -0.789  1.00  0.00     0.035 C 
BRANCH  19  20
HETATM   20  C4  UNL     1      -4.700  -0.321  -0.131  1.00  0.00     0.116 C 
HETATM   21 CL1  UNL     1      -5.918  -1.476   0.545  1.00  0.00    -0.130 Cl
ENDBRANCH  19  20
ENDBRANCH  18  19
ENDBRANCH   3  18
TORSDOF 5
