REMARK  4 active torsions:
REMARK  status: ('A' for Active; 'I' for Inactive)
REMARK    1  A    between atoms: C2_2  and  N1_3 
REMARK    2  A    between atoms: N1_3  and  C4_5 
REMARK    3  A    between atoms: C5_6  and  N2_7 
REMARK    4  A    between atoms: N2_7  and  O1_9 
ROOT
HETATM    1  C4  UNL     1       2.299  -0.174   1.048  1.00  0.00     0.089 A 
HETATM    2  C5  UNL     1       2.430  -0.794   2.288  1.00  0.00     0.104 A 
HETATM    3  C6  UNL     1       1.341  -1.322   2.905  1.00  0.00     0.067 A 
HETATM    4 CL1  UNL     1       1.577  -2.095   4.476  1.00  0.00    -0.082 Cl
HETATM    5  C7  UNL     1       0.069  -1.286   2.374  1.00  0.00     0.058 A 
HETATM    6  C8  UNL     1      -0.063  -0.679   1.161  1.00  0.00     0.061 A 
HETATM    7  C9  UNL     1       1.042  -0.123   0.495  1.00  0.00     0.084 A 
HETATM    8  N3  UNL     1       1.189   0.569  -0.736  1.00  0.00    -0.384 N 
ATOM      9  H3  UNL     1       1.906   1.294  -0.714  1.00  0.00     0.159 HD
HETATM   10  C10 UNL     1       0.526   0.451  -2.012  1.00  0.00     0.146 C 
HETATM   11  C11 UNL     1      -0.945   0.771  -1.955  1.00  0.00     0.190 C 
HETATM   12  O2  UNL     1      -1.507   0.934  -0.755  1.00  0.00    -0.359 OA
HETATM   13  C12 UNL     1      -2.280   0.007  -0.166  1.00  0.00     0.134 C 
HETATM   14  C13 UNL     1      -3.279   0.757   0.732  1.00  0.00     0.061 C 
HETATM   15  C14 UNL     1      -4.696   0.233   0.492  1.00  0.00     0.005 C 
HETATM   16  C15 UNL     1      -4.956   0.510  -0.989  1.00  0.00     0.000 C 
HETATM   17  C16 UNL     1      -4.167  -0.532  -1.746  1.00  0.00     0.005 C 
HETATM   18  C17 UNL     1      -2.963  -1.010  -1.008  1.00  0.00     0.061 C 
HETATM   19  N4  UNL     1      -1.435  -0.741   0.788  1.00  0.00    -0.356 N 
ATOM     20  H4  UNL     1      -1.950  -1.463   1.292  1.00  0.00     0.162 HD
ENDROOT
BRANCH   1  21
HETATM   21  N1  UNL     1       3.477   0.350   0.431  1.00  0.00    -0.382 N 
HETATM   22  C3  UNL     1       3.897   1.687   0.782  1.00  0.00     0.150 C 
BRANCH  21  23
HETATM   23  C2  UNL     1       4.318  -0.426  -0.445  1.00  0.00     0.118 C 
HETATM   24  C1  UNL     1       4.370   0.140  -1.822  1.00  0.00     0.026 C 
ENDBRANCH  21  23
ENDBRANCH   1  21
BRANCH   2  25
HETATM   25  N2  UNL     1       3.747  -0.830   2.839  1.00  0.00    -0.265 N 
ATOM     26  H2  UNL     1       4.161  -0.019   3.299  1.00  0.00     0.194 HD
BRANCH  25  27
HETATM   27  O1  UNL     1       4.366  -1.913   2.726  1.00  0.00    -0.289 OA
ATOM     28  H1  UNL     1       5.242  -1.937   3.093  1.00  0.00     0.244 HD
ENDBRANCH  25  27
ENDBRANCH   2  25
TORSDOF 4
