REMARK  6 active torsions:
REMARK  status: ('A' for Active; 'I' for Inactive)
REMARK    1  A    between atoms: C2_2  and  N1_5 
REMARK    2  A    between atoms: N2_7  and  C5_9 
REMARK    3  A    between atoms: C7_13  and  S1_14 
REMARK    4  A    between atoms: S1_14  and  C8_15 
REMARK    5  A    between atoms: C8_15  and  C11_19 
REMARK    6  A    between atoms: C17_27  and  N6_28 
ROOT
HETATM    1  C8  UNL     1       3.780  -0.205   0.520  1.00  0.00     0.028 C 
HETATM    2  C9  UNL     1       3.503  -1.047   1.461  1.00  0.00     0.113 C 
HETATM    3  C10 UNL     1       2.241  -1.480   1.944  1.00  0.00     0.089 C 
HETATM    4  N4  UNL     1       1.239  -1.856   2.364  1.00  0.00    -0.192 NA
ENDROOT
BRANCH   1   5
HETATM    5  S1  UNL     1       2.591   0.650  -0.438  1.00  0.00    -0.053 SA
BRANCH   5   6
HETATM    6  C7  UNL     1       0.905   0.370  -0.160  1.00  0.00     0.150 A 
HETATM    7  N3  UNL     1       0.248   1.174   0.730  1.00  0.00    -0.344 N 
HETATM    8  C6  UNL     1      -1.067   1.000   0.939  1.00  0.00     0.125 A 
ATOM      9  H3  UNL     1       0.755   1.903   1.233  1.00  0.00     0.167 HD
HETATM   10  C5  UNL     1      -1.771   0.029   0.278  1.00  0.00     0.106 A 
HETATM   11  C17 UNL     1      -1.090  -0.761  -0.607  1.00  0.00     0.130 A 
HETATM   12  N5  UNL     1       0.214  -0.592  -0.818  1.00  0.00    -0.321 N 
ATOM     13  H5  UNL     1       0.699  -1.194  -1.483  1.00  0.00     0.169 HD
BRANCH  10  14
HETATM   14  N2  UNL     1      -3.143  -0.152   0.496  1.00  0.00    -0.300 N 
HETATM   15  N1  UNL     1      -3.945   0.294  -0.399  1.00  0.00    -0.327 N 
ATOM     16  H1  UNL     1      -3.552   0.755  -1.220  1.00  0.00     0.181 HD
ATOM     17  H2  UNL     1      -3.490  -0.620   1.333  1.00  0.00     0.186 HD
BRANCH  15  18
HETATM   18  C2  UNL     1      -5.367   0.173  -0.297  1.00  0.00     0.035 C 
HETATM   19  C1  UNL     1      -5.802  -0.005   1.136  1.00  0.00     0.039 C 
HETATM   20  C3  UNL     1      -5.855  -1.001  -1.124  1.00  0.00     0.039 C 
HETATM   21  C4  UNL     1      -6.009   1.435  -0.832  1.00  0.00     0.039 C 
ENDBRANCH  15  18
ENDBRANCH  10  14
BRANCH  11  22
HETATM   22  N6  UNL     1      -1.720  -1.696  -1.258  1.00  0.00    -0.383 N 
ATOM     23  H62 UNL     1      -2.719  -1.825  -1.096  1.00  0.00     0.157 HD
ATOM     24  H61 UNL     1      -1.212  -2.285  -1.918  1.00  0.00     0.157 HD
ENDBRANCH  11  22
ENDBRANCH   5   6
ENDBRANCH   1   5
BRANCH   1  25
HETATM   25  C11 UNL     1       5.196   0.104   0.183  1.00  0.00    -0.018 A 
HETATM   26  C12 UNL     1       6.250  -0.468   0.831  1.00  0.00     0.013 A 
HETATM   27  C13 UNL     1       7.577  -0.156   0.488  1.00  0.00     0.001 A 
HETATM   28  C14 UNL     1       7.857   0.733  -0.508  1.00  0.00     0.000 A 
HETATM   29  C15 UNL     1       6.803   1.316  -1.168  1.00  0.00     0.001 A 
HETATM   30  C16 UNL     1       5.508   1.002  -0.823  1.00  0.00     0.013 A 
ENDBRANCH   1  25
TORSDOF 6
