REMARK  4 active torsions:
REMARK  status: ('A' for Active; 'I' for Inactive)
REMARK    1  A    between atoms: C2_3  and  C9_18 
REMARK    2  A    between atoms: N2_4  and  N3_6 
REMARK    3  A    between atoms: N3_6  and  C3_8 
REMARK    4  A    between atoms: C6_11  and  N4_12 
ROOT
HETATM    1  N1  UNL     1      -1.401   2.132  -3.117  1.00  0.00    -0.190 NA
HETATM    2  C1  UNL     1      -0.965   1.738  -2.087  1.00  0.00     0.120 C 
HETATM    3  C2  UNL     1      -0.388   1.295  -0.852  1.00  0.00     0.149 C 
HETATM    4  N2  UNL     1       0.747   1.767  -0.592  1.00  0.00    -0.289 N 
ATOM      5  H2  UNL     1       1.057   2.398  -1.331  1.00  0.00     0.188 HD
ENDROOT
BRANCH   3   6
HETATM    6  C9  UNL     1      -1.049   0.376   0.028  1.00  0.00     0.085 C 
HETATM    7  C10 UNL     1      -0.365  -0.032   1.277  1.00  0.00     0.102 C 
HETATM    8  N5  UNL     1       0.164  -0.376   2.274  1.00  0.00    -0.191 NA
HETATM    9  C11 UNL     1      -2.224  -0.182  -0.122  1.00  0.00    -0.056 C 
HETATM   10  C12 UNL     1      -3.124   0.044  -1.277  1.00  0.00     0.036 C 
HETATM   11  C16 UNL     1      -2.794  -1.140   0.905  1.00  0.00     0.036 C 
HETATM   12  C13 UNL     1      -4.383  -0.806  -1.091  1.00  0.00     0.004 C 
HETATM   13  C14 UNL     1      -5.078  -0.537   0.201  1.00  0.00     0.001 C 
HETATM   14  C15 UNL     1      -4.115  -0.519   1.376  1.00  0.00     0.004 C 
ENDBRANCH   3   6
BRANCH   4  15
HETATM   15  N3  UNL     1       1.665   1.679   0.377  1.00  0.00    -0.300 N 
ATOM     16  H3  UNL     1       1.497   2.096   1.293  1.00  0.00     0.187 HD
BRANCH  15  17
HETATM   17  C3  UNL     1       2.898   0.982   0.100  1.00  0.00     0.049 A 
HETATM   18  C4  UNL     1       3.131   0.414  -1.133  1.00  0.00     0.033 A 
HETATM   19  C5  UNL     1       4.308  -0.258  -1.414  1.00  0.00     0.040 A 
HETATM   20  C6  UNL     1       5.300  -0.388  -0.467  1.00  0.00     0.124 A 
HETATM   21  C7  UNL     1       5.077   0.177   0.771  1.00  0.00     0.069 A 
HETATM   22 CL1  UNL     1       6.337   0.012   1.975  1.00  0.00    -0.082 Cl
HETATM   23  C8  UNL     1       3.898   0.846   1.040  1.00  0.00     0.057 A 
BRANCH  20  24
HETATM   24  N4  UNL     1       6.513  -1.084  -0.765  1.00  0.00    -0.114 N 
HETATM   25  O1  UNL     1       7.546  -0.701  -0.202  1.00  0.00    -0.532 OA
HETATM   26  O2  UNL     1       6.531  -2.146  -1.648  1.00  0.00    -0.532 OA
ENDBRANCH  20  24
ENDBRANCH  15  17
ENDBRANCH   4  15
TORSDOF 4
