REMARK  8 active torsions:
REMARK  status: ('A' for Active; 'I' for Inactive)
REMARK    1  A    between atoms: C2_2  and  N1_3 
REMARK    2  A    between atoms: N1_3  and  C3_5 
REMARK    3  A    between atoms: N2_8  and  C6_9 
REMARK    4  A    between atoms: C8_11  and  O1_12 
REMARK    5  A    between atoms: N3_14  and  C9_15 
REMARK    6  A    between atoms: C9_15  and  C12_18 
REMARK    7  A    between atoms: C12_18  and  C13_19 
REMARK    8  A    between atoms: C13_19  and  C14_20 
ROOT
HETATM    1  C6  UNL     1       1.792   0.100  -0.330  1.00  0.00     0.039 A 
HETATM    2  C7  UNL     1       1.288  -1.085  -0.780  1.00  0.00     0.085 A 
HETATM    3  C8  UNL     1      -0.066  -1.411  -0.677  1.00  0.00     0.147 A 
HETATM    4  N3  UNL     1      -0.937  -0.523  -0.104  1.00  0.00    -0.285 N 
HETATM    5  C19 UNL     1      -0.461   0.642   0.343  1.00  0.00     0.252 A 
HETATM    6  O2  UNL     1      -1.271   1.448   0.866  1.00  0.00    -0.268 OA
HETATM    7  C20 UNL     1       0.880   0.977   0.246  1.00  0.00     0.104 A 
ENDROOT
BRANCH   1   8
HETATM    8  N2  UNL     1       3.172   0.463  -0.458  1.00  0.00    -0.380 N 
HETATM    9  C5  UNL     1       3.660   1.400   0.522  1.00  0.00     0.125 C 
HETATM   10  C4  UNL     1       5.142   1.347   0.767  1.00  0.00     0.044 C 
HETATM   11  C3  UNL     1       5.795   1.166  -0.591  1.00  0.00     0.079 C 
HETATM   12  C22 UNL     1       5.401  -0.200  -1.065  1.00  0.00     0.044 C 
HETATM   13  C21 UNL     1       3.942  -0.080  -1.535  1.00  0.00     0.125 C 
BRANCH  11  14
HETATM   14  N1  UNL     1       7.170   1.483  -0.624  1.00  0.00    -0.417 N 
ATOM     15  H1  UNL     1       7.513   2.245  -1.209  1.00  0.00     0.153 HD
BRANCH  14  16
HETATM   16  C2  UNL     1       8.063   0.725   0.169  1.00  0.00     0.110 C 
HETATM   17  C1  UNL     1       8.281  -0.690  -0.253  1.00  0.00     0.026 C 
ENDBRANCH  14  16
ENDBRANCH  11  14
ENDBRANCH   1   8
BRANCH   3  18
HETATM   18  O1  UNL     1      -0.448  -2.644  -1.170  1.00  0.00    -0.346 OA
ATOM     19  H1  UNL     1      -1.369  -2.866  -1.100  1.00  0.00     0.219 HD
ENDBRANCH   3  18
BRANCH   4  20
HETATM   20  C9  UNL     1      -2.297  -0.968  -0.069  1.00  0.00     0.035 C 
HETATM   21  C10 UNL     1      -2.452  -2.251   0.727  1.00  0.00     0.039 C 
HETATM   22  C11 UNL     1      -2.669  -1.275  -1.528  1.00  0.00     0.039 C 
BRANCH  20  23
HETATM   23  C12 UNL     1      -3.309  -0.007   0.428  1.00  0.00     0.031 C 
BRANCH  23  24
HETATM   24  C13 UNL     1      -4.682  -0.690   0.374  1.00  0.00     0.007 C 
BRANCH  24  25
HETATM   25  C14 UNL     1      -5.769   0.270   0.846  1.00  0.00    -0.014 C 
HETATM   26  C15 UNL     1      -7.070  -0.495   0.756  1.00  0.00     0.004 C 
HETATM   27  C16 UNL     1      -8.114   0.552   0.548  1.00  0.00     0.000 C 
HETATM   28  C17 UNL     1      -7.392   1.811   0.120  1.00  0.00     0.000 C 
HETATM   29  C18 UNL     1      -5.967   1.373  -0.179  1.00  0.00     0.004 C 
ENDBRANCH  24  25
ENDBRANCH  23  24
ENDBRANCH  20  23
ENDBRANCH   4  20
TORSDOF 8
