REMARK  7 active torsions:
REMARK  status: ('A' for Active; 'I' for Inactive)
REMARK    1  A    between atoms: O1_2  and  C2_3 
REMARK    2  A    between atoms: C5_6  and  C6_7 
REMARK    3  A    between atoms: C7_8  and  N1_9 
REMARK    4  A    between atoms: N1_9  and  C9_11 
REMARK    5  A    between atoms: C9_11  and  C10_12 
REMARK    6  A    between atoms: C18_24  and  N4_25 
REMARK    7  A    between atoms: C20_29  and  O2_30 
ROOT
HETATM    1  C6  UNL     1       1.256  -0.332   2.185  1.00  0.00     0.062 A 
HETATM    2  C7  UNL     1       0.044  -0.939   1.874  1.00  0.00     0.118 A 
HETATM    3  N2  UNL     1      -0.782  -1.378   2.832  1.00  0.00    -0.338 N 
ATOM      4  H2  UNL     1      -1.666  -1.821   2.580  1.00  0.00     0.168 HD
HETATM    5  C17 UNL     1      -0.447  -1.235   4.127  1.00  0.00     0.183 A 
HETATM    6  N3  UNL     1       0.710  -0.655   4.483  1.00  0.00    -0.338 N 
ATOM      7  H3  UNL     1       0.948  -0.553   5.470  1.00  0.00     0.168 HD
HETATM    8  C18 UNL     1       1.568  -0.201   3.522  1.00  0.00     0.114 A 
ENDROOT
BRANCH   1   9
HETATM    9  C5  UNL     1       2.147   0.122   1.137  1.00  0.00    -0.016 A 
HETATM   10  C4  UNL     1       1.998   1.351   0.544  1.00  0.00     0.015 A 
HETATM   11  C3  UNL     1       2.839   1.793  -0.459  1.00  0.00     0.040 A 
HETATM   12  C2  UNL     1       3.879   1.012  -0.915  1.00  0.00     0.101 A 
HETATM   13  C20 UNL     1       4.050  -0.229  -0.333  1.00  0.00     0.102 A 
HETATM   14  C19 UNL     1       3.209  -0.659   0.663  1.00  0.00     0.052 A 
BRANCH  12  15
HETATM   15  O1  UNL     1       4.729   1.462  -1.932  1.00  0.00    -0.353 OA
HETATM   16  C1  UNL     1       4.516   2.759  -2.511  1.00  0.00     0.210 C 
ENDBRANCH  12  15
BRANCH  13  17
HETATM   17  O2  UNL     1       5.075  -1.017  -0.770  1.00  0.00    -0.353 OA
HETATM   18  C21 UNL     1       5.480  -2.274  -0.384  1.00  0.00     0.210 C 
ENDBRANCH  13  17
ENDBRANCH   1   9
BRANCH   2  19
HETATM   19  N1  UNL     1      -0.296  -1.089   0.521  1.00  0.00    -0.370 N 
HETATM   20  C8  UNL     1       0.087  -2.321  -0.202  1.00  0.00     0.151 C 
BRANCH  19  21
HETATM   21  C9  UNL     1      -0.986  -0.119  -0.298  1.00  0.00     0.128 C 
BRANCH  21  22
HETATM   22  C10 UNL     1      -2.339  -0.520  -0.779  1.00  0.00     0.003 C 
HETATM   23  C11 UNL     1      -3.359  -0.804   0.257  1.00  0.00     0.006 C 
HETATM   24  C12 UNL     1      -4.770  -0.514  -0.121  1.00  0.00     0.000 C 
HETATM   25  C13 UNL     1      -5.180   0.930   0.127  1.00  0.00     0.000 C 
HETATM   26  C14 UNL     1      -4.791   1.713  -1.101  1.00  0.00     0.000 C 
HETATM   27  C15 UNL     1      -3.280   1.771  -1.152  1.00  0.00     0.000 C 
HETATM   28  C16 UNL     1      -2.793   0.511  -1.809  1.00  0.00     0.006 C 
ENDBRANCH  21  22
ENDBRANCH  19  21
ENDBRANCH   2  19
BRANCH   8  29
HETATM   29  N4  UNL     1       2.681   0.356   3.826  1.00  0.00    -0.385 N 
ATOM     30  H42 UNL     1       3.322   0.695   3.108  1.00  0.00     0.157 HD
ATOM     31  H41 UNL     1       2.912   0.453   4.815  1.00  0.00     0.157 HD
ENDBRANCH   8  29
TORSDOF 7
