REMARK  7 active torsions:
REMARK  status: ('A' for Active; 'I' for Inactive)
REMARK    1  A    between atoms: C4_4  and  C5_5 
REMARK    2  A    between atoms: C5_5  and  O1_6 
REMARK    3  A    between atoms: C5_5  and  S1_8 
REMARK    4  A    between atoms: C5_5  and  C8_11 
REMARK    5  A    between atoms: S1_8  and  C6_9 
REMARK    6  A    between atoms: C8_11  and  C11_14 
REMARK    7  A    between atoms: C17_23  and  C18_24 
ROOT
HETATM    1  C1  UNL     1       0.954   1.451  -2.035  1.00  0.00     0.020 C 
HETATM    2  C2  UNL     1       0.731   0.575  -1.063  1.00  0.00    -0.027 C 
HETATM    3  C3  UNL     1      -0.546  -0.187  -1.025  1.00  0.00     0.047 C 
HETATM    4  C4  UNL     1      -0.877  -0.893   0.216  1.00  0.00     0.036 C 
HETATM    5  C12 UNL     1       0.159  -0.788   1.293  1.00  0.00     0.014 C 
HETATM    6  C13 UNL     1       0.976   0.463   1.288  1.00  0.00     0.074 C 
HETATM    7  C14 UNL     1       1.780   0.384  -0.027  1.00  0.00     0.188 C 
HETATM    8  O4  UNL     1       2.313  -0.897  -0.049  1.00  0.00    -0.351 OA
HETATM    9  C15 UNL     1       3.162  -1.145  -1.094  1.00  0.00     0.174 C 
HETATM   10  C16 UNL     1       4.145  -0.039  -1.337  1.00  0.00     0.058 C 
HETATM   11  C17 UNL     1       3.999   1.027  -0.284  1.00  0.00     0.127 C 
HETATM   12  O5  UNL     1       2.714   1.377   0.008  1.00  0.00    -0.346 OA
ENDROOT
BRANCH   4  13
HETATM   13  C5  UNL     1      -2.280  -0.690   0.767  1.00  0.00     0.126 C 
BRANCH  13  14
HETATM   14  O1  UNL     1      -2.232  -1.500   1.979  1.00  0.00    -0.378 OA
ATOM     15  H1  UNL     1      -3.108  -1.373   2.323  1.00  0.00     0.211 HD
ENDBRANCH  13  14
BRANCH  13  16
HETATM   16  S1  UNL     1      -2.621   0.932   1.385  1.00  0.00    -0.130 SA
BRANCH  16  17
HETATM   17  C6  UNL     1      -2.636   2.291   0.271  1.00  0.00     0.072 C 
HETATM   18  C7  UNL     1      -2.961   3.556   1.093  1.00  0.00     0.016 C 
ENDBRANCH  16  17
ENDBRANCH  13  16
BRANCH  13  19
HETATM   19  C8  UNL     1      -3.372  -1.344  -0.009  1.00  0.00     0.082 C 
HETATM   20  C9  UNL     1      -3.193  -2.856  -0.092  1.00  0.00     0.030 C 
HETATM   21  C10 UNL     1      -3.564  -0.880  -1.426  1.00  0.00     0.030 C 
BRANCH  19  22
HETATM   22  C11 UNL     1      -4.640  -1.178   0.780  1.00  0.00     0.185 C 
HETATM   23  O2  UNL     1      -4.649  -0.592   1.870  1.00  0.00    -0.647 OA
HETATM   24  O3  UNL     1      -5.781  -1.729   0.193  1.00  0.00    -0.647 OA
ENDBRANCH  19  22
ENDBRANCH  13  19
ENDBRANCH   4  13
BRANCH  11  25
HETATM   25  C18 UNL     1       4.716   0.637   0.976  1.00  0.00     0.027 C 
HETATM   26  C19 UNL     1       6.197   0.424   0.770  1.00  0.00     0.007 C 
ENDBRANCH  11  25
TORSDOF 7
