REMARK  7 active torsions:
REMARK  status: ('A' for Active; 'I' for Inactive)
REMARK    1  A    between atoms: C3_6  and  C4_7 
REMARK    2  A    between atoms: C11_14  and  C12_15 
REMARK       I    between atoms: C12_15  and  N2_17 
REMARK    3  A    between atoms: N2_17  and  C13_19 
REMARK    4  A    between atoms: C13_19  and  C14_20 
REMARK    5  A    between atoms: C14_20  and  N3_21 
REMARK    6  A    between atoms: C14_20  and  C15_25 
REMARK    7  A    between atoms: C15_25  and  C16_26 
ROOT
HETATM    1  C12 UNL     1       1.212  -1.198   0.781  1.00  0.00     0.256 C 
HETATM    2  O2  UNL     1       1.397  -0.620   1.883  1.00  0.00    -0.267 OA
HETATM    3  N2  UNL     1      -0.047  -1.102   0.213  1.00  0.00    -0.355 N 
ATOM      4  H2  UNL     1      -0.247  -1.541  -0.686  1.00  0.00     0.162 HD
ENDROOT
BRANCH   1   5
HETATM    5  C11 UNL     1       2.328  -1.922   0.193  1.00  0.00     0.092 A 
HETATM    6  C2  UNL     1       2.311  -3.159  -0.382  1.00  0.00     0.090 A 
HETATM    7  C1  UNL     1       1.090  -3.993  -0.685  1.00  0.00     0.080 C 
HETATM    8  O1  UNL     1       3.537  -3.449  -0.605  1.00  0.00    -0.241 OA
HETATM    9  N1  UNL     1       4.380  -2.509  -0.224  1.00  0.00    -0.260 N 
HETATM   10  C3  UNL     1       3.617  -1.461   0.307  1.00  0.00     0.075 A 
ATOM     11  H1  UNL     1       5.397  -2.539  -0.301  1.00  0.00     0.195 HD
BRANCH  10  12
HETATM   12  C4  UNL     1       4.197  -0.144   0.569  1.00  0.00    -0.050 C 
HETATM   13  C5  UNL     1       5.221  -0.051   1.647  1.00  0.00     0.037 C 
HETATM   14  C6  UNL     1       6.129   1.093   1.457  1.00  0.00     0.009 C 
HETATM   15  C7  UNL     1       5.813   2.079   0.412  1.00  0.00    -0.018 C 
HETATM   16  C8  UNL     1       6.817   1.911  -0.738  1.00  0.00     0.010 C 
HETATM   17  C9  UNL     1       4.439   2.190  -0.090  1.00  0.00     0.009 C 
HETATM   18  C10 UNL     1       3.463   1.090   0.360  1.00  0.00     0.037 C 
ENDBRANCH  10  12
ENDBRANCH   1   5
BRANCH   3  19
HETATM   19  C13 UNL     1      -1.103  -0.345   0.941  1.00  0.00     0.155 C 
BRANCH  19  20
HETATM   20  C14 UNL     1      -2.322  -0.201   0.129  1.00  0.00     0.201 C 
BRANCH  20  21
HETATM   21  N3  UNL     1      -1.933   0.538  -1.087  1.00  0.00    -0.073 N 
ATOM     22  H33 UNL     1      -1.473   1.427  -0.889  1.00  0.00     0.274 HD
ATOM     23  H32 UNL     1      -1.160   0.104  -1.593  1.00  0.00     0.274 HD
ATOM     24  H31 UNL     1      -2.778   0.638  -1.650  1.00  0.00     0.274 HD
ENDBRANCH  20  21
BRANCH  20  25
HETATM   25  C15 UNL     1      -3.380   0.681   0.821  1.00  0.00     0.039 C 
BRANCH  25  26
HETATM   26  C16 UNL     1      -4.599   0.665  -0.167  1.00  0.00    -0.013 C 
HETATM   27  C17 UNL     1      -5.033  -0.728  -0.328  1.00  0.00     0.005 C 
HETATM   28  C18 UNL     1      -6.485  -0.995  -0.414  1.00  0.00     0.000 C 
HETATM   29  C19 UNL     1      -7.360   0.229  -0.280  1.00  0.00     0.000 C 
HETATM   30  C20 UNL     1      -6.834   1.112   0.832  1.00  0.00     0.000 C 
HETATM   31  C21 UNL     1      -5.540   1.700   0.269  1.00  0.00     0.005 C 
ENDBRANCH  25  26
ENDBRANCH  20  25
ENDBRANCH  19  20
ENDBRANCH   3  19
TORSDOF 7
