REMARK  8 active torsions:
REMARK  status: ('A' for Active; 'I' for Inactive)
REMARK    1  A    between atoms: C2_2  and  C3_3 
REMARK    2  A    between atoms: C3_3  and  S1_4 
REMARK    3  A    between atoms: S1_4  and  C4_7 
REMARK    4  A    between atoms: C4_7  and  C5_8 
REMARK    5  A    between atoms: C5_8  and  O3_9 
REMARK    6  A    between atoms: N1_11  and  O4_13 
REMARK    7  A    between atoms: C8_17  and  C9_18 
REMARK    8  A    between atoms: C8_17  and  C11_21 
ROOT
HETATM    1  C9  UNL     1      -0.982   2.282  -0.278  1.00  0.00     0.133 C 
HETATM    2  C10 UNL     1      -1.311   2.926  -1.505  1.00  0.00     0.059 C 
HETATM    3  N2  UNL     1      -1.546   3.469  -2.502  1.00  0.00    -0.197 NA
ENDROOT
BRANCH   1   4
HETATM    4  C8  UNL     1      -1.296   0.818  -0.133  1.00  0.00    -0.025 C 
HETATM    5  C7  UNL     1      -0.585   0.072  -1.246  1.00  0.00     0.013 C 
HETATM    6  C6  UNL     1       0.901   0.145  -1.149  1.00  0.00     0.035 C 
HETATM    7  C4  UNL     1       1.414  -0.635   0.031  1.00  0.00     0.130 C 
HETATM    8  C18 UNL     1       0.304  -0.757   1.057  1.00  0.00     0.035 C 
HETATM    9  C17 UNL     1      -0.571   0.425   1.175  1.00  0.00     0.013 C 
BRANCH   7  10
HETATM   10  S1  UNL     1       2.811   0.086   0.802  1.00  0.00     0.160 S 
HETATM   11  O1  UNL     1       3.132  -0.686   2.054  1.00  0.00    -0.227 OA
HETATM   12  O2  UNL     1       2.464   1.474   1.240  1.00  0.00    -0.227 OA
BRANCH  10  13
HETATM   13  C3  UNL     1       4.224   0.197  -0.255  1.00  0.00     0.141 C 
BRANCH  13  14
HETATM   14  C2  UNL     1       5.338   0.847   0.579  1.00  0.00     0.010 C 
HETATM   15  C1  UNL     1       6.605   0.989  -0.243  1.00  0.00     0.006 C 
ENDBRANCH  13  14
ENDBRANCH  10  13
ENDBRANCH   7  10
BRANCH   7  16
HETATM   16  C5  UNL     1       1.704  -2.042  -0.426  1.00  0.00     0.159 C 
HETATM   17  N1  UNL     1       2.847  -2.591  -0.246  1.00  0.00    -0.250 N 
ATOM     18  H1  UNL     1       3.581  -2.059   0.221  1.00  0.00     0.196 HD
BRANCH  16  19
HETATM   19  O3  UNL     1       0.718  -2.773  -1.061  1.00  0.00    -0.347 OA
ATOM     20  H3  UNL     1       0.901  -3.660  -1.349  1.00  0.00     0.219 HD
ENDBRANCH  16  19
BRANCH  17  21
HETATM   21  O4  UNL     1       3.112  -3.851  -0.654  1.00  0.00    -0.288 OA
ATOM     22  H4  UNL     1       3.960  -4.258  -0.520  1.00  0.00     0.244 HD
ENDBRANCH  17  21
ENDBRANCH   7  16
BRANCH   4  23
HETATM   23  C11 UNL     1      -2.721   0.454   0.027  1.00  0.00    -0.005 C 
HETATM   24  C12 UNL     1      -3.610   0.597  -1.165  1.00  0.00     0.005 C 
HETATM   25  C13 UNL     1      -5.052   0.715  -0.628  1.00  0.00     0.000 C 
HETATM   26  C14 UNL     1      -5.430  -0.552   0.110  1.00  0.00     0.000 C 
HETATM   27  C15 UNL     1      -4.443  -0.821   1.194  1.00  0.00     0.000 C 
HETATM   28  C16 UNL     1      -3.011  -0.890   0.625  1.00  0.00     0.005 C 
ENDBRANCH   4  23
ENDBRANCH   1   4
TORSDOF 8
