REMARK  2 active torsions:
REMARK  status: ('A' for Active; 'I' for Inactive)
REMARK    1  A    between atoms: C2_2  and  C3_3 
REMARK    2  A    between atoms: C4_4  and  C5_5 
REMARK       I    between atoms: C5_5  and  N1_7 
REMARK       I    between atoms: C6_9  and  N3_11 
ROOT
HETATM    1  C5  UNL     1      -0.646   0.493   0.670  1.00  0.00     0.247 C 
HETATM    2  O1  UNL     1      -1.171   0.872   1.724  1.00  0.00    -0.268 OA
HETATM    3  N1  UNL     1       0.736   0.845   0.495  1.00  0.00    -0.298 N 
ATOM      4  H1  UNL     1       0.998   1.829   0.549  1.00  0.00     0.171 HD
HETATM    5  C6  UNL     1       1.648  -0.015   0.276  1.00  0.00     0.192 C 
HETATM    6  N2  UNL     1       1.315  -1.389   0.195  1.00  0.00    -0.063 NA
HETATM    7  N3  UNL     1       2.987   0.432   0.117  1.00  0.00    -0.364 N 
HETATM    8  C7  UNL     1       3.962  -0.448  -0.526  1.00  0.00     0.151 C 
HETATM    9  C8  UNL     1       3.392   1.749   0.586  1.00  0.00     0.151 C 
ENDROOT
BRANCH   1  10
HETATM   10  C4  UNL     1      -1.267  -0.250  -0.379  1.00  0.00     0.070 C 
HETATM   11  C3  UNL     1      -2.479  -0.664  -0.427  1.00  0.00    -0.022 C 
BRANCH  11  12
HETATM   12  C2  UNL     1      -3.500  -0.467   0.589  1.00  0.00     0.023 C 
HETATM   13  C1  UNL     1      -4.704   0.320   0.021  1.00  0.00     0.009 C 
ENDBRANCH  11  12
ENDBRANCH   1  10
TORSDOF 2
