REMARK  2 active torsions:
REMARK  status: ('A' for Active; 'I' for Inactive)
REMARK    1  A    between atoms: C3_3  and  N1_4 
REMARK       I    between atoms: N1_4  and  C4_6 
REMARK       I    between atoms: C4_6  and  N3_12 
REMARK    2  A    between atoms: N2_7  and  C5_9 
ROOT
HETATM    1  C1  UNL     1      -0.956  -2.735   1.471  1.00  0.00     0.014 C 
HETATM    2  C2  UNL     1      -1.131  -2.074   0.477  1.00  0.00    -0.097 C 
HETATM    3  C3  UNL     1      -1.363  -1.255  -0.733  1.00  0.00     0.231 C 
ENDROOT
BRANCH   3   4
HETATM    4  N1  UNL     1      -0.295  -0.326  -0.964  1.00  0.00    -0.215 N 
HETATM    5  C4  UNL     1      -0.037   0.793  -0.103  1.00  0.00     0.683 C 
HETATM    6  N2  UNL     1       1.104   0.858   0.492  1.00  0.00    -0.149 N 
HETATM    7  N3  UNL     1      -1.027   1.798   0.081  1.00  0.00    -0.226 N 
ATOM      8  H2  UNL     1       1.315   1.641   1.111  1.00  0.00     0.195 HD
HETATM    9  C8  UNL     1      -2.297   1.581   0.734  1.00  0.00     0.168 C 
HETATM   10  C9  UNL     1      -0.738   3.123  -0.422  1.00  0.00     0.168 C 
ATOM     11  H1  UNL     1       0.307  -0.467  -1.775  1.00  0.00     0.178 HD
BRANCH   6  12
HETATM   12  C5  UNL     1       2.051  -0.147   0.287  1.00  0.00     0.025 C 
HETATM   13  C6  UNL     1       2.866  -1.021   0.089  1.00  0.00    -0.087 C 
HETATM   14  C7  UNL     1       3.853  -2.072  -0.175  1.00  0.00     0.113 C 
ENDBRANCH   6  12
ENDBRANCH   3   4
TORSDOF 2
