REMARK  1 active torsions:
REMARK  status: ('A' for Active; 'I' for Inactive)
REMARK    1  A    between atoms: C7_10  and  N3_11 
ROOT
HETATM    1  C1  UNL     1      -1.474   3.576  -0.371  1.00  0.00     0.019 C 
HETATM    2  C2  UNL     1      -0.718   2.636  -0.279  1.00  0.00    -0.056 C 
HETATM    3  C3  UNL     1       0.179   1.521  -0.150  1.00  0.00     0.129 A 
HETATM    4  N1  UNL     1       1.516   1.501  -0.123  1.00  0.00    -0.288 N 
ATOM      5  H1  UNL     1       2.108   2.329  -0.195  1.00  0.00     0.188 HD
HETATM    6  N2  UNL     1       1.972   0.258   0.011  1.00  0.00    -0.298 N 
HETATM    7  C4  UNL     1       3.362  -0.189   0.081  1.00  0.00     0.177 C 
HETATM    8  C5  UNL     1       0.935  -0.599   0.078  1.00  0.00     0.053 A 
HETATM    9  C6  UNL     1       0.978  -2.076   0.229  1.00  0.00     0.072 C 
HETATM   10  C7  UNL     1      -0.199   0.180  -0.021  1.00  0.00     0.090 A 
ENDROOT
BRANCH  10  11
HETATM   11  N3  UNL     1      -1.537  -0.290   0.002  1.00  0.00    -0.386 N 
HETATM   12  C8  UNL     1      -2.206  -0.660  -1.247  1.00  0.00     0.149 C 
HETATM   13  C9  UNL     1      -2.289  -0.423   1.232  1.00  0.00     0.149 C 
ENDBRANCH  10  11
TORSDOF 1
