REMARK  5 active torsions:
REMARK  status: ('A' for Active; 'I' for Inactive)
REMARK    1  A    between atoms: C14_18  and  C15_19 
REMARK    2  A    between atoms: C16_20  and  C17_21 
REMARK    3  A    between atoms: C17_21  and  O2_22 
REMARK    4  A    between atoms: C17_21  and  C18_24 
REMARK    5  A    between atoms: C18_24  and  O3_25 
ROOT
HETATM    1  C1  UNL     1      -4.620   2.838   0.134  1.00  0.00     0.010 C 
HETATM    2  C2  UNL     1      -4.311   1.342   0.350  1.00  0.00    -0.017 C 
HETATM    3  C3  UNL     1      -5.244   0.591  -0.528  1.00  0.00     0.014 C 
HETATM    4  C4  UNL     1      -5.311  -0.865  -0.338  1.00  0.00     0.049 C 
HETATM    5  C5  UNL     1      -4.460  -1.405   0.770  1.00  0.00     0.133 C 
HETATM    6  O1  UNL     1      -5.451  -2.406   0.935  1.00  0.00    -0.374 OA
HETATM    7  C6  UNL     1      -6.402  -1.466   0.467  1.00  0.00     0.060 C 
HETATM    8  C7  UNL     1      -7.033  -0.678   1.544  1.00  0.00     0.046 C 
HETATM    9  C8  UNL     1      -7.435  -2.200  -0.368  1.00  0.00     0.046 C 
HETATM   10  C9  UNL     1      -3.132  -1.897   0.295  1.00  0.00     0.012 C 
HETATM   11  C10 UNL     1      -2.152  -2.075   1.441  1.00  0.00     0.012 C 
HETATM   12  C11 UNL     1      -2.554  -1.172  -0.861  1.00  0.00     0.018 C 
HETATM   13  C12 UNL     1      -2.283   0.258  -0.760  1.00  0.00    -0.014 C 
HETATM   14  C13 UNL     1      -2.478   0.888  -2.137  1.00  0.00     0.242 C 
HETATM   15  N1  UNL     1      -1.190   0.927  -2.780  1.00  0.00    -0.067 N 
ATOM     16  H11 UNL     1      -1.147   1.505  -3.619  1.00  0.00     0.277 HD
ATOM     17  H12 UNL     1      -0.915   0.060  -3.242  1.00  0.00     0.277 HD
HETATM   18  C14 UNL     1      -0.323   1.344  -1.716  1.00  0.00     0.209 C 
HETATM   19  C27 UNL     1      -0.760   0.452  -0.593  1.00  0.00     0.048 C 
HETATM   20  C28 UNL     1      -2.892   1.037   0.330  1.00  0.00     0.015 C 
ENDROOT
BRANCH  18  21
HETATM   21  C15 UNL     1       1.077   1.047  -2.094  1.00  0.00     0.004 C 
HETATM   22  C16 UNL     1       2.038   1.361  -1.240  1.00  0.00     0.005 C 
BRANCH  22  23
HETATM   23  C17 UNL     1       3.444   1.058  -1.630  1.00  0.00     0.175 C 
BRANCH  23  24
HETATM   24  O2  UNL     1       3.816   1.919  -2.695  1.00  0.00    -0.389 OA
ATOM     25  H2  UNL     1       4.712   1.726  -2.944  1.00  0.00     0.210 HD
ENDBRANCH  23  24
BRANCH  23  26
HETATM   26  C18 UNL     1       4.394   1.247  -0.465  1.00  0.00     0.087 C 
HETATM   27  C19 UNL     1       5.779   0.985  -1.009  1.00  0.00     0.041 C 
HETATM   28  C20 UNL     1       6.825   0.847   0.066  1.00  0.00     0.003 C 
HETATM   29  C21 UNL     1       7.752  -0.276  -0.228  1.00  0.00     0.000 C 
HETATM   30  C22 UNL     1       7.350  -1.599   0.379  1.00  0.00     0.000 C 
HETATM   31  C23 UNL     1       6.739  -1.492   1.727  1.00  0.00     0.000 C 
HETATM   32  C24 UNL     1       5.260  -1.463   1.801  1.00  0.00     0.000 C 
HETATM   33  C25 UNL     1       4.525  -1.052   0.574  1.00  0.00     0.003 C 
HETATM   34  C26 UNL     1       3.971   0.376   0.658  1.00  0.00     0.041 C 
BRANCH  26  35
HETATM   35  O3  UNL     1       4.289   2.590  -0.047  1.00  0.00    -0.387 OA
ATOM     36  H3  UNL     1       4.885   2.709   0.683  1.00  0.00     0.210 HD
ENDBRANCH  26  35
ENDBRANCH  23  26
ENDBRANCH  22  23
ENDBRANCH  18  21
TORSDOF 5
