REMARK  6 active torsions:
REMARK  status: ('A' for Active; 'I' for Inactive)
REMARK    1  A    between atoms: C2_2  and  C3_3 
REMARK    2  A    between atoms: C3_3  and  C4_4 
REMARK    3  A    between atoms: C4_4  and  O1_5 
REMARK    4  A    between atoms: C6_8  and  O2_9 
REMARK    5  A    between atoms: C16_20  and  C17_21 
REMARK    6  A    between atoms: C17_21  and  O3_22 
ROOT
HETATM    1  C4  UNL     1       3.206  -0.300  -0.520  1.00  0.00     0.071 C 
HETATM    2  C5  UNL     1       3.459   0.778  -1.505  1.00  0.00     0.070 C 
HETATM    3  C6  UNL     1       2.244   1.583  -1.789  1.00  0.00     0.121 C 
HETATM    4  C7  UNL     1       0.991   0.956  -1.192  1.00  0.00     0.038 C 
HETATM    5  C8  UNL     1       1.119   0.919   0.300  1.00  0.00     0.010 C 
HETATM    6  C9  UNL     1      -0.172   0.571   0.996  1.00  0.00    -0.009 C 
HETATM    7  C10 UNL     1      -0.144   0.408   2.472  1.00  0.00     0.018 C 
HETATM    8  C11 UNL     1      -0.576  -0.771   0.466  1.00  0.00     0.003 C 
HETATM    9  C12 UNL     1       0.556  -1.711   0.837  1.00  0.00     0.007 C 
HETATM   10  C13 UNL     1       1.846  -1.162   1.268  1.00  0.00     0.013 C 
HETATM   11  C14 UNL     1       2.307   0.097   0.645  1.00  0.00    -0.008 C 
HETATM   12  C15 UNL     1       3.224   0.948   1.536  1.00  0.00     0.019 C 
HETATM   13  C16 UNL     1      -1.835  -1.359   0.975  1.00  0.00     0.025 C 
HETATM   14  C21 UNL     1      -2.991  -0.542   1.304  1.00  0.00     0.008 C 
HETATM   15  C22 UNL     1      -3.315   0.708   0.633  1.00  0.00     0.008 C 
HETATM   16  C23 UNL     1      -2.255   1.367  -0.202  1.00  0.00     0.025 C 
HETATM   17  C24 UNL     1      -1.132   1.684   0.714  1.00  0.00     0.135 C 
HETATM   18  O4  UNL     1      -0.550   2.863   0.265  1.00  0.00    -0.384 OA
HETATM   19  C25 UNL     1      -1.600   3.661  -0.160  1.00  0.00     0.177 C 
HETATM   20  C26 UNL     1      -2.704   2.745  -0.623  1.00  0.00    -0.020 C 
HETATM   21  C27 UNL     1      -2.895   2.834  -2.131  1.00  0.00     0.017 C 
HETATM   22  C28 UNL     1      -3.970   3.211   0.037  1.00  0.00     0.017 C 
ENDROOT
BRANCH  13  23
HETATM   23  C17 UNL     1      -2.242  -2.455  -0.001  1.00  0.00     0.062 C 
HETATM   24  C18 UNL     1      -3.494  -3.226   0.477  1.00  0.00     0.038 C 
HETATM   25  C19 UNL     1      -2.905  -4.425  -0.238  1.00  0.00     0.006 C 
HETATM   26  C20 UNL     1      -1.547  -3.761   0.059  1.00  0.00     0.038 C 
BRANCH  23  27
HETATM   27  O3  UNL     1      -2.433  -2.013  -1.309  1.00  0.00    -0.389 OA
ATOM     28  H3  UNL     1      -2.687  -2.697  -1.918  1.00  0.00     0.210 HD
ENDBRANCH  23  27
ENDBRANCH  13  23
BRANCH   3  29
HETATM   29  O2  UNL     1       2.443   2.880  -1.363  1.00  0.00    -0.395 OA
ATOM     30  H2  UNL     1       1.666   3.395  -1.545  1.00  0.00     0.210 HD
ENDBRANCH   3  29
BRANCH   1  31
HETATM   31  C3  UNL     1       4.597  -0.700   0.011  1.00  0.00     0.065 C 
BRANCH  31  32
HETATM   32  C2  UNL     1       5.470  -1.157  -1.103  1.00  0.00    -0.034 C 
HETATM   33  C1  UNL     1       5.989  -2.370  -1.147  1.00  0.00     0.007 C 
ENDBRANCH  31  32
ENDBRANCH   1  31
BRANCH   1  34
HETATM   34  O1  UNL     1       2.771  -1.518  -1.103  1.00  0.00    -0.389 OA
ATOM     35  H1  UNL     1       1.914  -1.272  -1.430  1.00  0.00     0.210 HD
ENDBRANCH   1  34
TORSDOF 6
