REMARK  6 active torsions:
REMARK  status: ('A' for Active; 'I' for Inactive)
REMARK    1  A    between atoms: C2_2  and  C3_3 
REMARK    2  A    between atoms: C2_2  and  C4_6 
REMARK    3  A    between atoms: C3_3  and  O1_4 
REMARK    4  A    between atoms: C15_18  and  C16_19 
REMARK    5  A    between atoms: C21_24  and  O3_25 
REMARK    6  A    between atoms: C28_33  and  O4_34 
ROOT
HETATM    1  C4  UNL     1       4.310   0.599  -0.330  1.00  0.00     0.190 A 
HETATM    2  O2  UNL     1       4.889  -0.637  -0.513  1.00  0.00    -0.364 OA
HETATM    3  C5  UNL     1       3.791  -1.228   0.115  1.00  0.00     0.092 A 
HETATM    4  C6  UNL     1       4.311  -1.909   1.388  1.00  0.00     0.049 C 
HETATM    5  C7  UNL     1       3.117  -2.221  -0.753  1.00  0.00     0.046 C 
HETATM    6  C8  UNL     1       1.605  -2.118  -0.709  1.00  0.00    -0.003 C 
HETATM    7  C9  UNL     1       1.049  -2.490   0.632  1.00  0.00     0.006 C 
HETATM    8  C10 UNL     1      -0.459  -2.609   0.486  1.00  0.00     0.006 C 
HETATM    9  C11 UNL     1      -0.919  -1.187   0.138  1.00  0.00    -0.001 C 
HETATM   10  C12 UNL     1      -2.341  -0.963   0.363  1.00  0.00     0.001 C 
HETATM   11  C13 UNL     1      -3.323  -1.594  -0.560  1.00  0.00     0.006 C 
HETATM   12  C14 UNL     1      -4.614  -0.954  -0.044  1.00  0.00     0.006 C 
HETATM   13  C15 UNL     1      -4.142   0.511  -0.045  1.00  0.00    -0.000 C 
HETATM   14  C19 UNL     1      -2.680   0.488   0.325  1.00  0.00    -0.010 C 
HETATM   15  C20 UNL     1      -2.470   1.026   1.744  1.00  0.00     0.018 C 
HETATM   16  C21 UNL     1      -1.829   1.305  -0.602  1.00  0.00     0.128 C 
HETATM   17  C22 UNL     1      -0.897   0.621  -1.501  1.00  0.00     0.042 C 
HETATM   18  C23 UNL     1      -0.352  -0.718  -1.151  1.00  0.00    -0.030 C 
HETATM   19  C24 UNL     1      -0.707  -1.677  -2.294  1.00  0.00     0.016 C 
HETATM   20  C25 UNL     1       1.185  -0.741  -1.120  1.00  0.00    -0.030 C 
HETATM   21  C26 UNL     1       1.610  -0.468  -2.571  1.00  0.00     0.016 C 
HETATM   22  C27 UNL     1       1.793   0.294  -0.278  1.00  0.00     0.054 C 
HETATM   23  C28 UNL     1       3.093   0.035   0.367  1.00  0.00     0.119 A 
ENDROOT
BRANCH   1  24
HETATM   24  C2  UNL     1       5.192   1.490   0.459  1.00  0.00    -0.034 C 
HETATM   25  C1  UNL     1       6.443   1.126   0.708  1.00  0.00     0.019 C 
BRANCH  24  26
HETATM   26  C3  UNL     1       4.723   2.792   0.982  1.00  0.00     0.200 C 
BRANCH  26  27
HETATM   27  O1  UNL     1       5.761   3.437   1.690  1.00  0.00    -0.397 OA
ATOM     28  H1  UNL     1       5.460   4.273   2.026  1.00  0.00     0.209 HD
ENDBRANCH  26  27
ENDBRANCH  24  26
ENDBRANCH   1  24
BRANCH  23  29
HETATM   29  O4  UNL     1       3.160   0.366   1.740  1.00  0.00    -0.384 OA
ATOM     30  H4  UNL     1       2.395   0.012   2.178  1.00  0.00     0.210 HD
ENDBRANCH  23  29
BRANCH  16  31
HETATM   31  O3  UNL     1      -1.202   2.343   0.094  1.00  0.00    -0.395 OA
ATOM     32  H3  UNL     1      -0.663   2.860  -0.493  1.00  0.00     0.210 HD
ENDBRANCH  16  31
BRANCH  13  33
HETATM   33  C16 UNL     1      -5.033   1.289   0.854  1.00  0.00    -0.018 C 
HETATM   34  C17 UNL     1      -6.450   1.134   0.261  1.00  0.00     0.010 C 
HETATM   35  C18 UNL     1      -4.769   2.759   0.878  1.00  0.00     0.010 C 
ENDBRANCH  13  33
TORSDOF 6
