REMARK  2 active torsions:
REMARK  status: ('A' for Active; 'I' for Inactive)
REMARK       I    between atoms: C1_4  and  N2_5 
REMARK       I    between atoms: C1_4  and  N3_10 
REMARK    1  A    between atoms: N2_5  and  C2_7 
REMARK    2  A    between atoms: N3_10  and  C5_12 
ROOT
HETATM    1  N1  UNL     1       0.793  -1.763  -1.217  1.00  0.00    -0.235 N 
ATOM      2  H11 UNL     1      -0.020  -2.335  -1.445  1.00  0.00     0.174 HD
ATOM      3  H12 UNL     1       1.717  -2.191  -1.157  1.00  0.00     0.174 HD
HETATM    4  C1  UNL     1       0.662  -0.514  -1.005  1.00  0.00     0.668 C 
HETATM    5  N2  UNL     1       1.784   0.276  -0.690  1.00  0.00    -0.222 N 
ATOM      6  H2  UNL     1       1.665   1.185  -0.242  1.00  0.00     0.178 HD
HETATM    7  N3  UNL     1      -0.609   0.074  -1.087  1.00  0.00    -0.222 N 
ATOM      8  H3  UNL     1      -1.107   0.104  -1.977  1.00  0.00     0.178 HD
ENDROOT
BRANCH   5   9
HETATM    9  C2  UNL     1       3.115  -0.216  -1.009  1.00  0.00     0.099 A 
HETATM   10  C3  UNL     1       4.320   0.572  -0.701  1.00  0.00     0.028 A 
HETATM   11  C4  UNL     1       3.988  -0.719   0.094  1.00  0.00     0.028 A 
ENDBRANCH   5   9
BRANCH   7  12
HETATM   12  C5  UNL     1      -1.200   0.631   0.091  1.00  0.00     0.103 C 
HETATM   13  C6  UNL     1      -1.369  -0.455   1.175  1.00  0.00     0.030 C 
HETATM   14  C7  UNL     1      -2.837  -0.359   1.403  1.00  0.00    -0.012 C 
HETATM   15  C8  UNL     1      -3.064   1.159   1.381  1.00  0.00     0.011 C 
HETATM   16  C10 UNL     1      -3.398  -0.320  -0.014  1.00  0.00     0.011 C 
HETATM   17  C9  UNL     1      -2.643   1.008  -0.076  1.00  0.00     0.010 C 
ENDBRANCH   7  12
TORSDOF 2
