REMARK  1 active torsions:
REMARK  status: ('A' for Active; 'I' for Inactive)
REMARK       I    between atoms: C1_4  and  N3_6 
REMARK       I    between atoms: C2_8  and  N5_10 
REMARK    1  A    between atoms: N5_10  and  C3_12 
ROOT
HETATM    1  N1  UNL     1       4.253   0.131  -1.077  1.00  0.00    -0.373 N 
ATOM      2  H11 UNL     1       4.058  -0.705  -1.628  1.00  0.00     0.158 HD
ATOM      3  H12 UNL     1       5.214   0.472  -1.044  1.00  0.00     0.158 HD
HETATM    4  C1  UNL     1       3.311   0.729  -0.448  1.00  0.00     0.188 C 
HETATM    5  N2  UNL     1       3.581   1.888   0.315  1.00  0.00    -0.064 NA
HETATM    6  N3  UNL     1       1.976   0.255  -0.494  1.00  0.00    -0.305 N 
ATOM      7  H3  UNL     1       1.251   0.888  -0.833  1.00  0.00     0.171 HD
HETATM    8  C2  UNL     1       1.629  -0.927  -0.132  1.00  0.00     0.190 C 
HETATM    9  N4  UNL     1       2.500  -1.919   0.358  1.00  0.00    -0.063 NA
HETATM   10  N5  UNL     1       0.245  -1.249  -0.241  1.00  0.00    -0.360 N 
ATOM     11  H5  UNL     1      -0.041  -1.905  -0.968  1.00  0.00     0.162 HD
ENDROOT
BRANCH  10  12
HETATM   12  C3  UNL     1      -0.765  -0.705   0.611  1.00  0.00     0.084 C 
HETATM   13  C4  UNL     1      -2.107  -1.268   0.205  1.00  0.00     0.025 C 
HETATM   14  C5  UNL     1      -2.706  -0.369  -0.854  1.00  0.00     0.002 C 
HETATM   15  C6  UNL     1      -3.110   0.937  -0.235  1.00  0.00     0.000 C 
HETATM   16  C7  UNL     1      -2.088   1.395   0.781  1.00  0.00     0.002 C 
HETATM   17  C8  UNL     1      -0.747   0.813   0.434  1.00  0.00     0.025 C 
ENDBRANCH  10  12
TORSDOF 1
