REMARK  1 active torsions:
REMARK  status: ('A' for Active; 'I' for Inactive)
REMARK       I    between atoms: C1_4  and  N3_6 
REMARK    1  A    between atoms: N3_6  and  C2_8 
ROOT
HETATM    1  C2  UNL     1       0.207  -0.374   0.082  1.00  0.00     0.037 C 
HETATM    2  C3  UNL     1      -0.286   0.477   1.243  1.00  0.00     0.032 C 
HETATM    3  C4  UNL     1      -1.219   1.487   0.551  1.00  0.00     0.013 C 
HETATM    4  C5  UNL     1      -1.805   0.663  -0.494  1.00  0.00    -0.029 A 
HETATM    5  C6  UNL     1      -2.636  -0.473   0.093  1.00  0.00     0.015 C 
HETATM    6  C7  UNL     1      -1.801  -1.423  -0.717  1.00  0.00    -0.006 C 
HETATM    7  C8  UNL     1      -0.529  -1.702   0.023  1.00  0.00     0.036 C 
HETATM    8  C9  UNL     1      -1.559  -0.188  -1.560  1.00  0.00     0.006 A 
HETATM    9  C10 UNL     1      -0.372   0.335  -1.083  1.00  0.00     0.028 A 
ENDROOT
BRANCH   1  10
HETATM   10  N3  UNL     1       1.621  -0.565   0.069  1.00  0.00    -0.355 N 
HETATM   11  C1  UNL     1       2.579   0.475   0.000  1.00  0.00     0.182 C 
HETATM   12  N1  UNL     1       2.207   1.669  -0.212  1.00  0.00    -0.374 N 
HETATM   13  N2  UNL     1       3.954   0.160   0.172  1.00  0.00    -0.064 NA
ATOM     14  H12 UNL     1       2.897   2.418  -0.262  1.00  0.00     0.158 HD
ATOM     15  H11 UNL     1       1.220   1.895  -0.335  1.00  0.00     0.158 HD
ATOM     16  H3  UNL     1       1.968  -1.523   0.113  1.00  0.00     0.163 HD
ENDBRANCH   1  10
TORSDOF 1
