REMARK  2 active torsions:
REMARK  status: ('A' for Active; 'I' for Inactive)
REMARK    1  A    between atoms: C2_2  and  C4_4 
REMARK    2  A    between atoms: C4_4  and  N1_6 
REMARK       I    between atoms: N1_6  and  C6_8 
REMARK       I    between atoms: C6_8  and  N2_10 
ROOT
HETATM    1  N1  UNL     1       0.403   0.004  -0.089  1.00  0.00    -0.338 N 
ATOM      2  H1  UNL     1       0.768   0.949  -0.210  1.00  0.00     0.164 HD
HETATM    3  C6  UNL     1       1.242  -1.115  -0.254  1.00  0.00     0.322 C 
HETATM    4  O1  UNL     1       0.812  -2.290  -0.110  1.00  0.00    -0.247 OA
HETATM    5  N2  UNL     1       2.605  -0.883  -0.591  1.00  0.00    -0.285 N 
ATOM      6  H2  UNL     1       2.993  -1.273  -1.450  1.00  0.00     0.172 HD
HETATM    7  C7  UNL     1       3.337  -0.189   0.181  1.00  0.00     0.204 C 
HETATM    8  N3  UNL     1       2.823   0.369   1.387  1.00  0.00    -0.066 NA
HETATM    9  N4  UNL     1       4.702   0.068  -0.116  1.00  0.00    -0.066 NA
ENDROOT
BRANCH   1  10
HETATM   10  C4  UNL     1      -0.967  -0.207   0.250  1.00  0.00     0.085 C 
HETATM   11  C5  UNL     1      -1.197   0.369   1.639  1.00  0.00     0.032 C 
BRANCH  10  12
HETATM   12  C2  UNL     1      -1.942   0.348  -0.749  1.00  0.00    -0.000 C 
HETATM   13  C1  UNL     1      -1.770  -0.174  -2.125  1.00  0.00     0.011 C 
HETATM   14  C3  UNL     1      -3.358   0.161  -0.277  1.00  0.00     0.011 C 
ENDBRANCH  10  12
ENDBRANCH   1  10
TORSDOF 2
