REMARK  2 active torsions:
REMARK  status: ('A' for Active; 'I' for Inactive)
REMARK    1  A    between atoms: C2_2  and  C3_3 
REMARK    2  A    between atoms: C9_9  and  N1_10 
REMARK       I    between atoms: N1_10  and  C10_12 
ROOT
HETATM    1  C3  UNL     1      -0.331   0.567   0.714  1.00  0.00     0.030 C 
HETATM    2  C4  UNL     1      -1.254  -0.567   1.104  1.00  0.00     0.011 C 
HETATM    3  C5  UNL     1      -2.311  -0.804   0.052  1.00  0.00     0.006 C 
HETATM    4  C6  UNL     1      -1.652  -1.078  -1.247  1.00  0.00    -0.008 A 
HETATM    5  C7  UNL     1      -0.449  -1.944  -1.346  1.00  0.00     0.012 A 
HETATM    6  C8  UNL     1      -0.436  -0.409  -1.602  1.00  0.00     0.013 A 
HETATM    7  C9  UNL     1       0.341   0.336  -0.601  1.00  0.00     0.096 C 
ENDROOT
BRANCH   7   8
HETATM    8  N1  UNL     1       1.592  -0.370  -0.370  1.00  0.00    -0.359 N 
HETATM    9  C10 UNL     1       2.618   0.194   0.442  1.00  0.00     0.182 C 
HETATM   10  N2  UNL     1       2.800   1.448   0.540  1.00  0.00    -0.374 N 
HETATM   11  N3  UNL     1       3.448  -0.705   1.153  1.00  0.00    -0.064 NA
ATOM     12  H22 UNL     1       2.202   2.096   0.028  1.00  0.00     0.158 HD
ATOM     13  H21 UNL     1       3.534   1.852   1.121  1.00  0.00     0.158 HD
ATOM     14  H1  UNL     1       1.737  -1.285  -0.797  1.00  0.00     0.162 HD
ENDBRANCH   7   8
BRANCH   1  15
HETATM   15  C2  UNL     1      -1.151   1.806   0.774  1.00  0.00    -0.030 C 
HETATM   16  C1  UNL     1      -1.324   2.666  -0.205  1.00  0.00     0.007 C 
ENDBRANCH   1  15
TORSDOF 2
