REMARK  2 active torsions:
REMARK  status: ('A' for Active; 'I' for Inactive)
REMARK       I    between atoms: C1_2  and  N1_3 
REMARK       I    between atoms: C1_2  and  N2_8 
REMARK    1  A    between atoms: N1_3  and  C2_5 
REMARK    2  A    between atoms: N2_8  and  C5_10 
ROOT
HETATM    1  O1  UNL     1       1.293   0.473  -1.943  1.00  0.00    -0.247 OA
HETATM    2  C1  UNL     1       1.001   0.247  -0.751  1.00  0.00     0.318 C 
HETATM    3  N1  UNL     1       2.006   0.198   0.283  1.00  0.00    -0.338 N 
ATOM      4  H1  UNL     1       1.732   0.011   1.247  1.00  0.00     0.164 HD
HETATM    5  N2  UNL     1      -0.370   0.040  -0.453  1.00  0.00    -0.311 N 
ATOM      6  H2  UNL     1      -0.642  -0.147   0.512  1.00  0.00     0.166 HD
ENDROOT
BRANCH   5   7
HETATM    7  C5  UNL     1      -1.377   0.084  -1.454  1.00  0.00     0.359 A 
HETATM    8  C6  UNL     1      -2.705   0.675  -1.066  1.00  0.00     0.278 A 
HETATM    9  C7  UNL     1      -2.984   0.731   0.407  1.00  0.00     0.042 C 
HETATM   10  N3  UNL     1      -2.553  -0.707  -1.421  1.00  0.00     0.122 N 
HETATM   11  C8  UNL     1      -3.225  -0.674   0.860  1.00  0.00     0.033 C 
HETATM   12  C9  UNL     1      -2.946  -1.521  -0.331  1.00  0.00     0.276 C 
ENDBRANCH   5   7
BRANCH   3  13
HETATM   13  C2  UNL     1       3.390   0.411  -0.036  1.00  0.00     0.086 A 
HETATM   14  C3  UNL     1       4.317   1.030   0.928  1.00  0.00     0.027 A 
HETATM   15  C4  UNL     1       4.419  -0.442   0.729  1.00  0.00     0.027 A 
ENDBRANCH   3  13
TORSDOF 2
