REMARK  4 active torsions:
REMARK  status: ('A' for Active; 'I' for Inactive)
REMARK    1  A    between atoms: C5_5  and  C6_6 
REMARK    2  A    between atoms: C6_6  and  C7_7 
REMARK    3  A    between atoms: C9_12  and  C10_13 
REMARK    4  A    between atoms: C10_13  and  C11_14 
ROOT
HETATM    1  C7  UNL     1      -0.623  -0.725   0.266  1.00  0.00     0.104 A 
HETATM    2  N1  UNL     1      -0.736   0.497  -0.285  1.00  0.00    -0.317 N 
ATOM      3  H1  UNL     1      -1.666   0.895  -0.418  1.00  0.00     0.169 HD
HETATM    4  C8  UNL     1       0.338   1.209  -0.666  1.00  0.00     0.273 A 
HETATM    5  O1  UNL     1       0.237   2.368  -1.189  1.00  0.00    -0.266 OA
HETATM    6  C9  UNL     1       1.605   0.698  -0.498  1.00  0.00     0.106 A 
HETATM    7  N2  UNL     1       1.712  -0.518   0.051  1.00  0.00    -0.317 N 
ATOM      8  H2  UNL     1       2.642  -0.916   0.184  1.00  0.00     0.169 HD
HETATM    9  C16 UNL     1       0.647  -1.230   0.431  1.00  0.00     0.273 A 
HETATM   10  O3  UNL     1       0.795  -2.386   0.951  1.00  0.00    -0.266 OA
ENDROOT
BRANCH   1  11
HETATM   11  C6  UNL     1      -1.691  -1.410   0.634  1.00  0.00     0.046 C 
BRANCH  11  12
HETATM   12  C5  UNL     1      -3.043  -0.917   0.479  1.00  0.00    -0.034 A 
HETATM   13  C4  UNL     1      -3.866  -1.325  -0.546  1.00  0.00     0.012 A 
HETATM   14  C3  UNL     1      -5.141  -0.817  -0.637  1.00  0.00     0.007 A 
HETATM   15  C2  UNL     1      -5.632   0.095   0.269  1.00  0.00    -0.062 A 
HETATM   16  C1  UNL     1      -7.012   0.621   0.139  1.00  0.00     0.048 C 
HETATM   17  C18 UNL     1      -4.807   0.499   1.291  1.00  0.00     0.007 A 
HETATM   18  C17 UNL     1      -3.530  -0.004   1.389  1.00  0.00     0.012 A 
ENDBRANCH  11  12
ENDBRANCH   1  11
BRANCH   6  19
HETATM   19  C10 UNL     1       2.694   1.379  -0.865  1.00  0.00     0.072 C 
BRANCH  19  20
HETATM   20  C11 UNL     1       4.030   0.873  -0.703  1.00  0.00     0.078 A 
HETATM   21  C12 UNL     1       4.894   0.656  -1.774  1.00  0.00     0.040 A 
HETATM   22  C13 UNL     1       6.054   0.178  -1.227  1.00  0.00     0.035 A 
HETATM   23  C14 UNL     1       5.872   0.116   0.141  1.00  0.00     0.050 A 
HETATM   24  C15 UNL     1       6.883  -0.349   1.142  1.00  0.00     0.076 C 
HETATM   25  O2  UNL     1       4.665   0.538   0.379  1.00  0.00    -0.316 OA
ENDBRANCH  19  20
ENDBRANCH   6  19
TORSDOF 4
