REMARK  2 active torsions:
REMARK  status: ('A' for Active; 'I' for Inactive)
REMARK    1  A    between atoms: N2_9  and  S1_10 
REMARK    2  A    between atoms: S1_10  and  N3_13 
ROOT
HETATM    1  O1  UNL     1      -5.902   1.523   2.039  1.00  0.00    -0.247 OA
HETATM    2  C1  UNL     1      -5.170   1.048   1.111  1.00  0.00     0.316 C 
HETATM    3  N1  UNL     1      -5.620   0.740  -0.181  1.00  0.00    -0.341 N 
ATOM      4  H1  UNL     1      -6.578   0.868  -0.508  1.00  0.00     0.164 HD
HETATM    5  C2  UNL     1      -4.539   0.216  -0.985  1.00  0.00     0.156 C 
HETATM    6  C3  UNL     1      -3.283   0.423  -0.146  1.00  0.00     0.059 C 
HETATM    7  C4  UNL     1      -2.529  -0.867  -0.146  1.00  0.00     0.079 C 
HETATM    8  C5  UNL     1      -1.050  -0.741  -0.098  1.00  0.00     0.085 C 
HETATM    9  N2  UNL     1      -0.522   0.517   0.176  1.00  0.00    -0.253 N 
HETATM   10  C12 UNL     1      -1.119   1.681  -0.313  1.00  0.00     0.085 C 
HETATM   11  C13 UNL     1      -2.531   1.569  -0.768  1.00  0.00     0.079 C 
HETATM   12  N4  UNL     1      -3.787   0.730   1.161  1.00  0.00    -0.332 N 
ATOM     13  H4  UNL     1      -3.227   0.721   2.013  1.00  0.00     0.165 HD
ENDROOT
BRANCH   9  14
HETATM   14  S1  UNL     1       0.838   0.640   1.148  1.00  0.00     0.326 S 
HETATM   15  O2  UNL     1       1.277   2.054   1.401  1.00  0.00    -0.182 OA
HETATM   16  O3  UNL     1       0.533   0.053   2.515  1.00  0.00    -0.182 OA
BRANCH  14  17
HETATM   17  N3  UNL     1       2.158  -0.181   0.414  1.00  0.00    -0.294 N 
HETATM   18  C6  UNL     1       2.535   0.347  -0.844  1.00  0.00     0.137 C 
HETATM   19  C7  UNL     1       3.986   0.753  -0.932  1.00  0.00     0.021 C 
HETATM   20  C8  UNL     1       4.833  -0.499  -0.841  1.00  0.00     0.002 C 
HETATM   21  C9  UNL     1       4.533  -1.170   0.460  1.00  0.00     0.002 C 
HETATM   22  C10 UNL     1       3.455  -2.225   0.327  1.00  0.00     0.021 C 
HETATM   23  C11 UNL     1       2.099  -1.600   0.497  1.00  0.00     0.137 C 
ENDBRANCH  14  17
ENDBRANCH   9  14
TORSDOF 2
