REMARK  13 active torsions:
REMARK  status: ('A' for Active; 'I' for Inactive)
REMARK    1  A    between atoms: N2_3  and  C2_5 
REMARK    2  A    between atoms: C2_5  and  O1_7 
REMARK    3  A    between atoms: O1_7  and  N3_8 
REMARK    4  A    between atoms: C4_11  and  O2_12 
REMARK    5  A    between atoms: C5_15  and  C6_16 
REMARK    6  A    between atoms: C6_16  and  O4_17 
REMARK    7  A    between atoms: C6_16  and  C7_19 
REMARK    8  A    between atoms: C7_19  and  N4_20 
REMARK    9  A    between atoms: C7_19  and  C8_24 
REMARK   10  A    between atoms: C8_24  and  C9_26 
REMARK   11  A    between atoms: C9_26  and  O6_27 
REMARK   12  A    between atoms: C9_26  and  O7_29 
REMARK   13  A    between atoms: C10_31  and  N5_32 
ROOT
HETATM    1  N1  UNL     1       7.303   2.159   0.862  1.00  0.00    -0.172 NA
HETATM    2  C1  UNL     1       6.723   1.173   0.691  1.00  0.00     0.184 C 
HETATM    3  N2  UNL     1       6.010  -0.009   0.469  1.00  0.00    -0.263 N 
ATOM      4  H2  UNL     1       6.355  -0.878   0.877  1.00  0.00     0.181 HD
ENDROOT
BRANCH   3   5
HETATM    5  C2  UNL     1       4.824  -0.038  -0.305  1.00  0.00     0.248 C 
HETATM    6  S1  UNL     1       4.288   1.359  -0.950  1.00  0.00    -0.030 SA
BRANCH   5   7
HETATM    7  O1  UNL     1       4.137  -1.208  -0.512  1.00  0.00    -0.207 OA
BRANCH   7   8
HETATM    8  N3  UNL     1       2.880  -1.199  -1.036  1.00  0.00    -0.259 N 
HETATM    9  C3  UNL     1       1.884  -1.171  -0.254  1.00  0.00     0.098 C 
HETATM   10  C4  UNL     1       1.859  -1.145   1.234  1.00  0.00     0.308 C 
HETATM   11  C10 UNL     1       0.416  -1.156  -0.572  1.00  0.00     0.267 C 
HETATM   12  O3  UNL     1       0.629  -0.650   1.612  1.00  0.00    -0.346 OA
HETATM   13  C5  UNL     1      -0.020  -0.198   0.475  1.00  0.00     0.192 C 
ATOM     14  H3  UNL     1       2.742  -1.215  -2.047  1.00  0.00     0.194 HD
BRANCH  10  15
HETATM   15  O2  UNL     1       1.916  -2.482   1.667  1.00  0.00    -0.366 OA
ATOM     16  H2  UNL     1       1.900  -2.465   2.617  1.00  0.00     0.213 HD
ENDBRANCH  10  15
BRANCH  13  17
HETATM   17  C6  UNL     1      -1.475  -0.063   0.695  1.00  0.00     0.187 C 
BRANCH  17  18
HETATM   18  O4  UNL     1      -1.684   0.851   1.727  1.00  0.00    -0.390 OA
ATOM     19  H4  UNL     1      -2.619   0.938   1.868  1.00  0.00     0.210 HD
ENDBRANCH  17  18
BRANCH  17  20
HETATM   20  C7  UNL     1      -2.294   0.350  -0.466  1.00  0.00     0.288 C 
BRANCH  20  21
HETATM   21  N4  UNL     1      -1.961   1.669  -0.956  1.00  0.00    -0.066 N 
ATOM     22  H43 UNL     1      -2.018   2.360  -0.207  1.00  0.00     0.275 HD
ATOM     23  H42 UNL     1      -0.966   1.736  -1.171  1.00  0.00     0.275 HD
ATOM     24  H41 UNL     1      -2.526   1.954  -1.756  1.00  0.00     0.275 HD
ENDBRANCH  20  21
BRANCH  20  25
HETATM   25  C8  UNL     1      -3.731   0.244  -0.080  1.00  0.00     0.213 C 
HETATM   26  O5  UNL     1      -4.091  -0.845   0.346  1.00  0.00    -0.290 OA
BRANCH  25  27
HETATM   27  C9  UNL     1      -4.721   1.308  -0.166  1.00  0.00     0.327 C 
BRANCH  27  28
HETATM   28  O6  UNL     1      -4.276   2.506  -0.646  1.00  0.00    -0.365 OA
ATOM     29  H6  UNL     1      -4.922   3.200  -0.702  1.00  0.00     0.213 HD
ENDBRANCH  27  28
BRANCH  27  30
HETATM   30  O7  UNL     1      -5.281   1.537   1.102  1.00  0.00    -0.365 OA
ATOM     31  H7  UNL     1      -5.927   2.231   1.046  1.00  0.00     0.213 HD
ENDBRANCH  27  30
ENDBRANCH  25  27
ENDBRANCH  20  25
ENDBRANCH  17  20
ENDBRANCH  13  17
BRANCH  11  32
HETATM   32  N5  UNL     1      -0.015  -2.499  -0.392  1.00  0.00    -0.067 N 
ATOM     33  H53 UNL     1       0.518  -3.180  -0.934  1.00  0.00     0.275 HD
ATOM     34  H52 UNL     1       0.204  -2.883   0.527  1.00  0.00     0.275 HD
ATOM     35  H51 UNL     1      -1.012  -2.489  -0.608  1.00  0.00     0.275 HD
ENDBRANCH  11  32
ENDBRANCH   7   8
ENDBRANCH   5   7
ENDBRANCH   3   5
TORSDOF 13
