REMARK  10 active torsions:
REMARK  status: ('A' for Active; 'I' for Inactive)
REMARK    1  A    between atoms: N1_1  and  C1_5 
REMARK    2  A    between atoms: C1_5  and  O1_6 
REMARK    3  A    between atoms: C1_5  and  C2_8 
REMARK    4  A    between atoms: C2_8  and  N2_9 
REMARK    5  A    between atoms: C2_8  and  C3_13 
REMARK    6  A    between atoms: C2_8  and  C5_21 
REMARK    7  A    between atoms: C3_13  and  O2_14 
REMARK    8  A    between atoms: C3_13  and  C4_16 
REMARK    9  A    between atoms: C4_16  and  O3_17 
REMARK   10  A    between atoms: C4_16  and  O4_19 
ROOT
HETATM    1  C2  UNL     1      -0.899   0.102   0.355  1.00  0.00     0.219 C 
ENDROOT
BRANCH   1   2
HETATM    2  C1  UNL     1      -1.717  -1.092  -0.024  1.00  0.00     0.356 C 
BRANCH   2   3
HETATM    3  N1  UNL     1      -1.626  -1.544  -1.363  1.00  0.00    -0.050 N 
ATOM      4  H13 UNL     1      -0.740  -2.027  -1.510  1.00  0.00     0.277 HD
ATOM      5  H12 UNL     1      -2.277  -2.313  -1.518  1.00  0.00     0.277 HD
ATOM      6  H11 UNL     1      -1.756  -0.825  -2.075  1.00  0.00     0.277 HD
ENDBRANCH   2   3
BRANCH   2   7
HETATM    7  O1  UNL     1      -1.539  -2.073   0.948  1.00  0.00    -0.368 OA
ATOM      8  H1  UNL     1      -1.600  -1.770   1.846  1.00  0.00     0.212 HD
ENDBRANCH   2   7
ENDBRANCH   1   2
BRANCH   1   9
HETATM    9  N2  UNL     1      -1.479   0.484   1.684  1.00  0.00    -0.062 N 
ATOM     10  H23 UNL     1      -2.487   0.638   1.684  1.00  0.00     0.275 HD
ATOM     11  H22 UNL     1      -1.492  -0.264   2.377  1.00  0.00     0.275 HD
ATOM     12  H21 UNL     1      -0.921   1.298   1.942  1.00  0.00     0.275 HD
ENDBRANCH   1   9
BRANCH   1  13
HETATM   13  C3  UNL     1      -1.186   1.339  -0.466  1.00  0.00     0.214 C 
BRANCH  13  14
HETATM   14  O2  UNL     1      -0.770   1.262  -1.784  1.00  0.00    -0.388 OA
ATOM     15  H2  UNL     1      -0.950   2.039  -2.300  1.00  0.00     0.210 HD
ENDBRANCH  13  14
BRANCH  13  16
HETATM   16  C4  UNL     1      -2.657   1.688  -0.549  1.00  0.00     0.285 C 
BRANCH  16  17
HETATM   17  O3  UNL     1      -2.699   2.919  -1.260  1.00  0.00    -0.369 OA
ATOM     18  H3  UNL     1      -3.622   3.138  -1.312  1.00  0.00     0.212 HD
ENDBRANCH  16  17
BRANCH  16  19
HETATM   19  O4  UNL     1      -3.246   1.975   0.670  1.00  0.00    -0.369 OA
ATOM     20  H4  UNL     1      -4.169   2.194   0.618  1.00  0.00     0.212 HD
ENDBRANCH  16  19
ENDBRANCH  13  16
ENDBRANCH   1  13
BRANCH   1  21
HETATM   21  C5  UNL     1       0.516  -0.169   0.651  1.00  0.00     0.142 C 
HETATM   22  S1  UNL     1       1.349   1.420   1.068  1.00  0.00    -0.085 SA
HETATM   23  S2  UNL     1       3.169   0.711   2.007  1.00  0.00    -0.054 SA
HETATM   24  C6  UNL     1       3.510  -0.837   1.086  1.00  0.00     0.350 C 
HETATM   25  N3  UNL     1       2.361  -1.636   0.883  1.00  0.00    -0.039 N 
HETATM   26  C9  UNL     1       4.227  -0.406  -0.134  1.00  0.00     0.266 C 
HETATM   27  C7  UNL     1       1.375  -1.066  -0.092  1.00  0.00     0.296 C 
ATOM     28  H32 UNL     1       2.629  -2.581   0.607  1.00  0.00     0.280 HD
ATOM     29  H31 UNL     1       1.906  -1.837   1.773  1.00  0.00     0.280 HD
HETATM   30  C8  UNL     1       2.082  -0.661  -1.298  1.00  0.00     0.256 C 
HETATM   31  O5  UNL     1       1.632  -0.817  -2.456  1.00  0.00    -0.271 OA
HETATM   32  N4  UNL     1       3.386  -0.040  -1.237  1.00  0.00    -0.293 N 
ATOM     33  H4  UNL     1       3.694   0.627  -1.945  1.00  0.00     0.171 HD
HETATM   34  O6  UNL     1       5.465  -0.384  -0.143  1.00  0.00    -0.270 OA
ENDBRANCH   1  21
TORSDOF 10
