REMARK  9 active torsions:
REMARK  status: ('A' for Active; 'I' for Inactive)
REMARK    1  A    between atoms: N1_1  and  N2_4 
REMARK       I    between atoms: N2_4  and  C1_6 
REMARK    2  A    between atoms: C1_6  and  C2_8 
REMARK    3  A    between atoms: C2_8  and  O2_9 
REMARK    4  A    between atoms: C2_8  and  C11_31 
REMARK    5  A    between atoms: O2_9  and  N3_10 
REMARK    6  A    between atoms: C11_31  and  O3_32 
REMARK    7  A    between atoms: C11_31  and  C12_34 
REMARK    8  A    between atoms: C12_34  and  O4_35 
REMARK    9  A    between atoms: C12_34  and  O5_37 
ROOT
HETATM    1  N3  UNL     1       1.063  -1.166  -0.351  1.00  0.00    -0.252 N 
ATOM      2  H3  UNL     1       1.210  -2.153  -0.560  1.00  0.00     0.196 HD
HETATM    3  C3  UNL     1      -0.035  -0.864   0.238  1.00  0.00     0.123 C 
HETATM    4  C4  UNL     1      -0.968  -2.008   0.547  1.00  0.00     0.309 C 
HETATM    5  N4  UNL     1      -2.038  -2.084  -0.430  1.00  0.00    -0.067 N 
ATOM      6  H41 UNL     1      -1.839  -2.770  -1.158  1.00  0.00     0.277 HD
ATOM      7  H42 UNL     1      -2.078  -1.249  -1.015  1.00  0.00     0.277 HD
HETATM    8  C5  UNL     1      -3.307  -2.346   0.227  1.00  0.00     0.260 C 
HETATM    9  C6  UNL     1      -4.432  -1.625  -0.448  1.00  0.00     0.259 C 
HETATM   10  N5  UNL     1      -3.983  -0.460  -1.185  1.00  0.00    -0.072 N 
ATOM     11  H51 UNL     1      -3.941  -0.636  -2.189  1.00  0.00     0.277 HD
ATOM     12  H52 UNL     1      -2.995  -0.265  -1.026  1.00  0.00     0.277 HD
HETATM   13  C7  UNL     1      -4.818   0.681  -0.870  1.00  0.00     0.259 C 
HETATM   14  C8  UNL     1      -4.327   1.376   0.378  1.00  0.00     0.259 C 
HETATM   15  N6  UNL     1      -2.869   1.460   0.294  1.00  0.00    -0.072 N 
ATOM     16  H61 UNL     1      -2.576   2.164  -0.383  1.00  0.00     0.277 HD
ATOM     17  H62 UNL     1      -2.474   0.633  -0.155  1.00  0.00     0.277 HD
HETATM   18  C9  UNL     1      -2.271   1.693   1.589  1.00  0.00     0.251 C 
HETATM   19  C10 UNL     1      -1.048   0.845   1.826  1.00  0.00     0.148 C 
HETATM   20  N7  UNL     1      -0.392   0.462   0.595  1.00  0.00    -0.375 N 
ATOM     21  H7  UNL     1      -0.168   1.204  -0.069  1.00  0.00     0.160 HD
ENDROOT
BRANCH   1  22
HETATM   22  O2  UNL     1       2.043  -0.321  -0.724  1.00  0.00    -0.261 OA
BRANCH  22  23
HETATM   23  C2  UNL     1       3.229  -0.114   0.086  1.00  0.00     0.279 C 
BRANCH  23  24
HETATM   24  C1  UNL     1       3.470   1.322   0.275  1.00  0.00     0.270 C 
HETATM   25  N2  UNL     1       2.670   2.292  -0.379  1.00  0.00    -0.274 N 
ATOM     26  H2  UNL     1       1.920   1.962  -0.986  1.00  0.00     0.189 HD
HETATM   27  O1  UNL     1       4.382   1.752   1.014  1.00  0.00    -0.269 OA
BRANCH  25  28
HETATM   28  N1  UNL     1       2.842   3.654  -0.246  1.00  0.00    -0.343 N 
ATOM     29  H12 UNL     1       3.597   3.966   0.365  1.00  0.00     0.176 HD
ATOM     30  H11 UNL     1       2.266   4.352  -0.717  1.00  0.00     0.176 HD
ENDBRANCH  25  28
ENDBRANCH  23  24
BRANCH  23  31
HETATM   31  C11 UNL     1       4.304  -0.836  -0.704  1.00  0.00     0.213 C 
BRANCH  31  32
HETATM   32  O3  UNL     1       3.857  -2.190  -0.780  1.00  0.00    -0.387 OA
ATOM     33  H3  UNL     1       4.530  -2.642  -1.275  1.00  0.00     0.210 HD
ENDBRANCH  31  32
BRANCH  31  34
HETATM   34  C12 UNL     1       5.645  -0.877  -0.065  1.00  0.00     0.285 C 
BRANCH  34  35
HETATM   35  O4  UNL     1       5.645  -1.391   1.231  1.00  0.00    -0.369 OA
ATOM     36  H4  UNL     1       6.502  -1.417   1.640  1.00  0.00     0.212 HD
ENDBRANCH  34  35
BRANCH  34  37
HETATM   37  O5  UNL     1       6.423   0.247  -0.198  1.00  0.00    -0.369 OA
ATOM     38  H5  UNL     1       7.280   0.221   0.211  1.00  0.00     0.212 HD
ENDBRANCH  34  37
ENDBRANCH  31  34
ENDBRANCH  23  31
ENDBRANCH  22  23
ENDBRANCH   1  22
TORSDOF 9
