REMARK  10 active torsions:
REMARK  status: ('A' for Active; 'I' for Inactive)
REMARK       I    between atoms: C2_2  and  N1_4 
REMARK       I    between atoms: N1_4  and  C3_6 
REMARK    1  A    between atoms: C3_6  and  C4_8 
REMARK    2  A    between atoms: C5_9  and  N2_10 
REMARK    3  A    between atoms: N2_10  and  N3_11 
REMARK    4  A    between atoms: N2_10  and  O5_21 
REMARK    5  A    between atoms: N3_11  and  S1_13 
REMARK    6  A    between atoms: S1_13  and  N4_16 
REMARK    7  A    between atoms: N4_16  and  N5_18 
REMARK    8  A    between atoms: O5_21  and  N6_22 
REMARK    9  A    between atoms: C6_28  and  C7_29 
REMARK   10  A    between atoms: C7_29  and  O6_30 
ROOT
HETATM    1  C4  UNL     1      -0.713  -0.474   0.094  1.00  0.00     0.174 C 
HETATM    2  C5  UNL     1       0.699  -0.530  -0.312  1.00  0.00     0.158 C 
HETATM    3  N7  UNL     1       1.074  -1.759  -0.283  1.00  0.00    -0.288 N 
ATOM      4  H7  UNL     1       2.009  -2.092  -0.518  1.00  0.00     0.183 HD
HETATM    5  N8  UNL     1      -0.005  -2.584   0.124  1.00  0.00    -0.132 NA
HETATM    6  C6  UNL     1      -1.165  -1.855  -0.407  1.00  0.00     0.143 C 
ENDROOT
BRANCH   2   7
HETATM    7  N2  UNL     1       1.584   0.521  -0.690  1.00  0.00    -0.111 N 
BRANCH   7   8
HETATM    8  N3  UNL     1       1.926   1.513   0.233  1.00  0.00    -0.179 N 
ATOM      9  H3  UNL     1       1.309   2.277   0.508  1.00  0.00     0.204 HD
BRANCH   8  10
HETATM   10  S1  UNL     1       3.520   1.286   0.850  1.00  0.00     0.351 S 
HETATM   11  O3  UNL     1       4.554   1.234  -0.211  1.00  0.00    -0.179 OA
HETATM   12  O4  UNL     1       3.861   2.612   1.834  1.00  0.00    -0.179 OA
BRANCH  10  13
HETATM   13  N4  UNL     1       3.622  -0.030   1.697  1.00  0.00    -0.215 N 
ATOM     14  H4  UNL     1       2.793  -0.549   1.987  1.00  0.00     0.201 HD
BRANCH  13  15
HETATM   15  N5  UNL     1       4.911  -0.451   2.032  1.00  0.00    -0.335 N 
ATOM     16  H52 UNL     1       5.730   0.079   1.735  1.00  0.00     0.177 HD
ATOM     17  H51 UNL     1       4.977  -1.307   2.583  1.00  0.00     0.177 HD
ENDBRANCH  13  15
ENDBRANCH  10  13
ENDBRANCH   8  10
ENDBRANCH   7   8
BRANCH   7  18
HETATM   18  O5  UNL     1       2.127   0.615  -1.924  1.00  0.00    -0.139 OA
BRANCH  18  19
HETATM   19  N6  UNL     1       2.840  -0.481  -2.264  1.00  0.00    -0.284 N 
ATOM     20  H62 UNL     1       2.947  -1.285  -1.645  1.00  0.00     0.186 HD
ATOM     21  H61 UNL     1       3.250  -0.410  -3.195  1.00  0.00     0.186 HD
ENDBRANCH  18  19
ENDBRANCH   7  18
ENDBRANCH   2   7
BRANCH   1  22
HETATM   22  C3  UNL     1      -1.468   0.630  -0.457  1.00  0.00     0.237 C 
HETATM   23  N1  UNL     1      -2.781   0.901  -0.007  1.00  0.00    -0.297 N 
HETATM   24  C2  UNL     1      -3.568   1.967  -0.524  1.00  0.00     0.220 C 
ATOM     25  H1  UNL     1      -3.181   0.307   0.719  1.00  0.00     0.171 HD
HETATM   26  C1  UNL     1      -4.931   2.226  -0.038  1.00  0.00     0.117 C 
HETATM   27  O1  UNL     1      -3.076   2.696  -1.417  1.00  0.00    -0.274 OA
HETATM   28  O2  UNL     1      -0.978   1.367  -1.343  1.00  0.00    -0.272 OA
ENDBRANCH   1  22
BRANCH   6  29
HETATM   29  C7  UNL     1      -2.442  -2.292   0.204  1.00  0.00     0.188 C 
BRANCH  29  30
HETATM   30  O6  UNL     1      -2.706  -3.645   0.014  1.00  0.00    -0.399 OA
ATOM     31  H6  UNL     1      -3.525  -3.925   0.406  1.00  0.00     0.209 HD
ENDBRANCH  29  30
ENDBRANCH   6  29
TORSDOF 10
