REMARK  9 active torsions:
REMARK  status: ('A' for Active; 'I' for Inactive)
REMARK    1  A    between atoms: N1_1  and  N2_4 
REMARK    2  A    between atoms: N2_4  and  C1_5 
REMARK       I    between atoms: N5_13  and  C5_15 
REMARK    3  A    between atoms: C5_15  and  C6_17 
REMARK    4  A    between atoms: C6_17  and  O2_18 
REMARK    5  A    between atoms: O2_18  and  N6_19 
REMARK    6  A    between atoms: C7_24  and  N8_25 
REMARK    7  A    between atoms: N8_25  and  O5_27 
REMARK    8  A    between atoms: C9_30  and  O6_31 
REMARK    9  A    between atoms: C10_33  and  O7_34 
ROOT
HETATM    1  C1  UNL     1      -2.838   1.217   0.629  1.00  0.00     0.223 C 
HETATM    2  N3  UNL     1      -1.497   1.639   0.820  1.00  0.00    -0.396 N 
ATOM      3  H3  UNL     1      -1.174   2.040   1.700  1.00  0.00     0.155 HD
HETATM    4  C2  UNL     1      -0.629   1.465  -0.301  1.00  0.00     0.174 C 
HETATM    5  C3  UNL     1      -0.189   0.030  -0.300  1.00  0.00     0.056 A 
HETATM    6  N4  UNL     1       1.159  -0.107  -0.293  1.00  0.00    -0.193 N 
ATOM      7  H4  UNL     1       1.763   0.715  -0.289  1.00  0.00     0.184 HD
HETATM    8  C4  UNL     1       1.685  -1.337  -0.291  1.00  0.00     0.686 A 
HETATM    9  N5  UNL     1       2.914  -1.546  -0.284  1.00  0.00    -0.158 N 
ATOM     10  H5  UNL     1       3.075  -2.553  -0.284  1.00  0.00     0.187 HD
HETATM   11  C5  UNL     1       4.111  -0.916  -0.276  1.00  0.00     0.262 C 
HETATM   12  O1  UNL     1       5.174  -1.632  -0.337  1.00  0.00    -0.270 OA
HETATM   13  N7  UNL     1       0.858  -2.443  -0.297  1.00  0.00    -0.174 N 
ATOM     14  H7  UNL     1       1.279  -3.372  -0.295  1.00  0.00     0.186 HD
HETATM   15  C7  UNL     1      -0.465  -2.340  -0.305  1.00  0.00     0.151 A 
HETATM   16  C8  UNL     1      -1.026  -1.067  -0.307  1.00  0.00     0.044 A 
HETATM   17  C9  UNL     1      -2.514  -1.088  -0.315  1.00  0.00     0.189 C 
HETATM   18  C10 UNL     1      -3.069  -0.256   0.806  1.00  0.00     0.191 C 
ENDROOT
BRANCH  11  19
HETATM   19  C6  UNL     1       4.289   0.551  -0.201  1.00  0.00     0.311 C 
BRANCH  19  20
HETATM   20  O2  UNL     1       5.685   0.894  -0.200  1.00  0.00    -0.212 OA
BRANCH  20  21
HETATM   21  N6  UNL     1       5.983   2.230  -0.133  1.00  0.00     0.005 N 
HETATM   22  O3  UNL     1       7.155   2.580   0.103  1.00  0.00    -0.511 OA
HETATM   23  O4  UNL     1       5.056   3.209  -0.313  1.00  0.00    -0.511 OA
ENDBRANCH  20  21
ENDBRANCH  19  20
ENDBRANCH  11  19
BRANCH  15  24
HETATM   24  N8  UNL     1      -1.267  -3.352  -0.311  1.00  0.00    -0.252 N 
ATOM     25  H8  UNL     1      -2.276  -3.204  -0.317  1.00  0.00     0.196 HD
BRANCH  24  26
HETATM   26  O5  UNL     1      -0.764  -4.612  -0.309  1.00  0.00    -0.288 OA
ATOM     27  H5  UNL     1      -1.354  -5.357  -0.313  1.00  0.00     0.244 HD
ENDBRANCH  24  26
ENDBRANCH  15  24
BRANCH  17  28
HETATM   28  O6  UNL     1      -2.923  -2.403  -0.111  1.00  0.00    -0.388 OA
ATOM     29  H6  UNL     1      -3.873  -2.416  -0.116  1.00  0.00     0.210 HD
ENDBRANCH  17  28
BRANCH   1  30
HETATM   30  N2  UNL     1      -3.334   1.718  -0.622  1.00  0.00    -0.120 NA
BRANCH  30  31
HETATM   31  N1  UNL     1      -3.297   3.102  -0.640  1.00  0.00    -0.346 N 
ATOM     32  H12 UNL     1      -2.961   3.672   0.136  1.00  0.00     0.172 HD
ATOM     33  H11 UNL     1      -3.649   3.458  -1.529  1.00  0.00     0.172 HD
ENDBRANCH  30  31
ENDBRANCH   1  30
BRANCH  18  34
HETATM   34  O7  UNL     1      -2.586  -0.665   2.028  1.00  0.00    -0.389 OA
ATOM     35  H7  UNL     1      -2.732  -1.597   2.140  1.00  0.00     0.210 HD
ENDBRANCH  18  34
TORSDOF 9
