REMARK  5 active torsions:
REMARK  status: ('A' for Active; 'I' for Inactive)
REMARK    1  A    between atoms: C4_4  and  C5_5 
REMARK    2  A    between atoms: C10_10  and  O1_11 
REMARK    3  A    between atoms: O1_11  and  C11_12 
REMARK    4  A    between atoms: C11_12  and  C12_13 
REMARK    5  A    between atoms: C15_16  and  C16_17 
ROOT
HETATM    1  C12 UNL     1      -0.348   0.854   1.653  1.00  0.00    -0.034 A 
HETATM    2  C13 UNL     1       0.744   0.863   2.524  1.00  0.00     0.010 A 
HETATM    3  C14 UNL     1       2.045   0.926   2.083  1.00  0.00     0.013 A 
HETATM    4  C15 UNL     1       2.335   0.984   0.712  1.00  0.00    -0.025 A 
HETATM    5  C26 UNL     1       1.252   0.975  -0.141  1.00  0.00     0.013 A 
HETATM    6  C27 UNL     1      -0.050   0.912   0.308  1.00  0.00     0.010 A 
ENDROOT
BRANCH   1   7
HETATM    7  C11 UNL     1      -1.738   0.800   2.185  1.00  0.00     0.214 C 
BRANCH   7   8
HETATM    8  O1  UNL     1      -2.637   0.345   1.243  1.00  0.00    -0.346 OA
BRANCH   8   9
HETATM    9  C10 UNL     1      -2.596  -0.904   0.691  1.00  0.00     0.080 A 
HETATM   10  C5  UNL     1      -3.558  -1.215  -0.258  1.00  0.00     0.007 A 
HETATM   11  C6  UNL     1      -3.613  -2.443  -0.876  1.00  0.00     0.015 A 
HETATM   12  C7  UNL     1      -2.669  -3.410  -0.538  1.00  0.00     0.001 A 
HETATM   13  C8  UNL     1      -1.700  -3.142   0.397  1.00  0.00     0.003 A 
HETATM   14  C9  UNL     1      -1.666  -1.885   1.012  1.00  0.00     0.037 A 
BRANCH  10  15
HETATM   15  C4  UNL     1      -4.544  -0.204  -0.615  1.00  0.00    -0.023 A 
HETATM   16  C3  UNL     1      -4.206   1.092  -0.915  1.00  0.00     0.012 A 
HETATM   17  C2  UNL     1      -5.167   2.025  -1.243  1.00  0.00     0.001 A 
HETATM   18  C1  UNL     1      -6.491   1.643  -1.270  1.00  0.00     0.000 A 
HETATM   19  C29 UNL     1      -6.848   0.358  -0.976  1.00  0.00     0.001 A 
HETATM   20  C28 UNL     1      -5.881  -0.554  -0.651  1.00  0.00     0.012 A 
ENDBRANCH  10  15
ENDBRANCH   8   9
ENDBRANCH   7   8
ENDBRANCH   1   7
BRANCH   4  21
HETATM   21  C16 UNL     1       3.710   1.098   0.252  1.00  0.00    -0.015 A 
HETATM   22  C17 UNL     1       4.438   2.209   0.697  1.00  0.00     0.013 A 
HETATM   23  C18 UNL     1       5.723   2.347   0.231  1.00  0.00     0.002 A 
HETATM   24  C19 UNL     1       6.281   1.437  -0.636  1.00  0.00     0.012 A 
HETATM   25  C20 UNL     1       5.526   0.360  -1.045  1.00  0.00    -0.025 A 
HETATM   26  C21 UNL     1       6.067  -0.573  -1.906  1.00  0.00     0.012 A 
HETATM   27  C25 UNL     1       4.232   0.175  -0.607  1.00  0.00    -0.015 A 
HETATM   28  C22 UNL     1       5.350  -1.661  -2.323  1.00  0.00     0.001 A 
HETATM   29  C23 UNL     1       4.065  -1.874  -1.905  1.00  0.00     0.001 A 
HETATM   30  C24 UNL     1       3.514  -0.933  -1.035  1.00  0.00     0.013 A 
ENDBRANCH   4  21
TORSDOF 5
