REMARK  5 active torsions:
REMARK  status: ('A' for Active; 'I' for Inactive)
REMARK    1  A    between atoms: C4_4  and  C5_5 
REMARK    2  A    between atoms: C8_8  and  C9_9 
REMARK    3  A    between atoms: C13_13  and  O1_14 
REMARK    4  A    between atoms: O1_14  and  C14_15 
REMARK    5  A    between atoms: C14_15  and  C15_16 
ROOT
HETATM    1  C9  UNL     1      -1.123   1.284   0.434  1.00  0.00    -0.023 A 
HETATM    2  C10 UNL     1      -0.860   2.531   0.966  1.00  0.00     0.012 A 
HETATM    3  C11 UNL     1       0.450   2.947   1.170  1.00  0.00     0.004 A 
HETATM    4  C12 UNL     1       1.516   2.126   0.847  1.00  0.00     0.037 A 
HETATM    5  C13 UNL     1       1.270   0.874   0.313  1.00  0.00     0.070 A 
HETATM    6  C25 UNL     1      -0.029   0.493   0.124  1.00  0.00     0.049 A 
ENDROOT
BRANCH   1   7
HETATM    7  C8  UNL     1      -2.491   0.842   0.217  1.00  0.00    -0.026 A 
HETATM    8  C7  UNL     1      -3.462   1.762  -0.102  1.00  0.00     0.013 A 
HETATM    9  C6  UNL     1      -4.781   1.395  -0.319  1.00  0.00     0.013 A 
HETATM   10  C5  UNL     1      -5.173   0.077  -0.222  1.00  0.00    -0.026 A 
HETATM   11  C27 UNL     1      -4.200  -0.861   0.101  1.00  0.00     0.013 A 
HETATM   12  C26 UNL     1      -2.891  -0.473   0.313  1.00  0.00     0.013 A 
BRANCH  10  13
HETATM   13  C4  UNL     1      -6.542  -0.354  -0.440  1.00  0.00    -0.026 A 
HETATM   14  C3  UNL     1      -6.814  -1.596  -0.954  1.00  0.00     0.012 A 
HETATM   15  C2  UNL     1      -8.141  -1.956  -1.143  1.00  0.00     0.001 A 
HETATM   16  C1  UNL     1      -9.202  -1.115  -0.834  1.00  0.00     0.000 A 
HETATM   17  C29 UNL     1      -8.905   0.125  -0.320  1.00  0.00     0.001 A 
HETATM   18  C28 UNL     1      -7.575   0.492  -0.129  1.00  0.00     0.012 A 
ENDBRANCH  10  13
ENDBRANCH   1   7
BRANCH   5  19
HETATM   19  O1  UNL     1       2.356   0.068  -0.003  1.00  0.00    -0.347 OA
BRANCH  19  20
HETATM   20  C14 UNL     1       3.688   0.467   0.195  1.00  0.00     0.215 C 
BRANCH  20  21
HETATM   21  C15 UNL     1       4.610  -0.593  -0.235  1.00  0.00    -0.023 A 
HETATM   22  C16 UNL     1       4.108  -1.768  -0.746  1.00  0.00     0.010 A 
HETATM   23  C17 UNL     1       4.929  -2.774  -1.156  1.00  0.00     0.002 A 
HETATM   24  C18 UNL     1       6.293  -2.682  -1.087  1.00  0.00     0.012 A 
HETATM   25  C19 UNL     1       6.814  -1.498  -0.571  1.00  0.00    -0.025 A 
HETATM   26  C20 UNL     1       8.182  -1.324  -0.467  1.00  0.00     0.012 A 
HETATM   27  C24 UNL     1       5.985  -0.478  -0.156  1.00  0.00    -0.018 A 
HETATM   28  C21 UNL     1       8.708  -0.154   0.042  1.00  0.00     0.001 A 
HETATM   29  C22 UNL     1       7.852   0.846   0.448  1.00  0.00     0.001 A 
HETATM   30  C23 UNL     1       6.490   0.700   0.357  1.00  0.00     0.013 A 
ENDBRANCH  20  21
ENDBRANCH  19  20
ENDBRANCH   5  19
TORSDOF 5
