REMARK  4 active torsions:
REMARK  status: ('A' for Active; 'I' for Inactive)
REMARK    1  A    between atoms: C4_4  and  C5_5 
REMARK    2  A    between atoms: C5_5  and  C6_6 
REMARK    3  A    between atoms: C9_9  and  C10_10 
REMARK    4  A    between atoms: C20_20  and  C21_21 
ROOT
HETATM    1  C6  UNL     1       2.939   0.708   1.221  1.00  0.00    -0.053 A 
HETATM    2  C7  UNL     1       3.277  -0.506   1.781  1.00  0.00     0.008 A 
HETATM    3  C8  UNL     1       2.358  -1.518   1.929  1.00  0.00     0.013 A 
HETATM    4  C9  UNL     1       1.059  -1.326   1.511  1.00  0.00    -0.015 A 
HETATM    5  C16 UNL     1       0.669  -0.134   0.946  1.00  0.00    -0.014 A 
HETATM    6  C17 UNL     1      -0.666   0.146   0.485  1.00  0.00    -0.025 A 
HETATM    7  C18 UNL     1      -0.898   0.427  -0.834  1.00  0.00     0.013 A 
HETATM    8  C19 UNL     1      -2.194   0.699  -1.273  1.00  0.00     0.013 A 
HETATM    9  C20 UNL     1      -3.252   0.691  -0.401  1.00  0.00    -0.025 A 
HETATM   10  C26 UNL     1      -3.021   0.409   0.923  1.00  0.00     0.013 A 
HETATM   11  C27 UNL     1      -1.721   0.136   1.360  1.00  0.00     0.013 A 
HETATM   12  C28 UNL     1       1.635   0.872   0.812  1.00  0.00     0.020 A 
ENDROOT
BRANCH   4  13
HETATM   13  C10 UNL     1       0.061  -2.396   1.660  1.00  0.00    -0.025 A 
HETATM   14  C11 UNL     1      -0.279  -2.877   2.920  1.00  0.00     0.012 A 
HETATM   15  C12 UNL     1      -1.208  -3.876   3.081  1.00  0.00     0.001 A 
HETATM   16  C13 UNL     1      -1.843  -4.446   2.006  1.00  0.00     0.000 A 
HETATM   17  C14 UNL     1      -1.516  -3.977   0.739  1.00  0.00     0.001 A 
HETATM   18  C15 UNL     1      -0.579  -2.970   0.582  1.00  0.00     0.012 A 
ENDBRANCH   4  13
BRANCH   1  19
HETATM   19  C5  UNL     1       3.879   1.825   1.037  1.00  0.00     0.077 C 
BRANCH  19  20
HETATM   20  C4  UNL     1       4.580   1.823  -0.241  1.00  0.00    -0.054 A 
HETATM   21  C3  UNL     1       4.042   2.459  -1.327  1.00  0.00     0.007 A 
HETATM   22  C2  UNL     1       4.702   2.467  -2.554  1.00  0.00     0.001 A 
HETATM   23  C1  UNL     1       5.913   1.810  -2.627  1.00  0.00     0.000 A 
HETATM   24  C30 UNL     1       6.494   1.155  -1.560  1.00  0.00     0.001 A 
HETATM   25  C29 UNL     1       5.787   1.185  -0.371  1.00  0.00     0.007 A 
ENDBRANCH  19  20
ENDBRANCH   1  19
BRANCH   9  26
HETATM   26  C21 UNL     1      -4.605   0.978  -0.873  1.00  0.00    -0.011 A 
HETATM   27  C22 UNL     1      -5.052   0.657  -2.136  1.00  0.00     0.015 A 
HETATM   28  C23 UNL     1      -6.351   0.947  -2.550  1.00  0.00     0.018 A 
HETATM   29  C24 UNL     1      -7.177   1.575  -1.634  1.00  0.00     0.087 A 
HETATM   30  N1  UNL     1      -6.746   1.893  -0.393  1.00  0.00    -0.374 N 
HETATM   31  C25 UNL     1      -5.490   1.610  -0.002  1.00  0.00     0.099 A 
ATOM     32  H1  UNL     1      -7.382   2.354   0.257  1.00  0.00     0.164 HD
ENDBRANCH   9  26
TORSDOF 4
