REMARK  4 active torsions:
REMARK  status: ('A' for Active; 'I' for Inactive)
REMARK    1  A    between atoms: C1_1  and  C24_26 
REMARK    2  A    between atoms: C2_2  and  C3_3 
REMARK    3  A    between atoms: C5_5  and  C6_6 
REMARK    4  A    between atoms: C7_7  and  C8_8 
ROOT
HETATM    1  C3  UNL     1       1.971  -0.824   0.269  1.00  0.00     0.033 A 
HETATM    2  C4  UNL     1       0.604  -0.597   0.206  1.00  0.00     0.042 A 
HETATM    3  C5  UNL     1      -0.336  -1.597   0.247  1.00  0.00    -0.021 A 
HETATM    4  C18 UNL     1       0.109  -2.891   0.356  1.00  0.00     0.001 A 
HETATM    5  C19 UNL     1      -0.715  -3.994   0.408  1.00  0.00     0.014 A 
HETATM    6  C20 UNL     1      -0.238  -5.301   0.518  1.00  0.00     0.001 A 
HETATM    7  C21 UNL     1       1.114  -5.518   0.579  1.00  0.00     0.002 A 
HETATM    8  C22 UNL     1       1.946  -4.431   0.529  1.00  0.00     0.030 A 
HETATM    9  C23 UNL     1       1.492  -3.135   0.420  1.00  0.00     0.043 A 
HETATM   10  N1  UNL     1       2.361  -2.098   0.374  1.00  0.00    -0.356 N 
ATOM     11  H1  UNL     1       3.360  -2.298   0.422  1.00  0.00     0.166 HD
ENDROOT
BRANCH   3  12
HETATM   12  C6  UNL     1      -1.790  -1.337   0.179  1.00  0.00     0.013 C 
HETATM   13  C7  UNL     1      -2.303  -0.134   0.075  1.00  0.00     0.013 C 
BRANCH  13  14
HETATM   14  C8  UNL     1      -3.725   0.101   0.010  1.00  0.00    -0.025 A 
HETATM   15  C9  UNL     1      -4.671  -0.900   0.050  1.00  0.00     0.012 A 
HETATM   16  C10 UNL     1      -6.022  -0.701  -0.010  1.00  0.00     0.002 A 
HETATM   17  C11 UNL     1      -6.471   0.590  -0.118  1.00  0.00     0.012 A 
HETATM   18  C12 UNL     1      -5.574   1.649  -0.164  1.00  0.00    -0.025 A 
HETATM   19  C13 UNL     1      -6.062   2.949  -0.275  1.00  0.00     0.012 A 
HETATM   20  C17 UNL     1      -4.202   1.414  -0.101  1.00  0.00    -0.016 A 
HETATM   21  C14 UNL     1      -5.227   4.039  -0.325  1.00  0.00     0.001 A 
HETATM   22  C15 UNL     1      -3.879   3.798  -0.263  1.00  0.00     0.001 A 
HETATM   23  C16 UNL     1      -3.369   2.508  -0.152  1.00  0.00     0.013 A 
ENDBRANCH  13  14
ENDBRANCH   3  12
BRANCH   1  24
HETATM   24  C2  UNL     1       2.939   0.287   0.221  1.00  0.00     0.030 C 
HETATM   25  C1  UNL     1       4.232   0.061   0.281  1.00  0.00     0.013 C 
BRANCH  25  26
HETATM   26  C24 UNL     1       5.198   1.125   0.237  1.00  0.00    -0.036 A 
HETATM   27  C25 UNL     1       4.815   2.435   0.129  1.00  0.00     0.011 A 
HETATM   28  C26 UNL     1       5.781   3.449   0.088  1.00  0.00     0.001 A 
HETATM   29  C27 UNL     1       7.101   3.141   0.155  1.00  0.00     0.000 A 
HETATM   30  C28 UNL     1       7.517   1.836   0.264  1.00  0.00     0.001 A 
HETATM   31  C29 UNL     1       6.549   0.855   0.302  1.00  0.00     0.011 A 
ENDBRANCH  25  26
ENDBRANCH   1  24
TORSDOF 4
