REMARK  5 active torsions:
REMARK  status: ('A' for Active; 'I' for Inactive)
REMARK    1  A    between atoms: N1_1  and  N2_4 
REMARK    2  A    between atoms: N2_4  and  C1_6 
REMARK    3  A    between atoms: N3_7  and  N4_9 
REMARK    4  A    between atoms: N4_9  and  N5_11 
REMARK    5  A    between atoms: N5_11  and  C2_13 
ROOT
HETATM    1  N4  UNL     1       0.831   0.643   1.220  1.00  0.00    -0.240 N 
ATOM      2  H4  UNL     1       0.656   1.436   1.838  1.00  0.00     0.208 HD
ENDROOT
BRANCH   1   3
HETATM    3  N3  UNL     1       1.870   0.681   0.435  1.00  0.00    -0.281 N 
HETATM    4  C1  UNL     1       2.739   1.185  -0.214  1.00  0.00     0.214 C 
ATOM      5  H3  UNL     1       2.050  -0.312   0.283  1.00  0.00     0.189 HD
BRANCH   4   6
HETATM    6  N2  UNL     1       3.680   0.329  -0.926  1.00  0.00    -0.301 N 
ATOM      7  H2  UNL     1       4.187   0.657  -1.748  1.00  0.00     0.187 HD
BRANCH   6   8
HETATM    8  N1  UNL     1       3.848  -0.942  -0.433  1.00  0.00    -0.344 N 
ATOM      9  H12 UNL     1       3.333  -1.255   0.390  1.00  0.00     0.176 HD
ATOM     10  H11 UNL     1       4.506  -1.541  -0.931  1.00  0.00     0.176 HD
ENDBRANCH   6   8
ENDBRANCH   4   6
ENDBRANCH   1   3
BRANCH   1  11
HETATM   11  N5  UNL     1      -0.053  -0.436   1.252  1.00  0.00    -0.271 N 
ATOM     12  H5  UNL     1       0.173  -1.297   1.750  1.00  0.00     0.190 HD
BRANCH  11  13
HETATM   13  C2  UNL     1      -1.280  -0.280   0.560  1.00  0.00     0.120 A 
HETATM   14  C3  UNL     1      -2.491  -0.675   1.080  1.00  0.00     0.050 A 
HETATM   15  C4  UNL     1      -3.678  -0.527   0.388  1.00  0.00     0.005 A 
HETATM   16  C5  UNL     1      -3.671   0.037  -0.875  1.00  0.00     0.017 A 
HETATM   17  C6  UNL     1      -2.447   0.421  -1.372  1.00  0.00     0.089 A 
HETATM   18  N6  UNL     1      -1.297   0.265  -0.673  1.00  0.00    -0.351 N 
ATOM     19  H6  UNL     1      -0.418   0.569  -1.092  1.00  0.00     0.166 HD
ENDBRANCH  11  13
ENDBRANCH   1  11
TORSDOF 5
