REMARK  6 active torsions:
REMARK  status: ('A' for Active; 'I' for Inactive)
REMARK    1  A    between atoms: N2_4  and  C1_6 
REMARK    2  A    between atoms: C1_6  and  N3_7 
REMARK    3  A    between atoms: C3_9  and  C4_10 
REMARK    4  A    between atoms: C4_10  and  N4_11 
REMARK    5  A    between atoms: C4_10  and  C5_15 
REMARK    6  A    between atoms: C5_15  and  N5_16 
ROOT
HETATM    1  N3  UNL     1      -1.912  -0.369   0.451  1.00  0.00    -0.284 N 
HETATM    2  C2  UNL     1      -0.700  -0.730  -0.004  1.00  0.00     0.122 A 
HETATM    3  C3  UNL     1       0.194   0.171   0.474  1.00  0.00     0.008 A 
HETATM    4  C6  UNL     1      -0.507   1.092   1.233  1.00  0.00     0.118 A 
HETATM    5  N6  UNL     1      -1.778   0.719   1.186  1.00  0.00    -0.308 N 
ATOM      6  H6  UNL     1      -2.544   1.204   1.652  1.00  0.00     0.186 HD
ENDROOT
BRANCH   3   7
HETATM    7  C4  UNL     1       1.657   0.245   0.280  1.00  0.00     0.244 C 
BRANCH   7   8
HETATM    8  N4  UNL     1       1.991   1.624  -0.017  1.00  0.00    -0.069 N 
ATOM      9  H43 UNL     1       1.466   1.998  -0.808  1.00  0.00     0.275 HD
ATOM     10  H42 UNL     1       1.651   2.276   0.690  1.00  0.00     0.275 HD
ATOM     11  H41 UNL     1       3.001   1.675  -0.151  1.00  0.00     0.275 HD
ENDBRANCH   7   8
BRANCH   7  12
HETATM   12  C5  UNL     1       2.138  -0.651  -0.834  1.00  0.00     0.267 C 
BRANCH  12  13
HETATM   13  N5  UNL     1       3.576  -0.519  -0.956  1.00  0.00    -0.077 N 
ATOM     14  H53 UNL     1       3.868   0.450  -1.083  1.00  0.00     0.274 HD
ATOM     15  H52 UNL     1       4.059  -0.699  -0.076  1.00  0.00     0.274 HD
ATOM     16  H51 UNL     1       3.901  -1.125  -1.709  1.00  0.00     0.274 HD
ENDBRANCH  12  13
ENDBRANCH   7  12
ENDBRANCH   3   7
BRANCH   1  17
HETATM   17  C1  UNL     1      -3.180  -1.017   0.209  1.00  0.00     0.286 C 
BRANCH  17  18
HETATM   18  N2  UNL     1      -3.729  -0.408  -0.984  1.00  0.00    -0.323 N 
HETATM   19  N1  UNL     1      -4.346   0.666  -0.953  1.00  0.00    -0.348 N 
ATOM     20  H12 UNL     1      -4.462   1.123  -0.049  1.00  0.00     0.176 HD
ATOM     21  H11 UNL     1      -4.733   1.095  -1.794  1.00  0.00     0.176 HD
ATOM     22  H2  UNL     1      -3.604  -0.879  -1.880  1.00  0.00     0.181 HD
ENDBRANCH  17  18
ENDBRANCH   1  17
TORSDOF 6
