REMARK  2 active torsions:
REMARK  status: ('A' for Active; 'I' for Inactive)
REMARK    1  A    between atoms: C4_5  and  N2_6 
REMARK    2  A    between atoms: N2_6  and  N3_8 
REMARK       I    between atoms: N3_8  and  C5_10 
REMARK       I    between atoms: C5_10  and  N4_11 
REMARK       I    between atoms: C5_10  and  N5_15 
ROOT
HETATM    1  N3  UNL     1       1.641   0.422   0.126  1.00  0.00    -0.282 N 
ATOM      2  H3  UNL     1       1.314   1.199   0.700  1.00  0.00     0.184 HD
HETATM    3  C5  UNL     1       3.025   0.399  -0.301  1.00  0.00     0.494 C 
HETATM    4  N4  UNL     1       3.596  -0.836   0.249  1.00  0.00    -0.032 N 
ATOM      5  H41 UNL     1       4.571  -0.852  -0.052  1.00  0.00     0.279 HD
ATOM      6  H42 UNL     1       3.076  -1.675  -0.009  1.00  0.00     0.279 HD
ATOM      7  H43 UNL     1       3.480  -0.924   1.259  1.00  0.00     0.279 HD
HETATM    8  N5  UNL     1       3.746   1.494   0.276  1.00  0.00    -0.032 N 
ATOM      9  H51 UNL     1       4.721   1.478  -0.025  1.00  0.00     0.279 HD
ATOM     10  H52 UNL     1       3.663   1.509   1.292  1.00  0.00     0.279 HD
ATOM     11  H53 UNL     1       3.301   2.389   0.074  1.00  0.00     0.279 HD
ENDROOT
BRANCH   1  12
HETATM   12  N2  UNL     1       0.741  -0.584  -0.222  1.00  0.00    -0.286 N 
ATOM     13  H2  UNL     1       1.079  -1.513  -0.472  1.00  0.00     0.188 HD
BRANCH  12  14
HETATM   14  C4  UNL     1      -0.515  -0.331  -0.225  1.00  0.00     0.135 A 
HETATM   15  C3  UNL     1      -1.075   0.881   0.092  1.00  0.00     0.070 A 
HETATM   16  C2  UNL     1      -2.432   0.726  -0.036  1.00  0.00     0.113 A 
HETATM   17  N1  UNL     1      -2.697  -0.532  -0.418  1.00  0.00    -0.306 N 
HETATM   18  C1  UNL     1      -4.039  -1.079  -0.660  1.00  0.00     0.177 C 
HETATM   19  N6  UNL     1      -1.546  -1.149  -0.527  1.00  0.00    -0.283 N 
ATOM     20  H6  UNL     1      -1.442  -2.125  -0.805  1.00  0.00     0.189 HD
ENDBRANCH  12  14
ENDBRANCH   1  12
TORSDOF 2
