REMARK  6 active torsions:
REMARK  status: ('A' for Active; 'I' for Inactive)
REMARK    1  A    between atoms: C2_2  and  N1_3 
REMARK    2  A    between atoms: N1_3  and  C3_6 
REMARK    3  A    between atoms: C6_9  and  C7_10 
REMARK    4  A    between atoms: C7_10  and  N2_11 
REMARK    5  A    between atoms: N2_11  and  C8_13 
REMARK    6  A    between atoms: C8_13  and  C9_14 
ROOT
HETATM    1  C3  UNL     1       3.023   0.813   0.161  1.00  0.00     0.186 C 
HETATM    2  C4  UNL     1       2.544   0.318   1.510  1.00  0.00     0.033 C 
HETATM    3  C5  UNL     1       1.207   0.978   1.664  1.00  0.00     0.008 C 
HETATM    4  C6  UNL     1       0.658   1.149   0.283  1.00  0.00     0.005 C 
HETATM    5  C14 UNL     1       1.790   0.750  -0.680  1.00  0.00     0.039 C 
ENDROOT
BRANCH   4   6
HETATM    6  C7  UNL     1      -0.498   0.128   0.128  1.00  0.00     0.123 C 
BRANCH   6   7
HETATM    7  N2  UNL     1      -1.064   0.297  -1.174  1.00  0.00    -0.401 N 
ATOM      8  H2  UNL     1      -0.760   1.044  -1.799  1.00  0.00     0.158 HD
BRANCH   7   9
HETATM    9  C8  UNL     1      -2.058  -0.618  -1.546  1.00  0.00     0.060 C 
BRANCH   9  10
HETATM   10  C9  UNL     1      -3.390  -0.636  -0.974  1.00  0.00     0.024 C 
HETATM   11  C10 UNL     1      -4.209   0.660  -1.152  1.00  0.00     0.010 C 
HETATM   12  C11 UNL     1      -5.556   0.130  -0.652  1.00  0.00     0.001 C 
HETATM   13  C12 UNL     1      -5.204  -0.832   0.459  1.00  0.00     0.001 C 
HETATM   14  C13 UNL     1      -3.643  -0.886   0.460  1.00  0.00     0.010 C 
ENDBRANCH   9  10
ENDBRANCH   7   9
ENDBRANCH   6   7
ENDBRANCH   4   6
BRANCH   1  15
HETATM   15  N1  UNL     1       4.105  -0.044  -0.331  1.00  0.00    -0.071 N 
ATOM     16  H12 UNL     1       4.331   0.123  -1.311  1.00  0.00     0.277 HD
ATOM     17  H11 UNL     1       3.829  -1.021  -0.424  1.00  0.00     0.277 HD
BRANCH  15  18
HETATM   18  C2  UNL     1       5.229   0.141   0.544  1.00  0.00     0.228 C 
HETATM   19  C1  UNL     1       6.309  -0.920   0.390  1.00  0.00     0.034 C 
ENDBRANCH  15  18
ENDBRANCH   1  15
TORSDOF 6
