REMARK  5 active torsions:
REMARK  status: ('A' for Active; 'I' for Inactive)
REMARK    1  A    between atoms: C2_2  and  C3_3 
REMARK    2  A    between atoms: C7_9  and  N2_10 
REMARK    3  A    between atoms: N2_10  and  C8_12 
REMARK    4  A    between atoms: C8_12  and  C9_13 
REMARK    5  A    between atoms: C8_12  and  C11_15 
ROOT
HETATM    1  C3  UNL     1       2.388   0.001   1.144  1.00  0.00    -0.000 C 
HETATM    2  C4  UNL     1       2.100  -0.611   0.038  1.00  0.00     0.024 C 
HETATM    3  N1  UNL     1       2.909  -1.309  -0.882  1.00  0.00    -0.392 N 
ATOM      4  H1  UNL     1       3.820  -1.711  -0.662  1.00  0.00     0.159 HD
HETATM    5  C5  UNL     1       2.273  -1.378  -2.178  1.00  0.00     0.122 C 
HETATM    6  C6  UNL     1       1.094  -0.400  -1.998  1.00  0.00     0.050 C 
HETATM    7  C7  UNL     1       0.706  -0.716  -0.573  1.00  0.00     0.128 C 
ENDROOT
BRANCH   7   8
HETATM    8  N2  UNL     1      -0.199   0.108   0.066  1.00  0.00    -0.407 N 
ATOM      9  H2  UNL     1       0.192   0.922   0.540  1.00  0.00     0.154 HD
BRANCH   8  10
HETATM   10  C8  UNL     1      -1.562  -0.036   0.140  1.00  0.00     0.081 C 
BRANCH  10  11
HETATM   11  C9  UNL     1      -2.096  -1.297   0.784  1.00  0.00     0.021 C 
HETATM   12  C10 UNL     1      -1.655  -1.458   2.224  1.00  0.00     0.007 C 
ENDBRANCH  10  11
BRANCH  10  13
HETATM   13  C11 UNL     1      -2.304   0.177  -1.150  1.00  0.00     0.012 A 
HETATM   14  C12 UNL     1      -3.798   0.072  -1.211  1.00  0.00     0.011 A 
HETATM   15  C13 UNL     1      -3.086   1.403  -1.404  1.00  0.00    -0.012 A 
HETATM   16  C14 UNL     1      -3.313   2.431  -0.315  1.00  0.00     0.010 C 
ENDBRANCH  10  13
ENDBRANCH   8  10
ENDBRANCH   7   8
BRANCH   1  17
HETATM   17  C2  UNL     1       3.804   0.046   1.642  1.00  0.00     0.025 C 
HETATM   18  C1  UNL     1       4.200   1.510   1.721  1.00  0.00     0.009 C 
ENDBRANCH   1  17
TORSDOF 5
