REMARK  6 active torsions:
REMARK  status: ('A' for Active; 'I' for Inactive)
REMARK    1  A    between atoms: C2_2  and  C3_3 
REMARK    2  A    between atoms: C2_2  and  C8_8 
REMARK    3  A    between atoms: C4_4  and  C5_5 
REMARK    4  A    between atoms: C10_10  and  O1_11 
REMARK    5  A    between atoms: C11_13  and  O2_14 
REMARK    6  A    between atoms: C12_16  and  O3_17 
ROOT
HETATM    1  C8  UNL     1      -1.036   0.409  -0.172  1.00  0.00     0.027 C 
HETATM    2  C9  UNL     1      -2.127   1.232   0.488  1.00  0.00     0.042 C 
HETATM    3  C10 UNL     1      -3.234   0.295   0.850  1.00  0.00     0.149 C 
HETATM    4  C11 UNL     1      -2.942  -0.941   0.032  1.00  0.00     0.176 C 
HETATM    5  C12 UNL     1      -1.416  -1.010   0.162  1.00  0.00     0.154 C 
ENDROOT
BRANCH   1   6
HETATM    6  C2  UNL     1       0.271   0.822   0.428  1.00  0.00     0.010 C 
HETATM    7  C1  UNL     1       0.463   2.306   0.154  1.00  0.00     0.015 C 
BRANCH   6   8
HETATM    8  C3  UNL     1       1.419   0.019  -0.001  1.00  0.00    -0.026 C 
HETATM    9  C4  UNL     1       2.454   0.531  -0.623  1.00  0.00    -0.026 C 
BRANCH   9  10
HETATM   10  C5  UNL     1       3.635  -0.226  -1.077  1.00  0.00     0.008 A 
HETATM   11  C6  UNL     1       4.526  -0.787   0.052  1.00  0.00     0.009 A 
HETATM   12  C7  UNL     1       3.710  -1.698  -0.836  1.00  0.00     0.009 A 
ENDBRANCH   9  10
ENDBRANCH   6   8
ENDBRANCH   1   6
BRANCH   5  13
HETATM   13  O3  UNL     1      -0.963  -1.936  -0.743  1.00  0.00    -0.393 OA
ATOM     14  H3  UNL     1      -1.203  -2.831  -0.532  1.00  0.00     0.210 HD
ENDBRANCH   5  13
BRANCH   3  15
HETATM   15  O1  UNL     1      -4.493   0.812   0.617  1.00  0.00    -0.393 OA
ATOM     16  H1  UNL     1      -5.197   0.217   0.847  1.00  0.00     0.210 HD
ENDBRANCH   3  15
BRANCH   4  17
HETATM   17  O2  UNL     1      -3.561  -2.040   0.578  1.00  0.00    -0.390 OA
ATOM     18  H2  UNL     1      -3.377  -2.817   0.064  1.00  0.00     0.210 HD
ENDBRANCH   4  17
TORSDOF 6
