REMARK  6 active torsions:
REMARK  status: ('A' for Active; 'I' for Inactive)
REMARK    1  A    between atoms: C2_2  and  C4_4 
REMARK    2  A    between atoms: C4_4  and  C5_5 
REMARK    3  A    between atoms: C5_5  and  O1_6 
REMARK    4  A    between atoms: C5_5  and  C6_8 
REMARK    5  A    between atoms: C9_11  and  O2_12 
REMARK    6  A    between atoms: C12_16  and  O3_17 
ROOT
HETATM    1  C4  UNL     1      -0.324   0.088   0.171  1.00  0.00     0.047 C 
HETATM    2  C9  UNL     1      -0.349   0.014   1.635  1.00  0.00     0.155 C 
HETATM    3  C10 UNL     1      -0.577  -1.444   1.968  1.00  0.00     0.004 C 
HETATM    4  C11 UNL     1      -0.940  -2.126   0.917  1.00  0.00     0.004 C 
HETATM    5  C12 UNL     1      -1.001  -1.218  -0.250  1.00  0.00     0.155 C 
ENDROOT
BRANCH   1   6
HETATM    6  C2  UNL     1      -1.396   1.149  -0.193  1.00  0.00    -0.006 C 
HETATM    7  C1  UNL     1      -1.762   1.156  -1.632  1.00  0.00     0.010 C 
HETATM    8  C3  UNL     1      -1.149   2.489   0.392  1.00  0.00     0.010 C 
ENDBRANCH   1   6
BRANCH   1   9
HETATM    9  C5  UNL     1       0.853   0.388  -0.598  1.00  0.00     0.136 C 
BRANCH   9  10
HETATM   10  O1  UNL     1       1.221   1.733  -0.219  1.00  0.00    -0.394 OA
ATOM     11  H1  UNL     1       1.999   1.931  -0.727  1.00  0.00     0.210 HD
ENDBRANCH   9  10
BRANCH   9  12
HETATM   12  C6  UNL     1       2.112  -0.313  -0.717  1.00  0.00     0.015 A 
HETATM   13  C7  UNL     1       3.093  -0.646   0.309  1.00  0.00     0.007 A 
HETATM   14  C8  UNL     1       2.457  -1.735  -0.603  1.00  0.00     0.007 A 
ENDBRANCH   9  12
ENDBRANCH   1   9
BRANCH   2  15
HETATM   15  O2  UNL     1      -1.493   0.623   2.228  1.00  0.00    -0.391 OA
ATOM     16  H2  UNL     1      -1.509   0.575   3.177  1.00  0.00     0.210 HD
ENDBRANCH   2  15
BRANCH   5  17
HETATM   17  O3  UNL     1      -0.520  -1.747  -1.416  1.00  0.00    -0.391 OA
ATOM     18  H3  UNL     1      -0.940  -2.558  -1.677  1.00  0.00     0.210 HD
ENDBRANCH   5  17
TORSDOF 6
