REMARK  13 active torsions:
REMARK  status: ('A' for Active; 'I' for Inactive)
REMARK    1  A    between atoms: C4_4  and  N1_5 
REMARK       I    between atoms: N1_5  and  C5_7 
REMARK    2  A    between atoms: C5_7  and  C6_9 
REMARK    3  A    between atoms: C6_9  and  S1_10 
REMARK    4  A    between atoms: S1_10  and  C7_11 
REMARK    5  A    between atoms: C8_16  and  N4_17 
REMARK       I    between atoms: N4_17  and  C9_19 
REMARK    6  A    between atoms: C9_19  and  C10_21 
REMARK    7  A    between atoms: C10_21  and  C11_22 
REMARK    8  A    between atoms: C11_22  and  C12_23 
REMARK    9  A    between atoms: C12_23  and  C13_24 
REMARK   10  A    between atoms: C13_24  and  C14_25 
REMARK   11  A    between atoms: C14_25  and  N5_26 
REMARK   12  A    between atoms: C16_29  and  C17_30 
REMARK   13  A    between atoms: C17_30  and  C18_31 
ROOT
HETATM    1  N4  UNL     1       1.015   0.900   0.087  1.00  0.00    -0.306 N 
ATOM      2  H4  UNL     1       0.969   0.695   1.085  1.00  0.00     0.171 HD
HETATM    3  C9  UNL     1      -0.035   1.595  -0.607  1.00  0.00     0.223 C 
HETATM    4  O2  UNL     1      -0.810   0.919  -1.291  1.00  0.00    -0.273 OA
ENDROOT
BRANCH   1   5
HETATM    5  C8  UNL     1       2.038   0.548  -0.658  1.00  0.00     0.168 A 
HETATM    6  N3  UNL     1       2.250   0.739  -1.962  1.00  0.00    -0.278 N 
HETATM    7  N2  UNL     1       3.327   0.308  -2.478  1.00  0.00    -0.286 N 
ATOM      8  H3  UNL     1       1.558   1.223  -2.534  1.00  0.00     0.189 HD
HETATM    9  C7  UNL     1       4.221  -0.319  -1.730  1.00  0.00     0.130 A 
ATOM     10  H2  UNL     1       3.504   0.445  -3.473  1.00  0.00     0.188 HD
HETATM   11  S3  UNL     1       3.470  -0.287  -0.198  1.00  0.00    -0.026 SA
BRANCH   9  12
HETATM   12  S1  UNL     1       5.808  -1.010  -2.254  1.00  0.00    -0.094 SA
BRANCH  12  13
HETATM   13  C6  UNL     1       6.580  -1.740  -0.770  1.00  0.00     0.184 C 
BRANCH  13  14
HETATM   14  C5  UNL     1       6.925  -0.697   0.212  1.00  0.00     0.232 C 
HETATM   15  N1  UNL     1       7.531  -1.049   1.433  1.00  0.00    -0.311 N 
ATOM     16  H1  UNL     1       6.964  -1.165   2.273  1.00  0.00     0.170 HD
HETATM   17  O1  UNL     1       6.679   0.498  -0.040  1.00  0.00    -0.272 OA
BRANCH  15  18
HETATM   18  C4  UNL     1       8.812  -1.224   1.483  1.00  0.00     0.130 A 
HETATM   19  C3  UNL     1       9.732  -1.106   0.435  1.00  0.00     0.084 A 
HETATM   20  C2  UNL     1      10.994  -1.384   0.955  1.00  0.00     0.076 A 
HETATM   21  C1  UNL     1      12.295  -1.391   0.249  1.00  0.00     0.079 C 
HETATM   22  O5  UNL     1      10.805  -1.642   2.212  1.00  0.00    -0.241 OA
HETATM   23  N7  UNL     1       9.559  -1.559   2.550  1.00  0.00    -0.245 N 
ATOM     24  H7  UNL     1       9.196  -1.724   3.489  1.00  0.00     0.196 HD
ENDBRANCH  15  18
ENDBRANCH  13  14
ENDBRANCH  12  13
ENDBRANCH   9  12
ENDBRANCH   1   5
BRANCH   3  25
HETATM   25  C10 UNL     1      -0.099   3.059  -0.449  1.00  0.00     0.103 C 
BRANCH  25  26
HETATM   26  C11 UNL     1      -1.366   3.700  -0.935  1.00  0.00     0.009 C 
BRANCH  26  27
HETATM   27  C12 UNL     1      -2.526   3.176  -0.127  1.00  0.00     0.002 C 
BRANCH  27  28
HETATM   28  C13 UNL     1      -3.835   3.798  -0.567  1.00  0.00     0.020 C 
BRANCH  28  29
HETATM   29  C14 UNL     1      -4.997   3.297   0.245  1.00  0.00     0.137 C 
BRANCH  29  30
HETATM   30  N5  UNL     1      -5.165   1.870   0.155  1.00  0.00    -0.268 N 
HETATM   31  C15 UNL     1      -5.930   1.135  -0.825  1.00  0.00     0.251 C 
HETATM   32  O3  UNL     1      -6.175   1.487  -1.990  1.00  0.00    -0.271 OA
HETATM   33  C16 UNL     1      -6.366  -0.150  -0.130  1.00  0.00     0.185 C 
HETATM   34  N6  UNL     1      -5.096  -0.445   0.529  1.00  0.00    -0.324 N 
HETATM   35  C22 UNL     1      -4.364  -1.672   0.699  1.00  0.00     0.155 C 
HETATM   36  C23 UNL     1      -4.642   0.843   1.013  1.00  0.00     0.327 C 
HETATM   37  O4  UNL     1      -3.909   1.029   2.023  1.00  0.00    -0.247 OA
BRANCH  33  38
HETATM   38  C17 UNL     1      -6.798  -1.160  -1.123  1.00  0.00     0.081 C 
BRANCH  38  39
HETATM   39  C18 UNL     1      -7.306  -2.441  -0.510  1.00  0.00    -0.015 A 
HETATM   40  C19 UNL     1      -7.524  -2.730   0.810  1.00  0.00     0.015 A 
HETATM   41  C20 UNL     1      -7.980  -3.958   1.109  1.00  0.00     0.008 A 
HETATM   42  C21 UNL     1      -8.191  -4.820   0.068  1.00  0.00     0.050 A 
HETATM   43  S2  UNL     1      -7.747  -3.894  -1.292  1.00  0.00    -0.106 SA
ENDBRANCH  38  39
ENDBRANCH  33  38
ENDBRANCH  29  30
ENDBRANCH  28  29
ENDBRANCH  27  28
ENDBRANCH  26  27
ENDBRANCH  25  26
ENDBRANCH   3  25
TORSDOF 13
