REMARK  12 active torsions:
REMARK  status: ('A' for Active; 'I' for Inactive)
REMARK    1  A    between atoms: C2_2  and  C3_3 
REMARK    2  A    between atoms: C3_3  and  C4_4 
REMARK    3  A    between atoms: C4_4  and  C5_5 
REMARK    4  A    between atoms: C5_5  and  N1_6 
REMARK    5  A    between atoms: C7_8  and  C8_9 
REMARK    6  A    between atoms: C7_8  and  N3_12 
REMARK    7  A    between atoms: C11_14  and  C12_15 
REMARK    8  A    between atoms: C12_15  and  N4_16 
REMARK       I    between atoms: N4_16  and  C13_18 
REMARK    9  A    between atoms: C13_18  and  C14_20 
REMARK   10  A    between atoms: C14_20  and  C15_21 
REMARK   11  A    between atoms: C14_20  and  N5_23 
REMARK   12  A    between atoms: N6_26  and  C19_27 
ROOT
HETATM    1  C8  UNL     1      -0.440  -0.488  -1.598  1.00  0.00     0.181 C 
HETATM    2  C9  UNL     1      -1.302  -0.985  -2.691  1.00  0.00     0.063 C 
HETATM    3  N2  UNL     1      -1.969  -1.392  -3.547  1.00  0.00    -0.197 NA
ENDROOT
BRANCH   1   4
HETATM    4  C7  UNL     1      -1.268  -0.584  -0.328  1.00  0.00     0.159 A 
HETATM    5  C6  UNL     1      -2.508   0.240  -0.421  1.00  0.00     0.185 A 
HETATM    6  N1  UNL     1      -3.617  -0.678  -0.285  1.00  0.00    -0.320 N 
HETATM    7  C24 UNL     1      -3.095  -1.980  -0.168  1.00  0.00     0.323 A 
HETATM    8  N10 UNL     1      -1.661  -1.945  -0.167  1.00  0.00    -0.307 N 
HETATM    9  O2  UNL     1      -3.677  -3.114  -0.070  1.00  0.00    -0.247 OA
HETATM   10  C23 UNL     1      -0.729  -3.049  -0.030  1.00  0.00     0.157 C 
BRANCH   6  11
HETATM   11  C5  UNL     1      -5.049  -0.368  -0.268  1.00  0.00     0.037 C 
HETATM   12  C25 UNL     1      -5.277   1.125  -0.231  1.00  0.00     0.031 C 
HETATM   13  C26 UNL     1      -5.775   1.692  -1.527  1.00  0.00     0.002 C 
HETATM   14  C27 UNL     1      -7.276   1.591  -1.666  1.00  0.00     0.000 C 
HETATM   15  C28 UNL     1      -7.739   0.277  -2.179  1.00  0.00     0.000 C 
HETATM   16  C29 UNL     1      -7.199  -0.929  -1.468  1.00  0.00     0.002 C 
HETATM   17  C30 UNL     1      -5.715  -1.033  -1.419  1.00  0.00     0.031 C 
BRANCH  11  18
HETATM   18  C4  UNL     1      -5.593  -0.898   1.041  1.00  0.00     0.031 C 
BRANCH  18  19
HETATM   19  C3  UNL     1      -4.886  -0.233   2.229  1.00  0.00     0.002 C 
BRANCH  19  20
HETATM   20  C2  UNL     1      -5.495  -0.822   3.501  1.00  0.00    -0.004 C 
HETATM   21  C1  UNL     1      -6.962  -0.552   3.575  1.00  0.00     0.005 C 
ENDBRANCH  19  20
ENDBRANCH  18  19
ENDBRANCH  11  18
ENDBRANCH   6  11
BRANCH   4  22
HETATM   22  N3  UNL     1      -0.461  -0.216   0.837  1.00  0.00    -0.255 N 
HETATM   23  C10 UNL     1       0.795   0.228   0.767  1.00  0.00     0.143 A 
HETATM   24  C11 UNL     1       1.254   0.485   2.038  1.00  0.00     0.062 A 
HETATM   25  N8  UNL     1       0.211   0.170   2.856  1.00  0.00    -0.287 N 
HETATM   26  N9  UNL     1      -0.793  -0.244   2.103  1.00  0.00    -0.238 N 
ATOM     27  H8  UNL     1       0.206   0.241   3.873  1.00  0.00     0.188 HD
ATOM     28  H9  UNL     1      -1.701  -0.544   2.459  1.00  0.00     0.208 HD
BRANCH  24  29
HETATM   29  C12 UNL     1       2.568   0.986   2.505  1.00  0.00     0.182 C 
BRANCH  29  30
HETATM   30  N4  UNL     1       3.587   1.024   1.514  1.00  0.00    -0.354 N 
HETATM   31  C13 UNL     1       3.659   1.999   0.494  1.00  0.00     0.240 C 
HETATM   32  O1  UNL     1       2.734   2.883   0.494  1.00  0.00    -0.271 OA
ATOM     33  H4  UNL     1       4.309   0.304   1.541  1.00  0.00     0.162 HD
BRANCH  31  34
HETATM   34  C14 UNL     1       4.691   2.093  -0.557  1.00  0.00     0.175 C 
BRANCH  34  35
HETATM   35  C15 UNL     1       5.364   3.459  -0.545  1.00  0.00     0.030 C 
HETATM   36  C16 UNL     1       6.047   3.764   0.763  1.00  0.00     0.007 C 
ENDBRANCH  34  35
BRANCH  34  37
HETATM   37  N5  UNL     1       5.582   1.003  -0.671  1.00  0.00    -0.377 N 
HETATM   38  C17 UNL     1       5.036  -0.242  -1.065  1.00  0.00     0.143 C 
HETATM   39  C18 UNL     1       5.787  -1.443  -0.549  1.00  0.00     0.144 C 
HETATM   40  N6  UNL     1       7.201  -1.194  -0.697  1.00  0.00    -0.365 N 
HETATM   41  C21 UNL     1       7.610  -0.030  -1.434  1.00  0.00     0.168 C 
HETATM   42  C22 UNL     1       6.943   1.252  -0.934  1.00  0.00     0.079 C 
BRANCH  40  43
HETATM   43  C19 UNL     1       8.194  -2.040  -0.158  1.00  0.00     0.069 C 
HETATM   44  C20 UNL     1       9.610  -1.911  -0.566  1.00  0.00     0.088 C 
HETATM   45  N7  UNL     1       7.872  -2.935   0.697  1.00  0.00    -0.389 N 
ATOM     46  H72 UNL     1       6.896  -3.024   0.978  1.00  0.00     0.157 HD
ATOM     47  H71 UNL     1       8.590  -3.546   1.087  1.00  0.00     0.157 HD
ENDBRANCH  40  43
ENDBRANCH  34  37
ENDBRANCH  31  34
ENDBRANCH  29  30
ENDBRANCH  24  29
ENDBRANCH   4  22
ENDBRANCH   1   4
TORSDOF 12
