REMARK  16 active torsions:
REMARK  status: ('A' for Active; 'I' for Inactive)
REMARK    1  A    between atoms: C2_2  and  C3_3 
REMARK    2  A    between atoms: C3_3  and  C4_4 
REMARK    3  A    between atoms: C3_3  and  C7_10 
REMARK    4  A    between atoms: C4_4  and  O2_6 
REMARK    5  A    between atoms: O2_6  and  C5_7 
REMARK    6  A    between atoms: C7_10  and  C8_11 
REMARK    7  A    between atoms: C7_10  and  C29_40 
REMARK       I    between atoms: C8_11  and  N1_13 
REMARK    8  A    between atoms: N1_13  and  C9_15 
REMARK    9  A    between atoms: C9_15  and  C10_16 
REMARK   10  A    between atoms: C9_15  and  C24_32 
REMARK   11  A    between atoms: C10_16  and  C11_17 
REMARK   12  A    between atoms: C11_17  and  O5_19 
REMARK   13  A    between atoms: O5_19  and  C13_20 
REMARK   14  A    between atoms: C13_20  and  C14_22 
REMARK       I    between atoms: C24_32  and  N2_34 
REMARK   15  A    between atoms: N2_34  and  C25_36 
REMARK   16  A    between atoms: C29_40  and  O9_42 
ROOT
HETATM    1  C9  UNL     1      -0.785  -2.372  -0.004  1.00  0.00     0.179 C 
ENDROOT
BRANCH   1   2
HETATM    2  N1  UNL     1      -0.738  -0.922   0.146  1.00  0.00    -0.347 N 
HETATM    3  C8  UNL     1      -1.431  -0.230   1.134  1.00  0.00     0.233 C 
HETATM    4  O4  UNL     1      -2.136  -0.894   1.944  1.00  0.00    -0.273 OA
ATOM      5  H1  UNL     1      -0.167  -0.387  -0.508  1.00  0.00     0.163 HD
BRANCH   3   6
HETATM    6  C7  UNL     1      -1.405   1.229   1.307  1.00  0.00     0.194 C 
BRANCH   6   7
HETATM    7  C3  UNL     1      -2.633   1.944   0.810  1.00  0.00     0.130 C 
BRANCH   7   8
HETATM    8  C2  UNL     1      -2.493   3.423   1.078  1.00  0.00    -0.021 C 
HETATM    9  C1  UNL     1      -3.340   4.110   1.816  1.00  0.00     0.008 C 
ENDBRANCH   7   8
BRANCH   7  10
HETATM   10  C4  UNL     1      -2.887   1.839  -0.635  1.00  0.00     0.275 C 
HETATM   11  O1  UNL     1      -2.092   1.321  -1.435  1.00  0.00    -0.264 OA
BRANCH  10  12
HETATM   12  O2  UNL     1      -4.073   2.341  -1.167  1.00  0.00    -0.245 OA
BRANCH  12  13
HETATM   13  C5  UNL     1      -4.340   2.264  -2.531  1.00  0.00     0.262 C 
HETATM   14  C6  UNL     1      -5.578   2.781  -3.158  1.00  0.00     0.126 C 
HETATM   15  O3  UNL     1      -3.466   1.718  -3.274  1.00  0.00    -0.265 OA
ENDBRANCH  12  13
ENDBRANCH  10  12
ENDBRANCH   7  10
ENDBRANCH   6   7
BRANCH   6  16
HETATM   16  C29 UNL     1      -1.202   1.608   2.737  1.00  0.00     0.272 C 
HETATM   17  O8  UNL     1      -1.349   0.716   3.602  1.00  0.00    -0.264 OA
BRANCH  16  18
HETATM   18  O9  UNL     1      -0.866   2.879   3.140  1.00  0.00    -0.326 OA
HETATM   19  C30 UNL     1      -0.667   3.246   4.504  1.00  0.00     0.213 C 
ENDBRANCH  16  18
ENDBRANCH   6  16
ENDBRANCH   3   6
ENDBRANCH   1   2
BRANCH   1  20
HETATM   20  C10 UNL     1       0.570  -2.948  -0.233  1.00  0.00     0.067 C 
BRANCH  20  21
HETATM   21  C11 UNL     1       1.574  -2.692   0.868  1.00  0.00     0.130 C 
HETATM   22  C12 UNL     1       1.168  -3.235   2.184  1.00  0.00     0.040 C 
BRANCH  21  23
HETATM   23  O5  UNL     1       1.939  -1.345   0.828  1.00  0.00    -0.316 OA
BRANCH  23  24
HETATM   24  C13 UNL     1       3.169  -0.869   0.451  1.00  0.00     0.268 C 
HETATM   25  O6  UNL     1       4.002  -1.779   0.122  1.00  0.00    -0.264 OA
BRANCH  24  26
HETATM   26  C14 UNL     1       3.560   0.545   0.410  1.00  0.00     0.049 C 
HETATM   27  C15 UNL     1       2.684   1.365  -0.504  1.00  0.00     0.024 C 
HETATM   28  C16 UNL     1       3.091   2.803  -0.400  1.00  0.00    -0.013 C 
HETATM   29  C17 UNL     1       3.030   3.353   0.996  1.00  0.00     0.009 C 
HETATM   30  C21 UNL     1       4.520   2.950  -0.897  1.00  0.00     0.009 C 
HETATM   31  C18 UNL     1       3.939   2.535   1.895  1.00  0.00    -0.013 C 
HETATM   32  C19 UNL     1       5.365   2.600   1.436  1.00  0.00     0.009 C 
HETATM   33  C23 UNL     1       3.457   1.105   1.807  1.00  0.00     0.024 C 
HETATM   34  C20 UNL     1       5.413   2.147  -0.009  1.00  0.00    -0.013 C 
HETATM   35  C22 UNL     1       4.995   0.707  -0.050  1.00  0.00     0.024 C 
ENDBRANCH  24  26
ENDBRANCH  23  24
ENDBRANCH  21  23
ENDBRANCH  20  21
ENDBRANCH   1  20
BRANCH   1  36
HETATM   36  C24 UNL     1      -1.634  -2.794  -1.168  1.00  0.00     0.241 C 
HETATM   37  O7  UNL     1      -2.215  -2.012  -1.933  1.00  0.00    -0.271 OA
HETATM   38  N2  UNL     1      -1.789  -4.179  -1.415  1.00  0.00    -0.351 N 
ATOM     39  H2  UNL     1      -1.318  -4.841  -0.799  1.00  0.00     0.163 HD
BRANCH  38  40
HETATM   40  C25 UNL     1      -2.590  -4.695  -2.509  1.00  0.00     0.022 C 
HETATM   41  C26 UNL     1      -4.026  -4.264  -2.414  1.00  0.00     0.037 C 
HETATM   42  C27 UNL     1      -2.573  -6.221  -2.481  1.00  0.00     0.037 C 
HETATM   43  C28 UNL     1      -2.063  -4.289  -3.870  1.00  0.00     0.037 C 
ENDBRANCH  38  40
ENDBRANCH   1  36
TORSDOF 16
