REMARK  16 active torsions:
REMARK  status: ('A' for Active; 'I' for Inactive)
REMARK    1  A    between atoms: C4_4  and  C5_5 
REMARK    2  A    between atoms: C5_5  and  C6_6 
REMARK    3  A    between atoms: C6_6  and  C7_7 
REMARK    4  A    between atoms: C7_7  and  O1_8 
REMARK    5  A    between atoms: C13_16  and  C14_17 
REMARK    6  A    between atoms: N1_19  and  C16_20 
REMARK    7  A    between atoms: C16_20  and  C17_21 
REMARK    8  A    between atoms: C21_29  and  N4_30 
REMARK    9  A    between atoms: N4_30  and  C22_32 
REMARK   10  A    between atoms: C22_32  and  C23_33 
REMARK   11  A    between atoms: C23_33  and  C24_34 
REMARK   12  A    between atoms: C24_34  and  N5_35 
REMARK   13  A    between atoms: N5_35  and  C27_38 
REMARK   14  A    between atoms: C27_38  and  C28_39 
REMARK   15  A    between atoms: C29_40  and  C30_41 
REMARK   16  A    between atoms: C30_41  and  O3_42 
ROOT
HETATM    1  C17 UNL     1       1.972  -4.620  -1.056  1.00  0.00     0.144 C 
HETATM    2  C18 UNL     1       2.885  -3.885  -1.917  1.00  0.00     0.060 C 
HETATM    3  N2  UNL     1       3.615  -3.304  -2.628  1.00  0.00    -0.197 NA
ENDROOT
BRANCH   1   4
HETATM    4  C16 UNL     1       1.650  -3.844   0.209  1.00  0.00     0.146 C 
BRANCH   4   5
HETATM    5  N1  UNL     1       1.034  -2.561  -0.154  1.00  0.00    -0.318 N 
HETATM    6  C15 UNL     1       1.784  -1.471  -0.355  1.00  0.00     0.127 A 
HETATM    7  C14 UNL     1       1.264  -0.217  -0.689  1.00  0.00     0.092 A 
HETATM    8  N7  UNL     1      -0.064  -0.116  -0.816  1.00  0.00    -0.217 N 
HETATM    9  C20 UNL     1      -0.869  -1.205  -0.619  1.00  0.00     0.212 A 
HETATM   10  N6  UNL     1      -0.810   0.891  -1.164  1.00  0.00    -0.123 N 
HETATM   11  C19 UNL     1      -0.294  -2.431  -0.285  1.00  0.00     0.294 A 
HETATM   12  N3  UNL     1      -2.134  -0.829  -0.852  1.00  0.00    -0.168 N 
HETATM   13  O2  UNL     1      -1.072  -3.398  -0.113  1.00  0.00    -0.264 OA
HETATM   14  C21 UNL     1      -2.124   0.459  -1.191  1.00  0.00     0.698 A 
ATOM     15  H3  UNL     1      -2.959  -1.424  -0.782  1.00  0.00     0.186 HD
ATOM     16  H6  UNL     1      -0.484   1.833  -1.379  1.00  0.00     0.206 HD
BRANCH   7  17
HETATM   17  C13 UNL     1       2.221   0.872  -0.950  1.00  0.00     0.041 A 
HETATM   18  C2  UNL     1       2.347   2.139  -0.478  1.00  0.00    -0.042 A 
HETATM   19  C1  UNL     1       1.358   2.739   0.527  1.00  0.00     0.049 C 
HETATM   20  C3  UNL     1       3.434   2.846  -0.848  1.00  0.00     0.022 A 
HETATM   21  C4  UNL     1       4.339   2.248  -1.667  1.00  0.00    -0.016 A 
HETATM   22  S1  UNL     1       3.670   0.711  -1.914  1.00  0.00    -0.092 SA
BRANCH  21  23
HETATM   23  C5  UNL     1       5.625   2.763  -2.243  1.00  0.00     0.053 C 
BRANCH  23  24
HETATM   24  C6  UNL     1       6.756   2.421  -1.295  1.00  0.00     0.069 C 
BRANCH  24  25
HETATM   25  C7  UNL     1       6.856   0.954  -1.086  1.00  0.00     0.046 C 
HETATM   26  C8  UNL     1       6.750   0.369   0.109  1.00  0.00    -0.051 C 
HETATM   27  C9  UNL     1       6.523   1.036   1.415  1.00  0.00     0.037 C 
HETATM   28  C12 UNL     1       6.808  -1.081   0.414  1.00  0.00     0.037 C 
HETATM   29  C10 UNL     1       7.435   0.227   2.336  1.00  0.00     0.005 C 
HETATM   30  C11 UNL     1       7.250  -1.177   1.835  1.00  0.00     0.005 C 
BRANCH  25  31
HETATM   31  O1  UNL     1       7.075   0.107  -2.172  1.00  0.00    -0.365 OA
ATOM     32  H1  UNL     1       7.139  -0.831  -2.038  1.00  0.00     0.217 HD
ENDBRANCH  25  31
ENDBRANCH  24  25
ENDBRANCH  23  24
ENDBRANCH  21  23
ENDBRANCH   7  17
BRANCH  14  33
HETATM   33  N4  UNL     1      -3.058   1.256  -1.497  1.00  0.00    -0.204 N 
ATOM     34  H4  UNL     1      -2.700   2.187  -1.710  1.00  0.00     0.183 HD
BRANCH  33  35
HETATM   35  C22 UNL     1      -4.433   1.201  -1.620  1.00  0.00     0.080 C 
BRANCH  35  36
HETATM   36  C23 UNL     1      -5.239   0.206  -0.853  1.00  0.00     0.073 C 
BRANCH  36  37
HETATM   37  C24 UNL     1      -5.128   0.376   0.614  1.00  0.00     0.242 C 
BRANCH  37  38
HETATM   38  N5  UNL     1      -5.947  -0.571   1.357  1.00  0.00    -0.065 N 
HETATM   39  C25 UNL     1      -5.130  -1.725   1.650  1.00  0.00     0.273 C 
HETATM   40  C26 UNL     1      -6.377   0.003   2.622  1.00  0.00     0.273 C 
BRANCH  38  41
HETATM   41  C27 UNL     1      -7.133  -0.980   0.630  1.00  0.00     0.330 C 
BRANCH  41  42
HETATM   42  C28 UNL     1      -8.191   0.033   0.686  1.00  0.00    -0.076 C 
HETATM   43  C29 UNL     1      -9.060   0.870   0.762  1.00  0.00    -0.079 C 
BRANCH  43  44
HETATM   44  C30 UNL     1     -10.126   1.886   0.878  1.00  0.00     0.257 C 
BRANCH  44  45
HETATM   45  O3  UNL     1     -10.328   2.237   2.216  1.00  0.00    -0.389 OA
ATOM     46  H3  UNL     1     -11.014   2.890   2.291  1.00  0.00     0.210 HD
ENDBRANCH  44  45
ENDBRANCH  43  44
ENDBRANCH  41  42
ENDBRANCH  38  41
ENDBRANCH  37  38
ENDBRANCH  36  37
ENDBRANCH  35  36
ENDBRANCH  33  35
ENDBRANCH  14  33
ENDBRANCH   4   5
ENDBRANCH   1   4
TORSDOF 16
