REMARK  12 active torsions:
REMARK  status: ('A' for Active; 'I' for Inactive)
REMARK    1  A    between atoms: N1_1  and  C1_5 
REMARK    2  A    between atoms: C1_5  and  C2_6 
REMARK    3  A    between atoms: C3_8  and  O2_9 
REMARK    4  A    between atoms: O2_9  and  C4_10 
REMARK    5  A    between atoms: C6_12  and  N2_13 
REMARK    6  A    between atoms: C9_19  and  N3_20 
REMARK    7  A    between atoms: C10_24  and  N4_25 
REMARK    8  A    between atoms: N4_25  and  C11_27 
REMARK    9  A    between atoms: C11_27  and  C12_28 
REMARK   10  A    between atoms: C17_33  and  S1_34 
REMARK   11  A    between atoms: S1_34  and  N5_35 
REMARK   12  A    between atoms: C19_42  and  O6_43 
ROOT
HETATM    1  C2  UNL     1      -1.034   2.941   0.070  1.00  0.00     0.181 C 
HETATM    2  O1  UNL     1      -1.449   1.853  -0.613  1.00  0.00    -0.344 OA
HETATM    3  C3  UNL     1      -0.612   0.702  -0.153  1.00  0.00     0.336 C 
HETATM    4  C10 UNL     1       0.663   0.856  -0.773  1.00  0.00     0.171 C 
HETATM    5  O5  UNL     1       0.644   1.906  -1.770  1.00  0.00    -0.333 OA
HETATM    6  C18 UNL     1       1.127   3.072  -1.179  1.00  0.00     0.211 C 
HETATM    7  C19 UNL     1      -0.007   3.826  -0.530  1.00  0.00     0.173 C 
ENDROOT
BRANCH   3   8
HETATM    8  O2  UNL     1      -1.426  -0.362  -0.592  1.00  0.00    -0.346 OA
BRANCH   8   9
HETATM    9  C4  UNL     1      -2.316  -0.802   0.379  1.00  0.00     0.157 C 
HETATM   10  C5  UNL     1      -3.697  -0.377  -0.037  1.00  0.00     0.067 C 
HETATM   11  C6  UNL     1      -4.723  -1.437  -0.145  1.00  0.00     0.186 C 
HETATM   12  C7  UNL     1      -4.156  -2.733  -0.616  1.00  0.00     0.035 C 
HETATM   13  C8  UNL     1      -3.130  -3.200   0.360  1.00  0.00     0.037 C 
HETATM   14  C9  UNL     1      -2.134  -2.192   0.800  1.00  0.00     0.212 C 
BRANCH  11  15
HETATM   15  N2  UNL     1      -5.503  -1.569   1.076  1.00  0.00    -0.075 N 
ATOM     16  H23 UNL     1      -4.900  -1.719   1.885  1.00  0.00     0.274 HD
ATOM     17  H22 UNL     1      -5.919  -0.678   1.347  1.00  0.00     0.274 HD
ATOM     18  H21 UNL     1      -6.211  -2.300   1.002  1.00  0.00     0.274 HD
ENDBRANCH  11  15
BRANCH  14  19
HETATM   19  N3  UNL     1      -2.061  -2.280   2.277  1.00  0.00    -0.073 N 
ATOM     20  H33 UNL     1      -1.338  -1.670   2.658  1.00  0.00     0.274 HD
ATOM     21  H32 UNL     1      -2.872  -1.851   2.723  1.00  0.00     0.274 HD
ATOM     22  H31 UNL     1      -1.934  -3.249   2.570  1.00  0.00     0.274 HD
ENDBRANCH  14  19
ENDBRANCH   8   9
ENDBRANCH   3   8
BRANCH   4  23
HETATM   23  N4  UNL     1       1.952   0.774  -0.252  1.00  0.00    -0.366 N 
ATOM     24  H4  UNL     1       2.541   1.601  -0.153  1.00  0.00     0.161 HD
BRANCH  23  25
HETATM   25  C11 UNL     1       2.424  -0.558   0.149  1.00  0.00     0.161 C 
BRANCH  25  26
HETATM   26  C12 UNL     1       3.790  -0.685  -0.480  1.00  0.00    -0.017 A 
HETATM   27  C13 UNL     1       4.222   0.302  -1.384  1.00  0.00     0.010 A 
HETATM   28  C14 UNL     1       5.340   0.132  -2.145  1.00  0.00     0.001 A 
HETATM   29  C15 UNL     1       6.068  -1.034  -2.028  1.00  0.00     0.002 A 
HETATM   30  C16 UNL     1       5.666  -2.001  -1.152  1.00  0.00     0.026 A 
HETATM   31  C17 UNL     1       4.508  -1.812  -0.365  1.00  0.00     0.087 A 
BRANCH  31  32
HETATM   32  S1  UNL     1       4.219  -3.013   0.863  1.00  0.00     0.257 S 
HETATM   33  O3  UNL     1       4.895  -4.296   0.558  1.00  0.00    -0.201 OA
HETATM   34  O4  UNL     1       2.746  -3.284   1.070  1.00  0.00    -0.201 OA
BRANCH  32  35
HETATM   35  N5  UNL     1       4.881  -2.347   2.337  1.00  0.00    -0.324 N 
ATOM     36  H52 UNL     1       5.339  -1.441   2.441  1.00  0.00     0.169 HD
ATOM     37  H51 UNL     1       4.712  -3.050   3.056  1.00  0.00     0.169 HD
ENDBRANCH  32  35
ENDBRANCH  31  32
ENDBRANCH  25  26
ENDBRANCH  23  25
ENDBRANCH   4  23
BRANCH   1  38
HETATM   38  C1  UNL     1      -2.299   3.822   0.253  1.00  0.00     0.264 C 
BRANCH  38  39
HETATM   39  N1  UNL     1      -1.896   5.040   0.911  1.00  0.00    -0.077 N 
ATOM     40  H13 UNL     1      -1.401   4.872   1.787  1.00  0.00     0.274 HD
ATOM     41  H12 UNL     1      -1.144   5.524   0.421  1.00  0.00     0.274 HD
ATOM     42  H11 UNL     1      -2.727   5.619   1.031  1.00  0.00     0.274 HD
ENDBRANCH  38  39
ENDBRANCH   1  38
BRANCH   7  43
HETATM   43  O6  UNL     1      -0.575   4.736  -1.451  1.00  0.00    -0.391 OA
ATOM     44  H6  UNL     1       0.083   5.303  -1.835  1.00  0.00     0.210 HD
ENDBRANCH   7  43
TORSDOF 12
