REMARK  13 active torsions:
REMARK  status: ('A' for Active; 'I' for Inactive)
REMARK    1  A    between atoms: C3_3  and  S1_4 
REMARK    2  A    between atoms: S1_4  and  C4_5 
REMARK    3  A    between atoms: C4_5  and  C5_6 
REMARK    4  A    between atoms: C5_6  and  C6_7 
REMARK    5  A    between atoms: C6_7  and  S2_8 
REMARK    6  A    between atoms: S2_8  and  C7_9 
REMARK    7  A    between atoms: C7_9  and  C8_10 
REMARK    8  A    between atoms: C10_13  and  O2_14 
REMARK    9  A    between atoms: C11_16  and  O3_17 
REMARK   10  A    between atoms: C12_19  and  O4_20 
REMARK   11  A    between atoms: C13_22  and  O5_23 
REMARK   12  A    between atoms: C15_26  and  O6_27 
REMARK   13  A    between atoms: C16_29  and  O7_30 
ROOT
HETATM    1  C1  UNL     1       7.585  -0.160   1.565  1.00  0.00     0.013 C 
HETATM    2  C2  UNL     1       7.685   0.509   0.556  1.00  0.00    -0.107 C 
HETATM    3  C3  UNL     1       7.831   1.324  -0.622  1.00  0.00     0.166 C 
ENDROOT
BRANCH   3   4
HETATM    4  S1  UNL     1       6.349   2.006  -1.310  1.00  0.00    -0.157 SA
BRANCH   4   5
HETATM    5  C4  UNL     1       5.303   0.776  -2.075  1.00  0.00     0.075 C 
BRANCH   5   6
HETATM    6  C5  UNL     1       4.743  -0.176  -1.050  1.00  0.00     0.020 C 
BRANCH   6   7
HETATM    7  C6  UNL     1       3.838  -1.165  -1.793  1.00  0.00     0.075 C 
BRANCH   7   8
HETATM    8  S2  UNL     1       2.488  -0.436  -2.643  1.00  0.00    -0.166 SA
BRANCH   8   9
HETATM    9  C7  UNL     1       1.259   0.362  -1.687  1.00  0.00     0.108 C 
BRANCH   9  10
HETATM   10  C8  UNL     1       0.330  -0.471  -0.848  1.00  0.00     0.163 C 
HETATM   11  O1  UNL     1      -0.549   0.464  -0.257  1.00  0.00    -0.363 OA
HETATM   12  C9  UNL     1      -1.625  -0.120   0.360  1.00  0.00     0.144 C 
HETATM   13  C10 UNL     1      -1.116  -1.137   1.357  1.00  0.00     0.189 C 
HETATM   14  C13 UNL     1      -2.408   0.991   1.062  1.00  0.00     0.167 C 
HETATM   15  C17 UNL     1      -2.623  -0.748  -0.588  1.00  0.00     0.193 C 
HETATM   16  C11 UNL     1       0.360  -1.057   1.558  1.00  0.00     0.181 C 
HETATM   17  C12 UNL     1       1.048  -1.247   0.207  1.00  0.00     0.179 C 
HETATM   18  C14 UNL     1      -3.892   0.849   0.794  1.00  0.00     0.083 C 
HETATM   19  C15 UNL     1      -4.058   1.246  -0.683  1.00  0.00     0.159 C 
HETATM   20  C18 UNL     1      -4.414  -0.551   0.888  1.00  0.00     0.063 C 
HETATM   21  C16 UNL     1      -3.242   0.268  -1.495  1.00  0.00     0.179 C 
HETATM   22  O8  UNL     1      -3.578  -1.390   0.204  1.00  0.00    -0.369 OA
HETATM   23  C19 UNL     1      -4.705  -0.987   2.315  1.00  0.00     0.046 C 
HETATM   24  C20 UNL     1      -5.793  -0.541   0.209  1.00  0.00     0.046 C 
BRANCH  13  25
HETATM   25  O2  UNL     1      -1.472  -2.423   1.034  1.00  0.00    -0.390 OA
ATOM     26  H2  UNL     1      -1.152  -3.062   1.660  1.00  0.00     0.210 HD
ENDBRANCH  13  25
BRANCH  16  27
HETATM   27  O3  UNL     1       0.797   0.055   2.230  1.00  0.00    -0.390 OA
ATOM     28  H3  UNL     1       1.737   0.106   2.358  1.00  0.00     0.210 HD
ENDBRANCH  16  27
BRANCH  17  29
HETATM   29  O4  UNL     1       1.009  -2.627  -0.047  1.00  0.00    -0.390 OA
ATOM     30  H4  UNL     1       1.466  -3.121   0.624  1.00  0.00     0.210 HD
ENDBRANCH  17  29
BRANCH  14  31
HETATM   31  O5  UNL     1      -2.092   1.093   2.388  1.00  0.00    -0.392 OA
ATOM     32  H5  UNL     1      -2.578   1.783   2.824  1.00  0.00     0.210 HD
ENDBRANCH  14  31
BRANCH  19  33
HETATM   33  O6  UNL     1      -3.556   2.526  -0.884  1.00  0.00    -0.392 OA
ATOM     34  H6  UNL     1      -3.659   2.771  -1.796  1.00  0.00     0.210 HD
ENDBRANCH  19  33
BRANCH  21  35
HETATM   35  O7  UNL     1      -2.285   0.883  -2.269  1.00  0.00    -0.390 OA
ATOM     36  H7  UNL     1      -1.772   0.268  -2.780  1.00  0.00     0.210 HD
ENDBRANCH  21  35
ENDBRANCH   9  10
ENDBRANCH   8   9
ENDBRANCH   7   8
ENDBRANCH   6   7
ENDBRANCH   5   6
ENDBRANCH   4   5
ENDBRANCH   3   4
TORSDOF 13
