REMARK  11 active torsions:
REMARK  status: ('A' for Active; 'I' for Inactive)
REMARK       I    between atoms: N2_3  and  C2_5 
REMARK       I    between atoms: C2_5  and  N6_22 
REMARK    1  A    between atoms: N3_6  and  C3_8 
REMARK    2  A    between atoms: C3_8  and  C4_9 
REMARK    3  A    between atoms: C4_9  and  C5_10 
REMARK    4  A    between atoms: C7_14  and  N5_15 
REMARK    5  A    between atoms: N6_22  and  C13_24 
REMARK    6  A    between atoms: C14_25  and  C15_26 
REMARK    7  A    between atoms: C15_26  and  O1_27 
REMARK    8  A    between atoms: C16_30  and  C17_31 
REMARK    9  A    between atoms: C17_31  and  N7_32 
REMARK   10  A    between atoms: C18_36  and  O3_37 
REMARK   11  A    between atoms: C19_39  and  O4_40 
ROOT
HETATM    1  N1  UNL     1       0.485   3.451  -0.900  1.00  0.00    -0.171 NA
HETATM    2  C1  UNL     1       0.846   2.398  -0.513  1.00  0.00     0.196 C 
HETATM    3  N2  UNL     1       1.293   1.159  -0.067  1.00  0.00    -0.126 N 
ATOM      4  H2  UNL     1       1.357   1.016   0.941  1.00  0.00     0.197 HD
HETATM    5  C2  UNL     1       1.663   0.090  -0.898  1.00  0.00     0.683 C 
HETATM    6  N3  UNL     1       0.692  -0.742  -1.208  1.00  0.00    -0.225 N 
ATOM      7  H3  UNL     1       0.907  -1.538  -1.809  1.00  0.00     0.177 HD
HETATM    8  N6  UNL     1       2.926  -0.173  -1.445  1.00  0.00    -0.216 N 
ATOM      9  H6  UNL     1       2.919  -0.478  -2.418  1.00  0.00     0.178 HD
ENDROOT
BRANCH   6  10
HETATM   10  C3  UNL     1      -0.669  -0.581  -0.736  1.00  0.00     0.143 C 
BRANCH  10  11
HETATM   11  C4  UNL     1      -1.621  -0.271  -1.856  1.00  0.00     0.068 C 
BRANCH  11  12
HETATM   12  C5  UNL     1      -2.986  -0.095  -1.278  1.00  0.00     0.003 A 
HETATM   13  C6  UNL     1      -3.551   1.073  -0.830  1.00  0.00     0.105 A 
HETATM   14  N4  UNL     1      -4.755   1.032  -0.369  1.00  0.00    -0.346 N 
HETATM   15  C7  UNL     1      -5.414  -0.122  -0.338  1.00  0.00     0.146 A 
ATOM     16  H4  UNL     1      -5.201   1.884  -0.029  1.00  0.00     0.167 HD
HETATM   17  S1  UNL     1      -4.266  -1.209  -0.995  1.00  0.00    -0.057 SA
BRANCH  15  18
HETATM   18  N5  UNL     1      -6.766  -0.352   0.121  1.00  0.00    -0.361 N 
HETATM   19  C8  UNL     1      -6.966  -0.486   1.546  1.00  0.00     0.125 C 
HETATM   20  C9  UNL     1      -8.142   0.368   1.997  1.00  0.00     0.020 C 
HETATM   21  C10 UNL     1      -9.347   0.198   1.119  1.00  0.00     0.003 C 
HETATM   22  C11 UNL     1      -9.122  -0.787  -0.005  1.00  0.00     0.020 C 
HETATM   23  C12 UNL     1      -7.874  -0.442  -0.787  1.00  0.00     0.125 C 
ENDBRANCH  15  18
ENDBRANCH  11  12
ENDBRANCH  10  11
ENDBRANCH   6  10
BRANCH   8  24
HETATM   24  C13 UNL     1       4.212  -0.081  -0.855  1.00  0.00     0.161 C 
HETATM   25  C14 UNL     1       4.449  -0.978   0.340  1.00  0.00     0.171 C 
HETATM   26  O2  UNL     1       5.733  -0.819   0.832  1.00  0.00    -0.372 OA
HETATM   27  C16 UNL     1       6.598  -0.140   0.018  1.00  0.00     0.178 C 
HETATM   28  C18 UNL     1       6.192   1.237  -0.380  1.00  0.00     0.179 C 
HETATM   29  C19 UNL     1       4.678   1.297  -0.483  1.00  0.00     0.175 C 
BRANCH  25  30
HETATM   30  C15 UNL     1       4.321  -2.444  -0.034  1.00  0.00     0.198 C 
BRANCH  30  31
HETATM   31  O1  UNL     1       5.255  -2.814  -1.005  1.00  0.00    -0.398 OA
ATOM     32  H1  UNL     1       5.175  -3.731  -1.239  1.00  0.00     0.209 HD
ENDBRANCH  30  31
ENDBRANCH  25  30
BRANCH  27  33
HETATM   33  C17 UNL     1       7.948  -0.109   0.761  1.00  0.00     0.264 C 
BRANCH  33  34
HETATM   34  N7  UNL     1       7.838   0.560   2.041  1.00  0.00    -0.077 N 
ATOM     35  H73 UNL     1       7.447   1.497   1.939  1.00  0.00     0.274 HD
ATOM     36  H72 UNL     1       7.106   0.144   2.617  1.00  0.00     0.274 HD
ATOM     37  H71 UNL     1       8.731   0.581   2.533  1.00  0.00     0.274 HD
ENDBRANCH  33  34
ENDBRANCH  27  33
BRANCH  28  38
HETATM   38  O3  UNL     1       6.680   2.229   0.468  1.00  0.00    -0.390 OA
ATOM     39  H3  UNL     1       6.421   3.107   0.214  1.00  0.00     0.210 HD
ENDBRANCH  28  38
BRANCH  29  40
HETATM   40  O4  UNL     1       4.217   1.764   0.723  1.00  0.00    -0.391 OA
ATOM     41  H4  UNL     1       4.512   2.636   0.958  1.00  0.00     0.210 HD
ENDBRANCH  29  40
ENDBRANCH   8  24
TORSDOF 11
