REMARK  14 active torsions:
REMARK  status: ('A' for Active; 'I' for Inactive)
REMARK    1  A    between atoms: S1_2  and  N1_4 
REMARK    2  A    between atoms: S1_2  and  O4_23 
REMARK    3  A    between atoms: N1_4  and  C1_6 
REMARK    4  A    between atoms: C1_6  and  N2_8 
REMARK    5  A    between atoms: N2_8  and  C2_10 
REMARK    6  A    between atoms: C2_10  and  C3_11 
REMARK    7  A    between atoms: C3_11  and  C4_16 
REMARK    8  A    between atoms: N3_12  and  O3_14 
REMARK    9  A    between atoms: O4_23  and  C11_24 
REMARK   10  A    between atoms: C11_24  and  C12_25 
REMARK   11  A    between atoms: C13_27  and  C14_28 
REMARK   12  A    between atoms: C14_28  and  O6_29 
REMARK   13  A    between atoms: C15_31  and  O7_32 
REMARK   14  A    between atoms: C16_34  and  O8_35 
ROOT
HETATM    1  N1  UNL     1      -0.218   0.306   1.530  1.00  0.00    -0.237 N 
ATOM      2  H1  UNL     1      -0.467   0.642   2.460  1.00  0.00     0.183 HD
ENDROOT
BRANCH   1   3
HETATM    3  S1  UNL     1      -0.962  -1.116   0.949  1.00  0.00     0.363 S 
HETATM    4  O1  UNL     1       0.058  -2.026   0.351  1.00  0.00    -0.175 OA
HETATM    5  O2  UNL     1      -1.657  -1.828   2.109  1.00  0.00    -0.175 OA
BRANCH   3   6
HETATM    6  O4  UNL     1      -2.158  -0.676  -0.171  1.00  0.00    -0.257 OA
BRANCH   6   7
HETATM    7  C11 UNL     1      -3.147  -0.018   0.558  1.00  0.00     0.226 C 
BRANCH   7   8
HETATM    8  C12 UNL     1      -4.235   0.390  -0.434  1.00  0.00     0.178 C 
HETATM    9  O5  UNL     1      -4.726  -0.747  -1.025  1.00  0.00    -0.371 OA
HETATM   10  C13 UNL     1      -6.112  -0.670  -1.016  1.00  0.00     0.177 C 
HETATM   11  C15 UNL     1      -6.448   0.053   0.294  1.00  0.00     0.180 C 
HETATM   12  C16 UNL     1      -5.328   1.074   0.323  1.00  0.00     0.180 C 
BRANCH  10  13
HETATM   13  C14 UNL     1      -6.762  -2.012  -1.092  1.00  0.00     0.198 C 
BRANCH  13  14
HETATM   14  O6  UNL     1      -6.384  -2.641  -2.254  1.00  0.00    -0.398 OA
ATOM     15  H6  UNL     1      -6.798  -3.495  -2.302  1.00  0.00     0.209 HD
ENDBRANCH  13  14
ENDBRANCH  10  13
BRANCH  11  16
HETATM   16  O7  UNL     1      -7.696   0.626   0.264  1.00  0.00    -0.390 OA
ATOM     17  H7  UNL     1      -7.904   1.074   1.076  1.00  0.00     0.210 HD
ENDBRANCH  11  16
BRANCH  12  18
HETATM   18  O8  UNL     1      -4.957   1.412   1.618  1.00  0.00    -0.390 OA
ATOM     19  H8  UNL     1      -5.651   1.847   2.099  1.00  0.00     0.210 HD
ENDBRANCH  12  18
ENDBRANCH   7   8
ENDBRANCH   6   7
ENDBRANCH   3   6
ENDBRANCH   1   3
BRANCH   1  20
HETATM   20  C1  UNL     1       0.728   1.038   0.778  1.00  0.00     0.186 C 
HETATM   21  S2  UNL     1       1.392   2.398   1.467  1.00  0.00    -0.040 SA
BRANCH  20  22
HETATM   22  N2  UNL     1       1.160   0.704  -0.519  1.00  0.00    -0.341 N 
ATOM     23  H2  UNL     1       0.744  -0.130  -0.933  1.00  0.00     0.167 HD
BRANCH  22  24
HETATM   24  C2  UNL     1       2.102   1.391  -1.311  1.00  0.00     0.117 C 
BRANCH  24  25
HETATM   25  C3  UNL     1       3.521   1.360  -0.948  1.00  0.00     0.051 C 
HETATM   26  N3  UNL     1       4.167   2.489  -0.878  1.00  0.00    -0.272 N 
ATOM     27  H3  UNL     1       5.155   2.493  -0.626  1.00  0.00     0.194 HD
BRANCH  26  28
HETATM   28  O3  UNL     1       3.530   3.664  -1.140  1.00  0.00    -0.290 OA
ATOM     29  H3  UNL     1       4.001   4.487  -1.089  1.00  0.00     0.244 HD
ENDBRANCH  26  28
BRANCH  25  30
HETATM   30  C4  UNL     1       4.318   0.135  -0.700  1.00  0.00     0.043 C 
HETATM   31  C5  UNL     1       3.959  -0.637   0.540  1.00  0.00     0.016 C 
HETATM   32  C6  UNL     1       5.328  -1.004   1.138  1.00  0.00    -0.013 C 
HETATM   33  C7  UNL     1       6.058  -1.829   0.154  1.00  0.00     0.005 C 
HETATM   34  C10 UNL     1       5.974   0.385   0.949  1.00  0.00     0.010 C 
HETATM   35  C8  UNL     1       6.547  -0.842  -0.911  1.00  0.00     0.006 C 
HETATM   36  C9  UNL     1       5.780   0.433  -0.559  1.00  0.00    -0.004 C 
ENDBRANCH  25  30
ENDBRANCH  24  25
ENDBRANCH  22  24
ENDBRANCH  20  22
ENDBRANCH   1  20
TORSDOF 14
