REMARK  12 active torsions:
REMARK  status: ('A' for Active; 'I' for Inactive)
REMARK    1  A    between atoms: O1_2  and  C2_3 
REMARK    2  A    between atoms: C3_4  and  O2_5 
REMARK    3  A    between atoms: C4_7  and  C5_8 
REMARK    4  A    between atoms: C5_8  and  O3_9 
REMARK    5  A    between atoms: C6_12  and  N1_13 
REMARK    6  A    between atoms: N1_13  and  C7_15 
REMARK    7  A    between atoms: C12_20  and  N2_21 
REMARK       I    between atoms: N2_21  and  C13_23 
REMARK    8  A    between atoms: C13_23  and  C14_25 
REMARK    9  A    between atoms: C14_25  and  N3_26 
REMARK   10  A    between atoms: C14_25  and  C15_30 
REMARK   11  A    between atoms: C19_34  and  O6_35 
REMARK   12  A    between atoms: C21_38  and  O7_39 
ROOT
HETATM    1  O6  UNL     1      -0.406   2.098   0.355  1.00  0.00    -0.274 OA
HETATM    2  C20 UNL     1      -0.423   2.795  -0.804  1.00  0.00     0.229 C 
HETATM    3  N4  UNL     1      -0.425   3.404  -1.787  1.00  0.00    -0.164 NA
ENDROOT
BRANCH   1   4
HETATM    4  C19 UNL     1      -0.409   0.685   0.347  1.00  0.00     0.187 C 
HETATM    5  C7  UNL     1       0.896   0.263   0.979  1.00  0.00     0.112 C 
HETATM    6  C8  UNL     1       0.957  -1.110   1.474  1.00  0.00     0.032 C 
HETATM    7  C9  UNL     1      -0.356  -1.872   1.501  1.00  0.00    -0.015 C 
HETATM    8  C10 UNL     1      -0.570  -2.559   0.202  1.00  0.00     0.010 C 
HETATM    9  C11 UNL     1      -1.418  -0.950   1.957  1.00  0.00     0.032 C 
HETATM   10  C12 UNL     1      -1.630   0.201   1.027  1.00  0.00     0.117 C 
BRANCH   5  11
HETATM   11  N1  UNL     1       1.933   0.638   0.121  1.00  0.00    -0.388 N 
ATOM     12  H1  UNL     1       1.678   0.864  -0.840  1.00  0.00     0.156 HD
BRANCH  11  13
HETATM   13  C6  UNL     1       3.270   0.732   0.451  1.00  0.00     0.249 C 
HETATM   14  O4  UNL     1       4.015   1.487  -0.497  1.00  0.00    -0.354 OA
HETATM   15  C4  UNL     1       4.451   0.721  -1.552  1.00  0.00     0.179 C 
HETATM   16  C3  UNL     1       5.541  -0.260  -1.109  1.00  0.00     0.180 C 
HETATM   17  C2  UNL     1       5.534  -0.203   0.405  1.00  0.00     0.185 C 
HETATM   18  C21 UNL     1       4.060  -0.469   0.817  1.00  0.00     0.198 C 
BRANCH  15  19
HETATM   19  C5  UNL     1       5.057   1.627  -2.585  1.00  0.00     0.198 C 
BRANCH  19  20
HETATM   20  O3  UNL     1       6.144   2.359  -2.092  1.00  0.00    -0.398 OA
ATOM     21  H3  UNL     1       6.527   2.932  -2.745  1.00  0.00     0.209 HD
ENDBRANCH  19  20
ENDBRANCH  15  19
BRANCH  16  22
HETATM   22  O2  UNL     1       5.105  -1.530  -1.505  1.00  0.00    -0.390 OA
ATOM     23  H2  UNL     1       5.109  -1.566  -2.454  1.00  0.00     0.210 HD
ENDBRANCH  16  22
BRANCH  17  24
HETATM   24  O1  UNL     1       5.915   1.030   0.872  1.00  0.00    -0.385 OA
HETATM   25  C1  UNL     1       6.975   0.940   1.792  1.00  0.00     0.202 C 
ENDBRANCH  17  24
BRANCH  18  26
HETATM   26  O7  UNL     1       4.051  -0.795   2.173  1.00  0.00    -0.389 OA
ATOM     27  H7  UNL     1       3.150  -0.958   2.425  1.00  0.00     0.210 HD
ENDBRANCH  18  26
ENDBRANCH  11  13
ENDBRANCH   5  11
BRANCH  10  28
HETATM   28  N2  UNL     1      -2.688  -0.167   0.104  1.00  0.00    -0.352 N 
HETATM   29  C13 UNL     1      -3.939   0.536   0.042  1.00  0.00     0.249 C 
HETATM   30  O5  UNL     1      -4.104   1.505   0.823  1.00  0.00    -0.271 OA
ATOM     31  H2  UNL     1      -2.537  -0.956  -0.525  1.00  0.00     0.163 HD
BRANCH  29  32
HETATM   32  C14 UNL     1      -5.017   0.184  -0.875  1.00  0.00     0.282 C 
BRANCH  32  33
HETATM   33  N3  UNL     1      -4.778  -0.994  -1.664  1.00  0.00    -0.066 N 
ATOM     34  H33 UNL     1      -3.897  -0.907  -2.171  1.00  0.00     0.275 HD
ATOM     35  H32 UNL     1      -4.556  -1.785  -1.059  1.00  0.00     0.275 HD
ATOM     36  H31 UNL     1      -5.532  -1.240  -2.305  1.00  0.00     0.275 HD
ENDBRANCH  32  33
BRANCH  32  37
HETATM   37  C15 UNL     1      -6.345   0.089  -0.196  1.00  0.00    -0.014 C 
HETATM   38  C16 UNL     1      -6.735   1.405   0.445  1.00  0.00     0.017 C 
HETATM   39  C17 UNL     1      -7.454  -0.292  -1.160  1.00  0.00     0.017 C 
HETATM   40  C18 UNL     1      -6.251  -0.993   0.878  1.00  0.00     0.017 C 
ENDBRANCH  32  37
ENDBRANCH  29  32
ENDBRANCH  10  28
ENDBRANCH   1   4
TORSDOF 12
