REMARK  13 active torsions:
REMARK  status: ('A' for Active; 'I' for Inactive)
REMARK    1  A    between atoms: O1_1  and  C1_3 
REMARK    2  A    between atoms: C1_3  and  C2_4 
REMARK    3  A    between atoms: C7_10  and  O3_11 
REMARK    4  A    between atoms: O3_11  and  C8_12 
REMARK    5  A    between atoms: C8_12  and  C9_13 
REMARK    6  A    between atoms: C10_15  and  C11_16 
REMARK    7  A    between atoms: C11_16  and  N1_17 
REMARK    8  A    between atoms: N1_17  and  C12_20 
REMARK    9  A    between atoms: C18_26  and  O5_27 
REMARK   10  A    between atoms: C19_29  and  O6_30 
REMARK   11  A    between atoms: C20_32  and  O7_33 
REMARK   12  A    between atoms: C21_35  and  O8_36 
REMARK   13  A    between atoms: C22_38  and  O9_39 
ROOT
HETATM    1  O3  UNL     1      -1.872  -0.113  -0.123  1.00  0.00    -0.378 OA
ENDROOT
BRANCH   1   2
HETATM    2  C7  UNL     1      -3.128  -0.645  -0.479  1.00  0.00     0.187 C 
HETATM    3  C3  UNL     1      -3.919  -0.756   0.868  1.00  0.00     0.090 C 
HETATM    4  O2  UNL     1      -5.181  -0.299   0.819  1.00  0.00    -0.367 OA
HETATM    5  C4  UNL     1      -3.118  -0.424   2.078  1.00  0.00     0.041 C 
HETATM    6  C6  UNL     1      -3.907  -2.217   1.341  1.00  0.00     0.041 C 
HETATM    7  C2  UNL     1      -5.642   0.861   0.431  1.00  0.00     0.177 C 
HETATM    8  C22 UNL     1      -6.095   1.095  -1.021  1.00  0.00     0.180 C 
HETATM    9  C21 UNL     1      -4.909   0.887  -2.016  1.00  0.00     0.180 C 
HETATM   10  C20 UNL     1      -3.929   0.080  -1.401  1.00  0.00     0.181 C 
HETATM   11  C5  UNL     1      -3.716  -1.668   2.747  1.00  0.00     0.006 C 
BRANCH   7  12
HETATM   12  C1  UNL     1      -6.951   1.117   1.219  1.00  0.00     0.198 C 
BRANCH  12  13
HETATM   13  O1  UNL     1      -7.797   0.075   0.885  1.00  0.00    -0.398 OA
ATOM     14  H1  UNL     1      -8.600   0.232   1.368  1.00  0.00     0.209 HD
ENDBRANCH  12  13
ENDBRANCH   7  12
BRANCH   8  15
HETATM   15  O9  UNL     1      -6.485   2.435  -1.079  1.00  0.00    -0.390 OA
ATOM     16  H9  UNL     1      -6.765   2.579  -1.975  1.00  0.00     0.210 HD
ENDBRANCH   8  15
BRANCH   9  17
HETATM   17  O8  UNL     1      -5.502   0.374  -3.195  1.00  0.00    -0.390 OA
ATOM     18  H8  UNL     1      -6.162   0.917  -3.609  1.00  0.00     0.210 HD
ENDBRANCH   9  17
BRANCH  10  19
HETATM   19  O7  UNL     1      -4.911  -0.958  -1.334  1.00  0.00    -0.390 OA
ATOM     20  H7  UNL     1      -5.447  -0.473  -1.951  1.00  0.00     0.210 HD
ENDBRANCH  10  19
ENDBRANCH   1   2
BRANCH   1  21
HETATM   21  C8  UNL     1      -0.822  -0.996  -0.342  1.00  0.00     0.203 C 
BRANCH  21  22
HETATM   22  C9  UNL     1       0.435  -0.304   0.069  1.00  0.00     0.177 C 
HETATM   23  O4  UNL     1       1.575  -1.085  -0.101  1.00  0.00    -0.371 OA
HETATM   24  C10 UNL     1       2.631  -0.189   0.078  1.00  0.00     0.179 C 
HETATM   25  C18 UNL     1       2.165   1.133  -0.477  1.00  0.00     0.180 C 
HETATM   26  C19 UNL     1       0.745   0.821  -0.894  1.00  0.00     0.180 C 
BRANCH  24  27
HETATM   27  C11 UNL     1       3.857  -0.613  -0.686  1.00  0.00     0.267 C 
BRANCH  27  28
HETATM   28  N1  UNL     1       4.929   0.311  -0.472  1.00  0.00    -0.068 N 
ATOM     29  H12 UNL     1       4.633   1.260  -0.700  1.00  0.00     0.277 HD
ATOM     30  H11 UNL     1       5.112   0.421   0.525  1.00  0.00     0.277 HD
BRANCH  28  31
HETATM   31  C12 UNL     1       6.133  -0.018  -1.168  1.00  0.00     0.186 C 
HETATM   32  C13 UNL     1       7.185   1.010  -0.892  1.00  0.00     0.033 C 
HETATM   33  C14 UNL     1       7.692   1.012   0.513  1.00  0.00     0.002 C 
HETATM   34  C15 UNL     1       8.035  -0.357   1.037  1.00  0.00     0.000 C 
HETATM   35  C16 UNL     1       6.829  -1.272   0.812  1.00  0.00     0.002 C 
HETATM   36  C17 UNL     1       6.645  -1.361  -0.688  1.00  0.00     0.033 C 
ENDBRANCH  28  31
ENDBRANCH  27  28
ENDBRANCH  24  27
BRANCH  25  37
HETATM   37  O5  UNL     1       2.089   2.036   0.581  1.00  0.00    -0.390 OA
ATOM     38  H5  UNL     1       1.795   2.869   0.231  1.00  0.00     0.210 HD
ENDBRANCH  25  37
BRANCH  26  39
HETATM   39  O6  UNL     1      -0.102   1.904  -0.734  1.00  0.00    -0.390 OA
ATOM     40  H6  UNL     1       0.093   2.610  -1.339  1.00  0.00     0.210 HD
ENDBRANCH  26  39
ENDBRANCH  21  22
ENDBRANCH   1  21
TORSDOF 13
