REMARK  4 active torsions:
REMARK  status: ('A' for Active; 'I' for Inactive)
REMARK    1  A    between atoms: C4_4  and  N1_5 
REMARK    2  A    between atoms: N1_5  and  C5_7 
REMARK    3  A    between atoms: C7_10  and  C8_11 
REMARK    4  A    between atoms: C8_11  and  O1_12 
ROOT
HETATM    1  C8  UNL     1      -2.854   1.114  -0.294  1.00  0.00     0.181 C 
HETATM    2  N3  UNL     1      -4.038   1.780  -0.408  1.00  0.00    -0.267 N 
HETATM    3  C9  UNL     1      -5.379   1.365  -0.505  1.00  0.00     0.171 C 
HETATM    4  C10 UNL     1      -3.917   3.245  -0.430  1.00  0.00     0.186 C 
HETATM    5  N4  UNL     1      -3.801   4.395  -0.445  1.00  0.00    -0.172 NA
ENDROOT
BRANCH   1   6
HETATM    6  C7  UNL     1      -2.441  -0.259  -0.184  1.00  0.00     0.130 A 
HETATM    7  N2  UNL     1      -1.102  -0.628  -0.348  1.00  0.00    -0.149 N 
HETATM    8  C6  UNL     1       0.016   0.037  -0.692  1.00  0.00     0.151 A 
HETATM    9  C13 UNL     1      -0.962  -1.941  -0.110  1.00  0.00     0.694 A 
HETATM   10  C5  UNL     1       1.275  -0.577  -0.803  1.00  0.00     0.120 A 
HETATM   11  C15 UNL     1       1.314  -1.922  -0.539  1.00  0.00     0.289 A 
HETATM   12  N6  UNL     1       0.231  -2.612  -0.198  1.00  0.00    -0.149 N 
HETATM   13  O2  UNL     1       2.407  -2.538  -0.619  1.00  0.00    -0.265 OA
HETATM   14  C14 UNL     1       0.230  -4.033   0.089  1.00  0.00     0.179 C 
HETATM   15  N5  UNL     1      -2.167  -2.416   0.199  1.00  0.00    -0.193 N 
HETATM   16  C11 UNL     1      -3.086  -1.402   0.160  1.00  0.00     0.055 A 
ATOM     17  H5  UNL     1      -2.374  -3.388   0.430  1.00  0.00     0.184 HD
HETATM   18  C12 UNL     1      -4.497  -1.609   0.502  1.00  0.00     0.071 C 
BRANCH  10  19
HETATM   19  N1  UNL     1       2.395   0.157  -1.161  1.00  0.00    -0.336 N 
ATOM     20  H1  UNL     1       2.516   0.335  -2.158  1.00  0.00     0.168 HD
BRANCH  19  21
HETATM   21  C4  UNL     1       3.289   0.634  -0.393  1.00  0.00     0.122 A 
HETATM   22  C3  UNL     1       4.377   1.359  -0.857  1.00  0.00     0.075 A 
HETATM   23  C2  UNL     1       5.154   1.732   0.213  1.00  0.00     0.025 A 
HETATM   24  C1  UNL     1       6.406   2.524   0.098  1.00  0.00     0.070 C 
HETATM   25  N8  UNL     1       4.547   1.243   1.300  1.00  0.00    -0.304 N 
HETATM   26  N7  UNL     1       3.433   0.587   0.937  1.00  0.00    -0.285 N 
ATOM     27  H8  UNL     1       4.879   1.352   2.258  1.00  0.00     0.186 HD
ATOM     28  H7  UNL     1       2.792   0.122   1.579  1.00  0.00     0.188 HD
ENDBRANCH  19  21
ENDBRANCH  10  19
ENDBRANCH   1   6
BRANCH   1  29
HETATM   29  O1  UNL     1      -1.839   2.009  -0.294  1.00  0.00    -0.344 OA
ATOM     30  H1  UNL     1      -2.112   2.916  -0.367  1.00  0.00     0.219 HD
ENDBRANCH   1  29
TORSDOF 4
