REMARK  4 active torsions:
REMARK  status: ('A' for Active; 'I' for Inactive)
REMARK    1  A    between atoms: N1_2  and  C2_4 
REMARK    2  A    between atoms: C7_15  and  N5_16 
REMARK       I    between atoms: N5_16  and  C8_18 
REMARK    3  A    between atoms: C8_18  and  C9_20 
REMARK    4  A    between atoms: C9_20  and  O2_23 
ROOT
HETATM    1  C2  UNL     1      -4.495  -0.049   0.450  1.00  0.00     0.689 A 
HETATM    2  N2  UNL     1      -4.948   0.921  -0.364  1.00  0.00    -0.192 N 
ATOM      3  H2  UNL     1      -5.921   1.089  -0.618  1.00  0.00     0.184 HD
HETATM    4  C3  UNL     1      -3.885   1.629  -0.781  1.00  0.00     0.068 A 
HETATM    5  C4  UNL     1      -3.880   2.799  -1.694  1.00  0.00     0.073 C 
HETATM    6  C5  UNL     1      -2.771   1.053  -0.192  1.00  0.00     0.157 A 
HETATM    7  N3  UNL     1      -1.510   1.513  -0.391  1.00  0.00    -0.324 N 
ATOM      8  H3  UNL     1      -1.403   2.489  -0.668  1.00  0.00     0.169 HD
HETATM    9  C6  UNL     1      -0.370   0.768  -0.249  1.00  0.00     0.150 A 
HETATM   10  N4  UNL     1       0.755   0.966  -0.936  1.00  0.00    -0.174 N 
ATOM     11  H4  UNL     1       0.901   1.688  -1.641  1.00  0.00     0.186 HD
HETATM   12  C7  UNL     1       1.693   0.029  -0.534  1.00  0.00     0.689 A 
HETATM   13  N6  UNL     1       1.126  -0.741   0.407  1.00  0.00    -0.183 N 
HETATM   14  C12 UNL     1       1.648  -1.852   1.152  1.00  0.00     0.175 C 
HETATM   15  C13 UNL     1      -0.153  -0.302   0.599  1.00  0.00     0.101 A 
HETATM   16  C14 UNL     1      -1.063  -0.846   1.492  1.00  0.00     0.109 C 
HETATM   17  C15 UNL     1      -2.457  -0.855   1.336  1.00  0.00     0.270 C 
HETATM   18  O3  UNL     1      -3.054  -1.744   1.966  1.00  0.00    -0.267 OA
HETATM   19  N7  UNL     1      -3.156   0.010   0.573  1.00  0.00    -0.094 N 
ENDROOT
BRANCH  12  20
HETATM   20  N5  UNL     1       2.865  -0.044  -1.006  1.00  0.00    -0.157 N 
HETATM   21  C8  UNL     1       3.934  -0.875  -0.759  1.00  0.00     0.269 C 
HETATM   22  O1  UNL     1       3.852  -2.119  -1.064  1.00  0.00    -0.269 OA
ATOM     23  H5  UNL     1       3.058   0.660  -1.718  1.00  0.00     0.187 HD
BRANCH  21  24
HETATM   24  C9  UNL     1       5.226  -0.441  -0.149  1.00  0.00     0.132 C 
HETATM   25  C10 UNL     1       5.042   0.331   1.114  1.00  0.00     0.056 C 
HETATM   26  C11 UNL     1       5.876   0.449  -1.226  1.00  0.00     0.056 C 
BRANCH  24  27
HETATM   27  O2  UNL     1       6.104  -1.479   0.049  1.00  0.00    -0.381 OA
ATOM     28  H2  UNL     1       6.926  -1.203   0.437  1.00  0.00     0.211 HD
ENDBRANCH  24  27
ENDBRANCH  21  24
ENDBRANCH  12  20
BRANCH   1  29
HETATM   29  N1  UNL     1      -5.244  -0.902   1.021  1.00  0.00    -0.230 N 
HETATM   30  C1  UNL     1      -6.677  -0.931   0.863  1.00  0.00     0.165 C 
ATOM     31  H1  UNL     1      -4.809  -1.602   1.622  1.00  0.00     0.177 HD
ENDBRANCH   1  29
TORSDOF 4
