REMARK  2 active torsions:
REMARK  status: ('A' for Active; 'I' for Inactive)
REMARK    1  A    between atoms: C5_10  and  N3_11 
REMARK    2  A    between atoms: N5_17  and  C7_19 
ROOT
HETATM    1  C7  UNL     1       1.945  -0.644  -0.400  1.00  0.00     0.115 C 
HETATM    2  C8  UNL     1       2.521  -1.193   0.878  1.00  0.00     0.062 C 
HETATM    3  C9  UNL     1       3.815  -0.607   0.480  1.00  0.00    -0.058 C 
HETATM    4  C10 UNL     1       5.071  -0.862   0.736  1.00  0.00     0.097 C 
HETATM    5  C11 UNL     1       6.160  -0.112   0.201  1.00  0.00     0.088 C 
HETATM    6  N6  UNL     1       7.050   0.498  -0.214  1.00  0.00    -0.192 NA
HETATM    7  C12 UNL     1       3.072   0.366  -0.313  1.00  0.00    -0.002 C 
HETATM    8  C13 UNL     1       3.657   0.789  -1.621  1.00  0.00     0.021 C 
HETATM    9  C14 UNL     1       2.679   1.549   0.582  1.00  0.00     0.021 C 
ENDROOT
BRANCH   1  10
HETATM   10  N5  UNL     1       0.704  -0.012  -0.411  1.00  0.00    -0.220 N 
HETATM   11  C6  UNL     1      -0.464  -0.450  -0.162  1.00  0.00     0.683 A 
HETATM   12  N4  UNL     1      -0.665  -1.724   0.182  1.00  0.00    -0.176 N 
HETATM   13  N7  UNL     1      -1.509   0.447  -0.260  1.00  0.00    -0.171 N 
HETATM   14  C5  UNL     1      -1.878  -2.207   0.451  1.00  0.00     0.134 A 
ATOM     15  H4  UNL     1       0.138  -2.350   0.241  1.00  0.00     0.186 HD
HETATM   16  C4  UNL     1      -2.953  -1.350   0.368  1.00  0.00     0.121 A 
HETATM   17  C3  UNL     1      -4.214  -1.826   0.643  1.00  0.00     0.267 A 
HETATM   18  C16 UNL     1      -2.755   0.007   0.003  1.00  0.00     0.148 A 
HETATM   19  N2  UNL     1      -5.246  -0.997   0.563  1.00  0.00    -0.274 N 
HETATM   20  O2  UNL     1      -4.335  -3.035   0.960  1.00  0.00    -0.267 OA
HETATM   21  C2  UNL     1      -5.036   0.267   0.220  1.00  0.00     0.330 A 
ATOM     22  H2  UNL     1      -6.190  -1.327   0.763  1.00  0.00     0.173 HD
HETATM   23  N1  UNL     1      -3.811   0.827  -0.071  1.00  0.00    -0.288 N 
HETATM   24  O1  UNL     1      -6.041   1.048   0.149  1.00  0.00    -0.246 OA
HETATM   25  C1  UNL     1      -3.687   2.184  -0.423  1.00  0.00     0.163 C 
HETATM   26  C15 UNL     1      -1.266   1.791  -0.637  1.00  0.00     0.177 C 
ATOM     27  H5  UNL     1       0.738   0.976  -0.663  1.00  0.00     0.178 HD
BRANCH  14  28
HETATM   28  N3  UNL     1      -2.079  -3.417   0.779  1.00  0.00    -0.384 N 
ATOM     29  H32 UNL     1      -3.007  -3.787   0.985  1.00  0.00     0.157 HD
ATOM     30  H31 UNL     1      -1.283  -4.052   0.840  1.00  0.00     0.157 HD
ENDBRANCH  14  28
ENDBRANCH   1  10
TORSDOF 2
