REMARK  6 active torsions:
REMARK  status: ('A' for Active; 'I' for Inactive)
REMARK    1  A    between atoms: O1_2  and  C2_3 
REMARK    2  A    between atoms: C2_3  and  C3_5 
REMARK       I    between atoms: C3_5  and  N1_7 
REMARK    3  A    between atoms: N1_7  and  C4_9 
REMARK    4  A    between atoms: C6_14  and  C7_15 
REMARK    5  A    between atoms: C8_16  and  C9_17 
REMARK    6  A    between atoms: C12_20  and  O4_21 
ROOT
HETATM    1  C4  UNL     1       3.428  -1.476  -0.532  1.00  0.00     0.154 A 
HETATM    2  N2  UNL     1       2.990  -0.922   0.599  1.00  0.00    -0.323 N 
ATOM      3  H2  UNL     1       3.632  -0.736   1.370  1.00  0.00     0.169 HD
HETATM    4  C5  UNL     1       1.721  -0.622   0.700  1.00  0.00     0.144 A 
HETATM    5  N3  UNL     1       1.127  -0.019   1.874  1.00  0.00    -0.081 NA
HETATM    6  C6  UNL     1       0.917  -0.901  -0.376  1.00  0.00     0.103 A 
HETATM    7  S1  UNL     1       2.020  -1.582  -1.484  1.00  0.00    -0.041 SA
ENDROOT
BRANCH   6   8
HETATM    8  C7  UNL     1      -0.518  -0.666  -0.513  1.00  0.00    -0.050 C 
HETATM    9  C8  UNL     1      -1.702  -0.481  -0.646  1.00  0.00    -0.055 C 
BRANCH   9  10
HETATM   10  C9  UNL     1      -3.110  -0.235  -0.803  1.00  0.00     0.086 A 
HETATM   11  C10 UNL     1      -3.758   0.757  -0.070  1.00  0.00     0.030 A 
HETATM   12  C11 UNL     1      -5.105   0.993  -0.218  1.00  0.00     0.058 A 
HETATM   13  C12 UNL     1      -5.811   0.222  -1.116  1.00  0.00     0.144 A 
HETATM   14  N4  UNL     1      -5.176  -0.727  -1.814  1.00  0.00    -0.303 N 
HETATM   15  C14 UNL     1      -3.853  -0.968  -1.676  1.00  0.00     0.266 A 
ATOM     16  H4  UNL     1      -5.711  -1.290  -2.475  1.00  0.00     0.171 HD
HETATM   17  O5  UNL     1      -3.270  -1.866  -2.341  1.00  0.00    -0.267 OA
BRANCH  13  18
HETATM   18  O4  UNL     1      -7.167   0.449  -1.276  1.00  0.00    -0.341 OA
HETATM   19  C13 UNL     1      -7.815   1.454  -0.530  1.00  0.00     0.211 C 
ENDBRANCH  13  18
ENDBRANCH   9  10
ENDBRANCH   6   8
BRANCH   1  20
HETATM   20  N1  UNL     1       4.658  -1.835  -0.795  1.00  0.00    -0.298 N 
HETATM   21  C3  UNL     1       5.675  -1.643   0.174  1.00  0.00     0.322 C 
HETATM   22  O3  UNL     1       5.986  -2.625   0.893  1.00  0.00    -0.261 OA
ATOM     23  H1  UNL     1       4.885  -2.253  -1.697  1.00  0.00     0.171 HD
BRANCH  21  24
HETATM   24  C2  UNL     1       6.317  -0.348   0.307  1.00  0.00     0.351 C 
HETATM   25  O2  UNL     1       5.993   0.620  -0.420  1.00  0.00    -0.254 OA
BRANCH  24  26
HETATM   26  O1  UNL     1       7.323  -0.103   1.243  1.00  0.00    -0.319 OA
HETATM   27  C1  UNL     1       7.922   1.188   1.334  1.00  0.00     0.213 C 
ENDBRANCH  24  26
ENDBRANCH  21  24
ENDBRANCH   1  20
TORSDOF 6
