REMARK  3 active torsions:
REMARK  status: ('A' for Active; 'I' for Inactive)
REMARK    1  A    between atoms: C2_2  and  N1_3 
REMARK    2  A    between atoms: C5_6  and  C6_7 
REMARK    3  A    between atoms: C7_8  and  C8_9 
ROOT
HETATM    1  C8  UNL     1       2.751  -0.199  -0.073  1.00  0.00     0.112 A 
HETATM    2  C9  UNL     1       3.507  -0.566  -1.175  1.00  0.00     0.101 A 
HETATM    3  N2  UNL     1       2.844  -0.895  -2.378  1.00  0.00    -0.098 NA
HETATM    4  C10 UNL     1       4.889  -0.607  -1.087  1.00  0.00     0.104 A 
HETATM    5  N3  UNL     1       5.860  -0.919  -1.971  1.00  0.00    -0.348 N 
ATOM      6  H3  UNL     1       5.692  -1.200  -2.937  1.00  0.00     0.167 HD
HETATM    7  C11 UNL     1       7.067  -0.812  -1.416  1.00  0.00     0.182 A 
HETATM    8  N4  UNL     1       6.869  -0.418  -0.136  1.00  0.00    -0.337 N 
ATOM      9  H4  UNL     1       7.602  -0.246   0.552  1.00  0.00     0.168 HD
HETATM   10  C12 UNL     1       5.549  -0.290   0.079  1.00  0.00     0.138 A 
HETATM   11  N5  UNL     1       4.792   0.066   1.142  1.00  0.00    -0.306 N 
ATOM     12  H5  UNL     1       5.254   0.307   2.019  1.00  0.00     0.170 HD
HETATM   13  C13 UNL     1       3.444   0.113   1.080  1.00  0.00     0.267 A 
HETATM   14  O1  UNL     1       2.826   0.459   2.136  1.00  0.00    -0.266 OA
ENDROOT
BRANCH   1  15
HETATM   15  C7  UNL     1       1.310  -0.145  -0.127  1.00  0.00    -0.053 C 
HETATM   16  C6  UNL     1       0.106  -0.091  -0.170  1.00  0.00    -0.053 C 
BRANCH  16  17
HETATM   17  C5  UNL     1      -1.339  -0.018  -0.206  1.00  0.00     0.108 A 
HETATM   18  C3  UNL     1      -2.068   0.507   0.849  1.00  0.00     0.036 A 
HETATM   19  N1  UNL     1      -3.411   0.581   0.830  1.00  0.00    -0.302 N 
HETATM   20  C4  UNL     1      -1.332   0.994   2.022  1.00  0.00     0.070 C 
HETATM   21  C16 UNL     1      -4.040   0.122  -0.267  1.00  0.00     0.331 A 
HETATM   22  N6  UNL     1      -3.365  -0.398  -1.318  1.00  0.00    -0.269 N 
HETATM   23  O3  UNL     1      -5.292   0.158  -0.358  1.00  0.00    -0.246 OA
HETATM   24  C14 UNL     1      -2.015  -0.475  -1.304  1.00  0.00     0.272 A 
HETATM   25  C15 UNL     1      -4.055  -0.891  -2.496  1.00  0.00     0.164 C 
HETATM   26  O2  UNL     1      -1.408  -0.961  -2.290  1.00  0.00    -0.266 OA
BRANCH  19  27
HETATM   27  C2  UNL     1      -4.168   1.125   1.923  1.00  0.00     0.129 C 
HETATM   28  C1  UNL     1      -4.561   0.092   2.950  1.00  0.00     0.027 C 
ENDBRANCH  19  27
ENDBRANCH  16  17
ENDBRANCH   1  15
TORSDOF 3
