REMARK  2 active torsions:
REMARK  status: ('A' for Active; 'I' for Inactive)
REMARK       I    between atoms: C2_2  and  N1_4 
REMARK    1  A    between atoms: N1_4  and  C3_6 
REMARK    2  A    between atoms: C5_10  and  N3_11 
ROOT
HETATM    1  C3  UNL     1       2.498  -0.526   0.359  1.00  0.00     0.152 A 
HETATM    2  N2  UNL     1       1.192  -0.557   0.135  1.00  0.00    -0.333 N 
ATOM      3  H2  UNL     1       0.753  -1.379  -0.279  1.00  0.00     0.168 HD
HETATM    4  C4  UNL     1       0.470   0.505   0.462  1.00  0.00     0.084 A 
HETATM    5  C5  UNL     1      -0.923   0.711   0.322  1.00  0.00     0.112 A 
HETATM    6  C9  UNL     1      -1.513   1.881   0.715  1.00  0.00     0.036 A 
HETATM    7  C10 UNL     1      -2.995   2.032   0.539  1.00  0.00     0.070 C 
HETATM    8  N6  UNL     1      -0.826   2.909   1.256  1.00  0.00    -0.366 N 
ATOM      9  H6  UNL     1      -1.295   3.769   1.540  1.00  0.00     0.165 HD
HETATM   10  C11 UNL     1       0.496   2.756   1.406  1.00  0.00     0.109 A 
HETATM   11  C12 UNL     1       1.137   1.565   1.012  1.00  0.00     0.053 A 
HETATM   12  S1  UNL     1       2.753   1.008   1.041  1.00  0.00    -0.050 SA
ENDROOT
BRANCH   5  13
HETATM   13  N3  UNL     1      -1.771  -0.303  -0.239  1.00  0.00    -0.198 N 
HETATM   14  N4  UNL     1      -2.514  -1.078   0.544  1.00  0.00    -0.251 N 
HETATM   15  C6  UNL     1      -3.295  -2.013   0.021  1.00  0.00     0.328 A 
ATOM     16  H4  UNL     1      -2.483  -0.953   1.556  1.00  0.00     0.191 HD
HETATM   17  O2  UNL     1      -4.005  -2.753   0.767  1.00  0.00    -0.261 OA
HETATM   18  C7  UNL     1      -3.369  -2.219  -1.343  1.00  0.00     0.319 A 
HETATM   19  O3  UNL     1      -4.121  -3.116  -1.804  1.00  0.00    -0.262 OA
HETATM   20  N5  UNL     1      -2.617  -1.435  -2.135  1.00  0.00    -0.269 N 
HETATM   21  C8  UNL     1      -1.841  -0.502  -1.566  1.00  0.00     0.349 A 
ATOM     22  H5  UNL     1      -2.637  -1.548  -3.149  1.00  0.00     0.174 HD
HETATM   23  O4  UNL     1      -1.130   0.239  -2.302  1.00  0.00    -0.245 OA
ENDBRANCH   5  13
BRANCH   1  24
HETATM   24  N1  UNL     1       3.325  -1.506   0.083  1.00  0.00    -0.307 N 
HETATM   25  C2  UNL     1       4.712  -1.275   0.404  1.00  0.00     0.219 C 
HETATM   26  C1  UNL     1       5.465  -0.226  -0.328  1.00  0.00     0.117 C 
HETATM   27  O1  UNL     1       5.240  -1.979   1.304  1.00  0.00    -0.274 OA
ATOM     28  H1  UNL     1       3.006  -2.380  -0.334  1.00  0.00     0.171 HD
ENDBRANCH   1  24
TORSDOF 2
