REMARK  1 active torsions:
REMARK  status: ('A' for Active; 'I' for Inactive)
REMARK    1  A    between atoms: O1_1  and  C1_3 
ROOT
HETATM    1  C1  UNL     1      -1.845  -0.378   0.480  1.00  0.00     0.118 C 
HETATM    2  C2  UNL     1      -1.239  -1.368  -0.513  1.00  0.00     0.032 C 
HETATM    3  C3  UNL     1      -0.270  -2.259   0.195  1.00  0.00     0.002 C 
HETATM    4  C4  UNL     1       1.162  -2.043  -0.210  1.00  0.00     0.000 C 
HETATM    5  C5  UNL     1       1.776  -0.827   0.459  1.00  0.00     0.000 C 
HETATM    6  C6  UNL     1       2.004   0.267  -0.535  1.00  0.00     0.000 C 
HETATM    7  C7  UNL     1       1.756   1.642  -0.007  1.00  0.00     0.000 C 
HETATM    8  C8  UNL     1       0.409   2.200  -0.401  1.00  0.00     0.000 C 
HETATM    9  C9  UNL     1      -0.677   1.844   0.588  1.00  0.00     0.002 C 
HETATM   10  C10 UNL     1      -1.780   1.032  -0.035  1.00  0.00     0.032 C 
ENDROOT
BRANCH   1  11
HETATM   11  O1  UNL     1      -3.187  -0.747   0.695  1.00  0.00    -0.396 OA
ATOM     12  H1  UNL     1      -3.564  -0.131   1.313  1.00  0.00     0.210 HD
ENDBRANCH   1  11
TORSDOF 1
