REMARK  1 active torsions:
REMARK  status: ('A' for Active; 'I' for Inactive)
REMARK    1  A    between atoms: O1_1  and  N1_3 
ROOT
HETATM    1  N1  UNL     1       2.736  -0.933  -0.176  1.00  0.00    -0.277 N 
ATOM      2  H1  UNL     1       2.824  -1.929  -0.376  1.00  0.00     0.193 HD
HETATM    3  C1  UNL     1       1.603  -0.354  -0.390  1.00  0.00     0.010 C 
HETATM    4  C2  UNL     1       0.509  -1.202  -0.916  1.00  0.00     0.054 C 
HETATM    5  C3  UNL     1      -0.165  -1.963   0.205  1.00  0.00     0.006 C 
HETATM    6  C4  UNL     1      -1.640  -1.755   0.248  1.00  0.00     0.000 C 
HETATM    7  C5  UNL     1      -2.083  -0.338   0.133  1.00  0.00     0.000 C 
HETATM    8  C6  UNL     1      -1.220   0.635   0.900  1.00  0.00     0.000 C 
HETATM    9  C7  UNL     1      -0.879   1.861   0.130  1.00  0.00     0.000 C 
HETATM   10  C8  UNL     1       0.342   1.773  -0.713  1.00  0.00     0.006 C 
HETATM   11  C9  UNL     1       1.498   1.076  -0.097  1.00  0.00     0.054 C 
ENDROOT
BRANCH   1  12
HETATM   12  O1  UNL     1       3.828  -0.257   0.311  1.00  0.00    -0.290 OA
ATOM     13  H1  UNL     1       4.662  -0.683   0.469  1.00  0.00     0.244 HD
ENDBRANCH   1  12
TORSDOF 1
