REMARK  0 active torsions:
REMARK  status: ('A' for Active; 'I' for Inactive)
ROOT
HETATM    1  C1  UNL     1      -1.406  -2.204   0.204  1.00  0.00     0.079 C 
HETATM    2  N1  UNL     1      -0.258  -2.724   0.135  1.00  0.00    -0.320 N 
ATOM      3  H1  UNL     1      -0.255  -3.631  -0.331  1.00  0.00     0.185 HD
HETATM    4  N2  UNL     1       0.979  -2.330   0.551  1.00  0.00    -0.337 N 
ATOM      5  H2  UNL     1       1.329  -2.707   1.432  1.00  0.00     0.180 HD
HETATM    6  C2  UNL     1       1.845  -1.392  -0.192  1.00  0.00     0.139 C 
HETATM    7  C3  UNL     1       2.051  -0.125   0.528  1.00  0.00     0.021 C 
HETATM    8  C4  UNL     1       1.711   1.140  -0.144  1.00  0.00     0.002 C 
HETATM    9  C5  UNL     1       0.601   1.131  -1.119  1.00  0.00     0.000 C 
HETATM   10  C6  UNL     1      -0.528   2.080  -0.762  1.00  0.00     0.000 C 
HETATM   11  C7  UNL     1      -1.490   1.490   0.222  1.00  0.00     0.000 C 
HETATM   12  C8  UNL     1      -2.073   0.176  -0.182  1.00  0.00     0.005 C 
HETATM   13  C9  UNL     1      -1.759  -0.898   0.816  1.00  0.00     0.046 C 
ENDROOT
TORSDOF 0
