REMARK  3 active torsions:
REMARK  status: ('A' for Active; 'I' for Inactive)
REMARK    1  A    between atoms: C3_9  and  N5_10 
REMARK    2  A    between atoms: N5_10  and  C4_12 
REMARK    3  A    between atoms: C9_17  and  C10_18 
ROOT
HETATM    1  C4  UNL     1       0.673  -1.270  -0.327  1.00  0.00     0.056 A 
HETATM    2  C5  UNL     1       1.519  -2.333  -0.492  1.00  0.00     0.030 A 
HETATM    3  C6  UNL     1       1.025  -3.637  -0.618  1.00  0.00     0.002 A 
HETATM    4  C7  UNL     1      -0.306  -3.870  -0.578  1.00  0.00     0.001 A 
HETATM    5  C8  UNL     1      -1.179  -2.818  -0.413  1.00  0.00     0.010 A 
HETATM    6  C9  UNL     1      -0.710  -1.529  -0.287  1.00  0.00    -0.027 A 
ENDROOT
BRANCH   1   7
HETATM    7  N5  UNL     1       1.136   0.058  -0.216  1.00  0.00    -0.191 N 
ATOM      8  H5  UNL     1       0.410   0.765  -0.098  1.00  0.00     0.184 HD
BRANCH   7   9
HETATM    9  C3  UNL     1       2.445   0.544  -0.245  1.00  0.00     0.687 A 
HETATM   10  N4  UNL     1       3.572  -0.149  -0.391  1.00  0.00    -0.163 N 
HETATM   11  C2  UNL     1       4.806   0.333  -0.420  1.00  0.00     0.209 A 
ATOM     12  H4  UNL     1       3.475  -1.159  -0.491  1.00  0.00     0.187 HD
HETATM   13  N2  UNL     1       4.925   1.679  -0.284  1.00  0.00    -0.304 N 
HETATM   14  N3  UNL     1       5.998  -0.413  -0.581  1.00  0.00    -0.063 NA
HETATM   15  C1  UNL     1       3.823   2.429  -0.133  1.00  0.00     0.209 A 
ATOM     16  H2  UNL     1       5.846   2.117  -0.297  1.00  0.00     0.171 HD
HETATM   17  N1  UNL     1       3.996   3.853   0.010  1.00  0.00    -0.063 NA
HETATM   18  N6  UNL     1       2.622   1.896  -0.112  1.00  0.00    -0.163 N 
ATOM     19  H6  UNL     1       1.808   2.499   0.005  1.00  0.00     0.187 HD
ENDBRANCH   7   9
ENDBRANCH   1   7
BRANCH   6  20
HETATM   20  C10 UNL     1      -1.661  -0.391  -0.077  1.00  0.00     0.021 C 
HETATM   21  C11 UNL     1      -3.044  -0.872  -0.467  1.00  0.00     0.009 C 
HETATM   22  C12 UNL     1      -3.984   0.256  -0.769  1.00  0.00     0.001 C 
HETATM   23  C13 UNL     1      -4.076   1.275   0.328  1.00  0.00     0.000 C 
HETATM   24  C14 UNL     1      -2.766   1.977   0.583  1.00  0.00     0.000 C 
HETATM   25  C15 UNL     1      -2.085   1.287   1.729  1.00  0.00     0.001 C 
HETATM   26  C16 UNL     1      -1.600  -0.080   1.394  1.00  0.00     0.009 C 
ENDBRANCH   6  20
TORSDOF 3
