REMARK  4 active torsions:
REMARK  status: ('A' for Active; 'I' for Inactive)
REMARK    1  A    between atoms: N1_1  and  C1_4 
REMARK    2  A    between atoms: C2_7  and  N3_8 
REMARK    3  A    between atoms: N3_8  and  C3_10 
REMARK    4  A    between atoms: C6_13  and  C7_14 
ROOT
HETATM    1  C1  UNL     1       3.879  -0.516   1.777  1.00  0.00     0.679 A 
HETATM    2  N2  UNL     1       2.772  -0.380   1.041  1.00  0.00    -0.174 N 
ATOM      3  H2  UNL     1       1.888  -0.271   1.538  1.00  0.00     0.186 HD
HETATM    4  C2  UNL     1       2.732  -0.375  -0.272  1.00  0.00     0.152 A 
HETATM    5  C14 UNL     1       3.965  -0.526  -0.917  1.00  0.00     0.131 A 
HETATM    6  N5  UNL     1       4.328  -0.569  -2.219  1.00  0.00    -0.340 N 
ATOM      7  H5  UNL     1       3.702  -0.491  -3.020  1.00  0.00     0.167 HD
HETATM    8  C15 UNL     1       5.658  -0.732  -2.269  1.00  0.00     0.236 A 
HETATM    9  O1  UNL     1       6.107  -0.787  -1.018  1.00  0.00    -0.286 OA
HETATM   10  C16 UNL     1       5.108  -0.666  -0.176  1.00  0.00     0.194 A 
HETATM   11  N6  UNL     1       5.072  -0.662   1.165  1.00  0.00    -0.168 N 
ATOM     12  H6  UNL     1       5.928  -0.767   1.710  1.00  0.00     0.186 HD
ENDROOT
BRANCH   4  13
HETATM   13  N3  UNL     1       1.606  -0.228  -1.090  1.00  0.00    -0.340 N 
ATOM     14  H3  UNL     1       1.785  -0.233  -2.094  1.00  0.00     0.167 HD
BRANCH  13  15
HETATM   15  C3  UNL     1       0.253  -0.073  -0.708  1.00  0.00     0.033 A 
HETATM   16  C4  UNL     1      -0.259  -0.256   0.551  1.00  0.00     0.030 A 
HETATM   17  C5  UNL     1      -1.590  -0.079   0.897  1.00  0.00     0.014 A 
HETATM   18  C6  UNL     1      -2.475   0.305  -0.065  1.00  0.00    -0.026 A 
HETATM   19  C12 UNL     1      -2.029   0.505  -1.345  1.00  0.00     0.014 A 
HETATM   20  C13 UNL     1      -0.707   0.323  -1.658  1.00  0.00     0.030 A 
BRANCH  18  21
HETATM   21  C7  UNL     1      -3.892   0.507   0.234  1.00  0.00    -0.023 A 
HETATM   22  C8  UNL     1      -4.612   1.450  -0.472  1.00  0.00     0.029 A 
HETATM   23  C9  UNL     1      -5.943   1.630  -0.183  1.00  0.00     0.088 A 
HETATM   24  N4  UNL     1      -6.589   0.924   0.769  1.00  0.00    -0.375 N 
HETATM   25  C10 UNL     1      -5.878   0.005   1.454  1.00  0.00     0.088 A 
ATOM     26  H4  UNL     1      -7.578   1.080   0.963  1.00  0.00     0.164 HD
HETATM   27  C11 UNL     1      -4.539  -0.220   1.208  1.00  0.00     0.029 A 
ENDBRANCH  18  21
ENDBRANCH  13  15
ENDBRANCH   4  13
BRANCH   1  28
HETATM   28  N1  UNL     1       3.842  -0.511   3.080  1.00  0.00    -0.234 N 
ATOM     29  H12 UNL     1       2.940  -0.401   3.543  1.00  0.00     0.174 HD
ATOM     30  H11 UNL     1       4.687  -0.615   3.642  1.00  0.00     0.174 HD
ENDBRANCH   1  28
TORSDOF 4
