REMARK  4 active torsions:
REMARK  status: ('A' for Active; 'I' for Inactive)
REMARK    1  A    between atoms: C8_9  and  N1_10 
REMARK    2  A    between atoms: N1_10  and  C9_12 
REMARK    3  A    between atoms: C13_16  and  N2_17 
REMARK    4  A    between atoms: N2_17  and  C14_19 
ROOT
HETATM    1  C9  UNL     1       0.318   1.579   0.939  1.00  0.00     0.034 A 
HETATM    2  C10 UNL     1       1.018   2.264   1.887  1.00  0.00     0.029 A 
HETATM    3  C11 UNL     1       2.303   1.897   2.224  1.00  0.00     0.004 A 
HETATM    4  C12 UNL     1       2.878   0.795   1.562  1.00  0.00     0.030 A 
HETATM    5  C13 UNL     1       2.226   0.084   0.615  1.00  0.00     0.051 A 
HETATM    6  C15 UNL     1       0.911   0.517   0.321  1.00  0.00     0.059 A 
ENDROOT
BRANCH   1   7
HETATM    7  N1  UNL     1      -1.028   1.966   0.591  1.00  0.00    -0.354 N 
ATOM      8  H1  UNL     1      -1.438   2.752   1.096  1.00  0.00     0.166 HD
BRANCH   7   9
HETATM    9  C8  UNL     1      -1.775   1.374  -0.340  1.00  0.00     0.066 A 
HETATM   10  C7  UNL     1      -2.430   0.247   0.280  1.00  0.00     0.099 A 
HETATM   11  C6  UNL     1      -2.660  -0.509   1.354  1.00  0.00     0.017 A 
HETATM   12  O1  UNL     1      -3.051  -0.243  -0.513  1.00  0.00    -0.309 OA
HETATM   13  C5  UNL     1      -3.581  -1.618   1.089  1.00  0.00     0.060 A 
HETATM   14  C4  UNL     1      -4.140  -1.793  -0.254  1.00  0.00     0.014 A 
HETATM   15  C3  UNL     1      -3.735  -0.884  -1.142  1.00  0.00     0.072 A 
HETATM   16  C2  UNL     1      -3.717  -0.305  -2.460  1.00  0.00     0.037 A 
HETATM   17  C1  UNL     1      -2.915   0.838  -2.655  1.00  0.00     0.005 A 
HETATM   18  C16 UNL     1      -2.034   1.603  -1.697  1.00  0.00     0.032 A 
ENDBRANCH   7   9
ENDBRANCH   1   7
BRANCH   5  19
HETATM   19  N2  UNL     1       2.762  -0.995  -0.068  1.00  0.00    -0.189 N 
ATOM     20  H2  UNL     1       2.107  -1.564  -0.605  1.00  0.00     0.184 HD
BRANCH  19  21
HETATM   21  C14 UNL     1       4.104  -1.390  -0.102  1.00  0.00     0.714 A 
HETATM   22  N3  UNL     1       5.167  -0.861   0.480  1.00  0.00    -0.115 N 
HETATM   23  N4  UNL     1       6.213  -1.569   0.166  1.00  0.00    -0.213 N 
ATOM     24  H3  UNL     1       5.167  -0.034   1.077  1.00  0.00     0.207 HD
HETATM   25  N5  UNL     1       5.852  -2.562  -0.618  1.00  0.00    -0.213 N 
ATOM     26  H4  UNL     1       7.166  -1.383   0.479  1.00  0.00     0.210 HD
HETATM   27  N6  UNL     1       4.556  -2.476  -0.800  1.00  0.00    -0.115 N 
ATOM     28  H5  UNL     1       6.469  -3.271  -1.013  1.00  0.00     0.210 HD
ATOM     29  H6  UNL     1       3.986  -3.107  -1.363  1.00  0.00     0.207 HD
ENDBRANCH  19  21
ENDBRANCH   5  19
TORSDOF 4
