REMARK  4 active torsions:
REMARK  status: ('A' for Active; 'I' for Inactive)
REMARK    1  A    between atoms: N1_1  and  C1_4 
REMARK    2  A    between atoms: C4_11  and  C5_12 
REMARK    3  A    between atoms: C7_16  and  N5_17 
REMARK    4  A    between atoms: N5_17  and  C8_19 
ROOT
HETATM    1  C1  UNL     1       6.179   0.617  -0.755  1.00  0.00     0.119 A 
HETATM    2  N2  UNL     1       6.414   0.844   0.550  1.00  0.00    -0.338 N 
ATOM      3  H2  UNL     1       7.342   1.056   0.917  1.00  0.00     0.168 HD
HETATM    4  C2  UNL     1       5.325   0.768   1.327  1.00  0.00     0.182 A 
HETATM    5  N3  UNL     1       4.087   0.498   0.929  1.00  0.00    -0.350 N 
ATOM      6  H3  UNL     1       3.339   0.467   1.622  1.00  0.00     0.166 HD
HETATM    7  C3  UNL     1       3.784   0.258  -0.398  1.00  0.00     0.067 A 
HETATM    8  C4  UNL     1       2.606  -0.043  -0.958  1.00  0.00     0.034 A 
HETATM    9  C13 UNL     1       2.629  -0.261  -2.344  1.00  0.00     0.067 A 
HETATM   10  S1  UNL     1       4.253  -0.032  -2.760  1.00  0.00    -0.095 SA
HETATM   11  C14 UNL     1       4.882   0.328  -1.216  1.00  0.00     0.076 A 
ENDROOT
BRANCH   8  12
HETATM   12  C5  UNL     1       1.273  -0.080  -0.291  1.00  0.00     0.107 A 
HETATM   13  C6  UNL     1       0.843   0.424   0.893  1.00  0.00     0.130 A 
HETATM   14  N4  UNL     1      -0.488   0.133   1.067  1.00  0.00    -0.329 N 
HETATM   15  C7  UNL     1      -0.842  -0.544  -0.018  1.00  0.00     0.225 A 
ATOM     16  H4  UNL     1      -1.078   0.384   1.860  1.00  0.00     0.168 HD
HETATM   17  O1  UNL     1       0.190  -0.661  -0.801  1.00  0.00    -0.277 OA
BRANCH  15  18
HETATM   18  N5  UNL     1      -2.170  -1.047  -0.247  1.00  0.00    -0.351 N 
ATOM     19  H5  UNL     1      -2.384  -1.560  -1.102  1.00  0.00     0.163 HD
BRANCH  18  20
HETATM   20  C8  UNL     1      -3.189  -0.822   0.734  1.00  0.00     0.085 C 
HETATM   21  C9  UNL     1      -4.485  -1.444   0.268  1.00  0.00     0.025 C 
HETATM   22  C10 UNL     1      -5.581  -0.454   0.597  1.00  0.00     0.002 C 
HETATM   23  C11 UNL     1      -4.877   0.882   0.450  1.00  0.00     0.002 C 
HETATM   24  C12 UNL     1      -3.480   0.641   0.973  1.00  0.00     0.025 C 
ENDBRANCH  18  20
ENDBRANCH  15  18
ENDBRANCH   8  12
BRANCH   1  25
HETATM   25  N1  UNL     1       7.105   0.649  -1.643  1.00  0.00    -0.384 N 
ATOM     26  H12 UNL     1       8.046   0.859  -1.309  1.00  0.00     0.157 HD
ATOM     27  H11 UNL     1       6.927   0.477  -2.632  1.00  0.00     0.157 HD
ENDBRANCH   1  25
TORSDOF 4
