REMARK  3 active torsions:
REMARK  status: ('A' for Active; 'I' for Inactive)
REMARK    1  A    between atoms: C2_2  and  C3_3 
REMARK    2  A    between atoms: C7_7  and  C8_8 
REMARK    3  A    between atoms: C8_8  and  C9_9 
ROOT
HETATM    1  C9  UNL     1      -1.204  -0.152  -0.601  1.00  0.00     0.045 A 
HETATM    2  C10 UNL     1      -2.159   0.349  -1.464  1.00  0.00     0.159 A 
HETATM    3  N1  UNL     1      -3.258   0.682  -0.767  1.00  0.00     0.013 N 
HETATM    4  C11 UNL     1      -3.027   0.405   0.531  1.00  0.00     0.700 A 
HETATM    5  N2  UNL     1      -1.789  -0.096   0.618  1.00  0.00    -0.193 N 
ATOM      6  H2  UNL     1      -1.346  -0.395   1.487  1.00  0.00     0.184 HD
HETATM    7  N3  UNL     1      -4.010   0.649   1.532  1.00  0.00    -0.208 N 
ATOM      8  H3  UNL     1      -3.731   0.666   2.513  1.00  0.00     0.179 HD
HETATM    9  C12 UNL     1      -5.398   0.873   1.185  1.00  0.00     0.280 C 
HETATM   10  N4  UNL     1      -5.537   1.488  -0.118  1.00  0.00    -0.209 N 
ATOM     11  H4  UNL     1      -6.333   2.089  -0.332  1.00  0.00     0.179 HD
HETATM   12  C13 UNL     1      -4.534   1.232  -1.090  1.00  0.00     0.694 C 
HETATM   13  N5  UNL     1      -4.804   1.517  -2.329  1.00  0.00    -0.234 N 
ATOM     14  H51 UNL     1      -5.716   1.910  -2.560  1.00  0.00     0.174 HD
ATOM     15  H52 UNL     1      -4.084   1.333  -3.027  1.00  0.00     0.174 HD
ENDROOT
BRANCH   1  16
HETATM   16  C8  UNL     1       0.152  -0.635  -0.973  1.00  0.00     0.079 C 
BRANCH  16  17
HETATM   17  C7  UNL     1       0.835  -1.080   0.316  1.00  0.00     0.092 C 
HETATM   18  C5  UNL     1       2.162  -1.556  -0.064  1.00  0.00    -0.071 C 
HETATM   19  C4  UNL     1       3.337  -1.316   0.433  1.00  0.00    -0.007 C 
HETATM   20  C6  UNL     1       2.137  -2.505  -1.267  1.00  0.00     0.044 C 
HETATM   21  C3  UNL     1       3.780  -0.488   1.551  1.00  0.00     0.081 C 
HETATM   22  S2  UNL     1       2.550   0.300   2.554  1.00  0.00    -0.088 SA
HETATM   23  S1  UNL     1       0.728   0.261   1.469  1.00  0.00    -0.087 SA
BRANCH  21  24
HETATM   24  C2  UNL     1       4.801   0.557   1.148  1.00  0.00     0.015 C 
HETATM   25  C1  UNL     1       4.243   1.503   0.104  1.00  0.00     0.006 C 
ENDBRANCH  21  24
ENDBRANCH  16  17
ENDBRANCH   1  16
TORSDOF 3
