REMARK  3 active torsions:
REMARK  status: ('A' for Active; 'I' for Inactive)
REMARK    1  A    between atoms: C2_7  and  N3_8 
REMARK    2  A    between atoms: N4_10  and  C3_12 
REMARK    3  A    between atoms: C10_22  and  C11_23 
ROOT
HETATM    1  N1  UNL     1       4.873  -3.655  -1.748  1.00  0.00    -0.234 N 
ATOM      2  H11 UNL     1       5.840  -3.863  -1.498  1.00  0.00     0.174 HD
ATOM      3  H12 UNL     1       4.570  -4.352  -2.428  1.00  0.00     0.174 HD
HETATM    4  C1  UNL     1       4.163  -2.682  -1.283  1.00  0.00     0.678 A 
HETATM    5  N2  UNL     1       2.870  -2.404  -1.617  1.00  0.00    -0.173 N 
ATOM      6  H2  UNL     1       2.290  -2.924  -2.275  1.00  0.00     0.186 HD
HETATM    7  C2  UNL     1       2.502  -1.317  -0.917  1.00  0.00     0.166 A 
HETATM    8  C10 UNL     1       3.560  -0.901  -0.136  1.00  0.00     0.128 A 
HETATM    9  N7  UNL     1       4.566  -1.755  -0.379  1.00  0.00    -0.185 N 
ATOM     10  H7  UNL     1       5.491  -1.713   0.050  1.00  0.00     0.184 HD
ENDROOT
BRANCH   7  11
HETATM   11  N3  UNL     1       1.233  -0.641  -0.926  1.00  0.00    -0.281 N 
HETATM   12  N4  UNL     1       0.265  -1.274  -0.398  1.00  0.00    -0.283 N 
ATOM     13  H4  UNL     1       0.444  -2.200  -0.010  1.00  0.00     0.188 HD
ATOM     14  H3  UNL     1       1.117   0.288  -1.331  1.00  0.00     0.188 HD
BRANCH  12  15
HETATM   15  C3  UNL     1      -1.052  -0.752  -0.324  1.00  0.00     0.137 A 
HETATM   16  C4  UNL     1      -1.844  -0.564   0.786  1.00  0.00     0.142 A 
HETATM   17  N5  UNL     1      -3.012  -0.044   0.356  1.00  0.00    -0.343 N 
HETATM   18  C5  UNL     1      -2.975   0.099  -0.990  1.00  0.00     0.084 A 
HETATM   19  C9  UNL     1      -4.235   0.371   1.014  1.00  0.00     0.130 C 
HETATM   20  N6  UNL     1      -1.775  -0.339  -1.376  1.00  0.00    -0.330 N 
HETATM   21  C6  UNL     1      -4.199   0.664  -1.616  1.00  0.00     0.076 C 
ATOM     22  H6  UNL     1      -1.450  -0.357  -2.343  1.00  0.00     0.168 HD
HETATM   23  C7  UNL     1      -4.485   1.973  -0.914  1.00  0.00     0.009 C 
HETATM   24  C8  UNL     1      -4.724   1.710   0.555  1.00  0.00     0.021 C 
ENDBRANCH  12  15
ENDBRANCH   7  11
BRANCH   8  25
HETATM   25  C11 UNL     1       3.556   0.252   0.772  1.00  0.00     0.106 A 
HETATM   26  C12 UNL     1       4.624   0.655   1.546  1.00  0.00     0.041 A 
HETATM   27  C13 UNL     1       4.230   1.770   2.258  1.00  0.00     0.027 A 
HETATM   28  C14 UNL     1       2.927   2.011   1.890  1.00  0.00     0.142 A 
HETATM   29  O1  UNL     1       2.600   1.091   1.024  1.00  0.00    -0.320 OA
ENDBRANCH   8  25
TORSDOF 3
