REMARK  5 active torsions:
REMARK  status: ('A' for Active; 'I' for Inactive)
REMARK    1  A    between atoms: C2_3  and  S1_16 
REMARK    2  A    between atoms: N2_4  and  N3_6 
REMARK    3  A    between atoms: N3_6  and  C3_8 
REMARK    4  A    between atoms: S1_16  and  C10_17 
REMARK    5  A    between atoms: C12_20  and  N5_21 
ROOT
HETATM    1  N1  UNL     1       2.561  -1.989  -1.880  1.00  0.00    -0.189 NA
HETATM    2  C1  UNL     1       1.832  -1.270  -1.325  1.00  0.00     0.127 C 
HETATM    3  C2  UNL     1       0.947  -0.395  -0.631  1.00  0.00     0.172 C 
HETATM    4  N2  UNL     1      -0.297  -0.445  -0.839  1.00  0.00    -0.284 N 
ATOM      5  H2  UNL     1      -0.628  -1.131  -1.518  1.00  0.00     0.188 HD
ENDROOT
BRANCH   3   6
HETATM    6  S1  UNL     1       1.617   0.766   0.532  1.00  0.00    -0.042 SA
BRANCH   6   7
HETATM    7  C10 UNL     1       3.440   0.589   0.606  1.00  0.00     0.085 A 
HETATM    8  C11 UNL     1       3.990  -0.287   1.509  1.00  0.00     0.090 A 
HETATM    9  S2  UNL     1       5.658  -0.105   1.209  1.00  0.00    -0.064 SA
HETATM   10  C12 UNL     1       5.569   1.056  -0.029  1.00  0.00     0.142 A 
HETATM   11  N6  UNL     1       4.252   1.258  -0.162  1.00  0.00    -0.331 N 
ATOM     12  H6  UNL     1       3.893   1.921  -0.849  1.00  0.00     0.168 HD
BRANCH  10  13
HETATM   13  N5  UNL     1       6.537   1.632  -0.707  1.00  0.00    -0.380 N 
ATOM     14  H52 UNL     1       7.540   1.478  -0.606  1.00  0.00     0.158 HD
ATOM     15  H51 UNL     1       6.484   2.329  -1.450  1.00  0.00     0.158 HD
ENDBRANCH  10  13
ENDBRANCH   6   7
ENDBRANCH   3   6
BRANCH   4  16
HETATM   16  N3  UNL     1      -1.245   0.344  -0.231  1.00  0.00    -0.298 N 
ATOM     17  H3  UNL     1      -0.923   1.259   0.084  1.00  0.00     0.187 HD
BRANCH  16  18
HETATM   18  C3  UNL     1      -2.586   0.060   0.012  1.00  0.00     0.068 A 
HETATM   19  C4  UNL     1      -3.407   0.997   0.650  1.00  0.00     0.032 A 
HETATM   20  C5  UNL     1      -4.723   0.778   0.915  1.00  0.00     0.002 A 
HETATM   21  C6  UNL     1      -5.279  -0.429   0.536  1.00  0.00     0.002 A 
HETATM   22  C7  UNL     1      -4.531  -1.397  -0.095  1.00  0.00     0.025 A 
HETATM   23  C8  UNL     1      -3.181  -1.116  -0.342  1.00  0.00     0.072 A 
HETATM   24  C9  UNL     1      -2.428  -2.150  -1.004  1.00  0.00     0.102 C 
HETATM   25  N4  UNL     1      -1.843  -2.997  -1.537  1.00  0.00    -0.191 NA
ENDBRANCH  16  18
ENDBRANCH   4  16
TORSDOF 5
