REMARK  3 active torsions:
REMARK  status: ('A' for Active; 'I' for Inactive)
REMARK       I    between atoms: C2_2  and  N1_4 
REMARK    1  A    between atoms: N1_4  and  C4_6 
REMARK    2  A    between atoms: C17_19  and  O2_20 
REMARK    3  A    between atoms: C18_22  and  N2_23 
REMARK       I    between atoms: N2_23  and  C20_25 
ROOT
HETATM    1  C4  UNL     1      -4.500   0.115   0.240  1.00  0.00     0.087 C 
HETATM    2  C5  UNL     1      -3.414   1.169   0.403  1.00  0.00     0.026 C 
HETATM    3  C6  UNL     1      -2.867   1.295  -1.026  1.00  0.00     0.007 C 
HETATM    4  C7  UNL     1      -1.915   0.091  -1.183  1.00  0.00    -0.006 C 
HETATM    5  C8  UNL     1      -2.471  -1.155  -0.639  1.00  0.00    -0.008 C 
HETATM    6  C9  UNL     1      -1.537  -1.814   0.401  1.00  0.00     0.005 C 
HETATM    7  C10 UNL     1      -0.206  -1.860  -0.372  1.00  0.00     0.006 C 
HETATM    8  C11 UNL     1       0.351  -0.469  -0.160  1.00  0.00    -0.005 C 
HETATM    9  C12 UNL     1      -0.588   0.548  -0.709  1.00  0.00    -0.006 C 
HETATM   10  C13 UNL     1       0.104   1.296  -1.865  1.00  0.00     0.006 C 
HETATM   11  C14 UNL     1       1.315   2.032  -1.418  1.00  0.00     0.012 C 
HETATM   12  C15 UNL     1       2.101   1.183  -0.485  1.00  0.00    -0.012 C 
HETATM   13  C16 UNL     1       1.993   1.642   0.926  1.00  0.00     0.018 C 
HETATM   14  C17 UNL     1       3.579   1.091  -0.903  1.00  0.00     0.150 C 
HETATM   15  C18 UNL     1       3.975  -0.093  -0.019  1.00  0.00     0.120 C 
HETATM   16  C22 UNL     1       2.829  -1.063  -0.122  1.00  0.00     0.012 C 
HETATM   17  C23 UNL     1       2.665  -1.787   1.151  1.00  0.00     0.012 C 
HETATM   18  C24 UNL     1       1.721  -0.294  -0.665  1.00  0.00     0.006 C 
HETATM   19  C25 UNL     1      -3.856  -1.176  -0.141  1.00  0.00     0.030 C 
ENDROOT
BRANCH   1  20
HETATM   20  N1  UNL     1      -5.339   0.025   1.396  1.00  0.00    -0.352 N 
HETATM   21  C2  UNL     1      -6.708   0.369   1.289  1.00  0.00     0.215 C 
HETATM   22  C1  UNL     1      -7.331   0.824   0.026  1.00  0.00     0.117 C 
HETATM   23  O1  UNL     1      -7.426   0.284   2.314  1.00  0.00    -0.274 OA
HETATM   24  C3  UNL     1      -4.798  -0.419   2.688  1.00  0.00     0.153 C 
ENDBRANCH   1  20
BRANCH  14  25
HETATM   25  O2  UNL     1       3.619   0.783  -2.245  1.00  0.00    -0.393 OA
ATOM     26  H2  UNL     1       4.532   0.726  -2.503  1.00  0.00     0.210 HD
ENDBRANCH  14  25
BRANCH  15  27
HETATM   27  N2  UNL     1       5.264  -0.610  -0.355  1.00  0.00    -0.349 N 
HETATM   28  C19 UNL     1       5.557  -1.219  -1.619  1.00  0.00     0.153 C 
HETATM   29  C20 UNL     1       6.305  -0.508   0.610  1.00  0.00     0.215 C 
HETATM   30  C21 UNL     1       6.094   0.131   1.953  1.00  0.00     0.117 C 
HETATM   31  O3  UNL     1       7.447  -0.977   0.310  1.00  0.00    -0.274 OA
ENDBRANCH  15  27
TORSDOF 3
