REMARK  3 active torsions:
REMARK  status: ('A' for Active; 'I' for Inactive)
REMARK    1  A    between atoms: C2_2  and  N1_3 
REMARK       I    between atoms: N1_3  and  C3_5 
REMARK    2  A    between atoms: C3_5  and  C4_7 
REMARK    3  A    between atoms: C11_14  and  C12_15 
REMARK       I    between atoms: C12_15  and  N2_17 
ROOT
HETATM    1  C4  UNL     1      -0.392  -0.305  -1.496  1.00  0.00     0.046 C 
HETATM    2  C5  UNL     1      -0.006  -1.749  -1.704  1.00  0.00     0.024 C 
HETATM    3  C6  UNL     1       1.495  -1.851  -1.530  1.00  0.00    -0.012 C 
HETATM    4  C7  UNL     1       2.120  -0.732  -2.323  1.00  0.00     0.010 C 
HETATM    5  C8  UNL     1       1.437   0.564  -1.950  1.00  0.00    -0.007 C 
HETATM    6  C9  UNL     1       0.077   0.524  -2.671  1.00  0.00     0.025 C 
HETATM    7  C10 UNL     1       0.626   0.443  -0.675  1.00  0.00     0.020 C 
HETATM    8  C11 UNL     1       1.276  -0.348   0.391  1.00  0.00     0.084 C 
HETATM    9  C17 UNL     1       1.768  -1.693  -0.043  1.00  0.00     0.019 C 
ENDROOT
BRANCH   1  10
HETATM   10  C3  UNL     1      -1.794  -0.056  -1.186  1.00  0.00     0.227 C 
HETATM   11  N1  UNL     1      -2.468  -0.572  -0.048  1.00  0.00    -0.352 N 
ATOM     12  H1  UNL     1      -1.956  -1.159   0.610  1.00  0.00     0.163 HD
HETATM   13  O1  UNL     1      -2.456   0.677  -1.999  1.00  0.00    -0.273 OA
BRANCH  11  14
HETATM   14  C2  UNL     1      -3.858  -0.286   0.199  1.00  0.00     0.029 C 
HETATM   15  C1  UNL     1      -4.683  -0.808  -0.970  1.00  0.00     0.038 C 
HETATM   16  C18 UNL     1      -4.307  -0.892   1.493  1.00  0.00     0.031 C 
HETATM   17  C19 UNL     1      -5.757  -0.636   1.756  1.00  0.00     0.002 C 
HETATM   18  C20 UNL     1      -6.214   0.721   1.210  1.00  0.00     0.000 C 
HETATM   19  C21 UNL     1      -5.033   1.640   1.271  1.00  0.00     0.002 C 
HETATM   20  C22 UNL     1      -4.025   1.230   0.218  1.00  0.00     0.031 C 
ENDBRANCH  11  14
ENDBRANCH   1  10
BRANCH   8  21
HETATM   21  C12 UNL     1       2.347   0.475   1.009  1.00  0.00     0.226 C 
HETATM   22  O2  UNL     1       2.339   0.774   2.252  1.00  0.00    -0.273 OA
HETATM   23  N2  UNL     1       3.449   0.984   0.270  1.00  0.00    -0.333 N 
HETATM   24  C13 UNL     1       4.673   0.676   0.537  1.00  0.00     0.004 C 
ATOM     25  H2  UNL     1       3.264   1.621  -0.505  1.00  0.00     0.168 HD
HETATM   26  C14 UNL     1       5.237  -0.205   1.579  1.00  0.00     0.068 C 
HETATM   27  C16 UNL     1       5.805   1.245  -0.279  1.00  0.00     0.192 C 
HETATM   28  C15 UNL     1       6.235   0.642   2.366  1.00  0.00     0.146 C 
HETATM   29  S1  UNL     1       6.991   1.578   1.030  1.00  0.00     0.149 S 
HETATM   30  O3  UNL     1       8.341   1.067   0.694  1.00  0.00    -0.228 OA
HETATM   31  O4  UNL     1       7.016   3.030   1.362  1.00  0.00    -0.228 OA
ENDBRANCH   8  21
TORSDOF 3
