REMARK  2 active torsions:
REMARK  status: ('A' for Active; 'I' for Inactive)
REMARK    1  A    between atoms: C2_2  and  C4_4 
REMARK       I    between atoms: C4_4  and  N1_6 
REMARK       I    between atoms: N2_10  and  C8_11 
REMARK       I    between atoms: C8_11  and  N3_13 
REMARK    2  A    between atoms: N3_13  and  C9_15 
ROOT
HETATM    1  C4  UNL     1      -4.314  -1.275  -0.417  1.00  0.00     0.223 C 
HETATM    2  O1  UNL     1      -4.595  -1.671  -1.604  1.00  0.00    -0.273 OA
HETATM    3  N1  UNL     1      -2.973  -0.947  -0.094  1.00  0.00    -0.346 N 
HETATM    4  C5  UNL     1      -2.598  -0.506   1.195  1.00  0.00     0.133 C 
HETATM    5  C6  UNL     1      -1.572   0.600   1.270  1.00  0.00     0.037 C 
HETATM    6  C7  UNL     1      -0.192   0.129   1.531  1.00  0.00     0.135 C 
HETATM    7  N2  UNL     1       0.643  -0.235   0.428  1.00  0.00    -0.329 N 
HETATM    8  C8  UNL     1       2.008  -0.099   0.742  1.00  0.00     0.319 C 
HETATM    9  O2  UNL     1       2.296   0.297   1.929  1.00  0.00    -0.247 OA
HETATM   10  N3  UNL     1       3.134  -0.334  -0.063  1.00  0.00    -0.338 N 
ATOM     11  H3  UNL     1       2.993  -0.648  -1.023  1.00  0.00     0.164 HD
HETATM   12  C15 UNL     1       0.336  -0.712  -0.887  1.00  0.00     0.095 C 
HETATM   13  C16 UNL     1      -0.759  -1.754  -0.736  1.00  0.00     0.052 C 
HETATM   14  C17 UNL     1      -2.038  -1.130  -1.214  1.00  0.00     0.100 C 
HETATM   15  C18 UNL     1      -1.725   0.217  -1.769  1.00  0.00     0.085 C 
HETATM   16  C19 UNL     1      -2.365   1.304  -0.990  1.00  0.00     0.142 C 
HETATM   17  O3  UNL     1      -3.358   1.822  -1.423  1.00  0.00    -0.297 OA
HETATM   18  C20 UNL     1      -1.751   1.706   0.286  1.00  0.00     0.024 C 
HETATM   19  C21 UNL     1      -2.617   2.810   0.868  1.00  0.00     0.024 C 
HETATM   20  C22 UNL     1      -0.447   2.374  -0.103  1.00  0.00     0.018 C 
HETATM   21  C23 UNL     1       0.186   1.776  -1.308  1.00  0.00     0.009 C 
HETATM   22  C24 UNL     1      -0.233   0.412  -1.694  1.00  0.00     0.022 C 
ENDROOT
BRANCH  10  23
HETATM   23  C9  UNL     1       4.499  -0.146   0.420  1.00  0.00     0.086 C 
HETATM   24  C10 UNL     1       5.231  -1.472   0.446  1.00  0.00     0.025 C 
HETATM   25  C11 UNL     1       6.090  -1.637  -0.778  1.00  0.00     0.002 C 
HETATM   26  C12 UNL     1       7.201  -0.613  -0.704  1.00  0.00     0.000 C 
HETATM   27  C13 UNL     1       6.732   0.683  -0.084  1.00  0.00     0.002 C 
HETATM   28  C14 UNL     1       5.241   0.906  -0.343  1.00  0.00     0.025 C 
ENDBRANCH  10  23
BRANCH   1  29
HETATM   29  C2  UNL     1      -5.469  -1.206   0.502  1.00  0.00     0.070 C 
HETATM   30  C1  UNL     1      -5.882   0.195   0.877  1.00  0.00     0.019 C 
HETATM   31  C3  UNL     1      -6.701  -1.881  -0.088  1.00  0.00     0.019 C 
ENDBRANCH   1  29
TORSDOF 2
