REMARK  2 active torsions:
REMARK  status: ('A' for Active; 'I' for Inactive)
REMARK       I    between atoms: N1_14  and  C13_15 
REMARK    1  A    between atoms: C13_15  and  C14_17 
REMARK       I    between atoms: N3_23  and  C17_24 
REMARK    2  A    between atoms: C17_24  and  C18_26 
ROOT
HETATM    1  O1  UNL     1      -0.605  -0.262   2.485  1.00  0.00    -0.273 OA
HETATM    2  C1  UNL     1      -1.306  -0.906   1.631  1.00  0.00     0.226 C 
HETATM    3  C2  UNL     1      -2.654  -1.312   2.063  1.00  0.00     0.103 C 
HETATM    4  C3  UNL     1      -3.327  -0.199   2.838  1.00  0.00     0.009 C 
HETATM    5  C4  UNL     1      -4.822  -0.292   2.811  1.00  0.00     0.000 C 
HETATM    6  C5  UNL     1      -5.436   0.030   1.488  1.00  0.00     0.000 C 
HETATM    7  C6  UNL     1      -5.724   1.476   1.266  1.00  0.00     0.000 C 
HETATM    8  C7  UNL     1      -5.083   2.070   0.054  1.00  0.00     0.000 C 
HETATM    9  C8  UNL     1      -5.153   1.231  -1.170  1.00  0.00     0.000 C 
HETATM   10  C9  UNL     1      -3.905   0.603  -1.631  1.00  0.00     0.000 C 
HETATM   11  C10 UNL     1      -2.633   1.056  -1.026  1.00  0.00     0.002 C 
HETATM   12  C11 UNL     1      -1.517   0.162  -1.529  1.00  0.00     0.020 C 
HETATM   13  C12 UNL     1      -1.477  -1.189  -0.863  1.00  0.00     0.135 C 
HETATM   14  N1  UNL     1      -0.695  -1.145   0.383  1.00  0.00    -0.287 N 
HETATM   15  C13 UNL     1       0.712  -1.355   0.287  1.00  0.00     0.251 C 
HETATM   16  O2  UNL     1       1.394  -1.291   1.361  1.00  0.00    -0.271 OA
ENDROOT
BRANCH  15  17
HETATM   17  C14 UNL     1       1.442  -1.639  -0.956  1.00  0.00     0.207 C 
HETATM   18  C15 UNL     1       1.477  -3.149  -1.242  1.00  0.00     0.160 C 
HETATM   19  N2  UNL     1       2.208  -3.591  -0.071  1.00  0.00    -0.340 N 
HETATM   20  C16 UNL     1       3.268  -2.611   0.038  1.00  0.00     0.326 C 
ATOM     21  H2  UNL     1       2.021  -4.395   0.529  1.00  0.00     0.164 HD
HETATM   22  O3  UNL     1       4.324  -2.824   0.675  1.00  0.00    -0.247 OA
HETATM   23  N3  UNL     1       2.886  -1.451  -0.677  1.00  0.00    -0.254 N 
HETATM   24  C17 UNL     1       3.687  -0.369  -1.067  1.00  0.00     0.232 C 
HETATM   25  O4  UNL     1       3.095   0.530  -1.765  1.00  0.00    -0.272 OA
BRANCH  24  26
HETATM   26  C18 UNL     1       5.114  -0.145  -0.769  1.00  0.00     0.078 C 
HETATM   27  C19 UNL     1       5.667   0.925  -1.716  1.00  0.00     0.014 C 
HETATM   28  C20 UNL     1       5.302   2.268  -1.151  1.00  0.00     0.001 C 
HETATM   29  C21 UNL     1       6.351   2.564  -0.071  1.00  0.00     0.000 C 
HETATM   30  C22 UNL     1       6.634   1.248   0.633  1.00  0.00     0.001 C 
HETATM   31  C23 UNL     1       5.367   0.372   0.635  1.00  0.00     0.014 C 
ENDBRANCH  24  26
ENDBRANCH  15  17
TORSDOF 2
