REMARK  5 active torsions:
REMARK  status: ('A' for Active; 'I' for Inactive)
REMARK    1  A    between atoms: C2_3  and  C3_4 
REMARK    2  A    between atoms: C4_5  and  C5_6 
REMARK       I    between atoms: C5_6  and  N2_8 
REMARK    3  A    between atoms: N2_8  and  C6_9 
REMARK    4  A    between atoms: C14_19  and  S1_20 
REMARK    5  A    between atoms: S1_20  and  C15_21 
ROOT
HETATM    1  C1  UNL     1      -2.654   2.599  -1.133  1.00  0.00     0.158 C 
HETATM    2  N1  UNL     1      -2.545   1.284  -0.542  1.00  0.00    -0.331 N 
HETATM    3  C2  UNL     1      -1.390   0.550  -0.448  1.00  0.00     0.051 A 
HETATM    4  C13 UNL     1      -1.782  -0.610   0.169  1.00  0.00     0.119 A 
HETATM    5  N3  UNL     1      -3.121  -0.588   0.447  1.00  0.00    -0.344 N 
ATOM      6  H3  UNL     1      -3.675  -1.314   0.902  1.00  0.00     0.167 HD
HETATM    7  C14 UNL     1      -3.542   0.590  -0.007  1.00  0.00     0.146 A 
ENDROOT
BRANCH   3   8
HETATM    8  C3  UNL     1      -0.153   1.015  -1.022  1.00  0.00     0.038 C 
HETATM    9  C4  UNL     1       1.091   0.777  -0.851  1.00  0.00     0.092 C 
BRANCH   9  10
HETATM   10  C5  UNL     1       1.798  -0.115   0.065  1.00  0.00     0.310 C 
HETATM   11  O1  UNL     1       1.123  -0.747   0.875  1.00  0.00    -0.252 OA
HETATM   12  N2  UNL     1       3.163  -0.192  -0.035  1.00  0.00    -0.406 NA
BRANCH  12  13
HETATM   13  C6  UNL     1       4.540  -0.271  -0.136  1.00  0.00     0.167 C 
HETATM   14  C7  UNL     1       4.851  -1.363  -1.174  1.00  0.00     0.039 C 
HETATM   15  C8  UNL     1       6.293  -1.748  -1.152  1.00  0.00     0.003 C 
HETATM   16  C9  UNL     1       7.236  -0.571  -1.167  1.00  0.00     0.000 C 
HETATM   17  C10 UNL     1       7.243   0.194   0.130  1.00  0.00     0.000 C 
HETATM   18  C11 UNL     1       6.370   1.390   0.013  1.00  0.00     0.003 C 
HETATM   19  C12 UNL     1       5.079   1.065  -0.635  1.00  0.00     0.039 C 
ENDBRANCH  12  13
ENDBRANCH   9  10
ENDBRANCH   3   8
BRANCH   7  20
HETATM   20  S1  UNL     1      -5.236   1.193   0.112  1.00  0.00    -0.089 SA
BRANCH  20  21
HETATM   21  C15 UNL     1      -6.241  -0.082   0.921  1.00  0.00     0.055 C 
HETATM   22  C16 UNL     1      -6.429  -1.311   0.103  1.00  0.00     0.015 C 
HETATM   23  C17 UNL     1      -7.827  -1.799   0.396  1.00  0.00     0.001 C 
HETATM   24  C18 UNL     1      -8.493  -0.774   1.260  1.00  0.00     0.001 C 
HETATM   25  C19 UNL     1      -7.618   0.443   1.164  1.00  0.00     0.015 C 
ENDBRANCH  20  21
ENDBRANCH   7  20
TORSDOF 5
