REMARK  6 active torsions:
REMARK  status: ('A' for Active; 'I' for Inactive)
REMARK    1  A    between atoms: C2_2  and  C3_3 
REMARK    2  A    between atoms: C3_3  and  C4_4 
REMARK    3  A    between atoms: C3_3  and  C6_6 
REMARK    4  A    between atoms: C6_6  and  N1_8 
REMARK    5  A    between atoms: N2_11  and  C10_12 
REMARK    6  A    between atoms: C15_19  and  N4_20 
ROOT
HETATM    1  N1  UNL     1      -1.470  -0.405  -0.329  1.00  0.00     0.096 N 
HETATM    2  C8  UNL     1      -0.949  -1.492  -1.082  1.00  0.00     0.292 C 
HETATM    3  C9  UNL     1       0.422  -1.903  -0.522  1.00  0.00     0.153 C 
HETATM    4  N2  UNL     1       1.239  -0.727  -0.284  1.00  0.00    -0.376 N 
HETATM    5  C18 UNL     1       0.776   0.543  -0.792  1.00  0.00     0.153 C 
HETATM    6  C19 UNL     1      -0.672   0.745  -0.287  1.00  0.00     0.292 C 
ENDROOT
BRANCH   4   7
HETATM    7  C10 UNL     1       2.400  -0.906   0.483  1.00  0.00     0.050 A 
HETATM    8  C11 UNL     1       2.385  -1.723   1.623  1.00  0.00     0.031 A 
HETATM    9  C12 UNL     1       3.557  -1.849   2.320  1.00  0.00     0.005 A 
HETATM   10  C13 UNL     1       4.690  -1.213   1.930  1.00  0.00     0.031 A 
HETATM   11  C14 UNL     1       4.745  -0.385   0.792  1.00  0.00     0.053 A 
HETATM   12  N3  UNL     1       5.788   0.260   0.331  1.00  0.00    -0.336 N 
HETATM   13  C17 UNL     1       3.565  -0.260   0.092  1.00  0.00     0.061 A 
HETATM   14  C15 UNL     1       5.666   0.994  -0.771  1.00  0.00     0.145 A 
ATOM     15  H3  UNL     1       6.685   0.200   0.813  1.00  0.00     0.168 HD
HETATM   16  S1  UNL     1       4.022   0.778  -1.185  1.00  0.00    -0.050 SA
BRANCH  14  17
HETATM   17  N4  UNL     1       6.602   1.698  -1.375  1.00  0.00    -0.375 N 
HETATM   18  C16 UNL     1       7.932   1.693  -0.800  1.00  0.00     0.148 C 
ATOM     19  H4  UNL     1       6.397   2.230  -2.221  1.00  0.00     0.161 HD
ENDBRANCH  14  17
ENDBRANCH   4   7
BRANCH   1  20
HETATM   20  C6  UNL     1      -2.881  -0.076  -0.662  1.00  0.00     0.223 C 
HETATM   21  C7  UNL     1      -3.361  -1.318  -1.395  1.00  0.00     0.043 C 
BRANCH  20  22
HETATM   22  C3  UNL     1      -3.701   0.266   0.517  1.00  0.00     0.018 C 
BRANCH  22  23
HETATM   23  C2  UNL     1      -3.279   1.604   1.173  1.00  0.00     0.002 C 
HETATM   24  C1  UNL     1      -3.735   2.778   0.327  1.00  0.00     0.005 C 
ENDBRANCH  22  23
BRANCH  22  25
HETATM   25  C4  UNL     1      -5.169   0.353   0.459  1.00  0.00     0.002 C 
HETATM   26  C5  UNL     1      -5.977  -0.786  -0.025  1.00  0.00     0.005 C 
ENDBRANCH  22  25
ENDBRANCH  20  22
ENDBRANCH   1  20
TORSDOF 6
