REMARK  9 active torsions:
REMARK  status: ('A' for Active; 'I' for Inactive)
REMARK    1  A    between atoms: C2_2  and  C3_3 
REMARK    2  A    between atoms: C4_6  and  N2_7 
REMARK    3  A    between atoms: N2_7  and  C5_9 
REMARK    4  A    between atoms: C5_9  and  C6_10 
REMARK    5  A    between atoms: C6_10  and  C7_11 
REMARK    6  A    between atoms: C7_11  and  N3_12 
REMARK    7  A    between atoms: N4_16  and  C12_18 
REMARK    8  A    between atoms: C12_18  and  C15_21 
REMARK    9  A    between atoms: C18_27  and  C19_28 
ROOT
HETATM    1  C5  UNL     1       1.334   1.178  -1.000  1.00  0.00     0.140 C 
ENDROOT
BRANCH   1   2
HETATM    2  N2  UNL     1       2.024   0.384  -0.058  1.00  0.00    -0.226 N 
ATOM      3  H2  UNL     1       1.513  -0.071   0.699  1.00  0.00     0.177 HD
BRANCH   2   4
HETATM    4  C4  UNL     1       3.301   0.235  -0.157  1.00  0.00     0.679 A 
HETATM    5  N1  UNL     1       4.174   0.731  -1.064  1.00  0.00    -0.190 N 
HETATM    6  C3  UNL     1       5.431   0.348  -0.812  1.00  0.00     0.072 A 
ATOM      7  H1  UNL     1       3.906   1.327  -1.847  1.00  0.00     0.184 HD
HETATM    8  C17 UNL     1       5.371  -0.435   0.317  1.00  0.00     0.072 A 
HETATM    9  N5  UNL     1       4.092  -0.491   0.692  1.00  0.00    -0.190 N 
HETATM   10  C18 UNL     1       6.432  -1.013   0.895  1.00  0.00     0.005 C 
ATOM     11  H5  UNL     1       3.749  -1.006   1.503  1.00  0.00     0.184 HD
BRANCH   6  12
HETATM   12  C2  UNL     1       6.506   0.665  -1.521  1.00  0.00     0.001 C 
HETATM   13  C1  UNL     1       6.414   1.524  -2.728  1.00  0.00     0.038 C 
ENDBRANCH   6  12
BRANCH  10  14
HETATM   14  C19 UNL     1       6.180  -1.827   2.113  1.00  0.00     0.025 C 
HETATM   15  C20 UNL     1       7.430  -2.376   2.718  1.00  0.00     0.009 C 
ENDBRANCH  10  14
ENDBRANCH   2   4
ENDBRANCH   1   2
BRANCH   1  16
HETATM   16  C6  UNL     1      -0.154   0.990  -1.061  1.00  0.00     0.050 C 
BRANCH  16  17
HETATM   17  C7  UNL     1      -0.850   1.249   0.217  1.00  0.00     0.276 C 
BRANCH  17  18
HETATM   18  N3  UNL     1      -2.267   1.153   0.209  1.00  0.00     0.114 N 
HETATM   19  C8  UNL     1      -2.916   2.214  -0.522  1.00  0.00     0.276 C 
HETATM   20  C9  UNL     1      -3.782   1.719  -1.630  1.00  0.00     0.058 C 
HETATM   21  C10 UNL     1      -4.737   0.645  -1.172  1.00  0.00     0.241 C 
HETATM   22  N4  UNL     1      -4.143  -0.319  -0.294  1.00  0.00    -0.035 N 
HETATM   23  C11 UNL     1      -4.179  -1.591  -1.061  1.00  0.00     0.275 C 
HETATM   24  C16 UNL     1      -2.713  -0.143  -0.098  1.00  0.00     0.508 C 
BRANCH  22  25
HETATM   25  C12 UNL     1      -4.891  -0.600   0.884  1.00  0.00     0.136 C 
HETATM   26  C13 UNL     1      -4.037  -0.979   2.082  1.00  0.00     0.048 C 
HETATM   27  C14 UNL     1      -5.820   0.493   1.354  1.00  0.00     0.048 C 
BRANCH  25  28
HETATM   28  C15 UNL     1      -5.849  -1.790   0.694  1.00  0.00     0.153 C 
HETATM   29 CL1  UNL     1      -6.683  -1.966   2.280  1.00  0.00    -0.128 Cl
ENDBRANCH  25  28
ENDBRANCH  22  25
ENDBRANCH  17  18
ENDBRANCH  16  17
ENDBRANCH   1  16
TORSDOF 9
