REMARK  8 active torsions:
REMARK  status: ('A' for Active; 'I' for Inactive)
REMARK    1  A    between atoms: C3_3  and  C4_4 
REMARK    2  A    between atoms: C7_9  and  N2_10 
REMARK    3  A    between atoms: N2_10  and  C8_12 
REMARK    4  A    between atoms: C8_12  and  C9_13 
REMARK    5  A    between atoms: C9_13  and  C10_15 
REMARK    6  A    between atoms: C10_15  and  N3_16 
REMARK    7  A    between atoms: C14_22  and  N5_23 
REMARK    8  A    between atoms: N5_23  and  C15_25 
ROOT
HETATM    1  C1  UNL     1      -6.065  -2.550   1.422  1.00  0.00     0.012 C 
HETATM    2  C2  UNL     1      -5.502  -2.240   0.400  1.00  0.00    -0.113 C 
HETATM    3  C3  UNL     1      -4.836  -1.858  -0.866  1.00  0.00     0.137 C 
ENDROOT
BRANCH   3   4
HETATM    4  C4  UNL     1      -3.398  -1.692  -0.668  1.00  0.00     0.020 A 
HETATM    5  C5  UNL     1      -2.558  -2.776  -0.544  1.00  0.00     0.033 A 
HETATM    6  C6  UNL     1      -3.071  -4.183  -0.605  1.00  0.00     0.069 C 
HETATM    7  N1  UNL     1      -1.254  -2.525  -0.364  1.00  0.00    -0.195 N 
HETATM    8  C7  UNL     1      -0.744  -1.285  -0.302  1.00  0.00     0.679 A 
ATOM      9  H1  UNL     1      -0.617  -3.316  -0.269  1.00  0.00     0.184 HD
HETATM   10  N4  UNL     1      -1.556  -0.220  -0.422  1.00  0.00    -0.176 N 
HETATM   11  C14 UNL     1      -2.874  -0.405  -0.604  1.00  0.00     0.126 A 
ATOM     12  H4  UNL     1      -1.173   0.724  -0.375  1.00  0.00     0.186 HD
BRANCH   8  13
HETATM   13  N2  UNL     1       0.508  -1.070  -0.131  1.00  0.00    -0.225 N 
ATOM     14  H2  UNL     1       1.123  -1.878  -0.041  1.00  0.00     0.177 HD
BRANCH  13  15
HETATM   15  C8  UNL     1       1.104   0.246  -0.058  1.00  0.00     0.155 C 
BRANCH  15  16
HETATM   16  C9  UNL     1       2.613  -0.002   0.055  1.00  0.00     0.102 C 
HETATM   17 BR1  UNL     1       2.839  -1.044   1.679  1.00  0.00    -0.088 Br
BRANCH  16  18
HETATM   18  C10 UNL     1       3.294   1.345   0.190  1.00  0.00     0.253 C 
BRANCH  18  19
HETATM   19  N3  UNL     1       4.728   1.208   0.302  1.00  0.00    -0.077 N 
HETATM   20  C11 UNL     1       5.407   2.438  -0.112  1.00  0.00     0.271 C 
HETATM   21  C12 UNL     1       5.154   0.936   1.651  1.00  0.00     0.271 C 
HETATM   22  C13 UNL     1       5.239   0.154  -0.553  1.00  0.00     0.271 C 
ENDBRANCH  18  19
ENDBRANCH  16  18
ENDBRANCH  15  16
ENDBRANCH  13  15
ENDBRANCH   8  13
BRANCH  11  23
HETATM   23  N5  UNL     1      -3.628   0.636  -0.716  1.00  0.00    -0.371 N 
ATOM     24  H5  UNL     1      -4.633   0.527  -0.855  1.00  0.00     0.161 HD
BRANCH  23  25
HETATM   25  C15 UNL     1      -3.046   1.955  -0.644  1.00  0.00     0.083 A 
HETATM   26  C16 UNL     1      -2.985   2.608   0.752  1.00  0.00     0.027 A 
HETATM   27  C17 UNL     1      -4.001   3.102  -0.244  1.00  0.00     0.027 A 
ENDBRANCH  23  25
ENDBRANCH  11  23
ENDBRANCH   3   4
TORSDOF 8
