REMARK  17 active torsions:
REMARK  status: ('A' for Active; 'I' for Inactive)
REMARK    1  A    between atoms: C4_4  and  C5_5 
REMARK    2  A    between atoms: C5_5  and  C6_6 
REMARK    3  A    between atoms: C6_6  and  C7_7 
REMARK    4  A    between atoms: C9_9  and  C10_10 
REMARK    5  A    between atoms: C11_11  and  C12_12 
REMARK    6  A    between atoms: C12_12  and  O1_13 
REMARK    7  A    between atoms: C13_15  and  C14_16 
REMARK    8  A    between atoms: C14_16  and  C15_17 
REMARK    9  A    between atoms: C17_19  and  O2_20 
REMARK   10  A    between atoms: C18_22  and  O3_23 
REMARK   11  A    between atoms: C19_25  and  N1_26 
REMARK   12  A    between atoms: N1_26  and  C20_28 
REMARK   13  A    between atoms: C20_28  and  O4_29 
REMARK   14  A    between atoms: C20_28  and  C21_31 
REMARK   15  A    between atoms: C21_31  and  C22_32 
REMARK   16  A    between atoms: C22_32  and  O5_34 
REMARK   17  A    between atoms: C24_36  and  O6_37 
ROOT
HETATM    1  C15 UNL     1       2.794  -0.600   1.224  1.00  0.00    -0.016 A 
HETATM    2  C16 UNL     1       2.438  -1.906   0.979  1.00  0.00     0.049 A 
HETATM    3  C17 UNL     1       3.350  -2.714   0.334  1.00  0.00     0.101 A 
HETATM    4  C18 UNL     1       4.577  -2.220  -0.050  1.00  0.00     0.128 A 
HETATM    5  C19 UNL     1       4.952  -0.919   0.186  1.00  0.00     0.104 A 
HETATM    6  C24 UNL     1       4.005  -0.111   0.846  1.00  0.00     0.102 A 
ENDROOT
BRANCH   1   7
HETATM    7  C14 UNL     1       1.821   0.311   1.913  1.00  0.00     0.071 C 
BRANCH   7   8
HETATM    8  C13 UNL     1       1.224   1.157   0.873  1.00  0.00     0.014 C 
HETATM    9  C12 UNL     1      -0.077   1.260   0.574  1.00  0.00     0.062 C 
BRANCH   9  10
HETATM   10  C11 UNL     1      -1.046   0.521   1.275  1.00  0.00     0.036 C 
HETATM   11  C10 UNL     1      -2.340   0.496   1.120  1.00  0.00     0.003 C 
BRANCH  11  12
HETATM   12  C9  UNL     1      -3.072   1.257   0.154  1.00  0.00     0.002 C 
HETATM   13  C7  UNL     1      -4.398   1.177   0.066  1.00  0.00    -0.084 C 
HETATM   14  C8  UNL     1      -4.984   2.093  -0.992  1.00  0.00     0.043 C 
BRANCH  13  15
HETATM   15  C6  UNL     1      -5.210   0.344   0.911  1.00  0.00     0.037 C 
BRANCH  15  16
HETATM   16  C5  UNL     1      -5.988  -0.753   0.267  1.00  0.00     0.031 C 
BRANCH  16  17
HETATM   17  C4  UNL     1      -6.953  -0.308  -0.717  1.00  0.00    -0.024 C 
HETATM   18  C2  UNL     1      -8.262  -0.476  -0.543  1.00  0.00    -0.091 C 
HETATM   19  C1  UNL     1      -8.734  -1.138   0.698  1.00  0.00     0.042 C 
HETATM   20  C3  UNL     1      -9.229   0.001  -1.588  1.00  0.00     0.042 C 
ENDBRANCH  16  17
ENDBRANCH  15  16
ENDBRANCH  13  15
ENDBRANCH  11  12
ENDBRANCH   9  10
BRANCH   9  21
HETATM   21  O1  UNL     1      -0.431   2.136  -0.467  1.00  0.00    -0.361 OA
ATOM     22  H1  UNL     1       0.224   2.635  -0.941  1.00  0.00     0.217 HD
ENDBRANCH   9  21
ENDBRANCH   7   8
ENDBRANCH   1   7
BRANCH   6  23
HETATM   23  O6  UNL     1       4.437   1.185   1.057  1.00  0.00    -0.358 OA
ATOM     24  H6  UNL     1       5.283   1.527   0.793  1.00  0.00     0.217 HD
ENDBRANCH   6  23
BRANCH   3  25
HETATM   25  O2  UNL     1       3.022  -4.042   0.070  1.00  0.00    -0.358 OA
ATOM     26  H2  UNL     1       3.650  -4.599  -0.374  1.00  0.00     0.217 HD
ENDBRANCH   3  25
BRANCH   5  27
HETATM   27  N1  UNL     1       6.219  -0.417  -0.213  1.00  0.00    -0.332 N 
ATOM     28  H1  UNL     1       7.001  -0.486   0.438  1.00  0.00     0.168 HD
BRANCH  27  29
HETATM   29  C20 UNL     1       6.437   0.171  -1.469  1.00  0.00     0.142 C 
BRANCH  29  30
HETATM   30  O4  UNL     1       5.355   0.190  -2.191  1.00  0.00    -0.346 OA
ATOM     31  H4  UNL     1       5.503   0.588  -3.041  1.00  0.00     0.219 HD
ENDBRANCH  29  30
BRANCH  29  32
HETATM   32  C21 UNL     1       7.637   0.721  -2.020  1.00  0.00     0.087 C 
BRANCH  32  33
HETATM   33  C22 UNL     1       8.826   0.835  -1.544  1.00  0.00     0.043 C 
HETATM   34  C23 UNL     1       9.306   0.406  -0.227  1.00  0.00     0.076 C 
BRANCH  33  35
HETATM   35  O5  UNL     1       9.815   1.445  -2.370  1.00  0.00    -0.365 OA
ATOM     36  H5  UNL     1      10.693   1.529  -2.018  1.00  0.00     0.217 HD
ENDBRANCH  33  35
ENDBRANCH  32  33
ENDBRANCH  29  32
ENDBRANCH  27  29
ENDBRANCH   5  27
BRANCH   4  37
HETATM   37  O3  UNL     1       5.484  -3.059  -0.702  1.00  0.00    -0.356 OA
ATOM     38  H3  UNL     1       6.330  -2.718  -0.967  1.00  0.00     0.218 HD
ENDBRANCH   4  37
TORSDOF 17
