REMARK  14 active torsions:
REMARK  status: ('A' for Active; 'I' for Inactive)
REMARK    1  A    between atoms: C2_2  and  C3_3 
REMARK    2  A    between atoms: C4_4  and  C6_6 
REMARK    3  A    between atoms: C6_6  and  O1_7 
REMARK    4  A    between atoms: C6_6  and  C7_9 
REMARK    5  A    between atoms: C8_10  and  C9_11 
REMARK    6  A    between atoms: C9_11  and  C11_13 
REMARK    7  A    between atoms: C11_13  and  C12_14 
REMARK    8  A    between atoms: C15_19  and  O2_20 
REMARK    9  A    between atoms: C16_22  and  O3_23 
REMARK   10  A    between atoms: C17_25  and  C18_26 
REMARK   11  A    between atoms: C19_27  and  C21_29 
REMARK   12  A    between atoms: C22_30  and  C23_31 
REMARK   13  A    between atoms: C23_31  and  N2_32 
REMARK   14  A    between atoms: N2_32  and  N3_33 
ROOT
HETATM    1  C12 UNL     1      -0.449  -0.285   2.256  1.00  0.00     0.040 C 
HETATM    2  C13 UNL     1      -0.721   1.002   2.928  1.00  0.00     0.129 C 
HETATM    3  N1  UNL     1       0.424   1.083   3.861  1.00  0.00    -0.386 N 
ATOM      4  H1  UNL     1       0.438   1.437   4.818  1.00  0.00     0.159 HD
HETATM    5  C14 UNL     1       1.500   0.548   3.100  1.00  0.00     0.071 A 
HETATM    6  C15 UNL     1       2.882   0.782   3.265  1.00  0.00     0.127 A 
HETATM    7  C16 UNL     1       3.765   0.180   2.418  1.00  0.00     0.112 A 
HETATM    8  C17 UNL     1       3.271  -0.636   1.431  1.00  0.00     0.007 A 
HETATM    9  C24 UNL     1       1.908  -0.894   1.237  1.00  0.00    -0.040 A 
HETATM   10  C25 UNL     1       1.481  -1.799   0.135  1.00  0.00     0.050 C 
HETATM   11  C26 UNL     1       1.032  -0.272   2.108  1.00  0.00    -0.016 A 
ENDROOT
BRANCH   1  12
HETATM   12  C11 UNL     1      -1.187  -0.654   1.056  1.00  0.00     0.019 C 
BRANCH  12  13
HETATM   13  C9  UNL     1      -2.675  -0.738   1.117  1.00  0.00     0.004 C 
HETATM   14  C10 UNL     1      -3.122  -1.877   2.045  1.00  0.00     0.014 C 
BRANCH  13  15
HETATM   15  C8  UNL     1      -3.456   0.437   1.423  1.00  0.00    -0.024 C 
HETATM   16  C7  UNL     1      -4.362   0.995   0.629  1.00  0.00     0.005 C 
BRANCH  16  17
HETATM   17  C6  UNL     1      -4.642   0.406  -0.702  1.00  0.00     0.169 C 
BRANCH  17  18
HETATM   18  C4  UNL     1      -5.774   1.141  -1.288  1.00  0.00    -0.056 C 
HETATM   19  C3  UNL     1      -6.898   0.603  -1.627  1.00  0.00    -0.022 C 
HETATM   20  C5  UNL     1      -5.571   2.624  -1.492  1.00  0.00     0.046 C 
BRANCH  19  21
HETATM   21  C2  UNL     1      -7.231  -0.811  -1.488  1.00  0.00     0.023 C 
HETATM   22  C1  UNL     1      -7.546  -1.342  -2.899  1.00  0.00     0.009 C 
ENDBRANCH  19  21
ENDBRANCH  17  18
BRANCH  17  23
HETATM   23  O1  UNL     1      -3.459   0.666  -1.461  1.00  0.00    -0.387 OA
ATOM     24  H1  UNL     1      -2.728   0.191  -1.083  1.00  0.00     0.210 HD
ENDBRANCH  17  23
ENDBRANCH  16  17
ENDBRANCH  13  15
ENDBRANCH  12  13
ENDBRANCH   1  12
BRANCH   6  25
HETATM   25  O2  UNL     1       3.271   1.624   4.293  1.00  0.00    -0.356 OA
ATOM     26  H2  UNL     1       4.201   1.782   4.404  1.00  0.00     0.218 HD
ENDBRANCH   6  25
BRANCH   8  27
HETATM   27  C18 UNL     1       4.177  -1.257   0.495  1.00  0.00     0.021 C 
HETATM   28  C19 UNL     1       4.990  -0.669  -0.360  1.00  0.00    -0.061 C 
HETATM   29  C20 UNL     1       5.838  -1.531  -1.219  1.00  0.00     0.048 C 
BRANCH  28  30
HETATM   30  C21 UNL     1       4.982   0.755  -0.521  1.00  0.00     0.004 C 
HETATM   31  C22 UNL     1       5.677   1.561  -1.257  1.00  0.00    -0.009 C 
BRANCH  31  32
HETATM   32  C23 UNL     1       6.739   1.371  -2.212  1.00  0.00     0.161 C 
BRANCH  32  33
HETATM   33  N2  UNL     1       6.385   1.842  -3.556  1.00  0.00    -0.145 NA
BRANCH  33  34
HETATM   34  N3  UNL     1       7.415   1.650  -4.454  1.00  0.00    -0.348 N 
ATOM     35  H32 UNL     1       8.309   1.230  -4.199  1.00  0.00     0.172 HD
ATOM     36  H31 UNL     1       7.169   1.977  -5.388  1.00  0.00     0.172 HD
ENDBRANCH  33  34
ENDBRANCH  32  33
ENDBRANCH  31  32
ENDBRANCH  28  30
ENDBRANCH   8  27
BRANCH   7  37
HETATM   37  O3  UNL     1       5.117   0.383   2.553  1.00  0.00    -0.357 OA
ATOM     38  H3  UNL     1       5.732  -0.036   1.963  1.00  0.00     0.217 HD
ENDBRANCH   7  37
TORSDOF 14
