REMARK  14 active torsions:
REMARK  status: ('A' for Active; 'I' for Inactive)
REMARK    1  A    between atoms: C2_2  and  C13_15 
REMARK    2  A    between atoms: C3_3  and  C4_4 
REMARK    3  A    between atoms: C4_4  and  C5_5 
REMARK    4  A    between atoms: C5_5  and  C6_6 
REMARK    5  A    between atoms: C8_8  and  C9_9 
REMARK    6  A    between atoms: C9_9  and  O1_10 
REMARK    7  A    between atoms: C9_9  and  C10_12 
REMARK    8  A    between atoms: C13_15  and  C14_16 
REMARK    9  A    between atoms: C15_17  and  C17_19 
REMARK   10  A    between atoms: C19_21  and  C20_22 
REMARK   11  A    between atoms: C22_24  and  C23_25 
REMARK   12  A    between atoms: C23_25  and  O2_26 
REMARK   13  A    between atoms: N1_28  and  O3_30 
REMARK   14  A    between atoms: C25_36  and  O4_37 
ROOT
HETATM    1  C17 UNL     1       3.173  -0.397   0.346  1.00  0.00    -0.056 C 
HETATM    2  C18 UNL     1       3.237   1.090   0.415  1.00  0.00     0.049 C 
HETATM    3  C19 UNL     1       4.231  -1.144   0.136  1.00  0.00     0.021 C 
ENDROOT
BRANCH   1   4
HETATM    4  C15 UNL     1       1.837  -1.048   0.462  1.00  0.00    -0.059 C 
HETATM    5  C14 UNL     1       0.813  -0.319   0.678  1.00  0.00    -0.015 C 
HETATM    6  C16 UNL     1       1.778  -2.505   0.314  1.00  0.00     0.048 C 
BRANCH   5   7
HETATM    7  C13 UNL     1      -0.570  -0.804   0.813  1.00  0.00     0.061 C 
BRANCH   7   8
HETATM    8  C2  UNL     1      -1.021  -0.343   2.173  1.00  0.00    -0.084 C 
HETATM    9  C1  UNL     1      -0.209  -0.881   3.328  1.00  0.00     0.043 C 
HETATM   10  C3  UNL     1      -2.024   0.442   2.334  1.00  0.00    -0.024 C 
BRANCH  10  11
HETATM   11  C4  UNL     1      -2.877   1.022   1.316  1.00  0.00     0.031 C 
BRANCH  11  12
HETATM   12  C5  UNL     1      -4.312   0.555   1.554  1.00  0.00     0.037 C 
BRANCH  12  13
HETATM   13  C6  UNL     1      -5.242   1.114   0.537  1.00  0.00    -0.085 C 
HETATM   14  C7  UNL     1      -5.434   2.581   0.357  1.00  0.00     0.043 C 
HETATM   15  C8  UNL     1      -5.918   0.272  -0.232  1.00  0.00     0.007 C 
BRANCH  15  16
HETATM   16  C9  UNL     1      -6.860   0.794  -1.263  1.00  0.00     0.144 C 
BRANCH  16  17
HETATM   17  O1  UNL     1      -7.772   1.634  -0.610  1.00  0.00    -0.391 OA
ATOM     18  H1  UNL     1      -8.372   1.967  -1.267  1.00  0.00     0.210 HD
ENDBRANCH  16  17
BRANCH  16  19
HETATM   19  C10 UNL     1      -7.578  -0.332  -1.965  1.00  0.00     0.010 C 
HETATM   20  C11 UNL     1      -8.512   0.277  -2.992  1.00  0.00     0.012 C 
HETATM   21  C12 UNL     1      -6.562  -1.238  -2.608  1.00  0.00     0.012 C 
ENDBRANCH  16  19
ENDBRANCH  15  16
ENDBRANCH  12  13
ENDBRANCH  11  12
ENDBRANCH  10  11
ENDBRANCH   7   8
ENDBRANCH   5   7
ENDBRANCH   1   4
BRANCH   3  22
HETATM   22  C20 UNL     1       5.584  -0.655   0.009  1.00  0.00     0.003 A 
HETATM   23  C21 UNL     1       6.314  -0.930  -1.160  1.00  0.00     0.048 A 
HETATM   24  C22 UNL     1       7.603  -0.545  -1.354  1.00  0.00     0.087 A 
HETATM   25  N2  UNL     1       8.187   0.141  -0.344  1.00  0.00    -0.339 N 
HETATM   26  C24 UNL     1       7.558   0.440   0.798  1.00  0.00     0.151 A 
ATOM     27  H2  UNL     1       9.154   0.445  -0.459  1.00  0.00     0.167 HD
HETATM   28  N3  UNL     1       8.286   1.176   1.803  1.00  0.00    -0.080 NA
HETATM   29  C25 UNL     1       6.266   0.049   0.985  1.00  0.00     0.117 A 
BRANCH  24  30
HETATM   30  C23 UNL     1       8.323  -0.852  -2.589  1.00  0.00     0.187 C 
HETATM   31  N1  UNL     1       9.538  -0.494  -2.781  1.00  0.00    -0.246 N 
ATOM     32  H1  UNL     1      10.015  -0.722  -3.653  1.00  0.00     0.196 HD
BRANCH  30  33
HETATM   33  O2  UNL     1       7.667  -1.549  -3.573  1.00  0.00    -0.343 OA
ATOM     34  H2  UNL     1       8.135  -1.748  -4.375  1.00  0.00     0.219 HD
ENDBRANCH  30  33
BRANCH  31  35
HETATM   35  O3  UNL     1      10.186   0.201  -1.794  1.00  0.00    -0.288 OA
ATOM     36  H3  UNL     1      11.087   0.466  -1.936  1.00  0.00     0.244 HD
ENDBRANCH  31  35
ENDBRANCH  24  30
BRANCH  29  37
HETATM   37  O4  UNL     1       5.640   0.364   2.171  1.00  0.00    -0.357 OA
ATOM     38  H4  UNL     1       6.108   0.848   2.841  1.00  0.00     0.218 HD
ENDBRANCH  29  37
ENDBRANCH   3  22
TORSDOF 14
