REMARK  11 active torsions:
REMARK  status: ('A' for Active; 'I' for Inactive)
REMARK    1  A    between atoms: C3_3  and  C4_4 
REMARK    2  A    between atoms: C3_3  and  N3_22 
REMARK    3  A    between atoms: C4_4  and  C5_5 
REMARK    4  A    between atoms: C5_5  and  C6_6 
REMARK    5  A    between atoms: C6_6  and  C7_7 
REMARK    6  A    between atoms: C7_7  and  N1_8 
REMARK    7  A    between atoms: N1_8  and  C8_10 
REMARK    8  A    between atoms: N2_12  and  O1_14 
REMARK    9  A    between atoms: O1_14  and  S2_15 
REMARK   10  A    between atoms: S2_15  and  C9_16 
REMARK   11  A    between atoms: N3_22  and  C15_24 
ROOT
HETATM    1  C5  UNL     1       0.080  -0.944  -0.280  1.00  0.00     0.007 C 
ENDROOT
BRANCH   1   2
HETATM    2  C4  UNL     1      -1.231  -0.264  -0.423  1.00  0.00     0.057 C 
BRANCH   2   3
HETATM    3  C3  UNL     1      -2.428  -1.094  -0.469  1.00  0.00     0.005 C 
HETATM    4  C2  UNL     1      -2.421  -2.367  -0.184  1.00  0.00    -0.006 C 
HETATM    5  C1  UNL     1      -3.661  -3.207  -0.240  1.00  0.00     0.038 C 
BRANCH   3   6
HETATM    6  N3  UNL     1      -3.657  -0.495  -0.844  1.00  0.00    -0.358 N 
ATOM      7  H3  UNL     1      -3.859  -0.403  -1.840  1.00  0.00     0.166 HD
BRANCH   6   8
HETATM    8  C15 UNL     1      -4.615  -0.020   0.068  1.00  0.00     0.058 A 
HETATM    9  C16 UNL     1      -4.451  -0.094   1.421  1.00  0.00     0.060 A 
HETATM   10  C17 UNL     1      -5.424   0.388   2.294  1.00  0.00     0.072 A 
HETATM   11  N4  UNL     1      -5.247   0.308   3.702  1.00  0.00    -0.100 NA
HETATM   12  C18 UNL     1      -6.582   0.953   1.761  1.00  0.00     0.072 A 
HETATM   13  N5  UNL     1      -7.548   1.431   2.672  1.00  0.00    -0.100 NA
HETATM   14  C19 UNL     1      -6.769   1.038   0.395  1.00  0.00     0.057 A 
HETATM   15  C20 UNL     1      -5.778   0.548  -0.435  1.00  0.00     0.074 A 
HETATM   16  N6  UNL     1      -5.943   0.622  -1.844  1.00  0.00    -0.100 NA
ENDBRANCH   6   8
ENDBRANCH   3   6
ENDBRANCH   2   3
ENDBRANCH   1   2
BRANCH   1  17
HETATM   17  C6  UNL     1       0.502  -1.829  -1.395  1.00  0.00     0.020 C 
BRANCH  17  18
HETATM   18  C7  UNL     1       0.628  -1.059  -2.703  1.00  0.00     0.121 C 
BRANCH  18  19
HETATM   19  N1  UNL     1       1.625  -0.024  -2.515  1.00  0.00    -0.369 N 
ATOM     20  H1  UNL     1       1.319   0.949  -2.513  1.00  0.00     0.161 HD
BRANCH  19  21
HETATM   21  C8  UNL     1       2.998  -0.295  -2.334  1.00  0.00     0.172 C 
HETATM   22  S1  UNL     1       3.771  -1.687  -3.129  1.00  0.00    -0.012 SA
HETATM   23  N2  UNL     1       3.704   0.464  -1.590  1.00  0.00    -0.231 N 
ATOM     24  H2  UNL     1       4.690   0.222  -1.494  1.00  0.00     0.198 HD
BRANCH  23  25
HETATM   25  O1  UNL     1       3.275   1.563  -0.912  1.00  0.00    -0.202 OA
BRANCH  25  26
HETATM   26  S2  UNL     1       3.331   1.604   0.798  1.00  0.00     0.025 SA
BRANCH  26  27
HETATM   27  C9  UNL     1       4.948   1.355   1.516  1.00  0.00     0.078 C 
HETATM   28  C10 UNL     1       5.460  -0.024   1.267  1.00  0.00     0.017 C 
HETATM   29  C11 UNL     1       6.951   0.000   0.992  1.00  0.00     0.001 C 
HETATM   30  C12 UNL     1       7.239   0.782  -0.259  1.00  0.00     0.000 C 
HETATM   31  C13 UNL     1       6.650   2.149  -0.166  1.00  0.00     0.001 C 
HETATM   32  C14 UNL     1       5.957   2.416   1.148  1.00  0.00     0.017 C 
ENDBRANCH  26  27
ENDBRANCH  25  26
ENDBRANCH  23  25
ENDBRANCH  19  21
ENDBRANCH  18  19
ENDBRANCH  17  18
ENDBRANCH   1  17
TORSDOF 11
