REMARK  12 active torsions:
REMARK  status: ('A' for Active; 'I' for Inactive)
REMARK    1  A    between atoms: C2_2  and  C4_4 
REMARK    2  A    between atoms: C5_5  and  C6_6 
REMARK    3  A    between atoms: C8_9  and  O2_10 
REMARK    4  A    between atoms: C10_15  and  N2_16 
REMARK    5  A    between atoms: N2_16  and  N3_18 
REMARK    6  A    between atoms: C11_21  and  C12_22 
REMARK    7  A    between atoms: C13_23  and  C14_24 
REMARK    8  A    between atoms: C14_24  and  C15_25 
REMARK    9  A    between atoms: C15_25  and  C16_26 
REMARK   10  A    between atoms: C16_26  and  C17_27 
REMARK   11  A    between atoms: C19_29  and  O3_30 
REMARK   12  A    between atoms: C21_33  and  O4_34 
ROOT
HETATM    1  C4  UNL     1      -3.664  -0.391   0.277  1.00  0.00     0.020 A 
HETATM    2  C5  UNL     1      -4.155   0.552  -0.542  1.00  0.00     0.058 A 
HETATM    3  C8  UNL     1      -3.228   1.398  -1.202  1.00  0.00     0.108 A 
HETATM    4  C9  UNL     1      -1.883   1.256  -1.005  1.00  0.00     0.084 A 
HETATM    5  N1  UNL     1      -1.019   2.085  -1.653  1.00  0.00    -0.338 N 
ATOM      6  H1  UNL     1      -1.398   2.799  -2.275  1.00  0.00     0.167 HD
HETATM    7  C10 UNL     1       0.290   2.000  -1.508  1.00  0.00     0.133 A 
HETATM    8  C11 UNL     1       0.870   1.033  -0.663  1.00  0.00     0.043 A 
HETATM    9  C19 UNL     1       0.022   0.192   0.002  1.00  0.00     0.095 A 
HETATM   10  C20 UNL     1      -1.379   0.316  -0.184  1.00  0.00     0.062 A 
HETATM   11  C21 UNL     1      -2.243  -0.524   0.472  1.00  0.00     0.092 A 
ENDROOT
BRANCH   8  12
HETATM   12  C12 UNL     1       2.313   1.120  -0.550  1.00  0.00     0.014 C 
HETATM   13  C13 UNL     1       3.296   0.350  -0.377  1.00  0.00    -0.026 C 
BRANCH  13  14
HETATM   14  C14 UNL     1       3.491  -1.085  -0.204  1.00  0.00     0.027 C 
BRANCH  14  15
HETATM   15  C15 UNL     1       4.085  -1.430   1.125  1.00  0.00     0.004 C 
BRANCH  15  16
HETATM   16  C16 UNL     1       5.418  -0.768   1.309  1.00  0.00    -0.000 C 
BRANCH  16  17
HETATM   17  C17 UNL     1       6.457  -1.132   0.308  1.00  0.00    -0.005 C 
HETATM   18  C18 UNL     1       7.767  -0.412   0.609  1.00  0.00     0.005 C 
ENDBRANCH  16  17
ENDBRANCH  15  16
ENDBRANCH  14  15
ENDBRANCH  13  14
ENDBRANCH   8  12
BRANCH   7  19
HETATM   19  N2  UNL     1       1.066   2.805  -2.150  1.00  0.00    -0.291 N 
ATOM     20  H2  UNL     1       2.077   2.737  -2.035  1.00  0.00     0.188 HD
BRANCH  19  21
HETATM   21  N3  UNL     1       0.531   3.761  -2.994  1.00  0.00    -0.344 N 
ATOM     22  H32 UNL     1      -0.482   3.816  -3.098  1.00  0.00     0.176 HD
ATOM     23  H31 UNL     1       1.145   4.398  -3.502  1.00  0.00     0.176 HD
ENDBRANCH  19  21
ENDBRANCH   7  19
BRANCH   9  24
HETATM   24  O3  UNL     1       0.414  -0.749   0.840  1.00  0.00    -0.359 OA
ATOM     25  H3  UNL     1      -0.175  -1.333   1.302  1.00  0.00     0.217 HD
ENDBRANCH   9  24
BRANCH  11  26
HETATM   26  O4  UNL     1      -1.901  -1.504   1.317  1.00  0.00    -0.359 OA
ATOM     27  H4  UNL     1      -0.964  -1.592   1.446  1.00  0.00     0.217 HD
ENDBRANCH  11  26
BRANCH   3  28
HETATM   28  O2  UNL     1      -3.742   2.344  -2.028  1.00  0.00    -0.357 OA
ATOM     29  H2  UNL     1      -3.121   2.911  -2.470  1.00  0.00     0.217 HD
ENDBRANCH   3  28
BRANCH   1  30
HETATM   30  C2  UNL     1      -4.437  -1.412   1.015  1.00  0.00    -0.057 C 
HETATM   31  C1  UNL     1      -4.545  -1.312   2.321  1.00  0.00     0.019 C 
HETATM   32  C3  UNL     1      -4.977  -2.579   0.308  1.00  0.00     0.048 C 
ENDBRANCH   1  30
BRANCH   2  33
HETATM   33  C6  UNL     1      -5.555   0.781  -0.783  1.00  0.00     0.159 C 
HETATM   34  C7  UNL     1      -6.709   0.099  -0.241  1.00  0.00     0.097 C 
HETATM   35  O1  UNL     1      -5.830   1.741  -1.603  1.00  0.00    -0.293 OA
ENDBRANCH   2  33
TORSDOF 12
