REMARK  14 active torsions:
REMARK  status: ('A' for Active; 'I' for Inactive)
REMARK    1  A    between atoms: C1_4  and  O1_5 
REMARK    2  A    between atoms: C1_4  and  C2_7 
REMARK    3  A    between atoms: C2_7  and  C3_8 
REMARK    4  A    between atoms: C3_8  and  C4_9 
REMARK    5  A    between atoms: C3_8  and  C6_17 
REMARK    6  A    between atoms: C4_9  and  C5_10 
REMARK    7  A    between atoms: C5_10  and  O2_11 
REMARK    8  A    between atoms: N2_13  and  O3_15 
REMARK    9  A    between atoms: C6_17  and  N3_18 
REMARK   10  A    between atoms: C7_20  and  C8_21 
REMARK   11  A    between atoms: C8_21  and  C9_22 
REMARK   12  A    between atoms: C9_22  and  O4_23 
REMARK   13  A    between atoms: N4_25  and  O5_27 
REMARK   14  A    between atoms: N5_29  and  C10_31 
ROOT
HETATM    1  C6  UNL     1      -0.440   0.202   0.599  1.00  0.00     0.082 C 
HETATM    2  N5  UNL     1       0.764   0.273   0.357  1.00  0.00    -0.375 N 
ATOM      3  H5  UNL     1       1.233  -0.482   0.857  1.00  0.00     0.161 HD
ENDROOT
BRANCH   1   4
HETATM    4  C3  UNL     1      -1.598   1.009   0.167  1.00  0.00     0.068 C 
BRANCH   4   5
HETATM    5  C2  UNL     1      -1.304   2.083  -0.813  1.00  0.00     0.096 C 
BRANCH   5   6
HETATM    6  C1  UNL     1      -2.512   2.605  -1.507  1.00  0.00     0.109 C 
HETATM    7  N1  UNL     1      -2.646   2.504  -2.806  1.00  0.00    -0.384 N 
ATOM      8  H12 UNL     1      -3.474   2.862  -3.282  1.00  0.00     0.157 HD
ATOM      9  H11 UNL     1      -1.872   2.049  -3.290  1.00  0.00     0.157 HD
BRANCH   6  10
HETATM   10  O1  UNL     1      -3.557   3.220  -0.854  1.00  0.00    -0.350 OA
ATOM     11  H1  UNL     1      -3.460   3.293   0.088  1.00  0.00     0.219 HD
ENDBRANCH   6  10
ENDBRANCH   5   6
ENDBRANCH   4   5
BRANCH   4  12
HETATM   12  C4  UNL     1      -2.496   1.387   1.316  1.00  0.00     0.098 C 
BRANCH  12  13
HETATM   13  C5  UNL     1      -2.012   2.449   2.185  1.00  0.00     0.136 C 
HETATM   14  N2  UNL     1      -1.966   2.252   3.469  1.00  0.00    -0.251 N 
ATOM     15  H2  UNL     1      -1.627   2.993   4.083  1.00  0.00     0.196 HD
BRANCH  13  16
HETATM   16  O2  UNL     1      -1.575   3.702   1.785  1.00  0.00    -0.348 OA
ATOM     17  H2  UNL     1      -1.259   4.395   2.352  1.00  0.00     0.219 HD
ENDBRANCH  13  16
BRANCH  14  18
HETATM   18  O3  UNL     1      -2.370   1.057   4.004  1.00  0.00    -0.288 OA
ATOM     19  H3  UNL     1      -2.336   0.913   4.942  1.00  0.00     0.244 HD
ENDBRANCH  14  18
ENDBRANCH  12  13
ENDBRANCH   4  12
ENDBRANCH   1   4
BRANCH   1  20
HETATM   20  N3  UNL     1      -0.840  -0.898   1.501  1.00  0.00    -0.359 N 
HETATM   21  C7  UNL     1      -1.197  -2.019   1.019  1.00  0.00     0.070 C 
ATOM     22  H3  UNL     1      -0.830  -0.758   2.511  1.00  0.00     0.166 HD
BRANCH  21  23
HETATM   23  C8  UNL     1      -1.261  -2.367  -0.415  1.00  0.00     0.130 C 
BRANCH  23  24
HETATM   24  C9  UNL     1      -2.630  -2.834  -0.802  1.00  0.00     0.140 C 
HETATM   25  N4  UNL     1      -3.565  -2.892   0.071  1.00  0.00    -0.251 N 
ATOM     26  H4  UNL     1      -3.356  -2.614   1.030  1.00  0.00     0.196 HD
BRANCH  24  27
HETATM   27  O4  UNL     1      -2.926  -3.216  -2.101  1.00  0.00    -0.348 OA
ATOM     28  H4  UNL     1      -3.795  -3.512  -2.347  1.00  0.00     0.219 HD
ENDBRANCH  24  27
BRANCH  25  29
HETATM   29  O5  UNL     1      -4.822  -3.307  -0.225  1.00  0.00    -0.288 OA
ATOM     30  H5  UNL     1      -5.516  -3.350   0.423  1.00  0.00     0.244 HD
ENDBRANCH  25  29
ENDBRANCH  23  24
ENDBRANCH  21  23
ENDBRANCH   1  20
BRANCH   2  31
HETATM   31  C10 UNL     1       1.720   0.989  -0.336  1.00  0.00     0.082 C 
HETATM   32  C11 UNL     1       3.004   1.216   0.501  1.00  0.00     0.025 C 
HETATM   33  C12 UNL     1       3.355   0.003   1.301  1.00  0.00     0.002 C 
HETATM   34  C13 UNL     1       4.581  -0.703   0.755  1.00  0.00     0.000 C 
HETATM   35  C14 UNL     1       4.081  -1.895  -0.036  1.00  0.00     0.000 C 
HETATM   36  C15 UNL     1       3.783  -1.512  -1.472  1.00  0.00     0.000 C 
HETATM   37  C16 UNL     1       2.325  -1.127  -1.552  1.00  0.00     0.002 C 
HETATM   38  C17 UNL     1       2.163   0.350  -1.648  1.00  0.00     0.025 C 
ENDBRANCH   2  31
TORSDOF 14
