REMARK  14 active torsions:
REMARK  status: ('A' for Active; 'I' for Inactive)
REMARK    1  A    between atoms: C2_2  and  C3_3 
REMARK    2  A    between atoms: C2_2  and  C10_12 
REMARK    3  A    between atoms: C3_3  and  C4_4 
REMARK    4  A    between atoms: C4_4  and  C5_5 
REMARK    5  A    between atoms: C6_6  and  O1_7 
REMARK    6  A    between atoms: C6_6  and  C7_9 
REMARK    7  A    between atoms: C10_12  and  C11_13 
REMARK    8  A    between atoms: C11_13  and  C12_14 
REMARK    9  A    between atoms: C12_14  and  C14_16 
REMARK   10  A    between atoms: C14_16  and  C15_17 
REMARK   11  A    between atoms: C15_17  and  C16_18 
REMARK   12  A    between atoms: C16_18  and  C18_22 
REMARK   13  A    between atoms: C17_19  and  O2_20 
REMARK       I    between atoms: C18_22  and  N1_24 
REMARK       I    between atoms: N2_26  and  C19_28 
REMARK       I    between atoms: C19_28  and  N4_32 
REMARK   14  A    between atoms: N4_32  and  O4_34 
ROOT
HETATM    1  C16 UNL     1       3.891  -0.046   0.855  1.00  0.00     0.033 C 
HETATM    2  C17 UNL     1       4.257   1.226   0.979  1.00  0.00     0.143 C 
ENDROOT
BRANCH   1   3
HETATM    3  C15 UNL     1       2.558  -0.515   1.229  1.00  0.00     0.051 C 
BRANCH   3   4
HETATM    4  C14 UNL     1       1.691   0.664   1.680  1.00  0.00     0.038 C 
BRANCH   4   5
HETATM    5  C12 UNL     1       0.384   0.095   1.990  1.00  0.00    -0.084 C 
HETATM    6  C13 UNL     1       0.356  -0.952   3.076  1.00  0.00     0.043 C 
BRANCH   5   7
HETATM    7  C11 UNL     1      -0.735   0.423   1.373  1.00  0.00     0.003 C 
BRANCH   7   8
HETATM    8  C10 UNL     1      -0.815   1.383   0.358  1.00  0.00     0.011 C 
BRANCH   8   9
HETATM    9  C2  UNL     1      -1.702   1.872  -0.433  1.00  0.00    -0.046 C 
HETATM   10  C1  UNL     1      -2.647   2.392  -1.275  1.00  0.00     0.023 C 
BRANCH   9  11
HETATM   11  C3  UNL     1      -2.612   0.331  -0.287  1.00  0.00     0.010 C 
BRANCH  11  12
HETATM   12  C4  UNL     1      -3.697   0.295  -0.866  1.00  0.00     0.003 C 
BRANCH  12  13
HETATM   13  C5  UNL     1      -4.485  -0.990  -0.762  1.00  0.00     0.032 C 
HETATM   14  C6  UNL     1      -5.624  -1.102  -1.316  1.00  0.00     0.046 C 
BRANCH  14  15
HETATM   15  O1  UNL     1      -6.290  -2.355  -1.170  1.00  0.00    -0.365 OA
ATOM     16  H1  UNL     1      -7.141  -2.439  -1.584  1.00  0.00     0.217 HD
ENDBRANCH  14  15
BRANCH  14  17
HETATM   17  C7  UNL     1      -6.359  -0.092  -2.093  1.00  0.00     0.034 C 
HETATM   18  C8  UNL     1      -7.697   0.078  -1.345  1.00  0.00     0.016 C 
HETATM   19  C9  UNL     1      -6.634  -0.519  -3.520  1.00  0.00     0.016 C 
ENDBRANCH  14  17
ENDBRANCH  12  13
ENDBRANCH  11  12
ENDBRANCH   9  11
ENDBRANCH   8   9
ENDBRANCH   7   8
ENDBRANCH   5   7
ENDBRANCH   4   5
ENDBRANCH   3   4
ENDBRANCH   1   3
BRANCH   1  20
HETATM   20  C18 UNL     1       4.812  -1.038   0.307  1.00  0.00     0.268 C 
HETATM   21  O3  UNL     1       4.431  -2.224   0.214  1.00  0.00    -0.266 OA
HETATM   22  N1  UNL     1       6.120  -0.732  -0.130  1.00  0.00    -0.252 N 
HETATM   23  N2  UNL     1       6.995  -1.652  -0.291  1.00  0.00    -0.128 N 
ATOM     24  H1  UNL     1       6.371   0.238  -0.320  1.00  0.00     0.191 HD
HETATM   25  C19 UNL     1       8.314  -1.298  -0.736  1.00  0.00     0.710 C 
ATOM     26  H2  UNL     1       6.758  -2.627  -0.105  1.00  0.00     0.205 HD
HETATM   27  N3  UNL     1       8.758  -1.959  -1.768  1.00  0.00    -0.232 N 
HETATM   28  N4  UNL     1       9.097  -0.318  -0.127  1.00  0.00    -0.098 N 
ATOM     29  H32 UNL     1       8.185  -2.676  -2.213  1.00  0.00     0.174 HD
ATOM     30  H31 UNL     1       9.695  -1.708  -2.084  1.00  0.00     0.174 HD
ATOM     31  H4  UNL     1       8.935  -0.081   0.852  1.00  0.00     0.213 HD
BRANCH  28  32
HETATM   32  O4  UNL     1      10.061   0.317  -0.813  1.00  0.00    -0.276 OA
ATOM     33  H4  UNL     1      10.594   0.985  -0.398  1.00  0.00     0.245 HD
ENDBRANCH  28  32
ENDBRANCH   1  20
BRANCH   2  34
HETATM   34  O2  UNL     1       5.546   1.624   0.603  1.00  0.00    -0.372 OA
ATOM     35  H2  UNL     1       5.808   2.533   0.692  1.00  0.00     0.216 HD
ENDBRANCH   2  34
TORSDOF 14
