REMARK  10 active torsions:
REMARK  status: ('A' for Active; 'I' for Inactive)
REMARK    1  A    between atoms: N1_2  and  C2_4 
REMARK    2  A    between atoms: C3_5  and  O1_6 
REMARK    3  A    between atoms: C4_8  and  O2_9 
REMARK    4  A    between atoms: C5_11  and  O3_12 
REMARK    5  A    between atoms: C7_17  and  C8_18 
REMARK       I    between atoms: C8_18  and  N3_20 
REMARK    6  A    between atoms: N3_20  and  C9_22 
REMARK    7  A    between atoms: C9_22  and  C10_23 
REMARK    8  A    between atoms: C10_23  and  C11_24 
REMARK    9  A    between atoms: C11_24  and  C12_25 
REMARK   10  A    between atoms: C12_25  and  C13_26 
ROOT
HETATM    1  C2  UNL     1      -5.260  -0.688   0.056  1.00  0.00     0.077 A 
HETATM    2  C3  UNL     1      -5.612  -1.767   0.835  1.00  0.00     0.129 A 
HETATM    3  C4  UNL     1      -4.670  -2.217   1.758  1.00  0.00     0.137 A 
HETATM    4  C5  UNL     1      -3.445  -1.631   1.906  1.00  0.00     0.129 A 
HETATM    5  C6  UNL     1      -3.104  -0.553   1.123  1.00  0.00     0.082 A 
HETATM    6  N2  UNL     1      -2.006   0.223   1.028  1.00  0.00    -0.349 N 
ATOM      7  H2  UNL     1      -1.163   0.112   1.591  1.00  0.00     0.166 HD
HETATM    8  C7  UNL     1      -2.183   1.163   0.085  1.00  0.00     0.102 A 
HETATM    9  C19 UNL     1      -3.440   0.987  -0.449  1.00  0.00     0.051 A 
HETATM   10  C20 UNL     1      -4.022  -0.084   0.195  1.00  0.00     0.025 A 
ENDROOT
BRANCH   8  11
HETATM   11  C8  UNL     1      -1.226   2.191  -0.315  1.00  0.00     0.268 C 
HETATM   12  O4  UNL     1      -1.536   2.998  -1.213  1.00  0.00    -0.266 OA
HETATM   13  N3  UNL     1       0.052   2.304   0.288  1.00  0.00    -0.356 N 
ATOM     14  H3  UNL     1       0.314   1.648   1.024  1.00  0.00     0.162 HD
BRANCH  13  15
HETATM   15  C9  UNL     1       0.997   3.328  -0.114  1.00  0.00     0.123 C 
BRANCH  15  16
HETATM   16  C10 UNL     1       2.236   3.175   0.704  1.00  0.00     0.020 C 
BRANCH  16  17
HETATM   17  C11 UNL     1       2.900   1.834   0.532  1.00  0.00     0.002 C 
BRANCH  17  18
HETATM   18  C12 UNL     1       3.306   1.577  -0.877  1.00  0.00     0.005 C 
BRANCH  18  19
HETATM   19  C13 UNL     1       3.984   0.270  -1.131  1.00  0.00    -0.014 C 
HETATM   20  C14 UNL     1       3.098  -0.871  -0.768  1.00  0.00     0.004 C 
HETATM   21  C15 UNL     1       3.752  -2.216  -1.027  1.00  0.00     0.000 C 
HETATM   22  C16 UNL     1       5.176  -2.248  -0.531  1.00  0.00     0.000 C 
HETATM   23  C17 UNL     1       5.978  -1.097  -1.055  1.00  0.00     0.000 C 
HETATM   24  C18 UNL     1       5.348   0.180  -0.480  1.00  0.00     0.004 C 
ENDBRANCH  18  19
ENDBRANCH  17  18
ENDBRANCH  16  17
ENDBRANCH  15  16
ENDBRANCH  13  15
ENDBRANCH   8  11
BRANCH   4  25
HETATM   25  O3  UNL     1      -2.542  -2.105   2.830  1.00  0.00    -0.356 OA
ATOM     26  H3  UNL     1      -1.690  -1.697   2.933  1.00  0.00     0.218 HD
ENDBRANCH   4  25
BRANCH   1  27
HETATM   27  N1  UNL     1      -6.161  -0.156  -0.919  1.00  0.00    -0.391 N 
HETATM   28  C1  UNL     1      -6.218  -0.590  -2.280  1.00  0.00     0.146 C 
ATOM     29  H1  UNL     1      -6.804   0.580  -0.625  1.00  0.00     0.159 HD
ENDBRANCH   1  27
BRANCH   3  30
HETATM   30  O2  UNL     1      -5.067  -3.309   2.524  1.00  0.00    -0.356 OA
ATOM     31  H2  UNL     1      -4.425  -3.616   3.153  1.00  0.00     0.218 HD
ENDBRANCH   3  30
BRANCH   2  32
HETATM   32  O1  UNL     1      -6.855  -2.359   0.683  1.00  0.00    -0.356 OA
ATOM     33  H1  UNL     1      -7.098  -3.104   1.221  1.00  0.00     0.218 HD
ENDBRANCH   2  32
TORSDOF 10
