REMARK  9 active torsions:
REMARK  status: ('A' for Active; 'I' for Inactive)
REMARK    1  A    between atoms: C4_4  and  C5_5 
REMARK    2  A    between atoms: C6_6  and  C7_7 
REMARK    3  A    between atoms: C7_7  and  C8_8 
REMARK    4  A    between atoms: C8_8  and  C9_9 
REMARK    5  A    between atoms: C10_10  and  N1_11 
REMARK    6  A    between atoms: N1_11  and  C11_12 
REMARK    7  A    between atoms: C11_12  and  C12_13 
REMARK    8  A    between atoms: C12_13  and  C13_14 
REMARK    9  A    between atoms: C14_17  and  C15_18 
ROOT
HETATM    1  C1  UNL     1      10.132  -1.622  -0.787  1.00  0.00     0.027 C 
HETATM    2  C2  UNL     1       8.973  -1.553  -1.139  1.00  0.00    -0.025 C 
HETATM    3  C3  UNL     1       7.610  -1.473  -1.539  1.00  0.00    -0.002 C 
HETATM    4  C4  UNL     1       6.448  -1.393  -1.865  1.00  0.00    -0.001 C 
ENDROOT
BRANCH   4   5
HETATM    5  C5  UNL     1       5.076  -1.308  -2.228  1.00  0.00    -0.014 C 
HETATM    6  C6  UNL     1       3.901  -1.231  -2.520  1.00  0.00    -0.092 C 
BRANCH   6   7
HETATM    7  C7  UNL     1       2.475  -1.124  -2.853  1.00  0.00     0.098 C 
BRANCH   7   8
HETATM    8  C8  UNL     1       1.740  -1.153  -1.492  1.00  0.00     0.040 C 
BRANCH   8   9
HETATM    9  C9  UNL     1       0.300  -1.047  -1.806  1.00  0.00    -0.001 C 
HETATM   10  C10 UNL     1      -0.729  -1.048  -0.788  1.00  0.00     0.205 C 
BRANCH  10  11
HETATM   11  N1  UNL     1      -0.885  -0.066   0.254  1.00  0.00     0.024 N 
HETATM   12  C14 UNL     1      -0.570  -0.500   1.557  1.00  0.00     0.326 C 
HETATM   13  C16 UNL     1      -1.523   0.320   2.490  1.00  0.00     0.287 C 
HETATM   14  N3  UNL     1      -2.727   0.244   1.732  1.00  0.00    -0.017 N 
HETATM   15  C17 UNL     1      -3.555   1.446   1.874  1.00  0.00     0.277 C 
HETATM   16  C18 UNL     1      -3.570  -0.737   2.446  1.00  0.00     0.277 C 
HETATM   17  C19 UNL     1      -2.413  -0.112   0.421  1.00  0.00     0.393 C 
HETATM   18  C20 UNL     1      -3.104   0.609  -0.662  1.00  0.00     0.219 C 
HETATM   19  N5  UNL     1      -2.884  -1.466   0.247  1.00  0.00    -0.284 N 
HETATM   20  N4  UNL     1      -4.210  -0.209  -1.096  1.00  0.00    -0.337 N 
HETATM   21  C21 UNL     1      -4.130  -1.440  -0.454  1.00  0.00     0.319 C 
ATOM     22  H4  UNL     1      -4.930   0.069  -1.762  1.00  0.00     0.164 HD
HETATM   23  O4  UNL     1      -4.975  -2.363  -0.473  1.00  0.00    -0.247 OA
ATOM     24  H5  UNL     1      -2.405  -2.306   0.572  1.00  0.00     0.168 HD
BRANCH  11  25
HETATM   25  C11 UNL     1      -0.495   1.175  -0.203  1.00  0.00     0.258 C 
BRANCH  25  26
HETATM   26  C12 UNL     1       0.601   2.028   0.224  1.00  0.00     0.128 C 
BRANCH  26  27
HETATM   27  C13 UNL     1       0.570   3.337  -0.583  1.00  0.00     0.232 C 
HETATM   28  N2  UNL     1       1.566   4.294  -0.301  1.00  0.00    -0.062 NA
HETATM   29  O1  UNL     1      -0.288   3.553  -1.445  1.00  0.00    -0.277 OA
ENDBRANCH  26  27
ENDBRANCH  25  26
ENDBRANCH  11  25
BRANCH  12  30
HETATM   30  C15 UNL     1       0.683  -0.469   2.222  1.00  0.00     0.207 C 
HETATM   31  O2  UNL     1       1.845  -0.161   1.961  1.00  0.00    -0.646 OA
HETATM   32  O3  UNL     1       0.660  -0.910   3.591  1.00  0.00    -0.646 OA
ENDBRANCH  12  30
ENDBRANCH  10  11
ENDBRANCH   8   9
ENDBRANCH   7   8
ENDBRANCH   6   7
ENDBRANCH   4   5
TORSDOF 9
