REMARK  9 active torsions:
REMARK  status: ('A' for Active; 'I' for Inactive)
REMARK    1  A    between atoms: N1_2  and  C4_5 
REMARK    2  A    between atoms: C4_5  and  C5_6 
REMARK    3  A    between atoms: C5_6  and  N2_7 
REMARK    4  A    between atoms: N2_7  and  C8_10 
REMARK    5  A    between atoms: C10_12  and  N3_13 
REMARK       I    between atoms: N3_13  and  C11_15 
REMARK    6  A    between atoms: C11_15  and  C12_17 
REMARK    7  A    between atoms: C12_17  and  C13_18 
REMARK    8  A    between atoms: C19_25  and  O2_26 
REMARK    9  A    between atoms: C20_28  and  O3_29 
ROOT
HETATM    1  N3  UNL     1       0.204   0.872  -0.731  1.00  0.00    -0.354 N 
ATOM      2  H3  UNL     1       0.197   1.251  -1.678  1.00  0.00     0.162 HD
HETATM    3  C11 UNL     1      -0.992   0.859  -0.003  1.00  0.00     0.218 C 
HETATM    4  O1  UNL     1      -0.950   0.380   1.171  1.00  0.00    -0.274 OA
ENDROOT
BRANCH   3   5
HETATM    5  C12 UNL     1      -2.228   1.387  -0.603  1.00  0.00     0.107 C 
BRANCH   5   6
HETATM    6  C13 UNL     1      -3.420   1.288   0.326  1.00  0.00    -0.003 C 
HETATM    7  C14 UNL     1      -4.602   1.878  -0.453  1.00  0.00     0.033 C 
HETATM    8  C15 UNL     1      -5.237   0.780  -1.284  1.00  0.00     0.238 C 
HETATM    9  N4  UNL     1      -5.957  -0.163  -0.452  1.00  0.00    -0.062 N 
HETATM   10  C16 UNL     1      -5.251  -0.267   0.797  1.00  0.00     0.238 C 
HETATM   11  C18 UNL     1      -6.104  -1.455  -1.068  1.00  0.00     0.271 C 
HETATM   12  C21 UNL     1      -7.342   0.251  -0.249  1.00  0.00     0.271 C 
HETATM   13  C17 UNL     1      -3.769  -0.182   0.533  1.00  0.00     0.033 C 
HETATM   14  C19 UNL     1      -7.317  -2.098  -0.427  1.00  0.00     0.174 C 
HETATM   15  C20 UNL     1      -7.916  -0.983   0.433  1.00  0.00     0.174 C 
BRANCH  14  16
HETATM   16  O2  UNL     1      -6.967  -3.128   0.440  1.00  0.00    -0.391 OA
ATOM     17  H2  UNL     1      -7.728  -3.531   0.842  1.00  0.00     0.210 HD
ENDBRANCH  14  16
BRANCH  15  18
HETATM   18  O3  UNL     1      -9.286  -1.069   0.312  1.00  0.00    -0.391 OA
ATOM     19  H3  UNL     1      -9.658  -0.377   0.846  1.00  0.00     0.210 HD
ENDBRANCH  15  18
ENDBRANCH   5   6
ENDBRANCH   3   5
BRANCH   1  20
HETATM   20  C10 UNL     1       1.468   0.361  -0.185  1.00  0.00     0.117 A 
HETATM   21  C8  UNL     1       2.728   1.003  -0.633  1.00  0.00     0.214 A 
HETATM   22  C9  UNL     1       2.316  -0.335  -1.186  1.00  0.00     0.063 A 
BRANCH  21  23
HETATM   23  N2  UNL     1       3.877   1.056   0.252  1.00  0.00    -0.067 N 
HETATM   24  C6  UNL     1       3.574   0.492   1.547  1.00  0.00     0.272 C 
HETATM   25  C7  UNL     1       4.275   2.450   0.493  1.00  0.00     0.272 C 
BRANCH  23  26
HETATM   26  C5  UNL     1       5.012   0.414  -0.384  1.00  0.00     0.265 C 
BRANCH  26  27
HETATM   27  C4  UNL     1       5.931  -0.201   0.634  1.00  0.00     0.264 C 
BRANCH  27  28
HETATM   28  N1  UNL     1       7.071  -0.852   0.065  1.00  0.00    -0.077 N 
HETATM   29  C1  UNL     1       6.696  -2.080  -0.626  1.00  0.00     0.271 C 
HETATM   30  C2  UNL     1       7.783  -0.030  -0.891  1.00  0.00     0.271 C 
HETATM   31  C3  UNL     1       8.029  -1.232   1.087  1.00  0.00     0.271 C 
ENDBRANCH  27  28
ENDBRANCH  26  27
ENDBRANCH  23  26
ENDBRANCH  21  23
ENDBRANCH   1  20
TORSDOF 9
