REMARK  11 active torsions:
REMARK  status: ('A' for Active; 'I' for Inactive)
REMARK    1  A    between atoms: C2_2  and  C3_3 
REMARK    2  A    between atoms: N2_9  and  C6_10 
REMARK    3  A    between atoms: C6_10  and  C7_11 
REMARK    4  A    between atoms: C7_11  and  C8_12 
REMARK    5  A    between atoms: C8_12  and  C9_13 
REMARK    6  A    between atoms: C9_13  and  N3_14 
REMARK    7  A    between atoms: C12_17  and  C13_18 
REMARK    8  A    between atoms: C13_18  and  C14_19 
REMARK    9  A    between atoms: C15_20  and  C16_21 
REMARK   10  A    between atoms: C16_21  and  C19_24 
REMARK   11  A    between atoms: C19_24  and  O2_25 
ROOT
HETATM    1  C7  UNL     1      -2.391   0.081  -1.415  1.00  0.00     0.024 C 
ENDROOT
BRANCH   1   2
HETATM    2  C6  UNL     1      -2.848  -1.004  -0.468  1.00  0.00     0.156 C 
BRANCH   2   3
HETATM    3  N2  UNL     1      -4.271  -0.806  -0.244  1.00  0.00    -0.225 N 
HETATM    4  C5  UNL     1      -5.116  -1.468  -1.079  1.00  0.00     0.344 A 
HETATM    5  N1  UNL     1      -6.437  -1.351  -0.953  1.00  0.00    -0.291 N 
HETATM    6  O1  UNL     1      -4.637  -2.215  -2.002  1.00  0.00    -0.245 OA
HETATM    7  C4  UNL     1      -6.963  -0.551   0.035  1.00  0.00     0.146 A 
ATOM      8  H1  UNL     1      -7.057  -1.854  -1.588  1.00  0.00     0.172 HD
HETATM    9  C3  UNL     1      -8.258  -0.461   0.126  1.00  0.00     0.025 C 
HETATM   10  N5  UNL     1      -6.095   0.073   0.824  1.00  0.00    -0.170 N 
HETATM   11  N4  UNL     1      -4.753  -0.043   0.698  1.00  0.00    -0.210 N 
HETATM   12  N6  UNL     1      -6.485   0.816   1.749  1.00  0.00    -0.321 N 
HETATM   13  C22 UNL     1      -3.903   0.693   1.589  1.00  0.00     0.202 C 
ATOM     14  H62 UNL     1      -7.497   0.903   1.844  1.00  0.00     0.179 HD
ATOM     15  H61 UNL     1      -5.819   1.295   2.355  1.00  0.00     0.179 HD
BRANCH   9  16
HETATM   16  C2  UNL     1      -9.075   0.305   1.068  1.00  0.00     0.026 C 
HETATM   17  C1  UNL     1      -9.232   1.736   0.570  1.00  0.00     0.009 C 
ENDBRANCH   9  16
ENDBRANCH   2   3
ENDBRANCH   1   2
BRANCH   1  18
HETATM   18  C8  UNL     1      -0.918  -0.018  -1.727  1.00  0.00     0.022 C 
BRANCH  18  19
HETATM   19  C9  UNL     1      -0.055   0.100  -0.498  1.00  0.00     0.128 C 
BRANCH  19  20
HETATM   20  N3  UNL     1       1.330  -0.013  -0.944  1.00  0.00    -0.366 N 
HETATM   21  C10 UNL     1       2.033   1.077  -1.299  1.00  0.00     0.091 A 
HETATM   22  C11 UNL     1       3.342   1.012  -1.725  1.00  0.00     0.025 A 
HETATM   23  C12 UNL     1       3.990  -0.204  -1.805  1.00  0.00    -0.044 A 
HETATM   24  C20 UNL     1       3.266  -1.324  -1.440  1.00  0.00     0.025 A 
HETATM   25  C21 UNL     1       1.954  -1.203  -1.018  1.00  0.00     0.091 A 
BRANCH  23  26
HETATM   26  C13 UNL     1       5.400  -0.288  -2.263  1.00  0.00     0.132 C 
BRANCH  26  27
HETATM   27  C14 UNL     1       6.253  -0.167  -1.081  1.00  0.00    -0.101 C 
HETATM   28  C15 UNL     1       6.971  -0.071  -0.123  1.00  0.00    -0.095 C 
BRANCH  28  29
HETATM   29  C16 UNL     1       7.861   0.034   1.027  1.00  0.00     0.037 C 
HETATM   30  C17 UNL     1       8.618   1.345   0.931  1.00  0.00     0.031 C 
HETATM   31  C18 UNL     1       7.033  -0.047   2.277  1.00  0.00     0.031 C 
BRANCH  29  32
HETATM   32  C19 UNL     1       8.860  -1.098   0.931  1.00  0.00     0.185 C 
BRANCH  32  33
HETATM   33  O2  UNL     1       9.767  -1.118   1.962  1.00  0.00    -0.399 OA
ATOM     34  H2  UNL     1      10.394  -1.829   1.902  1.00  0.00     0.209 HD
ENDBRANCH  32  33
ENDBRANCH  29  32
ENDBRANCH  28  29
ENDBRANCH  26  27
ENDBRANCH  23  26
ENDBRANCH  19  20
ENDBRANCH  18  19
ENDBRANCH   1  18
TORSDOF 11
