REMARK  9 active torsions:
REMARK  status: ('A' for Active; 'I' for Inactive)
REMARK    1  A    between atoms: C2_2  and  C3_4 
REMARK    2  A    between atoms: C7_8  and  C8_9 
REMARK    3  A    between atoms: C8_9  and  N1_10 
REMARK    4  A    between atoms: N1_10  and  C9_12 
REMARK    5  A    between atoms: C12_17  and  N3_18 
REMARK    6  A    between atoms: N5_23  and  C13_24 
REMARK    7  A    between atoms: C13_24  and  C14_25 
REMARK    8  A    between atoms: C14_25  and  C15_26 
REMARK    9  A    between atoms: C15_26  and  N6_27 
ROOT
HETATM    1  C3  UNL     1       0.114   3.205   0.509  1.00  0.00     0.032 A 
HETATM    2  C4  UNL     1      -1.170   3.126   1.067  1.00  0.00     0.026 A 
HETATM    3  C5  UNL     1      -1.764   1.910   1.208  1.00  0.00    -0.037 A 
HETATM    4  C6  UNL     1      -3.136   1.837   1.814  1.00  0.00     0.050 C 
HETATM    5  C7  UNL     1      -1.112   0.739   0.805  1.00  0.00     0.035 A 
HETATM    6  N5  UNL     1       0.096   0.808   0.290  1.00  0.00    -0.351 N 
HETATM    7  C21 UNL     1       0.702   2.030   0.144  1.00  0.00     0.021 A 
HETATM    8  C22 UNL     1       2.103   2.073  -0.372  1.00  0.00     0.069 C 
ENDROOT
BRANCH   5   9
HETATM    9  C8  UNL     1      -1.861  -0.523   1.087  1.00  0.00     0.179 C 
BRANCH   9  10
HETATM   10  N1  UNL     1      -3.126  -0.550   0.423  1.00  0.00    -0.370 N 
ATOM     11  H1  UNL     1      -3.631   0.334   0.359  1.00  0.00     0.161 HD
BRANCH  10  12
HETATM   12  C9  UNL     1      -3.685  -1.572  -0.097  1.00  0.00     0.118 A 
HETATM   13  C10 UNL     1      -3.197  -2.857  -0.145  1.00  0.00     0.066 A 
HETATM   14  C11 UNL     1      -3.940  -3.893  -0.681  1.00  0.00     0.110 A 
HETATM   15  N2  UNL     1      -5.150  -3.692  -1.166  1.00  0.00    -0.202 N 
HETATM   16  C12 UNL     1      -5.660  -2.426  -1.129  1.00  0.00     0.677 A 
ATOM     17  H2  UNL     1      -5.691  -4.463  -1.559  1.00  0.00     0.183 HD
HETATM   18  N4  UNL     1      -4.948  -1.419  -0.616  1.00  0.00    -0.177 N 
ATOM     19  H4  UNL     1      -5.364  -0.488  -0.609  1.00  0.00     0.185 HD
BRANCH  16  20
HETATM   20  N3  UNL     1      -6.856  -2.275  -1.607  1.00  0.00    -0.234 N 
ATOM     21  H32 UNL     1      -7.400  -3.044  -1.999  1.00  0.00     0.174 HD
ATOM     22  H31 UNL     1      -7.237  -1.329  -1.579  1.00  0.00     0.174 HD
ENDBRANCH  16  20
ENDBRANCH  10  12
ENDBRANCH   9  10
ENDBRANCH   5   9
BRANCH   6  23
HETATM   23  C13 UNL     1       0.870  -0.367  -0.067  1.00  0.00     0.130 C 
BRANCH  23  24
HETATM   24  C14 UNL     1       1.529  -0.942   1.199  1.00  0.00     0.040 C 
BRANCH  24  25
HETATM   25  C15 UNL     1       2.406  -2.091   0.847  1.00  0.00     0.129 C 
BRANCH  25  26
HETATM   26  N6  UNL     1       3.525  -1.768   0.008  1.00  0.00    -0.366 N 
HETATM   27  C16 UNL     1       4.667  -1.389   0.666  1.00  0.00     0.090 A 
HETATM   28  C17 UNL     1       5.805  -1.045  -0.023  1.00  0.00     0.017 A 
HETATM   29  C18 UNL     1       5.842  -1.067  -1.400  1.00  0.00     0.003 A 
HETATM   30  C19 UNL     1       4.695  -1.447  -2.056  1.00  0.00     0.017 A 
HETATM   31  C20 UNL     1       3.579  -1.784  -1.321  1.00  0.00     0.090 A 
ENDBRANCH  25  26
ENDBRANCH  24  25
ENDBRANCH  23  24
ENDBRANCH   6  23
BRANCH   1  32
HETATM   32  C2  UNL     1       0.594   4.548   0.247  1.00  0.00     0.157 C 
HETATM   33  C1  UNL     1       1.281   5.036  -0.965  1.00  0.00     0.097 C 
HETATM   34  O1  UNL     1       0.375   5.390   1.198  1.00  0.00    -0.293 OA
ENDBRANCH   1  32
TORSDOF 9
