REMARK  9 active torsions:
REMARK  status: ('A' for Active; 'I' for Inactive)
REMARK    1  A    between atoms: N1_1  and  C1_4 
REMARK    2  A    between atoms: C2_7  and  C3_8 
REMARK    3  A    between atoms: C3_8  and  C4_9 
REMARK    4  A    between atoms: C4_9  and  C5_10 
REMARK    5  A    between atoms: C5_10  and  N3_11 
REMARK    6  A    between atoms: C10_16  and  N4_17 
REMARK    7  A    between atoms: N5_29  and  C22_30 
REMARK    8  A    between atoms: C22_30  and  C23_31 
REMARK    9  A    between atoms: C23_31  and  O1_32 
ROOT
HETATM    1  C5  UNL     1       0.938   2.352   0.745  1.00  0.00     0.130 C 
ENDROOT
BRANCH   1   2
HETATM    2  C4  UNL     1      -0.152   1.512   0.129  1.00  0.00     0.026 C 
BRANCH   2   3
HETATM    3  C3  UNL     1      -1.383   1.428   1.003  1.00  0.00     0.059 C 
BRANCH   3   4
HETATM    4  C2  UNL     1      -2.432   0.622   0.372  1.00  0.00     0.028 A 
HETATM    5  N2  UNL     1      -2.306   0.045  -0.833  1.00  0.00    -0.196 N 
HETATM    6  C1  UNL     1      -3.308  -0.696  -1.378  1.00  0.00     0.678 A 
ATOM      7  H2  UNL     1      -1.437   0.165  -1.353  1.00  0.00     0.184 HD
HETATM    8  N5  UNL     1      -4.488  -0.907  -0.761  1.00  0.00    -0.192 N 
HETATM    9  C21 UNL     1      -4.641  -0.343   0.444  1.00  0.00     0.111 A 
HETATM   10  C20 UNL     1      -3.643   0.414   1.021  1.00  0.00     0.043 A 
BRANCH   6  11
HETATM   11  N1  UNL     1      -3.079  -1.204  -2.532  1.00  0.00    -0.234 N 
ATOM     12  H12 UNL     1      -2.186  -1.044  -2.999  1.00  0.00     0.174 HD
ATOM     13  H11 UNL     1      -3.830  -1.760  -2.941  1.00  0.00     0.174 HD
ENDBRANCH   6  11
BRANCH   8  14
HETATM   14  C22 UNL     1      -5.498  -1.700  -1.407  1.00  0.00     0.172 C 
BRANCH  14  15
HETATM   15  C23 UNL     1      -6.453  -0.937  -2.260  1.00  0.00     0.185 C 
BRANCH  15  16
HETATM   16  O1  UNL     1      -5.829  -0.265  -3.285  1.00  0.00    -0.399 OA
ATOM     17  H1  UNL     1      -6.438   0.221  -3.829  1.00  0.00     0.209 HD
ENDBRANCH  15  16
ENDBRANCH  14  15
ENDBRANCH   8  14
ENDBRANCH   3   4
ENDBRANCH   2   3
ENDBRANCH   1   2
BRANCH   1  18
HETATM   18  N3  UNL     1       1.399   1.871   2.008  1.00  0.00    -0.343 N 
HETATM   19  C6  UNL     1       0.768   2.302   3.133  1.00  0.00     0.092 A 
HETATM   20  C7  UNL     1       1.162   1.874   4.377  1.00  0.00     0.017 A 
HETATM   21  C8  UNL     1       2.214   0.995   4.499  1.00  0.00     0.005 A 
HETATM   22  C9  UNL     1       2.840   0.569   3.374  1.00  0.00     0.049 A 
HETATM   23  C10 UNL     1       2.427   1.015   2.096  1.00  0.00     0.113 A 
BRANCH  23  24
HETATM   24  N4  UNL     1       3.133   0.542   0.954  1.00  0.00    -0.318 N 
HETATM   25  C11 UNL     1       4.017   1.288   0.274  1.00  0.00     0.099 A 
HETATM   26  C12 UNL     1       4.714   0.820  -0.823  1.00  0.00     0.030 A 
HETATM   27  C13 UNL     1       4.513  -0.466  -1.261  1.00  0.00    -0.023 A 
HETATM   28  C14 UNL     1       5.186  -0.978  -2.351  1.00  0.00     0.012 A 
HETATM   29  C18 UNL     1       3.608  -1.240  -0.568  1.00  0.00    -0.010 A 
HETATM   30  C15 UNL     1       4.968  -2.273  -2.773  1.00  0.00     0.001 A 
HETATM   31  C16 UNL     1       4.070  -3.046  -2.089  1.00  0.00     0.001 A 
HETATM   32  C17 UNL     1       3.393  -2.533  -0.993  1.00  0.00     0.013 A 
HETATM   33  C19 UNL     1       2.942  -0.718   0.519  1.00  0.00     0.110 A 
ENDBRANCH  23  24
ENDBRANCH   1  18
TORSDOF 9
