REMARK  7 active torsions:
REMARK  status: ('A' for Active; 'I' for Inactive)
REMARK    1  A    between atoms: C3_4  and  C4_5 
REMARK    2  A    between atoms: C6_11  and  C7_12 
REMARK    3  A    between atoms: C7_12  and  C8_13 
REMARK    4  A    between atoms: C8_13  and  C9_14 
REMARK    5  A    between atoms: C9_14  and  N4_15 
REMARK    6  A    between atoms: C17_25  and  C18_26 
REMARK    7  A    between atoms: C18_26  and  N6_27 
ROOT
HETATM    1  C4  UNL     1       1.316   0.076   0.177  1.00  0.00     0.119 A 
HETATM    2  N2  UNL     1       0.595  -0.774   0.913  1.00  0.00    -0.326 N 
ATOM      3  H2  UNL     1       0.983  -1.405   1.614  1.00  0.00     0.169 HD
HETATM    4  C5  UNL     1      -0.715  -0.687   0.605  1.00  0.00     0.134 A 
HETATM    5  N3  UNL     1      -1.940  -1.139   0.855  1.00  0.00    -0.344 N 
ATOM      6  H3  UNL     1      -2.161  -1.859   1.543  1.00  0.00     0.167 HD
HETATM    7  C6  UNL     1      -2.851  -0.519   0.079  1.00  0.00     0.013 A 
HETATM    8  C13 UNL     1      -2.135   0.370  -0.696  1.00  0.00     0.058 A 
HETATM    9  C14 UNL     1      -0.785   0.291  -0.391  1.00  0.00     0.080 A 
HETATM   10  N5  UNL     1       0.464   0.730  -0.624  1.00  0.00    -0.339 N 
ATOM     11  H5  UNL     1       0.722   1.447  -1.302  1.00  0.00     0.167 HD
ENDROOT
BRANCH   1  12
HETATM   12  C3  UNL     1       2.748   0.269   0.223  1.00  0.00     0.024 A 
HETATM   13  C2  UNL     1       3.550  -0.442   1.073  1.00  0.00     0.105 A 
HETATM   14  N1  UNL     1       4.909  -0.289   1.146  1.00  0.00    -0.362 N 
HETATM   15  C1  UNL     1       5.606  -1.109   2.115  1.00  0.00     0.155 C 
HETATM   16  C17 UNL     1       5.528   0.582   0.373  1.00  0.00     0.029 A 
HETATM   17  C16 UNL     1       4.746   1.339  -0.520  1.00  0.00     0.028 A 
HETATM   18  C15 UNL     1       3.378   1.190  -0.599  1.00  0.00     0.018 A 
BRANCH  16  19
HETATM   19  C18 UNL     1       6.990   0.757   0.417  1.00  0.00     0.186 C 
BRANCH  19  20
HETATM   20  N6  UNL     1       7.710   0.140  -0.647  1.00  0.00    -0.346 N 
HETATM   21  C19 UNL     1       8.218  -1.092  -0.683  1.00  0.00     0.109 A 
HETATM   22  C20 UNL     1       8.849  -1.318  -1.897  1.00  0.00     0.106 A 
HETATM   23  N7  UNL     1       8.703  -0.172  -2.592  1.00  0.00    -0.361 N 
HETATM   24  C21 UNL     1       8.014   0.703  -1.829  1.00  0.00     0.182 A 
ATOM     25  H7  UNL     1       9.053   0.004  -3.534  1.00  0.00     0.166 HD
ENDBRANCH  19  20
ENDBRANCH  16  19
ENDBRANCH   1  12
BRANCH   7  26
HETATM   26  C7  UNL     1      -4.344  -0.742   0.053  1.00  0.00     0.059 C 
BRANCH  26  27
HETATM   27  C8  UNL     1      -5.029   0.171   1.027  1.00  0.00     0.034 C 
BRANCH  27  28
HETATM   28  C9  UNL     1      -6.489  -0.038   1.019  1.00  0.00     0.236 C 
BRANCH  28  29
HETATM   29  N4  UNL     1      -7.206   0.174  -0.178  1.00  0.00    -0.079 N 
HETATM   30  C10 UNL     1      -6.695   1.384  -0.844  1.00  0.00     0.271 C 
HETATM   31  C11 UNL     1      -8.587   0.533   0.198  1.00  0.00     0.271 C 
HETATM   32  C12 UNL     1      -7.276  -0.895  -1.095  1.00  0.00     0.271 C 
ENDBRANCH  28  29
ENDBRANCH  27  28
ENDBRANCH  26  27
ENDBRANCH   7  26
TORSDOF 7
