REMARK  14 active torsions:
REMARK  status: ('A' for Active; 'I' for Inactive)
REMARK    1  A    between atoms: N1_4  and  C4_5 
REMARK    2  A    between atoms: C4_5  and  C5_6 
REMARK    3  A    between atoms: C5_6  and  C6_7 
REMARK    4  A    between atoms: C6_7  and  O1_8 
REMARK    5  A    between atoms: N2_12  and  C9_13 
REMARK    6  A    between atoms: C9_13  and  C10_14 
REMARK    7  A    between atoms: C10_14  and  C11_15 
REMARK    8  A    between atoms: C12_16  and  C13_17 
REMARK    9  A    between atoms: C14_18  and  C15_19 
REMARK   10  A    between atoms: C15_19  and  C16_20 
REMARK   11  A    between atoms: C16_20  and  C17_21 
REMARK   12  A    between atoms: C17_21  and  C18_22 
REMARK   13  A    between atoms: C19_23  and  N3_24 
REMARK   14  A    between atoms: N3_24  and  C20_26 
ROOT
HETATM    1  C10 UNL     1      -0.658  -2.128  -2.303  1.00  0.00     0.123 C 
ENDROOT
BRANCH   1   2
HETATM    2  C9  UNL     1      -1.359  -0.867  -2.585  1.00  0.00     0.256 C 
BRANCH   2   3
HETATM    3  N2  UNL     1      -2.169  -0.229  -1.641  1.00  0.00    -0.036 N 
HETATM    4  C2  UNL     1      -1.807   1.097  -1.282  1.00  0.00     0.131 C 
HETATM    5  C1  UNL     1      -0.578   1.530  -1.278  1.00  0.00     0.048 C 
HETATM    6  C3  UNL     1      -2.945   1.983  -0.907  1.00  0.00     0.301 C 
HETATM    7  N1  UNL     1      -3.958   1.063  -0.237  1.00  0.00    -0.059 N 
HETATM    8  C7  UNL     1      -3.106   0.166   0.505  1.00  0.00     0.266 C 
HETATM    9  C23 UNL     1      -4.558   0.401  -1.344  1.00  0.00     0.266 C 
HETATM   10  C8  UNL     1      -2.527  -0.906  -0.437  1.00  0.00     0.271 C 
HETATM   11  C22 UNL     1      -3.502  -0.046  -2.333  1.00  0.00     0.271 C 
BRANCH   7  12
HETATM   12  C4  UNL     1      -4.713   1.908   0.568  1.00  0.00     0.240 C 
BRANCH  12  13
HETATM   13  C5  UNL     1      -6.096   1.710   0.971  1.00  0.00     0.054 C 
BRANCH  13  14
HETATM   14  C6  UNL     1      -6.479   0.549   1.820  1.00  0.00     0.165 C 
BRANCH  14  15
HETATM   15  O1  UNL     1      -6.290  -0.710   1.324  1.00  0.00    -0.401 OA
ATOM     16  H1  UNL     1      -6.534  -1.451   1.866  1.00  0.00     0.209 HD
ENDBRANCH  14  15
ENDBRANCH  13  14
ENDBRANCH  12  13
ENDBRANCH   7  12
ENDBRANCH   2   3
ENDBRANCH   1   2
BRANCH   1  17
HETATM   17  C11 UNL     1       0.340  -2.055  -1.254  1.00  0.00    -0.091 C 
HETATM   18  C12 UNL     1       1.209  -1.999  -0.387  1.00  0.00    -0.015 C 
BRANCH  18  19
HETATM   19  C13 UNL     1       2.191  -1.940   0.627  1.00  0.00    -0.015 C 
HETATM   20  C14 UNL     1       3.018  -1.901   1.506  1.00  0.00    -0.092 C 
BRANCH  20  21
HETATM   21  C15 UNL     1       4.016  -1.870   2.595  1.00  0.00     0.096 C 
BRANCH  21  22
HETATM   22  C16 UNL     1       5.043  -2.941   2.294  1.00  0.00     0.024 C 
BRANCH  22  23
HETATM   23  C17 UNL     1       5.737  -2.703   0.970  1.00  0.00     0.097 C 
BRANCH  23  24
HETATM   24  C18 UNL     1       6.431  -1.415   0.970  1.00  0.00    -0.083 C 
HETATM   25  C19 UNL     1       7.012  -0.356   0.989  1.00  0.00     0.011 C 
BRANCH  25  26
HETATM   26  N3  UNL     1       7.695   0.863   1.033  1.00  0.00    -0.305 N 
ATOM     27  H3  UNL     1       8.168   1.155   1.889  1.00  0.00     0.177 HD
BRANCH  26  28
HETATM   28  C20 UNL     1       7.728   1.694  -0.120  1.00  0.00     0.078 C 
HETATM   29  C21 UNL     1       6.562   2.519  -0.539  1.00  0.00     0.089 C 
HETATM   30  N4  UNL     1       8.815   1.741  -0.843  1.00  0.00    -0.389 N 
ATOM     31  H42 UNL     1       9.614   1.176  -0.556  1.00  0.00     0.157 HD
ATOM     32  H41 UNL     1       8.839   2.337  -1.670  1.00  0.00     0.157 HD
ENDBRANCH  26  28
ENDBRANCH  25  26
ENDBRANCH  23  24
ENDBRANCH  22  23
ENDBRANCH  21  22
ENDBRANCH  20  21
ENDBRANCH  18  19
ENDBRANCH   1  17
TORSDOF 14
