REMARK  11 active torsions:
REMARK  status: ('A' for Active; 'I' for Inactive)
REMARK    1  A    between atoms: C4_5  and  C5_6 
REMARK    2  A    between atoms: C6_7  and  C7_8 
REMARK    3  A    between atoms: C7_8  and  C8_9 
REMARK    4  A    between atoms: C8_9  and  C9_10 
REMARK    5  A    between atoms: C9_10  and  C10_11 
REMARK    6  A    between atoms: C10_11  and  O1_12 
REMARK    7  A    between atoms: N3_20  and  C15_21 
REMARK    8  A    between atoms: C15_21  and  C16_22 
REMARK    9  A    between atoms: C16_22  and  O2_23 
REMARK   10  A    between atoms: C16_22  and  C17_25 
REMARK   11  A    between atoms: C17_25  and  O3_26 
ROOT
HETATM    1  C5  UNL     1      -0.627   1.139   0.176  1.00  0.00     0.052 A 
HETATM    2  C6  UNL     1      -0.044  -0.089   0.143  1.00  0.00    -0.028 A 
HETATM    3  C11 UNL     1       1.346  -0.191   0.366  1.00  0.00     0.043 A 
HETATM    4  C12 UNL     1       2.123   0.914   0.616  1.00  0.00     0.080 A 
HETATM    5  C13 UNL     1       1.458   2.142   0.636  1.00  0.00     0.136 A 
HETATM    6  N2  UNL     1       2.419   3.047   0.896  1.00  0.00    -0.336 N 
ATOM      7  H2  UNL     1       2.272   4.053   0.980  1.00  0.00     0.168 HD
HETATM    8  C14 UNL     1       3.604   2.423   1.029  1.00  0.00     0.185 A 
HETATM    9  N3  UNL     1       3.432   1.098   0.858  1.00  0.00    -0.337 N 
HETATM   10  N4  UNL     1       0.153   2.245   0.426  1.00  0.00    -0.335 N 
HETATM   11  C18 UNL     1      -0.539   3.536   0.447  1.00  0.00     0.158 C 
ENDROOT
BRANCH   1  12
HETATM   12  C4  UNL     1      -2.047   1.305  -0.065  1.00  0.00    -0.006 A 
HETATM   13  C3  UNL     1      -2.581   1.360  -1.358  1.00  0.00     0.031 A 
HETATM   14  C2  UNL     1      -3.934   1.562  -1.530  1.00  0.00     0.090 A 
HETATM   15  N1  UNL     1      -4.790   1.713  -0.518  1.00  0.00    -0.371 N 
HETATM   16  C1  UNL     1      -6.226   1.927  -0.751  1.00  0.00     0.154 C 
HETATM   17  C20 UNL     1      -4.301   1.664   0.737  1.00  0.00     0.090 A 
HETATM   18  C19 UNL     1      -2.956   1.464   0.948  1.00  0.00     0.031 A 
ENDBRANCH   1  12
BRANCH   2  19
HETATM   19  C7  UNL     1      -0.804  -1.317  -0.095  1.00  0.00     0.041 C 
BRANCH  19  20
HETATM   20  C8  UNL     1      -1.453  -1.941   1.090  1.00  0.00     0.007 C 
BRANCH  20  21
HETATM   21  C9  UNL     1      -2.225  -3.165   0.652  1.00  0.00     0.026 C 
BRANCH  21  22
HETATM   22  C10 UNL     1      -1.301  -4.152   0.029  1.00  0.00     0.164 C 
BRANCH  22  23
HETATM   23  O1  UNL     1      -2.080  -5.267  -0.321  1.00  0.00    -0.401 OA
ATOM     24  H1  UNL     1      -1.490  -5.897  -0.719  1.00  0.00     0.209 HD
ENDBRANCH  22  23
ENDBRANCH  21  22
ENDBRANCH  20  21
ENDBRANCH  19  20
ENDBRANCH   2  19
BRANCH   9  25
HETATM   25  C15 UNL     1       4.398   0.033   0.907  1.00  0.00     0.164 C 
BRANCH  25  26
HETATM   26  C16 UNL     1       5.038  -0.274  -0.408  1.00  0.00     0.160 C 
BRANCH  26  27
HETATM   27  O2  UNL     1       4.085  -0.647  -1.325  1.00  0.00    -0.392 OA
ATOM     28  H2  UNL     1       4.492  -0.842  -2.161  1.00  0.00     0.210 HD
ENDBRANCH  26  27
BRANCH  26  29
HETATM   29  C17 UNL     1       5.942  -1.494  -0.187  1.00  0.00     0.197 C 
BRANCH  29  30
HETATM   30  O3  UNL     1       6.541  -1.878  -1.382  1.00  0.00    -0.398 OA
ATOM     31  H3  UNL     1       7.101  -2.633  -1.245  1.00  0.00     0.209 HD
ENDBRANCH  29  30
ENDBRANCH  26  29
ENDBRANCH  25  26
ENDBRANCH   9  25
TORSDOF 11
