REMARK  7 active torsions:
REMARK  status: ('A' for Active; 'I' for Inactive)
REMARK    1  A    between atoms: N2_7  and  C5_9 
REMARK    2  A    between atoms: C5_9  and  C6_10 
REMARK    3  A    between atoms: C6_10  and  N3_11 
REMARK    4  A    between atoms: C8_16  and  C10_18 
REMARK    5  A    between atoms: C10_18  and  C11_19 
REMARK    6  A    between atoms: C11_19  and  C12_20 
REMARK    7  A    between atoms: C12_20  and  C13_21 
ROOT
HETATM    1  N3  UNL     1       1.574  -2.195   0.343  1.00  0.00    -0.266 N 
HETATM    2  C7  UNL     1       1.456  -2.564   1.716  1.00  0.00     0.326 C 
HETATM    3  O1  UNL     1       2.409  -2.901   2.474  1.00  0.00    -0.247 OA
HETATM    4  N4  UNL     1       0.074  -2.479   2.056  1.00  0.00    -0.325 N 
ATOM      5  H4  UNL     1      -0.403  -2.978   2.807  1.00  0.00     0.165 HD
HETATM    6  C8  UNL     1      -0.525  -1.530   1.110  1.00  0.00     0.112 C 
HETATM    7  C9  UNL     1      -0.118  -0.163   1.533  1.00  0.00     0.049 C 
HETATM    8  C18 UNL     1       0.238  -1.891  -0.119  1.00  0.00     0.256 C 
HETATM    9  O2  UNL     1      -0.098  -1.950  -1.316  1.00  0.00    -0.270 OA
ENDROOT
BRANCH   1  10
HETATM   10  C6  UNL     1       2.806  -2.134  -0.449  1.00  0.00     0.157 C 
BRANCH  10  11
HETATM   11  C5  UNL     1       3.342  -0.728  -0.289  1.00  0.00     0.158 C 
BRANCH  11  12
HETATM   12  N2  UNL     1       4.570  -0.526  -1.026  1.00  0.00    -0.224 N 
HETATM   13  C4  UNL     1       5.310   0.487  -0.722  1.00  0.00     0.678 A 
HETATM   14  N1  UNL     1       5.098   1.433   0.228  1.00  0.00    -0.200 N 
HETATM   15  N7  UNL     1       6.477   0.821  -1.303  1.00  0.00    -0.195 N 
HETATM   16  C3  UNL     1       6.104   2.315   0.224  1.00  0.00     0.131 A 
ATOM     17  H1  UNL     1       4.292   1.466   0.852  1.00  0.00     0.183 HD
HETATM   18  C2  UNL     1       6.988   1.927  -0.753  1.00  0.00     0.038 A 
HETATM   19  C1  UNL     1       8.270   2.633  -1.107  1.00  0.00     0.070 C 
ATOM     20  H7  UNL     1       6.914   0.299  -2.063  1.00  0.00     0.184 HD
ATOM     21  H2  UNL     1       4.845  -1.169  -1.769  1.00  0.00     0.177 HD
ENDBRANCH  11  12
ENDBRANCH  10  11
ENDBRANCH   1  10
BRANCH   6  22
HETATM   22  C10 UNL     1      -1.997  -1.730   0.992  1.00  0.00     0.041 C 
BRANCH  22  23
HETATM   23  C11 UNL     1      -2.673  -0.796   0.051  1.00  0.00     0.008 C 
BRANCH  23  24
HETATM   24  C12 UNL     1      -4.170  -1.088   0.011  1.00  0.00     0.041 C 
BRANCH  24  25
HETATM   25  C13 UNL     1      -4.891  -0.199  -0.900  1.00  0.00    -0.027 A 
HETATM   26  C14 UNL     1      -5.851   0.578  -0.430  1.00  0.00     0.099 A 
HETATM   27  N5  UNL     1      -6.590   1.465  -1.259  1.00  0.00    -0.357 N 
HETATM   28  C15 UNL     1      -7.647   2.325  -0.760  1.00  0.00     0.156 C 
HETATM   29  C16 UNL     1      -6.327   1.527  -2.523  1.00  0.00     0.182 A 
HETATM   30  N6  UNL     1      -5.303   0.705  -3.055  1.00  0.00    -0.361 N 
HETATM   31  C17 UNL     1      -4.615  -0.108  -2.331  1.00  0.00     0.097 A 
ATOM     32  H6  UNL     1      -5.102   0.759  -4.054  1.00  0.00     0.166 HD
ENDBRANCH  24  25
ENDBRANCH  23  24
ENDBRANCH  22  23
ENDBRANCH   6  22
TORSDOF 7
