REMARK  10 active torsions:
REMARK  status: ('A' for Active; 'I' for Inactive)
REMARK    1  A    between atoms: C3_3  and  N1_4 
REMARK    2  A    between atoms: N1_4  and  C4_6 
REMARK    3  A    between atoms: C5_9  and  N3_10 
REMARK    4  A    between atoms: N3_10  and  C6_12 
REMARK    5  A    between atoms: C8_16  and  N5_17 
REMARK    6  A    between atoms: N5_17  and  C9_19 
REMARK    7  A    between atoms: C9_19  and  C10_20 
REMARK    8  A    between atoms: C10_20  and  C11_21 
REMARK    9  A    between atoms: N6_24  and  C14_25 
REMARK   10  A    between atoms: C14_25  and  C15_26 
ROOT
HETATM    1  C1  UNL     1      -6.079   4.421   1.980  1.00  0.00     0.014 C 
HETATM    2  C2  UNL     1      -5.709   4.307   0.841  1.00  0.00    -0.097 C 
HETATM    3  C3  UNL     1      -5.253   4.190  -0.546  1.00  0.00     0.231 C 
ENDROOT
BRANCH   3   4
HETATM    4  N1  UNL     1      -4.041   3.435  -0.678  1.00  0.00    -0.215 N 
ATOM      5  H1  UNL     1      -3.190   3.954  -0.893  1.00  0.00     0.178 HD
BRANCH   4   6
HETATM    6  C4  UNL     1      -3.936   2.169  -0.549  1.00  0.00     0.708 A 
HETATM    7  N2  UNL     1      -4.979   1.370  -0.266  1.00  0.00    -0.021 N 
HETATM    8  C5  UNL     1      -4.762   0.053  -0.152  1.00  0.00     0.707 A 
ATOM      9  H2  UNL     1      -5.914   1.757  -0.141  1.00  0.00     0.203 HD
HETATM   10  N4  UNL     1      -3.539  -0.484  -0.311  1.00  0.00    -0.022 N 
HETATM   11  C8  UNL     1      -2.474   0.305  -0.596  1.00  0.00     0.707 A 
ATOM     12  H4  UNL     1      -3.412  -1.492  -0.217  1.00  0.00     0.203 HD
HETATM   13  N7  UNL     1      -2.717   1.624  -0.707  1.00  0.00    -0.021 N 
ATOM     14  H7  UNL     1      -1.935   2.243  -0.922  1.00  0.00     0.203 HD
BRANCH   8  15
HETATM   15  N3  UNL     1      -5.766  -0.691   0.117  1.00  0.00    -0.225 N 
ATOM     16  H3  UNL     1      -6.676  -0.245   0.230  1.00  0.00     0.177 HD
BRANCH  15  17
HETATM   17  C6  UNL     1      -5.690  -2.127   0.271  1.00  0.00     0.133 C 
HETATM   18  C7  UNL     1      -5.577  -2.824  -1.055  1.00  0.00     0.027 C 
ENDBRANCH  15  17
ENDBRANCH   8  15
BRANCH  11  19
HETATM   19  N5  UNL     1      -1.288  -0.185  -0.755  1.00  0.00    -0.225 N 
ATOM     20  H5  UNL     1      -0.524   0.455  -0.970  1.00  0.00     0.177 HD
BRANCH  19  21
HETATM   21  C9  UNL     1      -0.994  -1.586  -0.644  1.00  0.00     0.142 C 
BRANCH  21  22
HETATM   22  C10 UNL     1       0.347  -1.946  -1.229  1.00  0.00     0.058 C 
BRANCH  22  23
HETATM   23  C11 UNL     1       1.469  -1.258  -0.590  1.00  0.00    -0.054 A 
HETATM   24  C12 UNL     1       1.922  -0.041  -1.045  1.00  0.00     0.024 A 
HETATM   25  C13 UNL     1       2.999   0.596  -0.414  1.00  0.00     0.091 A 
HETATM   26  N6  UNL     1       3.597   0.030   0.635  1.00  0.00    -0.362 N 
HETATM   27  C21 UNL     1       3.144  -1.158   1.068  1.00  0.00     0.091 A 
HETATM   28  C22 UNL     1       2.090  -1.836   0.492  1.00  0.00     0.024 A 
BRANCH  26  29
HETATM   29  C14 UNL     1       4.713   0.624   1.338  1.00  0.00     0.166 C 
BRANCH  29  30
HETATM   30  C15 UNL     1       6.013   0.240   0.801  1.00  0.00    -0.040 A 
HETATM   31  C16 UNL     1       6.664  -0.865   1.275  1.00  0.00     0.009 A 
HETATM   32  C17 UNL     1       7.889  -1.200   0.746  1.00  0.00     0.001 A 
HETATM   33  C18 UNL     1       8.461  -0.443  -0.247  1.00  0.00     0.000 A 
HETATM   34  C19 UNL     1       7.828   0.663  -0.735  1.00  0.00     0.001 A 
HETATM   35  C20 UNL     1       6.582   0.997  -0.190  1.00  0.00     0.009 A 
ENDBRANCH  29  30
ENDBRANCH  26  29
ENDBRANCH  22  23
ENDBRANCH  21  22
ENDBRANCH  19  21
ENDBRANCH  11  19
ENDBRANCH   4   6
ENDBRANCH   3   4
TORSDOF 10
