REMARK  9 active torsions:
REMARK  status: ('A' for Active; 'I' for Inactive)
REMARK    1  A    between atoms: C4_9  and  C5_10 
REMARK    2  A    between atoms: C5_10  and  C6_11 
REMARK    3  A    between atoms: C5_10  and  C13_19 
REMARK    4  A    between atoms: C6_11  and  C7_12 
REMARK    5  A    between atoms: C13_19  and  N4_20 
REMARK    6  A    between atoms: N4_20  and  C16_23 
REMARK    7  A    between atoms: C16_23  and  O2_24 
REMARK    8  A    between atoms: C16_23  and  C17_26 
REMARK    9  A    between atoms: C17_26  and  C18_27 
ROOT
HETATM    1  C5  UNL     1      -0.576   0.503  -0.032  1.00  0.00     0.017 C 
ENDROOT
BRANCH   1   2
HETATM    2  C4  UNL     1      -1.194   1.694  -0.666  1.00  0.00     0.070 A 
HETATM    3  C2  UNL     1      -0.758   2.990  -0.555  1.00  0.00     0.037 A 
HETATM    4  C1  UNL     1       0.111   3.612   0.468  1.00  0.00     0.070 C 
HETATM    5  N1  UNL     1      -1.409   3.731  -1.460  1.00  0.00    -0.310 N 
HETATM    6  C3  UNL     1      -2.261   2.936  -2.143  1.00  0.00     0.325 A 
ATOM      7  H1  UNL     1      -1.282   4.732  -1.609  1.00  0.00     0.170 HD
HETATM    8  O1  UNL     1      -3.037   3.283  -3.073  1.00  0.00    -0.247 OA
HETATM    9  N2  UNL     1      -2.156   1.670  -1.674  1.00  0.00    -0.306 N 
ATOM     10  H2  UNL     1      -2.680   0.856  -1.996  1.00  0.00     0.171 HD
ENDBRANCH   1   2
BRANCH   1  11
HETATM   11  C6  UNL     1      -1.447  -0.190   0.884  1.00  0.00     0.026 C 
BRANCH  11  12
HETATM   12  C7  UNL     1      -2.752  -0.751   0.559  1.00  0.00    -0.033 A 
HETATM   13  C8  UNL     1      -3.949  -0.145   1.008  1.00  0.00     0.028 A 
HETATM   14  C9  UNL     1      -5.184  -0.692   0.772  1.00  0.00     0.090 A 
HETATM   15  N3  UNL     1      -5.328  -1.829   0.107  1.00  0.00    -0.371 N 
HETATM   16  C10 UNL     1      -6.624  -2.448  -0.114  1.00  0.00     0.154 C 
HETATM   17  C11 UNL     1      -4.205  -2.464  -0.359  1.00  0.00     0.090 A 
HETATM   18  C12 UNL     1      -2.963  -1.924  -0.131  1.00  0.00     0.028 A 
ENDBRANCH  11  12
ENDBRANCH   1  11
BRANCH   1  19
HETATM   19  C13 UNL     1       0.868   0.564   0.005  1.00  0.00     0.218 C 
BRANCH  19  20
HETATM   20  N4  UNL     1       1.643  -0.474   0.615  1.00  0.00    -0.028 N 
HETATM   21  C14 UNL     1       1.774  -0.071   2.038  1.00  0.00     0.281 C 
HETATM   22  C15 UNL     1       1.091  -1.813   0.535  1.00  0.00     0.281 C 
BRANCH  20  23
HETATM   23  C16 UNL     1       2.973  -0.595   0.137  1.00  0.00     0.333 C 
BRANCH  23  24
HETATM   24  O2  UNL     1       3.872  -1.084   1.139  1.00  0.00    -0.369 OA
ATOM     25  H2  UNL     1       4.763  -1.165   0.819  1.00  0.00     0.212 HD
ENDBRANCH  23  24
BRANCH  23  26
HETATM   26  C17 UNL     1       3.644   0.463  -0.643  1.00  0.00     0.120 C 
BRANCH  26  27
HETATM   27  C18 UNL     1       5.038  -0.106  -0.902  1.00  0.00     0.029 A 
HETATM   28  C19 UNL     1       5.403  -0.867  -1.977  1.00  0.00     0.114 A 
HETATM   29  N5  UNL     1       6.701  -1.201  -1.870  1.00  0.00    -0.360 N 
HETATM   30  C20 UNL     1       7.129  -0.644  -0.725  1.00  0.00     0.180 A 
ATOM     31  H5  UNL     1       7.248  -1.762  -2.523  1.00  0.00     0.166 HD
HETATM   32  N6  UNL     1       6.104   0.040  -0.113  1.00  0.00    -0.354 N 
ATOM     33  H6  UNL     1       6.150   0.555   0.766  1.00  0.00     0.166 HD
ENDBRANCH  26  27
ENDBRANCH  23  26
ENDBRANCH  20  23
ENDBRANCH  19  20
ENDBRANCH   1  19
TORSDOF 9
