REMARK  8 active torsions:
REMARK  status: ('A' for Active; 'I' for Inactive)
REMARK    1  A    between atoms: C8_13  and  C9_14 
REMARK    2  A    between atoms: C9_14  and  C10_15 
REMARK    3  A    between atoms: C10_15  and  C11_16 
REMARK    4  A    between atoms: N4_19  and  C12_20 
REMARK    5  A    between atoms: C12_20  and  C13_21 
REMARK    6  A    between atoms: C13_21  and  C14_22 
REMARK    7  A    between atoms: C14_22  and  C15_23 
REMARK    8  A    between atoms: C15_23  and  N5_24 
ROOT
HETATM    1  N1  UNL     1       6.126  -0.474  -2.261  1.00  0.00    -0.393 N 
ATOM      2  H11 UNL     1       6.983  -0.714  -1.763  1.00  0.00     0.156 HD
ATOM      3  H12 UNL     1       6.268  -0.200  -3.233  1.00  0.00     0.156 HD
HETATM    4  C1  UNL     1       4.995  -0.464  -1.676  1.00  0.00     0.077 A 
HETATM    5  S1  UNL     1       3.544  -0.057  -2.518  1.00  0.00    -0.054 SA
HETATM    6  C2  UNL     1       2.165  -0.204  -1.534  1.00  0.00     0.083 A 
HETATM    7  C3  UNL     1       0.924   0.089  -2.071  1.00  0.00     0.053 A 
HETATM    8  C4  UNL     1      -0.205  -0.035  -1.254  1.00  0.00     0.010 A 
HETATM    9  C5  UNL     1      -0.023  -0.439   0.028  1.00  0.00     0.062 A 
HETATM   10  C6  UNL     1       1.260  -0.722   0.515  1.00  0.00     0.127 A 
HETATM   11  N2  UNL     1       2.375  -0.604  -0.274  1.00  0.00    -0.324 N 
HETATM   12  C7  UNL     1       3.571  -0.885   0.241  1.00  0.00     0.107 A 
HETATM   13  C8  UNL     1       4.807  -0.827  -0.389  1.00  0.00    -0.008 A 
HETATM   14  N4  UNL     1      -1.426  -0.347   0.222  1.00  0.00    -0.354 N 
HETATM   15  C19 UNL     1      -1.605   0.028  -0.964  1.00  0.00     0.105 A 
ENDROOT
BRANCH  14  16
HETATM   16  C12 UNL     1      -2.186  -0.617   1.431  1.00  0.00     0.129 C 
BRANCH  16  17
HETATM   17  C13 UNL     1      -3.646  -0.496   1.312  1.00  0.00     0.022 C 
BRANCH  17  18
HETATM   18  C14 UNL     1      -4.339  -1.403   0.358  1.00  0.00     0.023 C 
BRANCH  18  19
HETATM   19  C15 UNL     1      -5.835  -1.194   0.329  1.00  0.00     0.148 C 
BRANCH  19  20
HETATM   20  N5  UNL     1      -6.177   0.162  -0.069  1.00  0.00    -0.304 N 
HETATM   21  C16 UNL     1      -6.359   0.528  -1.347  1.00  0.00     0.111 A 
HETATM   22  C17 UNL     1      -6.675   1.853  -1.360  1.00  0.00     0.037 A 
HETATM   23  C18 UNL     1      -6.673   2.252  -0.045  1.00  0.00     0.108 A 
HETATM   24  N6  UNL     1      -6.369   1.206   0.701  1.00  0.00    -0.310 N 
ATOM     25  H6  UNL     1      -6.295   1.209   1.718  1.00  0.00     0.186 HD
ENDBRANCH  19  20
ENDBRANCH  18  19
ENDBRANCH  17  18
ENDBRANCH  16  17
ENDBRANCH  14  16
BRANCH  13  26
HETATM   26  C9  UNL     1       5.962  -1.133   0.511  1.00  0.00     0.051 C 
BRANCH  26  27
HETATM   27  C10 UNL     1       6.399   0.063   1.258  1.00  0.00     0.104 C 
BRANCH  27  28
HETATM   28  C11 UNL     1       6.966   1.180   0.557  1.00  0.00     0.231 C 
HETATM   29  N3  UNL     1       6.349   2.493   0.685  1.00  0.00    -0.062 NA
HETATM   30  O1  UNL     1       8.012   1.101  -0.186  1.00  0.00    -0.277 OA
ENDBRANCH  27  28
ENDBRANCH  26  27
ENDBRANCH  13  26
TORSDOF 8
