REMARK  8 active torsions:
REMARK  status: ('A' for Active; 'I' for Inactive)
REMARK    1  A    between atoms: C3_5  and  S1_6 
REMARK    2  A    between atoms: S1_6  and  N2_9 
REMARK    3  A    between atoms: N2_9  and  C4_11 
REMARK    4  A    between atoms: C4_11  and  C5_12 
REMARK    5  A    between atoms: C8_17  and  C9_18 
REMARK    6  A    between atoms: C9_18  and  C10_19 
REMARK    7  A    between atoms: C10_19  and  C11_20 
REMARK    8  A    between atoms: C11_20  and  N4_21 
ROOT
HETATM    1  N2  UNL     1       1.365  -1.599  -1.747  1.00  0.00    -0.310 N 
ATOM      2  H2  UNL     1       0.627  -2.280  -1.567  1.00  0.00     0.172 HD
ENDROOT
BRANCH   1   3
HETATM    3  S1  UNL     1       3.063  -1.866  -1.472  1.00  0.00     0.276 S 
HETATM    4  O1  UNL     1       3.742  -1.708  -2.798  1.00  0.00    -0.199 OA
HETATM    5  O2  UNL     1       3.233  -3.302  -1.062  1.00  0.00    -0.199 OA
BRANCH   3   6
HETATM    6  C3  UNL     1       3.719  -0.733  -0.348  1.00  0.00     0.172 A 
HETATM    7  N1  UNL     1       4.753   0.124  -0.612  1.00  0.00    -0.334 N 
HETATM    8  C2  UNL     1       5.005   0.881   0.464  1.00  0.00     0.080 A 
ATOM      9  H1  UNL     1       5.257   0.178  -1.497  1.00  0.00     0.168 HD
HETATM   10  C1  UNL     1       6.074   1.944   0.557  1.00  0.00     0.089 C 
HETATM   11  N5  UNL     1       4.132   0.499   1.398  1.00  0.00    -0.342 N 
HETATM   12  C15 UNL     1       3.340  -0.481   0.931  1.00  0.00     0.049 A 
HETATM   13  C17 UNL     1       4.096   1.120   2.732  1.00  0.00     0.157 C 
HETATM   14  C16 UNL     1       2.278  -1.109   1.725  1.00  0.00     0.071 C 
ENDBRANCH   3   6
ENDBRANCH   1   3
BRANCH   1  15
HETATM   15  C4  UNL     1       1.157  -0.260  -2.271  1.00  0.00     0.173 C 
BRANCH  15  16
HETATM   16  C5  UNL     1      -0.245   0.059  -2.564  1.00  0.00    -0.013 A 
HETATM   17  C6  UNL     1      -0.672   0.647  -3.756  1.00  0.00     0.097 A 
HETATM   18  N3  UNL     1      -1.991   0.870  -3.684  1.00  0.00    -0.374 N 
HETATM   19  C7  UNL     1      -2.446   0.444  -2.477  1.00  0.00     0.099 A 
ATOM     20  H3  UNL     1      -2.561   1.292  -4.417  1.00  0.00     0.164 HD
HETATM   21  C8  UNL     1      -1.381  -0.064  -1.767  1.00  0.00    -0.012 A 
BRANCH  21  22
HETATM   22  C9  UNL     1      -1.398  -0.613  -0.437  1.00  0.00     0.011 C 
BRANCH  22  23
HETATM   23  C10 UNL     1      -2.349  -0.961   0.363  1.00  0.00     0.002 C 
BRANCH  23  24
HETATM   24  C11 UNL     1      -3.781  -0.913   0.178  1.00  0.00     0.263 C 
BRANCH  24  25
HETATM   25  N4  UNL     1      -4.486  -0.035   1.099  1.00  0.00    -0.075 N 
HETATM   26  C12 UNL     1      -4.094   1.335   0.885  1.00  0.00     0.272 C 
HETATM   27  C13 UNL     1      -4.198  -0.363   2.478  1.00  0.00     0.272 C 
HETATM   28  C14 UNL     1      -5.916  -0.096   0.882  1.00  0.00     0.272 C 
ENDBRANCH  24  25
ENDBRANCH  23  24
ENDBRANCH  22  23
ENDBRANCH  21  22
ENDBRANCH  15  16
ENDBRANCH   1  15
TORSDOF 8
