REMARK  10 active torsions:
REMARK  status: ('A' for Active; 'I' for Inactive)
REMARK    1  A    between atoms: C3_4  and  C4_5 
REMARK    2  A    between atoms: C5_6  and  C6_7 
REMARK    3  A    between atoms: C9_12  and  N3_13 
REMARK    4  A    between atoms: C10_16  and  C11_17 
REMARK    5  A    between atoms: C12_18  and  C13_19 
REMARK    6  A    between atoms: C13_19  and  C14_20 
REMARK    7  A    between atoms: C14_20  and  N4_21 
REMARK    8  A    between atoms: C17_24  and  N5_25 
REMARK    9  A    between atoms: N5_25  and  C19_27 
REMARK   10  A    between atoms: C19_27  and  C20_28 
ROOT
HETATM    1  C1  UNL     1       4.579   0.616  -2.468  1.00  0.00     0.124 C 
HETATM    2  C2  UNL     1       4.132   0.081  -1.465  1.00  0.00    -0.067 C 
HETATM    3  N1  UNL     1       3.590  -0.531  -0.316  1.00  0.00    -0.269 N 
HETATM    4  C3  UNL     1       4.401  -0.710   0.773  1.00  0.00     0.063 A 
HETATM    5  C8  UNL     1       3.783  -1.310   1.837  1.00  0.00     0.120 A 
HETATM    6  N2  UNL     1       2.469  -1.698   1.817  1.00  0.00    -0.348 N 
ATOM      7  H2  UNL     1       2.060  -2.141   2.640  1.00  0.00     0.167 HD
HETATM    8  C9  UNL     1       1.721  -1.503   0.734  1.00  0.00     0.136 A 
HETATM    9  C10 UNL     1       2.302  -0.905  -0.353  1.00  0.00     0.144 A 
ENDROOT
BRANCH   4  10
HETATM   10  C4  UNL     1       5.767  -0.283   0.727  1.00  0.00     0.032 C 
HETATM   11  C5  UNL     1       6.759  -0.293   1.523  1.00  0.00     0.002 C 
BRANCH  11  12
HETATM   12  C6  UNL     1       7.011  -0.735   2.864  1.00  0.00    -0.010 C 
HETATM   13  C7  UNL     1       8.227  -0.581   3.407  1.00  0.00     0.011 C 
ENDBRANCH  11  12
ENDBRANCH   4  10
BRANCH   9  14
HETATM   14  C11 UNL     1       1.490  -0.691  -1.535  1.00  0.00    -0.044 C 
HETATM   15  C12 UNL     1       0.826  -0.498  -2.530  1.00  0.00    -0.098 C 
BRANCH  15  16
HETATM   16  C13 UNL     1       0.046  -0.255  -3.745  1.00  0.00     0.114 C 
BRANCH  16  17
HETATM   17  C14 UNL     1      -0.844   0.956  -3.618  1.00  0.00     0.139 C 
BRANCH  17  18
HETATM   18  N4  UNL     1      -1.793   0.812  -2.532  1.00  0.00    -0.365 N 
HETATM   19  C15 UNL     1      -1.508   1.222  -1.264  1.00  0.00     0.092 A 
HETATM   20  C16 UNL     1      -2.401   1.087  -0.237  1.00  0.00     0.046 A 
HETATM   21  C17 UNL     1      -3.647   0.518  -0.463  1.00  0.00     0.032 A 
HETATM   22  C22 UNL     1      -3.908   0.116  -1.739  1.00  0.00     0.046 A 
HETATM   23  C23 UNL     1      -2.977   0.262  -2.780  1.00  0.00     0.092 A 
BRANCH  21  24
HETATM   24  N5  UNL     1      -4.570   0.385   0.594  1.00  0.00    -0.382 N 
HETATM   25  C18 UNL     1      -4.188   0.891   1.905  1.00  0.00     0.150 C 
BRANCH  24  26
HETATM   26  C19 UNL     1      -5.863  -0.217   0.459  1.00  0.00     0.149 C 
BRANCH  26  27
HETATM   27  C20 UNL     1      -6.910   0.860   0.609  1.00  0.00    -0.018 C 
HETATM   28  C21 UNL     1      -7.730   1.070  -0.399  1.00  0.00     0.008 C 
ENDBRANCH  26  27
ENDBRANCH  24  26
ENDBRANCH  21  24
ENDBRANCH  17  18
ENDBRANCH  16  17
ENDBRANCH  15  16
ENDBRANCH   9  14
BRANCH   8  29
HETATM   29  N3  UNL     1       0.462  -1.867   0.696  1.00  0.00    -0.383 N 
ATOM     30  H32 UNL     1       0.029  -2.312   1.505  1.00  0.00     0.157 HD
ATOM     31  H31 UNL     1      -0.111  -1.718  -0.134  1.00  0.00     0.157 HD
ENDBRANCH   8  29
TORSDOF 10
