REMARK  9 active torsions:
REMARK  status: ('A' for Active; 'I' for Inactive)
REMARK    1  A    between atoms: C3_3  and  C4_4 
REMARK    2  A    between atoms: C4_4  and  N1_6 
REMARK    3  A    between atoms: N1_6  and  C6_8 
REMARK    4  A    between atoms: N2_10  and  C8_11 
REMARK    5  A    between atoms: C8_11  and  C9_12 
REMARK    6  A    between atoms: C10_13  and  C11_14 
REMARK    7  A    between atoms: C11_14  and  N3_15 
REMARK    8  A    between atoms: C16_22  and  N5_23 
REMARK       I    between atoms: N5_23  and  C17_25 
REMARK       I    between atoms: C17_25  and  N6_27 
REMARK    9  A    between atoms: N6_27  and  C18_29 
ROOT
HETATM    1  C1  UNL     1      -0.621  -6.004  -3.201  1.00  0.00     0.097 C 
HETATM    2  C2  UNL     1      -0.780  -4.916  -2.670  1.00  0.00    -0.186 C 
HETATM    3  C3  UNL     1      -0.995  -3.613  -2.045  1.00  0.00     0.104 C 
ENDROOT
BRANCH   3   4
HETATM    4  C4  UNL     1      -2.108  -3.700  -1.033  1.00  0.00     0.088 C 
HETATM    5  C5  UNL     1      -1.774  -4.704   0.054  1.00  0.00     0.033 C 
BRANCH   4   6
HETATM    6  N1  UNL     1      -2.536  -2.445  -0.516  1.00  0.00    -0.381 N 
ATOM      7  H1  UNL     1      -3.482  -2.157  -0.766  1.00  0.00     0.160 HD
BRANCH   6   8
HETATM    8  C6  UNL     1      -1.809  -1.548   0.302  1.00  0.00     0.089 A 
HETATM    9  C7  UNL     1      -0.549  -1.836   0.798  1.00  0.00     0.125 A 
HETATM   10  N2  UNL     1       0.145  -0.977   1.596  1.00  0.00    -0.340 N 
HETATM   11  C15 UNL     1      -0.461   0.186   1.887  1.00  0.00     0.185 A 
HETATM   12  N4  UNL     1      -1.689   0.494   1.419  1.00  0.00    -0.336 N 
HETATM   13  C16 UNL     1      -2.393  -0.332   0.632  1.00  0.00     0.138 A 
ATOM     14  H4  UNL     1      -2.098   1.393   1.675  1.00  0.00     0.168 HD
BRANCH  10  15
HETATM   15  C8  UNL     1       1.462  -1.305   2.099  1.00  0.00     0.223 C 
BRANCH  15  16
HETATM   16  C9  UNL     1       2.422  -0.802   1.089  1.00  0.00    -0.085 C 
HETATM   17  C10 UNL     1       3.189  -0.380   0.259  1.00  0.00    -0.077 C 
BRANCH  17  18
HETATM   18  C11 UNL     1       4.100   0.147  -0.758  1.00  0.00     0.329 C 
BRANCH  18  19
HETATM   19  N3  UNL     1       5.071   1.066  -0.201  1.00  0.00    -0.069 N 
HETATM   20  C12 UNL     1       5.650   0.523   0.999  1.00  0.00     0.272 C 
HETATM   21  C13 UNL     1       6.131   1.252  -1.174  1.00  0.00     0.272 C 
HETATM   22  C14 UNL     1       4.441   2.326   0.120  1.00  0.00     0.272 C 
ENDBRANCH  18  19
ENDBRANCH  17  18
ENDBRANCH  15  16
ENDBRANCH  10  15
BRANCH  13  23
HETATM   23  N5  UNL     1      -3.562   0.008   0.211  1.00  0.00    -0.293 N 
HETATM   24  C17 UNL     1      -4.204   1.211   0.504  1.00  0.00     0.322 C 
HETATM   25  O1  UNL     1      -5.207   1.200   1.261  1.00  0.00    -0.247 OA
HETATM   26  N6  UNL     1      -3.776   2.460  -0.016  1.00  0.00    -0.339 N 
ATOM     27  H6  UNL     1      -2.963   2.478  -0.632  1.00  0.00     0.164 HD
ATOM     28  H5  UNL     1      -4.058  -0.656  -0.384  1.00  0.00     0.172 HD
BRANCH  26  29
HETATM   29  C18 UNL     1      -4.441   3.709   0.288  1.00  0.00     0.078 C 
HETATM   30  C19 UNL     1      -3.423   4.573   1.042  1.00  0.00     0.032 C 
HETATM   31  C20 UNL     1      -4.822   4.395  -0.994  1.00  0.00     0.032 C 
ENDBRANCH  26  29
ENDBRANCH  13  23
ENDBRANCH   6   8
ENDBRANCH   4   6
ENDBRANCH   3   4
TORSDOF 9
