REMARK  12 active torsions:
REMARK  status: ('A' for Active; 'I' for Inactive)
REMARK    1  A    between atoms: C3_3  and  C4_4 
REMARK    2  A    between atoms: C5_5  and  C6_6 
REMARK    3  A    between atoms: C7_7  and  C8_8 
REMARK    4  A    between atoms: C10_10  and  N1_11 
REMARK       I    between atoms: N1_11  and  C11_13 
REMARK    5  A    between atoms: C11_13  and  C12_15 
REMARK    6  A    between atoms: C12_15  and  C13_16 
REMARK    7  A    between atoms: C13_16  and  O2_17 
REMARK    8  A    between atoms: C13_16  and  N2_19 
REMARK    9  A    between atoms: N2_19  and  C15_21 
REMARK   10  A    between atoms: C15_21  and  C16_22 
REMARK   11  A    between atoms: C16_22  and  C17_23 
REMARK   12  A    between atoms: C17_23  and  N3_24 
ROOT
HETATM    1  C1  UNL     1      13.590  -1.419  -2.481  1.00  0.00     0.113 C 
HETATM    2  C2  UNL     1      12.233  -1.024  -2.081  1.00  0.00    -0.097 C 
HETATM    3  C3  UNL     1      11.113  -0.716  -1.734  1.00  0.00    -0.015 C 
ENDROOT
BRANCH   3   4
HETATM    4  C4  UNL     1       9.804  -0.375  -1.307  1.00  0.00    -0.001 C 
HETATM    5  C5  UNL     1       8.689  -0.106  -0.931  1.00  0.00    -0.001 C 
BRANCH   5   6
HETATM    6  C6  UNL     1       7.374   0.188  -0.470  1.00  0.00    -0.007 C 
HETATM    7  C7  UNL     1       6.251   0.422  -0.057  1.00  0.00    -0.033 C 
BRANCH   7   8
HETATM    8  C8  UNL     1       4.932   0.674   0.447  1.00  0.00     0.105 A 
HETATM    9  C9  UNL     1       4.071  -0.266   1.015  1.00  0.00     0.090 A 
HETATM   10  C10 UNL     1       2.898   0.351   1.385  1.00  0.00     0.125 A 
HETATM   11  N4  UNL     1       3.049   1.640   1.046  1.00  0.00    -0.284 N 
HETATM   12  N5  UNL     1       4.259   1.834   0.488  1.00  0.00    -0.291 N 
ATOM     13  H4  UNL     1       2.349   2.368   1.190  1.00  0.00     0.188 HD
ATOM     14  H5  UNL     1       4.611   2.729   0.148  1.00  0.00     0.188 HD
BRANCH  10  15
HETATM   15  N1  UNL     1       1.882  -0.195   1.937  1.00  0.00    -0.312 N 
HETATM   16  C11 UNL     1       0.714   0.492   2.290  1.00  0.00     0.227 C 
HETATM   17  O1  UNL     1       0.718   1.238   3.296  1.00  0.00    -0.273 OA
ATOM     18  H1  UNL     1       1.925  -1.195   2.133  1.00  0.00     0.170 HD
BRANCH  16  19
HETATM   19  C12 UNL     1      -0.529   0.360   1.508  1.00  0.00     0.167 C 
BRANCH  19  20
HETATM   20  C13 UNL     1      -1.665   1.118   2.097  1.00  0.00     0.364 C 
BRANCH  20  21
HETATM   21  O2  UNL     1      -2.042   0.778   3.360  1.00  0.00    -0.367 OA
ATOM     22  H2  UNL     1      -2.768   1.262   3.736  1.00  0.00     0.212 HD
ENDBRANCH  20  21
BRANCH  20  23
HETATM   23  N2  UNL     1      -2.901   1.031   1.257  1.00  0.00     0.113 N 
HETATM   24  C14 UNL     1      -2.559   1.725  -0.007  1.00  0.00     0.313 C 
BRANCH  23  25
HETATM   25  C15 UNL     1      -3.103  -0.360   0.920  1.00  0.00     0.277 C 
BRANCH  25  26
HETATM   26  C16 UNL     1      -4.418  -0.784   0.434  1.00  0.00     0.058 C 
BRANCH  26  27
HETATM   27  C17 UNL     1      -4.888  -0.117  -0.802  1.00  0.00     0.237 C 
BRANCH  27  28
HETATM   28  N3  UNL     1      -6.197  -0.605  -1.232  1.00  0.00    -0.079 N 
HETATM   29  C18 UNL     1      -6.931  -1.244  -0.155  1.00  0.00     0.271 C 
HETATM   30  C19 UNL     1      -6.963   0.536  -1.686  1.00  0.00     0.271 C 
HETATM   31  C20 UNL     1      -6.063  -1.522  -2.353  1.00  0.00     0.271 C 
ENDBRANCH  27  28
ENDBRANCH  26  27
ENDBRANCH  25  26
ENDBRANCH  23  25
ENDBRANCH  20  23
ENDBRANCH  19  20
ENDBRANCH  16  19
ENDBRANCH  10  15
ENDBRANCH   7   8
ENDBRANCH   5   6
ENDBRANCH   3   4
TORSDOF 12
