REMARK  6 active torsions:
REMARK  status: ('A' for Active; 'I' for Inactive)
REMARK    1  A    between atoms: C2_2  and  N1_3 
REMARK    2  A    between atoms: N1_3  and  C3_4 
REMARK    3  A    between atoms: N1_3  and  C5_6 
REMARK    4  A    between atoms: C5_6  and  C6_7 
REMARK    5  A    between atoms: C6_7  and  N2_8 
REMARK       I    between atoms: C7_10  and  N4_12 
REMARK    6  A    between atoms: N4_12  and  C8_13 
ROOT
HETATM    1  N2  UNL     1       0.232  -0.835  -0.610  1.00  0.00    -0.351 N 
ATOM      2  H2  UNL     1       0.044   0.137  -0.855  1.00  0.00     0.163 HD
HETATM    3  C7  UNL     1      -0.761  -1.587  -0.189  1.00  0.00     0.265 C 
HETATM    4  N3  UNL     1      -0.374  -2.948   0.140  1.00  0.00    -0.049 NA
HETATM    5  N4  UNL     1      -2.013  -1.188  -0.129  1.00  0.00    -0.354 NA
ENDROOT
BRANCH   1   6
HETATM    6  C6  UNL     1       1.560  -1.330  -0.735  1.00  0.00     0.153 C 
BRANCH   6   7
HETATM    7  C5  UNL     1       2.539  -0.831   0.227  1.00  0.00     0.292 C 
BRANCH   7   8
HETATM    8  N1  UNL     1       2.829   0.567   0.285  1.00  0.00     0.089 N 
BRANCH   8   9
HETATM    9  C2  UNL     1       3.953   0.729   1.202  1.00  0.00     0.268 C 
HETATM   10  C1  UNL     1       5.169  -0.053   0.681  1.00  0.00     0.037 C 
ENDBRANCH   8   9
BRANCH   8  11
HETATM   11  C3  UNL     1       3.003   1.195  -0.981  1.00  0.00     0.268 C 
HETATM   12  C4  UNL     1       3.022   2.720  -0.831  1.00  0.00     0.037 C 
ENDBRANCH   8  11
ENDBRANCH   7   8
ENDBRANCH   6   7
ENDBRANCH   1   6
BRANCH   5  13
HETATM   13  C8  UNL     1      -3.107  -0.858  -0.075  1.00  0.00     0.199 A 
HETATM   14  C9  UNL     1      -3.479   0.512  -0.116  1.00  0.00     0.154 A 
HETATM   15  N5  UNL     1      -4.739   0.933  -0.097  1.00  0.00    -0.364 N 
HETATM   16  C10 UNL     1      -5.088   2.360  -0.162  1.00  0.00     0.155 C 
HETATM   17  C11 UNL     1      -5.706   0.009  -0.034  1.00  0.00     0.127 A 
HETATM   18  C12 UNL     1      -5.424  -1.354   0.009  1.00  0.00     0.097 A 
HETATM   19 BR1  UNL     1      -6.825  -2.640   0.107  1.00  0.00    -0.030 Br
HETATM   20  N6  UNL     1      -4.150  -1.762  -0.010  1.00  0.00    -0.323 N 
ATOM     21  H6  UNL     1      -3.944  -2.760   0.024  1.00  0.00     0.169 HD
ENDBRANCH   5  13
TORSDOF 6
