REMARK  5 active torsions:
REMARK  status: ('A' for Active; 'I' for Inactive)
REMARK    1  A    between atoms: N1_5  and  C5_6 
REMARK    2  A    between atoms: C5_6  and  C6_7 
REMARK    3  A    between atoms: C6_7  and  C7_8 
REMARK    4  A    between atoms: N2_12  and  C9_13 
REMARK    5  A    between atoms: C9_13  and  C10_14 
ROOT
HETATM    1  C1  UNL     1      -1.177  -2.240   1.257  1.00  0.00     0.037 C 
HETATM    2  C2  UNL     1      -0.988  -1.201   0.167  1.00  0.00     0.059 C 
HETATM    3  C3  UNL     1      -1.823  -1.643  -1.018  1.00  0.00     0.037 C 
HETATM    4  C4  UNL     1       0.465  -1.142  -0.186  1.00  0.00     0.153 C 
HETATM    5  N1  UNL     1       0.946   0.158  -0.507  1.00  0.00    -0.355 N 
HETATM    6  C8  UNL     1       0.047   1.268  -0.626  1.00  0.00     0.188 C 
HETATM    7  S1  UNL     1       0.494   2.712  -1.246  1.00  0.00    -0.039 SA
HETATM    8  N2  UNL     1      -1.313   1.108  -0.180  1.00  0.00    -0.260 N 
HETATM    9  N3  UNL     1      -1.541   0.033   0.658  1.00  0.00    -0.125 NA
ENDROOT
BRANCH   5  10
HETATM   10  C5  UNL     1       2.359   0.383  -0.720  1.00  0.00     0.126 C 
BRANCH  10  11
HETATM   11  C6  UNL     1       3.157   0.227   0.550  1.00  0.00     0.031 C 
BRANCH  11  12
HETATM   12  C7  UNL     1       4.622   0.483   0.244  1.00  0.00     0.086 C 
HETATM   13 BR1  UNL     1       5.685   0.294   1.860  1.00  0.00    -0.096 Br
ENDBRANCH  11  12
ENDBRANCH  10  11
ENDBRANCH   5  10
BRANCH   8  14
HETATM   14  C9  UNL     1      -2.299   2.060  -0.637  1.00  0.00     0.260 C 
BRANCH  14  15
HETATM   15  C10 UNL     1      -3.648   1.821  -0.119  1.00  0.00     0.193 C 
HETATM   16  O1  UNL     1      -4.586   2.563  -0.478  1.00  0.00    -0.647 OA
HETATM   17  O2  UNL     1      -3.890   0.790   0.753  1.00  0.00    -0.647 OA
ENDBRANCH  14  15
ENDBRANCH   8  14
TORSDOF 5
