REMARK  6 active torsions:
REMARK  status: ('A' for Active; 'I' for Inactive)
REMARK    1  A    between atoms: N1_2  and  C3_4 
REMARK    2  A    between atoms: N1_2  and  C5_8 
REMARK    3  A    between atoms: C3_4  and  C4_5 
REMARK    4  A    between atoms: C4_5  and  O1_6 
REMARK    5  A    between atoms: C5_8  and  C6_9 
REMARK    6  A    between atoms: C6_9  and  N2_10 
ROOT
HETATM    1  C5  UNL     1      -0.497   0.225   0.252  1.00  0.00     0.158 C 
HETATM    2  C7  UNL     1       0.322  -1.032   0.306  1.00  0.00     0.079 C 
HETATM    3  C8  UNL     1       1.463  -0.279  -0.337  1.00  0.00     0.071 C 
HETATM    4  C9  UNL     1       0.578   0.898  -0.560  1.00  0.00     0.079 C 
HETATM    5  O2  UNL     1       1.925  -0.936  -1.469  1.00  0.00    -0.373 OA
HETATM    6  C10 UNL     1       3.309  -1.015  -1.376  1.00  0.00     0.137 C 
HETATM    7  C11 UNL     1       3.851   0.381  -1.406  1.00  0.00     0.034 C 
HETATM    8  C12 UNL     1       3.516   0.988  -0.032  1.00  0.00     0.011 C 
HETATM    9  C13 UNL     1       2.647  -0.096   0.558  1.00  0.00     0.037 C 
HETATM   10  C14 UNL     1       3.463  -1.329   0.124  1.00  0.00     0.093 C 
HETATM   11 BR1  UNL     1       5.294  -1.189   0.652  1.00  0.00    -0.088 Br
ENDROOT
BRANCH   1  12
HETATM   12  N1  UNL     1      -1.762   0.030  -0.397  1.00  0.00    -0.062 N 
HETATM   13  C1  UNL     1      -2.244   1.308  -0.877  1.00  0.00     0.273 C 
HETATM   14  C2  UNL     1      -1.731  -0.892  -1.488  1.00  0.00     0.273 C 
BRANCH  12  15
HETATM   15  C3  UNL     1      -2.715  -0.440   0.588  1.00  0.00     0.263 C 
BRANCH  15  16
HETATM   16  C4  UNL     1      -3.964  -1.010  -0.049  1.00  0.00     0.192 C 
BRANCH  16  17
HETATM   17  O1  UNL     1      -4.786  -1.420   1.027  1.00  0.00    -0.399 OA
ATOM     18  H1  UNL     1      -5.570  -1.778   0.627  1.00  0.00     0.209 HD
ENDBRANCH  16  17
ENDBRANCH  15  16
ENDBRANCH  12  15
ENDBRANCH   1  12
BRANCH   1  19
HETATM   19  C6  UNL     1      -0.632   0.877   1.590  1.00  0.00     0.269 C 
BRANCH  19  20
HETATM   20  N2  UNL     1      -1.245   2.187   1.550  1.00  0.00    -0.077 N 
ATOM     21  H23 UNL     1      -0.743   2.797   0.904  1.00  0.00     0.274 HD
ATOM     22  H22 UNL     1      -2.149   2.144   1.080  1.00  0.00     0.274 HD
ATOM     23  H21 UNL     1      -1.337   2.632   2.463  1.00  0.00     0.274 HD
ENDBRANCH  19  20
ENDBRANCH   1  19
TORSDOF 6
