REMARK  5 active torsions:
REMARK  status: ('A' for Active; 'I' for Inactive)
REMARK    1  A    between atoms: C2_4  and  C3_5 
REMARK    2  A    between atoms: C3_5  and  O1_6 
REMARK    3  A    between atoms: O1_6  and  C4_7 
REMARK    4  A    between atoms: C8_13  and  C9_14 
REMARK    5  A    between atoms: N3_15  and  N4_17 
ROOT
HETATM    1  C4  UNL     1      -1.224  -0.601   0.714  1.00  0.00     0.088 A 
HETATM    2  C5  UNL     1      -0.548  -0.629  -0.483  1.00  0.00     0.068 A 
HETATM    3  C6  UNL     1       0.822  -0.395  -0.567  1.00  0.00     0.046 A 
HETATM    4  N2  UNL     1       1.690  -0.366  -1.582  1.00  0.00    -0.364 N 
ATOM      5  H2  UNL     1       1.451  -0.530  -2.560  1.00  0.00     0.165 HD
HETATM    6  C7  UNL     1       2.928  -0.088  -1.127  1.00  0.00     0.102 A 
HETATM    7  C8  UNL     1       2.893   0.073   0.212  1.00  0.00     0.009 A 
HETATM    8  C10 UNL     1       1.540  -0.125   0.571  1.00  0.00     0.005 A 
HETATM    9  C11 UNL     1       0.877  -0.093   1.772  1.00  0.00     0.036 A 
HETATM   10  C12 UNL     1      -0.479  -0.327   1.845  1.00  0.00     0.045 A 
HETATM   11 BR1  UNL     1      -1.280  -0.254   3.580  1.00  0.00    -0.048 Br
ENDROOT
BRANCH   7  12
HETATM   12  C9  UNL     1       3.920   0.377   1.180  1.00  0.00     0.122 C 
HETATM   13  N3  UNL     1       5.126   0.554   0.874  1.00  0.00    -0.297 N 
ATOM     14  H3  UNL     1       5.722   0.759   1.676  1.00  0.00     0.187 HD
BRANCH  13  15
HETATM   15  N4  UNL     1       5.798   0.528  -0.303  1.00  0.00    -0.250 N 
HETATM   16  N5  UNL     1       6.587  -0.427  -0.570  1.00  0.00    -0.331 N 
ATOM     17  H52 UNL     1       6.706  -1.173   0.116  1.00  0.00     0.178 HD
ATOM     18  H51 UNL     1       7.093  -0.447  -1.456  1.00  0.00     0.178 HD
ATOM     19  H4  UNL     1       5.668   1.282  -0.978  1.00  0.00     0.207 HD
ENDBRANCH  13  15
ENDBRANCH   7  12
BRANCH   1  20
HETATM   20  O1  UNL     1      -2.573  -0.824   0.862  1.00  0.00    -0.345 OA
BRANCH  20  21
HETATM   21  C3  UNL     1      -3.497  -1.112  -0.138  1.00  0.00     0.219 C 
BRANCH  21  22
HETATM   22  C2  UNL     1      -3.633  -0.073  -1.180  1.00  0.00     0.081 C 
HETATM   23  N1  UNL     1      -4.154   1.077  -0.884  1.00  0.00    -0.404 N 
HETATM   24  C1  UNL     1      -4.611   1.390   0.431  1.00  0.00     0.145 C 
ATOM     25  H1  UNL     1      -4.240   1.782  -1.616  1.00  0.00     0.158 HD
ENDBRANCH  21  22
ENDBRANCH  20  21
ENDBRANCH   1  20
TORSDOF 5
