REMARK  9 active torsions:
REMARK  status: ('A' for Active; 'I' for Inactive)
REMARK    1  A    between atoms: C2_2  and  C3_3 
REMARK    2  A    between atoms: C5_8  and  C6_9 
REMARK    3  A    between atoms: C6_9  and  C7_10 
REMARK    4  A    between atoms: C7_10  and  C8_11 
REMARK    5  A    between atoms: C8_11  and  C9_12 
REMARK    6  A    between atoms: C10_13  and  C11_14 
REMARK    7  A    between atoms: C11_14  and  N2_15 
REMARK    8  A    between atoms: C17_29  and  C18_30 
REMARK    9  A    between atoms: C18_30  and  N6_31 
ROOT
HETATM    1  C3  UNL     1      -2.922   1.086   0.284  1.00  0.00     0.135 C 
HETATM    2  C4  UNL     1      -2.048   0.884   1.420  1.00  0.00     0.228 C 
HETATM    3  O1  UNL     1      -2.409   1.550   2.456  1.00  0.00    -0.273 OA
HETATM    4  N1  UNL     1      -0.892   0.094   1.568  1.00  0.00    -0.354 N 
ATOM      5  H1  UNL     1      -0.147   0.512   2.125  1.00  0.00     0.162 HD
HETATM    6  C5  UNL     1      -0.613  -1.192   1.058  1.00  0.00     0.110 C 
HETATM    7  C16 UNL     1      -1.272  -1.507  -0.256  1.00  0.00     0.258 C 
HETATM    8  N5  UNL     1      -2.710  -1.331  -0.201  1.00  0.00    -0.063 N 
ATOM      9  H51 UNL     1      -3.084  -1.494   0.734  1.00  0.00     0.278 HD
ATOM     10  H52 UNL     1      -3.210  -2.075  -0.688  1.00  0.00     0.278 HD
HETATM   11  C17 UNL     1      -3.050  -0.015  -0.709  1.00  0.00     0.241 C 
ENDROOT
BRANCH   6  12
HETATM   12  C6  UNL     1       0.855  -1.428   0.913  1.00  0.00     0.028 C 
BRANCH  12  13
HETATM   13  C7  UNL     1       1.572  -1.334   2.218  1.00  0.00     0.014 C 
BRANCH  13  14
HETATM   14  C8  UNL     1       3.056  -1.622   1.911  1.00  0.00     0.094 C 
BRANCH  14  15
HETATM   15  C9  UNL     1       3.594  -0.647   0.966  1.00  0.00    -0.105 C 
HETATM   16  C10 UNL     1       4.062   0.157   0.186  1.00  0.00    -0.086 C 
BRANCH  16  17
HETATM   17  C11 UNL     1       4.648   1.115  -0.771  1.00  0.00     0.223 C 
BRANCH  17  18
HETATM   18  N2  UNL     1       6.013   0.692  -0.989  1.00  0.00    -0.329 N 
HETATM   19  C12 UNL     1       6.488   0.208  -2.086  1.00  0.00     0.141 A 
HETATM   20  C13 UNL     1       7.905  -0.107  -1.937  1.00  0.00     0.116 A 
HETATM   21  N3  UNL     1       8.723  -0.610  -2.826  1.00  0.00    -0.384 N 
HETATM   22  N4  UNL     1       8.265   0.238  -0.609  1.00  0.00    -0.328 N 
ATOM     23  H32 UNL     1       8.464  -0.858  -3.781  1.00  0.00     0.157 HD
ATOM     24  H31 UNL     1       9.713  -0.830  -2.722  1.00  0.00     0.157 HD
HETATM   25  C14 UNL     1       7.051   0.745  -0.019  1.00  0.00     0.100 A 
ATOM     26  H4  UNL     1       9.181   0.147  -0.169  1.00  0.00     0.169 HD
HETATM   27  C15 UNL     1       6.973   1.173   1.218  1.00  0.00     0.064 C 
ENDBRANCH  17  18
ENDBRANCH  16  17
ENDBRANCH  14  15
ENDBRANCH  13  14
ENDBRANCH  12  13
ENDBRANCH   6  12
BRANCH   1  28
HETATM   28  C2  UNL     1      -2.487   2.365  -0.405  1.00  0.00    -0.021 C 
HETATM   29  C1  UNL     1      -1.354   2.961  -0.060  1.00  0.00     0.008 C 
ENDBRANCH   1  28
BRANCH  11  30
HETATM   30  C18 UNL     1      -4.283   0.004  -1.528  1.00  0.00     0.102 C 
BRANCH  30  31
HETATM   31  N6  UNL     1      -5.543  -0.076  -0.917  1.00  0.00    -0.345 N 
HETATM   32  C19 UNL     1      -6.311   0.948  -0.495  1.00  0.00     0.095 A 
HETATM   33  C20 UNL     1      -7.529   0.848   0.092  1.00  0.00     0.018 A 
HETATM   34  C21 UNL     1      -8.060  -0.403   0.292  1.00  0.00     0.003 A 
HETATM   35  C22 UNL     1      -7.318  -1.475  -0.119  1.00  0.00     0.018 A 
HETATM   36  C23 UNL     1      -6.071  -1.313  -0.718  1.00  0.00     0.095 A 
ENDBRANCH  30  31
ENDBRANCH  11  30
TORSDOF 9
