REMARK  11 active torsions:
REMARK  status: ('A' for Active; 'I' for Inactive)
REMARK    1  A    between atoms: C3_4  and  C4_5 
REMARK    2  A    between atoms: C5_6  and  C6_7 
REMARK    3  A    between atoms: C6_7  and  O1_9 
REMARK    4  A    between atoms: C6_7  and  C8_11 
REMARK    5  A    between atoms: C8_11  and  C9_12 
REMARK    6  A    between atoms: C9_12  and  N2_13 
REMARK    7  A    between atoms: N2_13  and  C12_16 
REMARK    8  A    between atoms: C12_16  and  C13_17 
REMARK    9  A    between atoms: C13_17  and  C14_18 
REMARK   10  A    between atoms: C14_18  and  N3_19 
REMARK   11  A    between atoms: C22_30  and  N6_31 
ROOT
HETATM    1  C8  UNL     1       1.723   0.628   0.499  1.00  0.00     0.079 C 
ENDROOT
BRANCH   1   2
HETATM    2  C6  UNL     1       2.715   0.244   1.603  1.00  0.00     0.119 C 
HETATM    3  C7  UNL     1       2.740   1.299   2.686  1.00  0.00     0.060 C 
BRANCH   2   4
HETATM    4  C5  UNL     1       4.018   0.148   0.942  1.00  0.00    -0.063 C 
HETATM    5  C4  UNL     1       5.092   0.048   0.401  1.00  0.00    -0.062 C 
BRANCH   5   6
HETATM    6  C3  UNL     1       6.367  -0.095  -0.236  1.00  0.00     0.038 A 
HETATM    7  C2  UNL     1       7.258  -1.098   0.083  1.00  0.00     0.130 A 
HETATM    8  N1  UNL     1       8.447  -1.240  -0.506  1.00  0.00    -0.305 N 
HETATM    9  C1  UNL     1       9.317  -2.316  -0.113  1.00  0.00     0.177 C 
HETATM   10  N7  UNL     1       8.789  -0.360  -1.454  1.00  0.00    -0.284 N 
HETATM   11  C22 UNL     1       7.963   0.642  -1.811  1.00  0.00     0.114 A 
ATOM     12  H7  UNL     1       9.694  -0.450  -1.916  1.00  0.00     0.188 HD
HETATM   13  C21 UNL     1       6.719   0.806  -1.209  1.00  0.00     0.071 A 
BRANCH  11  14
HETATM   14  N6  UNL     1       8.334   1.461  -2.726  1.00  0.00    -0.384 N 
ATOM     15  H62 UNL     1       7.708   2.220  -2.996  1.00  0.00     0.157 HD
ATOM     16  H61 UNL     1       9.246   1.341  -3.167  1.00  0.00     0.157 HD
ENDBRANCH  11  14
ENDBRANCH   5   6
ENDBRANCH   2   4
BRANCH   2  17
HETATM   17  O1  UNL     1       2.285  -0.984   2.101  1.00  0.00    -0.378 OA
ATOM     18  H1  UNL     1       1.440  -0.922   2.530  1.00  0.00     0.211 HD
ENDBRANCH   2  17
ENDBRANCH   1   2
BRANCH   1  19
HETATM   19  C9  UNL     1       0.379   0.733   1.148  1.00  0.00     0.240 C 
BRANCH  19  20
HETATM   20  N2  UNL     1      -0.681   1.090   0.240  1.00  0.00    -0.074 N 
HETATM   21  C10 UNL     1      -0.868   2.534   0.307  1.00  0.00     0.272 C 
HETATM   22  C11 UNL     1      -0.316   0.726  -1.111  1.00  0.00     0.272 C 
BRANCH  20  23
HETATM   23  C12 UNL     1      -1.886   0.475   0.694  1.00  0.00     0.238 C 
BRANCH  23  24
HETATM   24  C13 UNL     1      -3.023   0.547  -0.297  1.00  0.00     0.056 C 
BRANCH  24  25
HETATM   25  C14 UNL     1      -4.219  -0.156   0.352  1.00  0.00     0.249 C 
BRANCH  25  26
HETATM   26  N3  UNL     1      -5.370  -0.148  -0.511  1.00  0.00    -0.009 N 
HETATM   27  C15 UNL     1      -5.038  -0.040  -1.907  1.00  0.00     0.283 C 
HETATM   28  C16 UNL     1      -6.316   0.875  -0.129  1.00  0.00     0.267 C 
HETATM   29  C17 UNL     1      -7.628   0.265  -0.570  1.00  0.00     0.160 C 
HETATM   30  N4  UNL     1      -7.396  -1.169  -0.368  1.00  0.00    -0.320 N 
HETATM   31  C18 UNL     1      -7.998  -2.358  -0.201  1.00  0.00     0.111 A 
HETATM   32  C20 UNL     1      -6.054  -1.396  -0.336  1.00  0.00     0.285 A 
HETATM   33  C19 UNL     1      -7.056  -3.354  -0.061  1.00  0.00     0.108 A 
HETATM   34  N5  UNL     1      -5.863  -2.708  -0.151  1.00  0.00    -0.330 N 
ATOM     35  H5  UNL     1      -4.951  -3.160  -0.087  1.00  0.00     0.168 HD
ENDBRANCH  25  26
ENDBRANCH  24  25
ENDBRANCH  23  24
ENDBRANCH  20  23
ENDBRANCH  19  20
ENDBRANCH   1  19
TORSDOF 11
