REMARK  14 active torsions:
REMARK  status: ('A' for Active; 'I' for Inactive)
REMARK    1  A    between atoms: C2_2  and  C3_3 
REMARK    2  A    between atoms: C3_3  and  C4_4 
REMARK    3  A    between atoms: C4_4  and  C5_5 
REMARK    4  A    between atoms: C5_5  and  C6_6 
REMARK    5  A    between atoms: C6_6  and  C7_7 
REMARK    6  A    between atoms: C10_10  and  C11_11 
REMARK    7  A    between atoms: C11_11  and  N1_12 
REMARK    8  A    between atoms: C13_16  and  C14_17 
REMARK    9  A    between atoms: C15_18  and  C16_19 
REMARK   10  A    between atoms: C17_20  and  C18_21 
REMARK   11  A    between atoms: C18_21  and  O1_22 
REMARK   12  A    between atoms: C21_26  and  N3_27 
REMARK   13  A    between atoms: N3_27  and  N4_29 
REMARK   14  A    between atoms: C22_36  and  N7_37 
ROOT
HETATM    1  C7  UNL     1      -2.185  -0.342  -0.598  1.00  0.00    -0.015 C 
HETATM    2  C8  UNL     1      -1.300  -0.118   0.420  1.00  0.00     0.011 C 
HETATM    3  C9  UNL     1      -0.549  -1.053   1.132  1.00  0.00     0.013 C 
HETATM    4  C10 UNL     1      -0.016  -2.251   0.637  1.00  0.00     0.006 C 
HETATM    5  C21 UNL     1      -0.582  -2.982  -0.373  1.00  0.00     0.130 C 
HETATM    6  N6  UNL     1      -1.488  -2.593  -1.311  1.00  0.00    -0.327 N 
ATOM      7  H6  UNL     1      -1.536  -3.179  -2.145  1.00  0.00     0.169 HD
HETATM    8  C22 UNL     1      -2.322  -1.552  -1.292  1.00  0.00     0.106 C 
ENDROOT
BRANCH   4   9
HETATM    9  C11 UNL     1       1.229  -2.732   1.225  1.00  0.00     0.172 C 
BRANCH   9  10
HETATM   10  N1  UNL     1       2.414  -2.439   0.456  1.00  0.00    -0.340 N 
HETATM   11  C12 UNL     1       3.030  -3.195  -0.459  1.00  0.00     0.184 A 
HETATM   12  N2  UNL     1       4.130  -2.534  -0.923  1.00  0.00    -0.344 N 
HETATM   13  C13 UNL     1       4.206  -1.345  -0.290  1.00  0.00     0.111 A 
ATOM     14  H2  UNL     1       4.782  -2.879  -1.627  1.00  0.00     0.167 HD
HETATM   15  C19 UNL     1       3.127  -1.311   0.563  1.00  0.00     0.044 A 
HETATM   16  C20 UNL     1       2.832  -0.158   1.449  1.00  0.00     0.071 C 
BRANCH  13  17
HETATM   17  C14 UNL     1       5.179  -0.306  -0.436  1.00  0.00    -0.033 C 
HETATM   18  C15 UNL     1       5.990   0.582  -0.545  1.00  0.00    -0.008 C 
BRANCH  18  19
HETATM   19  C16 UNL     1       6.930   1.634  -0.648  1.00  0.00    -0.013 C 
HETATM   20  C17 UNL     1       7.724   2.540  -0.714  1.00  0.00    -0.067 C 
BRANCH  20  21
HETATM   21  C18 UNL     1       8.694   3.635  -0.768  1.00  0.00     0.258 C 
BRANCH  21  22
HETATM   22  O1  UNL     1       8.168   4.785  -1.354  1.00  0.00    -0.389 OA
ATOM     23  H1  UNL     1       8.798   5.496  -1.389  1.00  0.00     0.210 HD
ENDBRANCH  21  22
ENDBRANCH  20  21
ENDBRANCH  18  19
ENDBRANCH  13  17
ENDBRANCH   9  10
ENDBRANCH   4   9
BRANCH   5  24
HETATM   24  N3  UNL     1      -0.217  -4.216  -0.449  1.00  0.00    -0.271 N 
ATOM     25  H3  UNL     1       0.458  -4.543   0.243  1.00  0.00     0.190 HD
BRANCH  24  26
HETATM   26  N4  UNL     1      -0.654  -5.132  -1.377  1.00  0.00    -0.248 N 
HETATM   27  N5  UNL     1      -1.253  -6.197  -1.035  1.00  0.00    -0.331 N 
ATOM     28  H52 UNL     1      -1.407  -6.363  -0.040  1.00  0.00     0.178 HD
ATOM     29  H51 UNL     1      -1.577  -6.876  -1.723  1.00  0.00     0.178 HD
ATOM     30  H4  UNL     1      -0.492  -4.950  -2.368  1.00  0.00     0.207 HD
ENDBRANCH  24  26
ENDBRANCH   5  24
BRANCH   1  31
HETATM   31  C6  UNL     1      -3.079   0.721  -1.082  1.00  0.00     0.042 C 
BRANCH  31  32
HETATM   32  C5  UNL     1      -3.222   1.916  -0.221  1.00  0.00     0.005 C 
BRANCH  32  33
HETATM   33  C4  UNL     1      -3.822   1.681   1.111  1.00  0.00     0.000 C 
BRANCH  33  34
HETATM   34  C3  UNL     1      -5.236   1.128   1.049  1.00  0.00    -0.000 C 
BRANCH  34  35
HETATM   35  C2  UNL     1      -6.164   2.091   0.316  1.00  0.00    -0.005 C 
HETATM   36  C1  UNL     1      -6.221   3.429   0.977  1.00  0.00     0.005 C 
ENDBRANCH  34  35
ENDBRANCH  33  34
ENDBRANCH  32  33
ENDBRANCH  31  32
ENDBRANCH   1  31
BRANCH   8  37
HETATM   37  N7  UNL     1      -3.404  -1.627  -1.990  1.00  0.00    -0.385 N 
ATOM     38  H72 UNL     1      -4.042  -0.831  -1.975  1.00  0.00     0.157 HD
ATOM     39  H71 UNL     1      -3.504  -2.508  -2.495  1.00  0.00     0.157 HD
ENDBRANCH   8  37
TORSDOF 14
