REMARK  8 active torsions:
REMARK  status: ('A' for Active; 'I' for Inactive)
REMARK    1  A    between atoms: N2_6  and  C5_7 
REMARK    2  A    between atoms: C5_7  and  C6_8 
REMARK    3  A    between atoms: C6_8  and  C7_9 
REMARK    4  A    between atoms: C7_9  and  C8_10 
REMARK    5  A    between atoms: C8_10  and  C9_11 
REMARK    6  A    between atoms: C9_11  and  N3_12 
REMARK    7  A    between atoms: C17_21  and  C18_22 
REMARK    8  A    between atoms: C18_22  and  O2_23 
ROOT
HETATM    1  C1  UNL     1      -1.385  -4.073  -0.878  1.00  0.00     0.150 C 
HETATM    2  N1  UNL     1      -2.381  -3.064  -0.620  1.00  0.00    -0.375 N 
HETATM    3  C2  UNL     1      -3.741  -3.470  -0.373  1.00  0.00     0.150 C 
HETATM    4  C3  UNL     1      -2.046  -1.828  -0.613  1.00  0.00     0.119 A 
HETATM    5  C4  UNL     1      -0.666  -1.368  -0.861  1.00  0.00     0.142 A 
HETATM    6  N2  UNL     1      -0.363  -0.120  -0.847  1.00  0.00    -0.319 N 
HETATM    7  C15 UNL     1      -1.321   0.892  -0.596  1.00  0.00     0.274 A 
HETATM    8  O1  UNL     1      -1.021   2.105  -0.584  1.00  0.00    -0.266 OA
HETATM    9  C16 UNL     1      -2.738   0.554  -0.334  1.00  0.00     0.102 A 
HETATM   10  C17 UNL     1      -3.625   1.480  -0.103  1.00  0.00     0.047 C 
HETATM   11  N5  UNL     1      -3.036  -0.839  -0.358  1.00  0.00    -0.337 N 
ATOM     12  H5  UNL     1      -3.996  -1.138  -0.186  1.00  0.00     0.167 HD
ENDROOT
BRANCH   6  13
HETATM   13  C5  UNL     1       1.011   0.294  -1.095  1.00  0.00     0.132 C 
BRANCH  13  14
HETATM   14  C6  UNL     1       1.816   0.377   0.152  1.00  0.00     0.020 C 
BRANCH  14  15
HETATM   15  C7  UNL     1       3.215   0.832  -0.151  1.00  0.00     0.003 C 
BRANCH  15  16
HETATM   16  C8  UNL     1       3.923  -0.099  -1.074  1.00  0.00     0.020 C 
BRANCH  16  17
HETATM   17  C9  UNL     1       5.344   0.320  -1.390  1.00  0.00     0.128 C 
BRANCH  17  18
HETATM   18  N3  UNL     1       6.200   0.409  -0.239  1.00  0.00    -0.366 N 
HETATM   19  C10 UNL     1       6.906  -0.679   0.190  1.00  0.00     0.090 A 
HETATM   20  C11 UNL     1       7.740  -0.614   1.286  1.00  0.00     0.017 A 
HETATM   21  C12 UNL     1       7.886   0.565   1.986  1.00  0.00     0.003 A 
HETATM   22  C13 UNL     1       7.165   1.666   1.544  1.00  0.00     0.017 A 
HETATM   23  C14 UNL     1       6.344   1.546   0.442  1.00  0.00     0.090 A 
ENDBRANCH  17  18
ENDBRANCH  16  17
ENDBRANCH  15  16
ENDBRANCH  14  15
ENDBRANCH  13  14
ENDBRANCH   6  13
BRANCH  10  24
HETATM   24  C18 UNL     1      -5.045   1.260   0.167  1.00  0.00     0.103 C 
HETATM   25  C19 UNL     1      -5.809   2.569   0.283  1.00  0.00     0.071 C 
HETATM   26  C20 UNL     1      -6.582   2.333   1.577  1.00  0.00     0.235 C 
HETATM   27  N4  UNL     1      -5.580   1.654   2.375  1.00  0.00    -0.072 N 
HETATM   28  C21 UNL     1      -5.181   0.566   1.500  1.00  0.00     0.274 C 
ATOM     29  H42 UNL     1      -4.817   2.245   2.704  1.00  0.00     0.277 HD
ATOM     30  H41 UNL     1      -5.889   1.369   3.304  1.00  0.00     0.277 HD
BRANCH  24  31
HETATM   31  O2  UNL     1      -5.700   0.515  -0.804  1.00  0.00    -0.384 OA
ATOM     32  H2  UNL     1      -6.623   0.372  -0.629  1.00  0.00     0.211 HD
ENDBRANCH  24  31
ENDBRANCH  10  24
TORSDOF 8
