REMARK  9 active torsions:
REMARK  status: ('A' for Active; 'I' for Inactive)
REMARK    1  A    between atoms: N1_6  and  C6_7 
REMARK    2  A    between atoms: C6_7  and  C7_8 
REMARK    3  A    between atoms: C10_11  and  C11_12 
REMARK    4  A    between atoms: C11_12  and  C12_13 
REMARK    5  A    between atoms: C12_13  and  N2_14 
REMARK    6  A    between atoms: C16_19  and  N4_20 
REMARK    7  A    between atoms: C18_27  and  C19_28 
REMARK    8  A    between atoms: C19_28  and  C20_29 
REMARK    9  A    between atoms: C20_29  and  N7_30 
ROOT
HETATM    1  C7  UNL     1      -1.193  -0.657   1.350  1.00  0.00    -0.017 A 
HETATM    2  C8  UNL     1       0.020  -0.235   1.963  1.00  0.00     0.013 A 
HETATM    3  C9  UNL     1       1.198  -0.871   1.693  1.00  0.00     0.026 A 
HETATM    4  C10 UNL     1       1.190  -1.941   0.804  1.00  0.00     0.013 A 
HETATM    5  N6  UNL     1       0.058  -2.338   0.232  1.00  0.00    -0.357 N 
HETATM    6  C17 UNL     1       0.086  -3.426  -0.717  1.00  0.00     0.156 C 
HETATM    7  C18 UNL     1      -1.135  -1.717   0.492  1.00  0.00     0.021 A 
ENDROOT
BRANCH   4   8
HETATM    8  C11 UNL     1       2.534  -2.559   0.583  1.00  0.00     0.079 C 
BRANCH   8   9
HETATM    9  C12 UNL     1       3.214  -1.921  -0.554  1.00  0.00     0.154 C 
BRANCH   9  10
HETATM   10  N2  UNL     1       3.476  -0.534  -0.489  1.00  0.00    -0.287 N 
HETATM   11  C13 UNL     1       4.608  -0.023   0.029  1.00  0.00     0.128 A 
HETATM   12  C14 UNL     1       4.778   1.326   0.045  1.00  0.00     0.127 A 
HETATM   13  N3  UNL     1       3.840   2.172  -0.447  1.00  0.00    -0.196 N 
HETATM   14  C15 UNL     1       4.054   3.608  -0.415  1.00  0.00     0.175 C 
HETATM   15  C16 UNL     1       2.722   1.632  -0.956  1.00  0.00     0.692 A 
HETATM   16  N5  UNL     1       2.558   0.289  -0.969  1.00  0.00    -0.130 N 
ATOM     17  H5  UNL     1       1.701  -0.101  -1.361  1.00  0.00     0.206 HD
BRANCH  15  18
HETATM   18  N4  UNL     1       1.828   2.436  -1.425  1.00  0.00    -0.233 N 
ATOM     19  H42 UNL     1       1.952   3.448  -1.415  1.00  0.00     0.174 HD
ATOM     20  H41 UNL     1       0.978   2.026  -1.812  1.00  0.00     0.174 HD
ENDBRANCH  15  18
ENDBRANCH   9  10
ENDBRANCH   8   9
ENDBRANCH   4   8
BRANCH   7  21
HETATM   21  C19 UNL     1      -2.362  -2.307  -0.039  1.00  0.00     0.085 C 
BRANCH  21  22
HETATM   22  C20 UNL     1      -3.006  -3.357   0.835  1.00  0.00     0.235 C 
BRANCH  22  23
HETATM   23  N7  UNL     1      -3.394  -2.992   2.137  1.00  0.00    -0.079 N 
ATOM     24  H73 UNL     1      -2.590  -2.599   2.626  1.00  0.00     0.274 HD
ATOM     25  H72 UNL     1      -4.008  -2.179   2.086  1.00  0.00     0.274 HD
ATOM     26  H71 UNL     1      -3.829  -3.701   2.727  1.00  0.00     0.274 HD
ENDBRANCH  22  23
ENDBRANCH  21  22
ENDBRANCH   7  21
BRANCH   1  27
HETATM   27  C6  UNL     1      -2.316   0.236   1.621  1.00  0.00     0.168 C 
BRANCH  27  28
HETATM   28  N1  UNL     1      -2.378   1.403   0.720  1.00  0.00    -0.362 N 
HETATM   29  C5  UNL     1      -1.702   2.511   1.085  1.00  0.00     0.090 A 
HETATM   30  C4  UNL     1      -1.755   3.616   0.277  1.00  0.00     0.018 A 
HETATM   31  C3  UNL     1      -2.468   3.645  -0.892  1.00  0.00     0.009 A 
HETATM   32  C2  UNL     1      -3.156   2.511  -1.258  1.00  0.00    -0.046 A 
HETATM   33  C1  UNL     1      -3.960   2.457  -2.517  1.00  0.00     0.049 C 
HETATM   34  C21 UNL     1      -3.069   1.425  -0.406  1.00  0.00     0.097 A 
ENDBRANCH  27  28
ENDBRANCH   1  27
TORSDOF 9
