REMARK  11 active torsions:
REMARK  status: ('A' for Active; 'I' for Inactive)
REMARK    1  A    between atoms: C2_2  and  C3_3 
REMARK    2  A    between atoms: C3_3  and  C4_4 
REMARK    3  A    between atoms: C4_4  and  C5_5 
REMARK    4  A    between atoms: C5_5  and  C6_6 
REMARK    5  A    between atoms: C6_6  and  N1_7 
REMARK    6  A    between atoms: C8_9  and  C9_10 
REMARK    7  A    between atoms: C9_10  and  C10_11 
REMARK    8  A    between atoms: C11_12  and  C12_13 
REMARK    9  A    between atoms: C12_13  and  C14_15 
REMARK   10  A    between atoms: C12_13  and  N4_21 
REMARK   11  A    between atoms: N2_16  and  N3_18 
ROOT
HETATM    1  C12 UNL     1      -4.033   0.356  -0.961  1.00  0.00     0.147 C 
HETATM    2  C13 UNL     1      -4.670  -0.973  -1.246  1.00  0.00     0.061 C 
ENDROOT
BRANCH   1   3
HETATM    3  C11 UNL     1      -2.985   0.203   0.078  1.00  0.00    -0.067 C 
HETATM    4  C10 UNL     1      -2.137   0.074   0.927  1.00  0.00    -0.099 C 
BRANCH   4   5
HETATM    5  C9  UNL     1      -1.111  -0.084   1.962  1.00  0.00     0.135 C 
BRANCH   5   6
HETATM    6  C8  UNL     1      -0.047  -1.032   1.527  1.00  0.00    -0.016 A 
HETATM    7  C7  UNL     1       1.085  -0.635   0.852  1.00  0.00     0.101 A 
HETATM    8  N1  UNL     1       2.054  -1.482   0.452  1.00  0.00    -0.346 N 
HETATM    9  C19 UNL     1       1.925  -2.778   0.717  1.00  0.00     0.080 A 
HETATM   10  N8  UNL     1       0.821  -3.225   1.384  1.00  0.00    -0.351 N 
HETATM   11  C20 UNL     1       2.971  -3.745   0.291  1.00  0.00     0.089 C 
HETATM   12  C17 UNL     1      -0.155  -2.393   1.790  1.00  0.00     0.101 A 
HETATM   13  C18 UNL     1       0.701  -4.643   1.662  1.00  0.00     0.156 C 
BRANCH   8  14
HETATM   14  C6  UNL     1       3.211  -0.931  -0.255  1.00  0.00     0.130 C 
BRANCH  14  15
HETATM   15  C5  UNL     1       4.236  -0.567   0.803  1.00  0.00     0.020 C 
BRANCH  15  16
HETATM   16  C4  UNL     1       5.483   0.015   0.195  1.00  0.00     0.002 C 
BRANCH  16  17
HETATM   17  C3  UNL     1       5.243   1.269  -0.600  1.00  0.00    -0.000 C 
BRANCH  17  18
HETATM   18  C2  UNL     1       4.641   2.341   0.302  1.00  0.00    -0.005 C 
HETATM   19  C1  UNL     1       4.391   3.617  -0.472  1.00  0.00     0.005 C 
ENDBRANCH  17  18
ENDBRANCH  16  17
ENDBRANCH  15  16
ENDBRANCH  14  15
ENDBRANCH   8  14
ENDBRANCH   5   6
ENDBRANCH   4   5
ENDBRANCH   1   3
BRANCH   1  20
HETATM   20  C14 UNL     1      -3.471   0.913  -2.206  1.00  0.00     0.125 C 
HETATM   21  N2  UNL     1      -2.744   1.968  -2.179  1.00  0.00    -0.319 N 
ATOM     22  H2  UNL     1      -2.372   2.325  -3.059  1.00  0.00     0.185 HD
BRANCH  21  23
HETATM   23  N3  UNL     1      -2.436   2.654  -0.997  1.00  0.00    -0.346 N 
ATOM     24  H32 UNL     1      -2.816   2.283  -0.126  1.00  0.00     0.176 HD
ATOM     25  H31 UNL     1      -1.857   3.494  -0.976  1.00  0.00     0.176 HD
ENDBRANCH  21  23
ENDBRANCH   1  20
BRANCH   1  26
HETATM   26  N4  UNL     1      -5.000   1.316  -0.456  1.00  0.00    -0.246 N 
HETATM   27  C15 UNL     1      -5.078   1.910   0.725  1.00  0.00     0.220 A 
HETATM   28  N5  UNL     1      -6.152   2.718   0.714  1.00  0.00    -0.185 N 
HETATM   29  C16 UNL     1      -6.756   2.632  -0.485  1.00  0.00     0.691 A 
ATOM     30  H5  UNL     1      -6.460   3.303   1.491  1.00  0.00     0.185 HD
HETATM   31  N6  UNL     1      -7.817   3.282  -0.823  1.00  0.00    -0.233 N 
HETATM   32  N7  UNL     1      -6.014   1.755  -1.182  1.00  0.00    -0.127 N 
ATOM     33  H62 UNL     1      -8.380   3.948  -0.294  1.00  0.00     0.174 HD
ATOM     34  H61 UNL     1      -8.275   3.217  -1.732  1.00  0.00     0.174 HD
ATOM     35  H7  UNL     1      -6.207   1.467  -2.141  1.00  0.00     0.206 HD
ENDBRANCH   1  26
TORSDOF 11
