REMARK  12 active torsions:
REMARK  status: ('A' for Active; 'I' for Inactive)
REMARK    1  A    between atoms: C3_4  and  C4_5 
REMARK    2  A    between atoms: C4_5  and  C5_6 
REMARK    3  A    between atoms: C5_6  and  C6_7 
REMARK    4  A    between atoms: C8_11  and  N3_12 
REMARK    5  A    between atoms: C10_21  and  C11_22 
REMARK    6  A    between atoms: C11_22  and  N6_23 
REMARK    7  A    between atoms: N6_23  and  C13_25 
REMARK    8  A    between atoms: N6_23  and  C15_29 
REMARK    9  A    between atoms: C13_25  and  C14_26 
REMARK   10  A    between atoms: C14_26  and  O2_27 
REMARK   11  A    between atoms: C15_29  and  C16_30 
REMARK   12  A    between atoms: C16_30  and  N7_31 
ROOT
HETATM    1  C1  UNL     1      -0.766  -1.367  -2.958  1.00  0.00     0.157 C 
HETATM    2  N1  UNL     1       0.213  -1.164  -1.880  1.00  0.00    -0.347 N 
HETATM    3  C2  UNL     1       1.360  -0.495  -1.979  1.00  0.00     0.130 A 
HETATM    4  C3  UNL     1       2.021  -0.513  -0.768  1.00  0.00     0.104 A 
HETATM    5  N5  UNL     1       1.231  -1.210   0.043  1.00  0.00    -0.336 N 
ATOM      6  H5  UNL     1       1.431  -1.410   1.023  1.00  0.00     0.168 HD
HETATM    7  C10 UNL     1       0.130  -1.613  -0.615  1.00  0.00     0.110 A 
ENDROOT
BRANCH   4   8
HETATM    8  C4  UNL     1       3.282   0.073  -0.406  1.00  0.00    -0.042 C 
BRANCH   8   9
HETATM    9  C5  UNL     1       4.349   0.546  -0.099  1.00  0.00    -0.053 C 
BRANCH   9  10
HETATM   10  C6  UNL     1       5.631   1.088   0.261  1.00  0.00     0.102 A 
HETATM   11  C7  UNL     1       6.713   1.103  -0.595  1.00  0.00     0.132 A 
HETATM   12  N2  UNL     1       7.910   1.619  -0.233  1.00  0.00    -0.201 N 
HETATM   13  C8  UNL     1       8.064   2.136   0.992  1.00  0.00     0.678 A 
ATOM     14  H2  UNL     1       8.691   1.614  -0.890  1.00  0.00     0.183 HD
HETATM   15  N4  UNL     1       7.033   2.147   1.873  1.00  0.00    -0.155 N 
HETATM   16  C9  UNL     1       5.821   1.628   1.516  1.00  0.00     0.279 A 
ATOM     17  H4  UNL     1       7.163   2.544   2.804  1.00  0.00     0.187 HD
HETATM   18  O1  UNL     1       4.887   1.654   2.358  1.00  0.00    -0.266 OA
BRANCH  13  19
HETATM   19  N3  UNL     1       9.202   2.625   1.330  1.00  0.00    -0.234 N 
ATOM     20  H32 UNL     1       9.977   2.617   0.667  1.00  0.00     0.174 HD
ATOM     21  H31 UNL     1       9.319   3.019   2.263  1.00  0.00     0.174 HD
ENDBRANCH  13  19
ENDBRANCH   9  10
ENDBRANCH   8   9
ENDBRANCH   4   8
BRANCH   7  22
HETATM   22  C11 UNL     1      -0.953  -2.406  -0.005  1.00  0.00     0.313 C 
BRANCH  22  23
HETATM   23  N6  UNL     1      -1.937  -1.631   0.697  1.00  0.00    -0.061 N 
HETATM   24  C12 UNL     1      -1.295  -1.226   1.962  1.00  0.00     0.273 C 
BRANCH  23  25
HETATM   25  C13 UNL     1      -3.052  -2.444   1.054  1.00  0.00     0.263 C 
BRANCH  25  26
HETATM   26  C14 UNL     1      -3.464  -3.457   0.027  1.00  0.00     0.192 C 
BRANCH  26  27
HETATM   27  O2  UNL     1      -3.828  -2.889  -1.183  1.00  0.00    -0.399 OA
ATOM     28  H2  UNL     1      -4.089  -3.530  -1.833  1.00  0.00     0.209 HD
ENDBRANCH  26  27
ENDBRANCH  25  26
ENDBRANCH  23  25
BRANCH  23  29
HETATM   29  C15 UNL     1      -2.297  -0.404   0.034  1.00  0.00     0.265 C 
BRANCH  29  30
HETATM   30  C16 UNL     1      -2.996   0.535   0.991  1.00  0.00     0.264 C 
BRANCH  30  31
HETATM   31  N7  UNL     1      -3.346   1.769   0.285  1.00  0.00    -0.077 N 
HETATM   32  C17 UNL     1      -4.224   1.486  -0.838  1.00  0.00     0.271 C 
HETATM   33  C18 UNL     1      -2.188   2.446  -0.235  1.00  0.00     0.271 C 
HETATM   34  C19 UNL     1      -4.082   2.613   1.197  1.00  0.00     0.271 C 
ENDBRANCH  30  31
ENDBRANCH  29  30
ENDBRANCH  23  29
ENDBRANCH  22  23
ENDBRANCH   7  22
TORSDOF 12
