REMARK  10 active torsions:
REMARK  status: ('A' for Active; 'I' for Inactive)
REMARK    1  A    between atoms: C2_2  and  C3_3 
REMARK    2  A    between atoms: C3_3  and  C4_4 
REMARK    3  A    between atoms: C6_9  and  N2_10 
REMARK    4  A    between atoms: N2_10  and  C7_12 
REMARK    5  A    between atoms: C7_12  and  C10_15 
REMARK    6  A    between atoms: C10_15  and  N3_16 
REMARK    7  A    between atoms: C13_21  and  N5_22 
REMARK    8  A    between atoms: N8_32  and  C16_33 
REMARK    9  A    between atoms: C16_33  and  C17_34 
REMARK   10  A    between atoms: C17_34  and  C18_35 
ROOT
HETATM    1  C4  UNL     1       2.720   1.308   0.381  1.00  0.00     0.208 C 
HETATM    2  N1  UNL     1       1.426   1.020   0.907  1.00  0.00    -0.332 N 
ATOM      3  H1  UNL     1       1.387   0.977   1.925  1.00  0.00     0.165 HD
HETATM    4  C5  UNL     1       0.183   0.783   0.265  1.00  0.00     0.287 C 
HETATM    5  O1  UNL     1      -0.853   0.819   0.981  1.00  0.00    -0.264 OA
HETATM    6  C6  UNL     1      -0.065   0.498  -1.129  1.00  0.00     0.189 C 
HETATM    7  N6  UNL     1       0.809   0.371  -2.096  1.00  0.00    -0.171 N 
ATOM      8  H6  UNL     1       0.438   0.168  -3.024  1.00  0.00     0.186 HD
HETATM    9  C15 UNL     1       2.223   0.487  -1.986  1.00  0.00     0.677 C 
HETATM   10  N7  UNL     1       2.818   0.468  -3.125  1.00  0.00    -0.234 N 
ATOM     11  H71 UNL     1       3.832   0.551  -3.046  1.00  0.00     0.174 HD
ATOM     12  H72 UNL     1       2.230   0.379  -3.954  1.00  0.00     0.174 HD
HETATM   13  N8  UNL     1       3.056   0.613  -0.811  1.00  0.00    -0.197 N 
ENDROOT
BRANCH   6  14
HETATM   14  N2  UNL     1      -1.395   0.335  -1.557  1.00  0.00    -0.340 N 
ATOM     15  H2  UNL     1      -1.605   0.641  -2.507  1.00  0.00     0.167 HD
BRANCH  14  16
HETATM   16  C7  UNL     1      -2.467  -0.202  -0.823  1.00  0.00     0.025 C 
HETATM   17  C8  UNL     1      -2.447  -1.447  -0.387  1.00  0.00    -0.004 C 
HETATM   18  C9  UNL     1      -1.362  -2.415  -0.590  1.00  0.00     0.038 C 
BRANCH  16  19
HETATM   19  C10 UNL     1      -3.628   0.698  -0.570  1.00  0.00     0.184 C 
BRANCH  19  20
HETATM   20  N3  UNL     1      -4.682   0.061   0.188  1.00  0.00    -0.356 N 
HETATM   21  C11 UNL     1      -5.691  -0.607  -0.398  1.00  0.00     0.108 A 
HETATM   22  C12 UNL     1      -6.682  -1.201   0.360  1.00  0.00     0.107 A 
HETATM   23  N4  UNL     1      -6.671  -1.130   1.694  1.00  0.00    -0.350 N 
HETATM   24  C13 UNL     1      -5.656  -0.459   2.267  1.00  0.00     0.114 A 
ATOM     25  H4  UNL     1      -7.402  -1.567   2.255  1.00  0.00     0.166 HD
HETATM   26  C14 UNL     1      -4.673   0.130   1.530  1.00  0.00     0.138 A 
BRANCH  24  27
HETATM   27  N5  UNL     1      -5.638  -0.386   3.555  1.00  0.00    -0.384 N 
ATOM     28  H52 UNL     1      -6.374  -0.827   4.107  1.00  0.00     0.157 HD
ATOM     29  H51 UNL     1      -4.868   0.123   3.990  1.00  0.00     0.157 HD
ENDBRANCH  24  27
ENDBRANCH  19  20
ENDBRANCH  16  19
ENDBRANCH  14  16
ENDBRANCH   6  14
BRANCH   1  30
HETATM   30  C3  UNL     1       2.829   2.819   0.231  1.00  0.00     0.074 C 
BRANCH  30  31
HETATM   31  C2  UNL     1       1.849   3.435  -0.650  1.00  0.00    -0.033 C 
HETATM   32  C1  UNL     1       2.221   4.095  -1.762  1.00  0.00     0.007 C 
ENDBRANCH  30  31
ENDBRANCH   1  30
BRANCH  13  33
HETATM   33  C16 UNL     1       4.298  -0.051  -0.911  1.00  0.00     0.143 C 
BRANCH  33  34
HETATM   34  C17 UNL     1       4.549  -1.298  -0.174  1.00  0.00     0.020 C 
BRANCH  34  35
HETATM   35  C18 UNL     1       4.451  -1.331   1.298  1.00  0.00    -0.003 C 
HETATM   36  C19 UNL     1       4.824  -2.776   1.717  1.00  0.00     0.005 C 
ENDBRANCH  34  35
ENDBRANCH  33  34
ENDBRANCH  13  33
TORSDOF 10
