REMARK  11 active torsions:
REMARK  status: ('A' for Active; 'I' for Inactive)
REMARK    1  A    between atoms: C1_2  and  C2_4 
REMARK    2  A    between atoms: C2_4  and  N1_5 
REMARK    3  A    between atoms: N2_8  and  C5_9 
REMARK    4  A    between atoms: C5_9  and  C6_10 
REMARK    5  A    between atoms: C7_11  and  C8_12 
REMARK    6  A    between atoms: C8_12  and  N3_13 
REMARK    7  A    between atoms: N3_13  and  C9_14 
REMARK    8  A    between atoms: C9_14  and  C10_15 
REMARK    9  A    between atoms: C10_15  and  C11_16 
REMARK   10  A    between atoms: C11_16  and  O3_17 
REMARK   11  A    between atoms: C11_16  and  O4_19 
ROOT
HETATM    1  C5  UNL     1      -0.836   1.483   1.433  1.00  0.00     0.331 C 
ENDROOT
BRANCH   1   2
HETATM    2  N2  UNL     1      -1.916   0.810   0.785  1.00  0.00    -0.052 N 
HETATM    3  C4  UNL     1      -2.156   1.237  -0.569  1.00  0.00     0.266 C 
HETATM    4  C3  UNL     1      -3.576   0.891  -0.966  1.00  0.00     0.266 C 
HETATM    5  N1  UNL     1      -4.018  -0.244  -0.179  1.00  0.00    -0.053 N 
HETATM    6  C15 UNL     1      -2.868  -1.166  -0.140  1.00  0.00     0.266 C 
HETATM    7  C17 UNL     1      -4.247   0.158   1.185  1.00  0.00     0.266 C 
HETATM    8  C14 UNL     1      -1.782  -0.632   0.769  1.00  0.00     0.266 C 
HETATM    9  C16 UNL     1      -3.125   1.091   1.576  1.00  0.00     0.266 C 
BRANCH   5  10
HETATM   10  C2  UNL     1      -5.099  -0.967  -0.760  1.00  0.00     0.350 C 
BRANCH  10  11
HETATM   11  C1  UNL     1      -6.328  -0.207  -0.971  1.00  0.00     0.199 C 
HETATM   12  O1  UNL     1      -6.508   1.005  -0.688  1.00  0.00    -0.647 OA
HETATM   13  O2  UNL     1      -7.413  -0.869  -1.536  1.00  0.00    -0.647 OA
ENDBRANCH  10  11
ENDBRANCH   5  10
ENDBRANCH   1   2
BRANCH   1  14
HETATM   14  C6  UNL     1       0.416   1.060   0.810  1.00  0.00    -0.077 C 
HETATM   15  C7  UNL     1       1.451   0.728   0.283  1.00  0.00    -0.077 C 
BRANCH  15  16
HETATM   16  C8  UNL     1       2.701   0.321  -0.382  1.00  0.00     0.330 C 
BRANCH  16  17
HETATM   17  N3  UNL     1       3.742   0.032   0.580  1.00  0.00    -0.054 N 
HETATM   18  C12 UNL     1       4.540   1.125   1.072  1.00  0.00     0.266 A 
HETATM   19  C13 UNL     1       3.544   0.421   1.961  1.00  0.00     0.266 A 
BRANCH  17  20
HETATM   20  C9  UNL     1       4.448  -1.222   0.413  1.00  0.00     0.243 C 
BRANCH  20  21
HETATM   21  C10 UNL     1       4.864  -1.505  -1.001  1.00  0.00     0.088 C 
BRANCH  21  22
HETATM   22  C11 UNL     1       5.790  -0.467  -1.563  1.00  0.00     0.255 C 
BRANCH  22  23
HETATM   23  O3  UNL     1       6.971  -0.362  -0.833  1.00  0.00    -0.371 OA
ATOM     24  H3  UNL     1       7.557   0.295  -1.189  1.00  0.00     0.212 HD
ENDBRANCH  22  23
BRANCH  22  25
HETATM   25  O4  UNL     1       6.151  -0.757  -2.879  1.00  0.00    -0.371 OA
ATOM     26  H4  UNL     1       6.737  -0.100  -3.235  1.00  0.00     0.212 HD
ENDBRANCH  22  25
ENDBRANCH  21  22
ENDBRANCH  20  21
ENDBRANCH  17  20
ENDBRANCH  16  17
ENDBRANCH  15  16
ENDBRANCH   1  14
TORSDOF 11
