REMARK  8 active torsions:
REMARK  status: ('A' for Active; 'I' for Inactive)
REMARK    1  A    between atoms: N2_6  and  C4_7 
REMARK    2  A    between atoms: C4_7  and  C5_8 
REMARK    3  A    between atoms: C5_8  and  C6_9 
REMARK    4  A    between atoms: C6_9  and  C7_10 
REMARK    5  A    between atoms: C7_10  and  N3_11 
REMARK    6  A    between atoms: C12_16  and  C13_17 
REMARK    7  A    between atoms: C13_17  and  C14_18 
REMARK    8  A    between atoms: C15_23  and  N5_24 
ROOT
HETATM    1  N3  UNL     1      -0.414  -1.486   1.069  1.00  0.00    -0.354 N 
HETATM    2  C8  UNL     1      -1.262  -2.302   0.423  1.00  0.00     0.123 A 
HETATM    3  C9  UNL     1      -2.358  -2.902   0.996  1.00  0.00     0.094 A 
HETATM    4  C10 UNL     1      -2.594  -2.642   2.326  1.00  0.00     0.080 A 
HETATM    5  C11 UNL     1      -1.696  -1.782   2.993  1.00  0.00     0.062 A 
HETATM    6  C12 UNL     1      -0.621  -1.207   2.387  1.00  0.00     0.043 A 
HETATM    7  N4  UNL     1      -3.752  -3.352   2.700  1.00  0.00    -0.190 N 
ATOM      8  H4  UNL     1      -4.187  -3.367   3.622  1.00  0.00     0.184 HD
HETATM    9  C15 UNL     1      -4.193  -4.041   1.544  1.00  0.00     0.678 A 
HETATM   10  N6  UNL     1      -3.262  -3.704   0.523  1.00  0.00    -0.184 N 
HETATM   11  C16 UNL     1      -3.348  -4.204  -0.833  1.00  0.00     0.175 C 
ENDROOT
BRANCH   1  12
HETATM   12  C7  UNL     1       0.692  -0.965   0.324  1.00  0.00     0.129 C 
BRANCH  12  13
HETATM   13  C6  UNL     1       0.295   0.374  -0.249  1.00  0.00     0.022 C 
BRANCH  13  14
HETATM   14  C5  UNL     1       1.413   1.008  -1.052  1.00  0.00     0.023 C 
BRANCH  14  15
HETATM   15  C4  UNL     1       0.878   2.325  -1.558  1.00  0.00     0.148 C 
BRANCH  15  16
HETATM   16  N2  UNL     1       1.861   3.037  -2.348  1.00  0.00    -0.303 N 
HETATM   17  N1  UNL     1       1.980   2.890  -3.659  1.00  0.00    -0.310 N 
HETATM   18  C3  UNL     1       2.975   3.675  -4.120  1.00  0.00     0.115 A 
ATOM     19  H1  UNL     1       1.405   2.275  -4.234  1.00  0.00     0.186 HD
HETATM   20  C2  UNL     1       3.516   4.356  -3.048  1.00  0.00    -0.028 A 
HETATM   21  C1  UNL     1       4.637   5.331  -3.099  1.00  0.00     0.051 C 
HETATM   22  C17 UNL     1       2.780   3.920  -1.955  1.00  0.00     0.118 A 
ENDBRANCH  15  16
ENDBRANCH  14  15
ENDBRANCH  13  14
ENDBRANCH  12  13
ENDBRANCH   1  12
BRANCH   6  23
HETATM   23  C13 UNL     1       0.201  -0.392   2.987  1.00  0.00     0.114 C 
BRANCH  23  24
HETATM   24  C14 UNL     1       0.165   0.029   4.357  1.00  0.00     0.200 C 
HETATM   25  O1  UNL     1       1.087   0.858   4.767  1.00  0.00    -0.644 OA
HETATM   26  O2  UNL     1      -0.764  -0.369   5.274  1.00  0.00    -0.644 OA
ENDBRANCH  23  24
ENDBRANCH   6  23
BRANCH   9  27
HETATM   27  N5  UNL     1      -5.227  -4.824   1.413  1.00  0.00    -0.234 N 
ATOM     28  H52 UNL     1      -5.895  -5.066   2.145  1.00  0.00     0.174 HD
ATOM     29  H51 UNL     1      -5.545  -5.320   0.580  1.00  0.00     0.174 HD
ENDBRANCH   9  27
TORSDOF 8
