REMARK  9 active torsions:
REMARK  status: ('A' for Active; 'I' for Inactive)
REMARK    1  A    between atoms: C3_3  and  C4_4 
REMARK    2  A    between atoms: C4_4  and  C5_5 
REMARK    3  A    between atoms: C4_4  and  C14_18 
REMARK    4  A    between atoms: C5_5  and  N1_6 
REMARK    5  A    between atoms: C12_14  and  C13_15 
REMARK    6  A    between atoms: C14_18  and  O2_19 
REMARK    7  A    between atoms: C14_18  and  C15_21 
REMARK    8  A    between atoms: C15_21  and  O3_22 
REMARK    9  A    between atoms: C15_21  and  C16_24 
ROOT
HETATM    1  C1  UNL     1       0.472   2.567   3.747  1.00  0.00     0.112 C 
HETATM    2  C2  UNL     1       0.650   1.670   2.607  1.00  0.00    -0.111 C 
HETATM    3  C3  UNL     1       0.801   0.899   1.663  1.00  0.00    -0.098 C 
ENDROOT
BRANCH   3   4
HETATM    4  C4  UNL     1       1.029  -0.034   0.525  1.00  0.00     0.122 C 
BRANCH   4   5
HETATM    5  C5  UNL     1       0.077   0.150  -0.563  1.00  0.00     0.258 C 
BRANCH   5   6
HETATM    6  N1  UNL     1      -1.317  -0.024  -0.381  1.00  0.00    -0.049 N 
HETATM    7  C6  UNL     1      -1.971   0.634   0.685  1.00  0.00     0.266 C 
HETATM    8  C7  UNL     1      -3.489   0.444   0.502  1.00  0.00     0.265 C 
HETATM    9  N2  UNL     1      -3.760  -0.774  -0.236  1.00  0.00    -0.065 N 
HETATM   10  C8  UNL     1      -5.145  -1.115  -0.090  1.00  0.00     0.272 C 
HETATM   11  C9  UNL     1      -2.887  -1.792   0.357  1.00  0.00     0.265 C 
HETATM   12  C11 UNL     1      -3.331  -0.675  -1.619  1.00  0.00     0.280 C 
HETATM   13  C10 UNL     1      -1.495  -1.477  -0.105  1.00  0.00     0.266 C 
HETATM   14  C12 UNL     1      -2.042   0.121  -1.650  1.00  0.00     0.304 C 
BRANCH  14  15
HETATM   15  C13 UNL     1      -2.204   1.471  -2.145  1.00  0.00     0.264 C 
HETATM   16  N3  UNL     1      -1.789   2.698  -1.577  1.00  0.00    -0.060 NA
HETATM   17  O1  UNL     1      -2.811   1.652  -3.271  1.00  0.00    -0.274 OA
ENDBRANCH  14  15
ENDBRANCH   5   6
ENDBRANCH   4   5
BRANCH   4  18
HETATM   18  C14 UNL     1       2.484   0.149   0.184  1.00  0.00     0.164 C 
BRANCH  18  19
HETATM   19  O2  UNL     1       2.771   1.461  -0.190  1.00  0.00    -0.392 OA
ATOM     20  H2  UNL     1       3.689   1.576  -0.405  1.00  0.00     0.210 HD
ENDBRANCH  18  19
BRANCH  18  21
HETATM   21  C15 UNL     1       3.126  -0.778  -0.750  1.00  0.00     0.151 C 
BRANCH  21  22
HETATM   22  O3  UNL     1       2.714  -0.567  -2.051  1.00  0.00    -0.393 OA
ATOM     23  H3  UNL     1       3.131  -1.168  -2.657  1.00  0.00     0.210 HD
ENDBRANCH  21  22
BRANCH  21  24
HETATM   24  C16 UNL     1       4.634  -0.457  -0.766  1.00  0.00     0.009 C 
HETATM   25  C17 UNL     1       5.135  -0.652   0.637  1.00  0.00     0.012 C 
HETATM   26  C18 UNL     1       5.269  -1.483  -1.708  1.00  0.00     0.012 C 
ENDBRANCH  21  24
ENDBRANCH  18  21
ENDBRANCH   4  18
ENDBRANCH   3   4
TORSDOF 9
