REMARK  2 active torsions:
REMARK  status: ('A' for Active; 'I' for Inactive)
REMARK    1  A    between atoms: C3_5  and  C4_6 
REMARK    2  A    between atoms: C5_16  and  C6_17 
REMARK       I    between atoms: C6_17  and  N6_19 
ROOT
HETATM    1  C1  UNL     1      -0.419   2.820   0.033  1.00  0.00     0.070 C 
HETATM    2  C2  UNL     1      -0.547   1.315   0.164  1.00  0.00     0.029 A 
HETATM    3  N1  UNL     1      -1.691   0.709   0.066  1.00  0.00    -0.350 N 
ATOM      4  H1  UNL     1      -2.541   1.247  -0.104  1.00  0.00     0.166 HD
HETATM    5  C3  UNL     1      -1.753  -0.601   0.186  1.00  0.00     0.122 A 
HETATM    6  S1  UNL     1      -0.129  -1.027   0.453  1.00  0.00    -0.061 SA
HETATM    7  C5  UNL     1       0.562   0.536   0.394  1.00  0.00     0.097 A 
ENDROOT
BRANCH   7   8
HETATM    8  C6  UNL     1       1.960   0.971   0.545  1.00  0.00     0.267 C 
HETATM    9  O1  UNL     1       2.278   2.177   0.470  1.00  0.00    -0.267 OA
HETATM   10  N6  UNL     1       2.971   0.010   0.779  1.00  0.00    -0.291 N 
HETATM   11  C7  UNL     1       3.837  -0.320  -0.120  1.00  0.00     0.218 A 
ATOM     12  H6  UNL     1       3.018  -0.440   1.693  1.00  0.00     0.172 HD
HETATM   13  N7  UNL     1       4.155   0.013  -1.464  1.00  0.00    -0.255 N 
HETATM   14  N9  UNL     1       4.925  -1.222  -0.162  1.00  0.00    -0.255 N 
HETATM   15  N8  UNL     1       5.131  -0.805  -1.482  1.00  0.00    -0.237 N 
ATOM     16  H7  UNL     1       3.757   0.656  -2.148  1.00  0.00     0.191 HD
ATOM     17  H8  UNL     1       5.812  -1.062  -2.196  1.00  0.00     0.208 HD
ATOM     18  H9  UNL     1       5.363  -1.881   0.481  1.00  0.00     0.191 HD
ENDBRANCH   7   8
BRANCH   5  19
HETATM   19  C4  UNL     1      -2.959  -1.420   0.101  1.00  0.00     0.171 A 
HETATM   20  N2  UNL     1      -3.055  -2.759   0.220  1.00  0.00    -0.266 N 
HETATM   21  N3  UNL     1      -4.329  -3.084   0.076  1.00  0.00    -0.227 N 
ATOM     22  H2  UNL     1      -2.284  -3.405   0.390  1.00  0.00     0.190 HD
HETATM   23  N4  UNL     1      -5.053  -2.004  -0.131  1.00  0.00    -0.227 N 
ATOM     24  H3  UNL     1      -4.697  -4.034   0.119  1.00  0.00     0.210 HD
HETATM   25  N5  UNL     1      -4.211  -0.986  -0.115  1.00  0.00    -0.266 N 
ATOM     26  H4  UNL     1      -6.062  -1.962  -0.275  1.00  0.00     0.210 HD
ATOM     27  H5  UNL     1      -4.475  -0.010  -0.248  1.00  0.00     0.190 HD
ENDBRANCH   5  19
TORSDOF 2
