REMARK  5 active torsions:
REMARK  status: ('A' for Active; 'I' for Inactive)
REMARK    1  A    between atoms: O1_2  and  C2_3 
REMARK    2  A    between atoms: C2_3  and  N2_7 
REMARK    3  A    between atoms: C5_12  and  C6_13 
REMARK    4  A    between atoms: C6_13  and  O3_14 
REMARK    5  A    between atoms: C6_13  and  N4_16 
REMARK       I    between atoms: N4_16  and  C7_17 
ROOT
HETATM    1  N2  UNL     1      -2.010   0.743  -1.108  1.00  0.00    -0.009 N 
HETATM    2  O2  UNL     1      -1.271   1.456  -2.029  1.00  0.00    -0.255 OA
HETATM    3  C3  UNL     1       0.002   0.997  -2.193  1.00  0.00     0.223 C 
HETATM    4  C4  UNL     1       0.313  -0.273  -1.442  1.00  0.00     0.178 C 
HETATM    5  N3  UNL     1      -0.081  -0.161  -0.055  1.00  0.00    -0.159 N 
HETATM    6  C5  UNL     1       0.327  -0.400   1.152  1.00  0.00     0.177 A 
HETATM    7  N5  UNL     1      -0.640  -0.026   2.045  1.00  0.00    -0.269 N 
ATOM      8  H5  UNL     1      -0.574  -0.107   3.060  1.00  0.00     0.189 HD
HETATM    9  N6  UNL     1      -1.677   0.460   1.375  1.00  0.00    -0.128 N 
ATOM     10  H6  UNL     1      -2.549   0.819   1.764  1.00  0.00     0.205 HD
HETATM   11  C9  UNL     1      -1.342   0.382   0.085  1.00  0.00     0.730 A 
ENDROOT
BRANCH   6  12
HETATM   12  C6  UNL     1       1.672  -1.000   1.515  1.00  0.00     0.372 C 
BRANCH  12  13
HETATM   13  O3  UNL     1       1.931  -2.114   0.668  1.00  0.00    -0.359 OA
ATOM     14  H3  UNL     1       2.773  -2.490   0.895  1.00  0.00     0.213 HD
ENDBRANCH  12  13
BRANCH  12  15
HETATM   15  N4  UNL     1       2.714  -0.099   1.524  1.00  0.00    -0.375 NA
HETATM   16  C7  UNL     1       3.729   0.779   1.533  1.00  0.00     0.285 C 
HETATM   17  C8  UNL     1       4.694   0.737   2.693  1.00  0.00     0.134 C 
HETATM   18  O4  UNL     1       4.029   1.687   0.681  1.00  0.00    -0.258 OA
ENDBRANCH  12  15
ENDBRANCH   6  12
BRANCH   1  19
HETATM   19  C2  UNL     1      -3.356   0.442  -1.434  1.00  0.00     0.261 C 
HETATM   20  N1  UNL     1      -4.365   1.223  -1.252  1.00  0.00    -0.363 N 
ATOM     21  H12 UNL     1      -5.334   1.006  -1.487  1.00  0.00     0.159 HD
ATOM     22  H11 UNL     1      -4.168   2.131  -0.831  1.00  0.00     0.159 HD
BRANCH  19  23
HETATM   23  O1  UNL     1      -3.627  -0.809  -2.014  1.00  0.00    -0.325 OA
HETATM   24  C1  UNL     1      -4.859  -1.444  -1.760  1.00  0.00     0.213 C 
ENDBRANCH  19  23
ENDBRANCH   1  19
TORSDOF 5
