REMARK  5 active torsions:
REMARK  status: ('A' for Active; 'I' for Inactive)
REMARK    1  A    between atoms: C2_2  and  O1_3 
REMARK    2  A    between atoms: N1_10  and  O4_12 
REMARK    3  A    between atoms: C6_15  and  S1_16 
REMARK    4  A    between atoms: S1_16  and  C7_17 
REMARK    5  A    between atoms: C7_17  and  C8_18 
ROOT
HETATM    1  C1  UNL     1       3.670   1.282   0.199  1.00  0.00     0.089 C 
HETATM    2  C2  UNL     1       2.733   0.079   0.217  1.00  0.00     0.227 C 
HETATM    3  O2  UNL     1       1.824   0.172   1.270  1.00  0.00    -0.343 OA
HETATM    4  C3  UNL     1       0.928  -0.863   1.162  1.00  0.00     0.244 C 
HETATM    5  C4  UNL     1      -0.074  -0.566   0.070  1.00  0.00     0.230 A 
HETATM    6  O3  UNL     1       0.610   0.003  -1.010  1.00  0.00    -0.289 OA
HETATM    7  C5  UNL     1       2.006  -0.051  -1.075  1.00  0.00     0.204 C 
HETATM    8  N1  UNL     1       2.644  -0.204  -2.183  1.00  0.00    -0.246 N 
ATOM      9  H1  UNL     1       2.137  -0.292  -3.064  1.00  0.00     0.196 HD
HETATM   10  O5  UNL     1      -0.894  -1.714  -0.228  1.00  0.00    -0.328 OA
HETATM   11  C6  UNL     1      -1.440  -0.472   0.382  1.00  0.00     0.252 A 
ENDROOT
BRANCH  11  12
HETATM   12  S1  UNL     1      -2.703   0.234  -0.670  1.00  0.00    -0.121 SA
BRANCH  12  13
HETATM   13  C7  UNL     1      -4.304   0.114   0.172  1.00  0.00     0.189 C 
BRANCH  13  14
HETATM   14  C8  UNL     1      -5.402   0.668  -0.616  1.00  0.00     0.182 C 
HETATM   15  O6  UNL     1      -6.050  -0.049  -1.410  1.00  0.00    -0.647 OA
HETATM   16  O7  UNL     1      -5.745   2.000  -0.497  1.00  0.00    -0.647 OA
ENDBRANCH  13  14
ENDBRANCH  12  13
ENDBRANCH  11  12
BRANCH   2  17
HETATM   17  O1  UNL     1       3.529  -1.037   0.470  1.00  0.00    -0.359 OA
ATOM     18  H1  UNL     1       2.945  -1.786   0.481  1.00  0.00     0.213 HD
ENDBRANCH   2  17
BRANCH   8  19
HETATM   19  O4  UNL     1       3.998  -0.247  -2.163  1.00  0.00    -0.288 OA
ATOM     20  H4  UNL     1       4.469  -0.360  -2.980  1.00  0.00     0.244 HD
ENDBRANCH   8  19
TORSDOF 5
