REMARK  2 active torsions:
REMARK  status: ('A' for Active; 'I' for Inactive)
REMARK    1  A    between atoms: C2_5  and  N2_6 
REMARK    2  A    between atoms: C5_14  and  N4_15 
ROOT
HETATM    1  N1  UNL     1      -3.760   0.443  -0.049  1.00  0.00    -0.393 N 
ATOM      2  H11 UNL     1      -4.372   1.253  -0.142  1.00  0.00     0.156 HD
ATOM      3  H12 UNL     1      -4.207  -0.467   0.060  1.00  0.00     0.156 HD
HETATM    4  C1  UNL     1      -2.467   0.568  -0.065  1.00  0.00     0.133 A 
HETATM    5  C2  UNL     1      -1.635  -0.533   0.062  1.00  0.00     0.180 A 
HETATM    6  C3  UNL     1      -0.256  -0.429   0.045  1.00  0.00     0.165 A 
HETATM    7  N3  UNL     1       0.555  -1.484   0.168  1.00  0.00    -0.304 N 
ATOM      8  H3  UNL     1       0.139  -2.409   0.279  1.00  0.00     0.171 HD
HETATM    9  C4  UNL     1       1.897  -1.380   0.152  1.00  0.00     0.281 A 
HETATM   10  O3  UNL     1       2.662  -2.366   0.266  1.00  0.00    -0.265 OA
HETATM   11  C5  UNL     1       2.486  -0.133   0.004  1.00  0.00     0.188 A 
HETATM   12  C6  UNL     1       1.632   0.942  -0.121  1.00  0.00     0.160 A 
HETATM   13  N5  UNL     1       0.274   0.803  -0.101  1.00  0.00    -0.243 N 
HETATM   14  N6  UNL     1      -0.523   1.848  -0.221  1.00  0.00    -0.256 N 
ATOM     15  H6  UNL     1      -0.083   2.762  -0.329  1.00  0.00     0.191 HD
HETATM   16  C7  UNL     1      -1.858   1.808  -0.213  1.00  0.00     0.289 A 
HETATM   17  O6  UNL     1      -2.581   2.847  -0.335  1.00  0.00    -0.264 OA
ENDROOT
BRANCH   5  18
HETATM   18  N2  UNL     1      -2.252  -1.808   0.210  1.00  0.00    -0.109 N 
HETATM   19  O1  UNL     1      -2.808  -2.408  -0.715  1.00  0.00    -0.532 OA
HETATM   20  O2  UNL     1      -2.222  -2.400   1.454  1.00  0.00    -0.532 OA
ENDBRANCH   5  18
BRANCH  11  21
HETATM   21  N4  UNL     1       3.902  -0.028  -0.011  1.00  0.00    -0.108 N 
HETATM   22  O4  UNL     1       4.623  -0.821   0.649  1.00  0.00    -0.532 OA
HETATM   23  O5  UNL     1       4.548   0.943  -0.745  1.00  0.00    -0.532 OA
ENDBRANCH  11  21
TORSDOF 2
