REMARK  5 active torsions:
REMARK  status: ('A' for Active; 'I' for Inactive)
REMARK    1  A    between atoms: C2_2  and  C3_4 
REMARK    2  A    between atoms: C5_8  and  S1_9 
REMARK    3  A    between atoms: C7_12  and  O3_13 
REMARK    4  A    between atoms: C8_15  and  O4_16 
REMARK    5  A    between atoms: C9_18  and  O5_19 
ROOT
HETATM    1  C3  UNL     1       1.007   0.250  -0.404  1.00  0.00     0.238 C 
HETATM    2  C4  UNL     1       0.995   1.434  -1.325  1.00  0.00     0.109 C 
HETATM    3  N1  UNL     1       0.985   2.365  -2.016  1.00  0.00    -0.193 NA
HETATM    4  O2  UNL     1       0.540   0.763   0.791  1.00  0.00    -0.337 OA
HETATM    5  C5  UNL     1      -0.826   0.710   0.945  1.00  0.00     0.231 C 
HETATM    6  C7  UNL     1      -1.266  -0.710   0.981  1.00  0.00     0.189 C 
HETATM    7  C8  UNL     1      -1.010  -1.306  -0.386  1.00  0.00     0.183 C 
HETATM    8  C9  UNL     1       0.270  -0.887  -0.995  1.00  0.00     0.206 C 
ENDROOT
BRANCH   1   9
HETATM    9  C2  UNL     1       2.438  -0.074  -0.238  1.00  0.00     0.174 C 
HETATM   10  C1  UNL     1       3.213   0.319   0.967  1.00  0.00     0.095 C 
HETATM   11  O1  UNL     1       3.010  -0.696  -1.120  1.00  0.00    -0.294 OA
ENDBRANCH   1   9
BRANCH   8  12
HETATM   12  O5  UNL     1       1.057  -2.056  -1.135  1.00  0.00    -0.388 OA
ATOM     13  H5  UNL     1       0.583  -2.787  -1.515  1.00  0.00     0.210 HD
ENDBRANCH   8  12
BRANCH   5  14
HETATM   14  S1  UNL     1      -1.764   1.541  -0.359  1.00  0.00    -0.016 SA
HETATM   15  C6  UNL     1      -3.064   2.536   0.286  1.00  0.00     0.136 C 
HETATM   16  N2  UNL     1      -3.946   3.167   0.708  1.00  0.00    -0.184 NA
ENDBRANCH   5  14
BRANCH   7  17
HETATM   17  O4  UNL     1      -2.106  -0.931  -1.183  1.00  0.00    -0.390 OA
ATOM     18  H4  UNL     1      -1.945  -1.305  -2.041  1.00  0.00     0.210 HD
ENDBRANCH   7  17
BRANCH   6  19
HETATM   19  O3  UNL     1      -2.646  -0.818   1.242  1.00  0.00    -0.389 OA
ATOM     20  H3  UNL     1      -2.927  -1.725   1.265  1.00  0.00     0.210 HD
ENDBRANCH   6  19
TORSDOF 5
