REMARK  6 active torsions:
REMARK  status: ('A' for Active; 'I' for Inactive)
REMARK    1  A    between atoms: O1_2  and  C2_3 
REMARK    2  A    between atoms: C2_3  and  C3_5 
REMARK    3  A    between atoms: C3_5  and  C4_6 
REMARK    4  A    between atoms: C4_6  and  O3_8 
REMARK    5  A    between atoms: C8_13  and  O5_14 
REMARK    6  A    between atoms: C9_16  and  O6_17 
ROOT
HETATM    1  C3  UNL     1      -1.010  -0.326  -0.304  1.00  0.00     0.179 C 
HETATM    2  C6  UNL     1      -0.367  -0.779   1.013  1.00  0.00     0.088 C 
HETATM    3  C7  UNL     1       0.886   0.053   1.001  1.00  0.00     0.183 C 
HETATM    4  O4  UNL     1       1.955  -0.502   1.637  1.00  0.00    -0.346 OA
HETATM    5  C8  UNL     1       3.164  -0.339   0.987  1.00  0.00     0.312 C 
HETATM    6  C9  UNL     1       3.239   0.763   0.016  1.00  0.00     0.315 C 
HETATM    7  O7  UNL     1       2.106   1.022  -0.707  1.00  0.00    -0.324 OA
HETATM    8  C10 UNL     1       1.198   0.020  -0.501  1.00  0.00     0.294 C 
HETATM    9  O8  UNL     1      -0.017   0.175  -1.089  1.00  0.00    -0.335 OA
ENDROOT
BRANCH   1  10
HETATM   10  C2  UNL     1      -2.035   0.707  -0.067  1.00  0.00     0.296 C 
HETATM   11  O2  UNL     1      -3.072   0.532   0.624  1.00  0.00    -0.262 OA
BRANCH  10  12
HETATM   12  O1  UNL     1      -1.859   1.957  -0.636  1.00  0.00    -0.324 OA
HETATM   13  C1  UNL     1      -2.756   3.020  -0.488  1.00  0.00     0.213 C 
ENDBRANCH  10  12
ENDBRANCH   1  10
BRANCH   1  14
HETATM   14  C4  UNL     1      -1.578  -1.569  -0.950  1.00  0.00     0.159 C 
HETATM   15  C5  UNL     1      -2.575  -2.265  -0.042  1.00  0.00     0.043 C 
BRANCH  14  16
HETATM   16  O3  UNL     1      -2.108  -1.316  -2.202  1.00  0.00    -0.392 OA
ATOM     17  H3  UNL     1      -2.465  -2.097  -2.608  1.00  0.00     0.210 HD
ENDBRANCH  14  16
ENDBRANCH   1  14
BRANCH   5  18
HETATM   18  O5  UNL     1       4.126  -0.101   1.997  1.00  0.00    -0.367 OA
ATOM     19  H5  UNL     1       4.957   0.011   1.550  1.00  0.00     0.212 HD
ENDBRANCH   5  18
BRANCH   6  20
HETATM   20  O6  UNL     1       4.267   0.504  -0.915  1.00  0.00    -0.367 OA
ATOM     21  H6  UNL     1       4.315   1.216  -1.542  1.00  0.00     0.212 HD
ENDBRANCH   6  20
TORSDOF 6
