REMARK  1 active torsions:
REMARK  status: ('A' for Active; 'I' for Inactive)
REMARK    1  A    between atoms: C11_11  and  C12_12 
ROOT
HETATM    1  C1  UNL     1      -2.292   0.571   1.718  1.00  0.00     0.011 C 
HETATM    2  C2  UNL     1      -0.901   0.387   1.234  1.00  0.00    -0.006 C 
HETATM    3  C3  UNL     1      -0.290   1.645   0.655  1.00  0.00    -0.009 C 
HETATM    4  C4  UNL     1      -1.227   2.126  -0.403  1.00  0.00     0.005 C 
HETATM    5  C5  UNL     1      -1.529   1.148  -1.478  1.00  0.00     0.001 C 
HETATM    6  C6  UNL     1      -1.425  -0.277  -1.134  1.00  0.00     0.010 C 
HETATM    7  C7  UNL     1      -0.807  -0.651   0.145  1.00  0.00    -0.036 C 
HETATM    8  C8  UNL     1      -1.494  -1.909   0.696  1.00  0.00     0.016 C 
HETATM    9  C9  UNL     1       0.667  -1.000   0.058  1.00  0.00     0.001 C 
HETATM   10  C10 UNL     1       0.923  -2.274  -0.661  1.00  0.00     0.011 C 
HETATM   11  C11 UNL     1       1.383   0.184  -0.527  1.00  0.00     0.055 C 
HETATM   12  C13 UNL     1       1.103   1.433   0.219  1.00  0.00     0.017 C 
ENDROOT
BRANCH  11  13
HETATM   13  C12 UNL     1       2.866  -0.029  -0.523  1.00  0.00     0.091 C 
HETATM   14  N1  UNL     1       3.558  -0.026  -1.614  1.00  0.00    -0.391 N 
ATOM     15  H12 UNL     1       3.042   0.129  -2.480  1.00  0.00     0.157 HD
ATOM     16  H11 UNL     1       4.568  -0.171  -1.611  1.00  0.00     0.157 HD
HETATM   17  N2  UNL     1       3.586  -0.245   0.686  1.00  0.00    -0.088 NA
ENDBRANCH  11  13
TORSDOF 1
