REMARK  3 active torsions:
REMARK  status: ('A' for Active; 'I' for Inactive)
REMARK    1  A    between atoms: C2_2  and  C3_3 
REMARK    2  A    between atoms: C3_3  and  C4_4 
REMARK    3  A    between atoms: C13_13  and  N1_14 
ROOT
HETATM    1  C4  UNL     1       1.239   1.151   0.451  1.00  0.00    -0.008 C 
HETATM    2  C5  UNL     1       1.447  -0.325   0.389  1.00  0.00     0.009 C 
HETATM    3  C6  UNL     1       0.256  -1.126   0.857  1.00  0.00    -0.012 C 
HETATM    4  C7  UNL     1      -0.080  -2.206  -0.076  1.00  0.00     0.009 C 
HETATM    5  C8  UNL     1      -1.183  -2.002  -1.030  1.00  0.00    -0.014 C 
HETATM    6  C9  UNL     1      -2.566  -2.100  -0.434  1.00  0.00     0.005 C 
HETATM    7  C10 UNL     1      -3.079  -0.695  -0.400  1.00  0.00     0.007 C 
HETATM    8  C11 UNL     1      -1.996   0.196  -0.952  1.00  0.00     0.022 C 
HETATM    9  C12 UNL     1      -1.180  -0.733  -1.793  1.00  0.00     0.011 C 
HETATM   10  C13 UNL     1      -1.220   0.804   0.179  1.00  0.00     0.128 C 
HETATM   11  C14 UNL     1      -0.023   1.576  -0.267  1.00  0.00     0.043 C 
HETATM   12  C15 UNL     1      -0.829  -0.180   1.231  1.00  0.00     0.043 C 
ENDROOT
BRANCH  10  13
HETATM   13  N1  UNL     1      -2.128   1.767   0.829  1.00  0.00    -0.070 N 
ATOM     14  H13 UNL     1      -2.516   2.457   0.186  1.00  0.00     0.275 HD
ATOM     15  H12 UNL     1      -3.015   1.356   1.120  1.00  0.00     0.275 HD
ATOM     16  H11 UNL     1      -1.600   2.180   1.598  1.00  0.00     0.275 HD
ENDBRANCH  10  13
BRANCH   1  17
HETATM   17  C3  UNL     1       2.428   1.817  -0.215  1.00  0.00     0.031 C 
BRANCH  17  18
HETATM   18  C2  UNL     1       3.687   1.465   0.478  1.00  0.00    -0.037 C 
HETATM   19  C1  UNL     1       4.691   0.847  -0.105  1.00  0.00     0.007 C 
ENDBRANCH  17  18
ENDBRANCH   1  17
TORSDOF 3
