REMARK  3 active torsions:
REMARK  status: ('A' for Active; 'I' for Inactive)
REMARK    1  A    between atoms: C2_2  and  C3_3 
REMARK    2  A    between atoms: C12_15  and  C13_16 
REMARK    3  A    between atoms: C13_16  and  O1_17 
ROOT
HETATM    1  C3  UNL     1       1.849   0.047  -0.571  1.00  0.00    -0.012 C 
HETATM    2  C4  UNL     1       1.371  -1.338  -0.676  1.00  0.00     0.009 C 
HETATM    3  C5  UNL     1       0.278  -1.832   0.159  1.00  0.00    -0.010 C 
HETATM    4  C6  UNL     1      -1.110  -1.951  -0.483  1.00  0.00     0.038 C 
HETATM    5  C7  UNL     1      -1.793  -0.625  -0.598  1.00  0.00     0.193 C 
HETATM    6  N1  UNL     1      -0.680   0.283  -0.850  1.00  0.00    -0.061 N 
ATOM      7  H11 UNL     1      -0.905   1.145  -1.347  1.00  0.00     0.278 HD
ATOM      8  H12 UNL     1       0.005  -0.025  -1.540  1.00  0.00     0.278 HD
HETATM    9  C8  UNL     1      -0.187   0.438   0.537  1.00  0.00     0.127 C 
HETATM   10  C9  UNL     1       1.130   0.984   0.405  1.00  0.00     0.043 C 
HETATM   11  C10 UNL     1       0.006  -0.875   1.271  1.00  0.00     0.043 C 
HETATM   12  C11 UNL     1      -1.371   1.059   1.109  1.00  0.00     0.047 C 
HETATM   13  C12 UNL     1      -2.384  -0.009   0.609  1.00  0.00     0.042 C 
ENDROOT
BRANCH  13  14
HETATM   14  C13 UNL     1      -3.601   0.809   0.150  1.00  0.00     0.170 C 
BRANCH  14  15
HETATM   15  O1  UNL     1      -4.532  -0.019  -0.473  1.00  0.00    -0.400 OA
ATOM     16  H1  UNL     1      -5.284   0.487  -0.757  1.00  0.00     0.209 HD
ENDBRANCH  14  15
ENDBRANCH  13  14
BRANCH   1  17
HETATM   17  C2  UNL     1       3.351   0.142  -0.371  1.00  0.00     0.000 C 
HETATM   18  C1  UNL     1       3.803   1.585  -0.267  1.00  0.00     0.005 C 
ENDBRANCH   1  17
TORSDOF 3
