REMARK  3 active torsions:
REMARK  status: ('A' for Active; 'I' for Inactive)
REMARK    1  A    between atoms: O1_1  and  C1_3 
REMARK    2  A    between atoms: C1_3  and  C2_4 
REMARK    3  A    between atoms: C1_3  and  C8_10 
ROOT
HETATM    1  C1  UNL     1       0.130  -0.284  -0.585  1.00  0.00     0.144 C 
ENDROOT
BRANCH   1   2
HETATM    2  O1  UNL     1       0.616  -1.258  -1.460  1.00  0.00    -0.393 OA
ATOM      3  H1  UNL     1      -0.094  -1.663  -1.944  1.00  0.00     0.210 HD
ENDBRANCH   1   2
BRANCH   1   4
HETATM    4  C2  UNL     1       1.267   0.365   0.190  1.00  0.00     0.016 C 
HETATM    5  C3  UNL     1       1.984  -0.652   0.979  1.00  0.00     0.007 C 
HETATM    6  C4  UNL     1       3.451  -0.758   0.859  1.00  0.00     0.000 C 
HETATM    7  C5  UNL     1       4.157   0.413   0.255  1.00  0.00     0.000 C 
HETATM    8  C6  UNL     1       3.438   0.710  -1.053  1.00  0.00     0.000 C 
HETATM    9  C7  UNL     1       2.098   1.226  -0.711  1.00  0.00     0.007 C 
ENDBRANCH   1   4
BRANCH   1  10
HETATM   10  C8  UNL     1      -0.941  -0.784   0.314  1.00  0.00     0.105 C 
HETATM   11  C9  UNL     1      -2.073  -1.481  -0.384  1.00  0.00     0.027 C 
HETATM   12  C10 UNL     1      -3.330  -1.188   0.424  1.00  0.00     0.002 C 
HETATM   13  C11 UNL     1      -3.992   0.088  -0.023  1.00  0.00     0.002 C 
HETATM   14  C12 UNL     1      -3.463   1.314   0.635  1.00  0.00     0.019 C 
HETATM   15  C13 UNL     1      -1.950   1.407   0.628  1.00  0.00     0.114 C 
HETATM   16  N1  UNL     1      -1.403   0.229   1.187  1.00  0.00    -0.415 N 
ATOM     17  H1  UNL     1      -1.343   0.112   2.198  1.00  0.00     0.153 HD
ENDBRANCH   1  10
TORSDOF 3
