REMARK  2 active torsions:
REMARK  status: ('A' for Active; 'I' for Inactive)
REMARK    1  A    between atoms: C11_11  and  N1_12 
REMARK    2  A    between atoms: N1_12  and  C12_14 
ROOT
HETATM    1  C1  UNL     1       0.050   1.850   0.448  1.00  0.00     0.018 C 
HETATM    2  C2  UNL     1      -0.434   0.429   0.315  1.00  0.00    -0.020 C 
HETATM    3  C3  UNL     1      -1.338   0.180   1.497  1.00  0.00     0.011 C 
HETATM    4  C4  UNL     1      -2.704  -0.318   1.161  1.00  0.00     0.001 C 
HETATM    5  C5  UNL     1      -3.260   0.667   0.142  1.00  0.00     0.000 C 
HETATM    6  C6  UNL     1      -2.534   0.416  -1.120  1.00  0.00     0.005 C 
HETATM    7  C7  UNL     1      -1.064   0.197  -1.029  1.00  0.00    -0.004 C 
HETATM    8  C8  UNL     1      -0.657  -1.059  -1.733  1.00  0.00     0.005 C 
HETATM    9  C9  UNL     1      -0.334  -2.232  -0.905  1.00  0.00     0.002 C 
HETATM   10  C10 UNL     1       0.276  -1.931   0.427  1.00  0.00     0.025 C 
HETATM   11  C11 UNL     1       0.752  -0.484   0.483  1.00  0.00     0.085 C 
ENDROOT
BRANCH  11  12
HETATM   12  N1  UNL     1       1.846  -0.343  -0.364  1.00  0.00    -0.412 N 
ATOM     13  H1  UNL     1       2.028  -1.073  -1.052  1.00  0.00     0.154 HD
BRANCH  12  14
HETATM   14  C12 UNL     1       2.713   0.765  -0.312  1.00  0.00     0.077 A 
HETATM   15  C13 UNL     1       3.597   1.015   0.868  1.00  0.00     0.027 A 
HETATM   16  C14 UNL     1       4.248   0.570  -0.384  1.00  0.00     0.027 A 
ENDBRANCH  12  14
ENDBRANCH  11  12
TORSDOF 2
