REMARK  0 active torsions:
REMARK  status: ('A' for Active; 'I' for Inactive)
ROOT
HETATM    1  N1  UNL     1       3.575   1.851  -1.372  1.00  0.00    -0.063 NA
HETATM    2  C1  UNL     1       2.536   1.199  -0.557  1.00  0.00     0.192 C 
HETATM    3  N2  UNL     1       1.408   1.676  -0.810  1.00  0.00    -0.328 N 
ATOM      4  H2  UNL     1       1.514   2.398  -1.523  1.00  0.00     0.165 HD
HETATM    5  C2  UNL     1       0.075   1.583  -0.478  1.00  0.00     0.354 C 
HETATM    6  N3  UNL     1      -0.643   2.859  -0.740  1.00  0.00    -0.029 N 
ATOM      7  H31 UNL     1      -0.873   3.140  -1.693  1.00  0.00     0.282 HD
ATOM      8  H32 UNL     1      -0.177   3.756  -0.603  1.00  0.00     0.282 HD
HETATM    9  C3  UNL     1      -1.699   2.410   0.188  1.00  0.00     0.278 C 
HETATM   10  C4  UNL     1      -2.633   1.537  -0.507  1.00  0.00     0.034 C 
HETATM   11  C5  UNL     1      -2.783   0.124  -0.211  1.00  0.00     0.086 C 
HETATM   12  N4  UNL     1      -2.511  -0.374   1.077  1.00  0.00    -0.376 N 
ATOM     13  H4  UNL     1      -2.670   0.286   1.839  1.00  0.00     0.164 HD
HETATM   14  C6  UNL     1      -2.090  -1.540   1.441  1.00  0.00     0.087 C 
HETATM   15  C7  UNL     1      -1.759  -2.702   0.670  1.00  0.00     0.020 C 
HETATM   16  C8  UNL     1      -0.583  -3.154   0.256  1.00  0.00     0.038 C 
HETATM   17  C9  UNL     1       0.754  -2.626   0.454  1.00  0.00     0.075 A 
HETATM   18  N5  UNL     1       1.245  -1.435   0.286  1.00  0.00    -0.336 N 
ATOM     19  H5  UNL     1       0.627  -0.702  -0.061  1.00  0.00     0.168 HD
HETATM   20  C10 UNL     1       2.466  -1.134   0.534  1.00  0.00     0.115 A 
HETATM   21  C11 UNL     1       3.259  -2.208   1.012  1.00  0.00     0.100 A 
HETATM   22  S1  UNL     1       2.160  -3.485   1.040  1.00  0.00    -0.081 SA
HETATM   23  N6  UNL     1       2.946   0.200   0.357  1.00  0.00    -0.316 N 
ATOM     24  H6  UNL     1       3.700   0.474   0.986  1.00  0.00     0.170 HD
HETATM   25  S2  UNL     1      -0.431   1.754   1.216  1.00  0.00    -0.079 SA
ENDROOT
TORSDOF 0
