REMARK  1 active torsions:
REMARK  status: ('A' for Active; 'I' for Inactive)
REMARK    1  A    between atoms: C6_12  and  O1_13 
ROOT
HETATM    1  N1  UNL     1       1.353  -2.409  -2.941  1.00  0.00    -0.195 NA
HETATM    2  C1  UNL     1       1.164  -2.036  -1.858  1.00  0.00     0.086 C 
HETATM    3  C2  UNL     1       0.942  -1.563  -0.483  1.00  0.00     0.229 C 
HETATM    4  C3  UNL     1       1.751  -0.359  -0.204  1.00  0.00     0.070 A 
HETATM    5  C4  UNL     1       1.209   0.863  -0.622  1.00  0.00     0.118 A 
HETATM    6  N2  UNL     1       1.917   1.990  -0.387  1.00  0.00    -0.319 N 
ATOM      7  H2  UNL     1       1.545   2.893  -0.682  1.00  0.00     0.170 HD
HETATM    8  C5  UNL     1       3.107   1.929   0.233  1.00  0.00     0.179 A 
HETATM    9  S1  UNL     1       3.982   3.270   0.531  1.00  0.00    -0.040 SA
HETATM   10  N3  UNL     1       3.623   0.739   0.635  1.00  0.00    -0.313 N 
ATOM     11  H3  UNL     1       4.529   0.721   1.104  1.00  0.00     0.170 HD
HETATM   12  C6  UNL     1       2.968  -0.413   0.429  1.00  0.00     0.154 A 
HETATM   13  N4  UNL     1      -0.054   0.870  -1.273  1.00  0.00    -0.353 N 
ATOM     14  H4  UNL     1      -0.314   1.657  -1.867  1.00  0.00     0.163 HD
HETATM   15  C7  UNL     1      -0.960  -0.219  -1.099  1.00  0.00     0.216 C 
HETATM   16  C8  UNL     1      -2.144   0.226  -0.321  1.00  0.00     0.011 A 
HETATM   17  C9  UNL     1      -3.206   1.046  -0.637  1.00  0.00     0.030 A 
HETATM   18  C10 UNL     1      -4.182   1.289   0.303  1.00  0.00     0.088 A 
HETATM   19  N5  UNL     1      -4.097   0.723   1.537  1.00  0.00    -0.373 N 
ATOM     20  H5  UNL     1      -4.818   0.901   2.236  1.00  0.00     0.164 HD
HETATM   21  C11 UNL     1      -3.042  -0.082   1.829  1.00  0.00     0.118 A 
HETATM   22  C12 UNL     1      -2.046  -0.361   0.942  1.00  0.00     0.068 A 
HETATM   23  N6  UNL     1      -0.860  -1.147   0.984  1.00  0.00    -0.313 N 
ATOM     24  H6  UNL     1      -0.400  -1.517   1.816  1.00  0.00     0.181 HD
HETATM   25  N7  UNL     1      -0.454  -1.309  -0.333  1.00  0.00    -0.180 NA
ENDROOT
BRANCH  12  26
HETATM   26  O1  UNL     1       3.487  -1.618   0.834  1.00  0.00    -0.345 OA
ATOM     27  H1  UNL     1       4.329  -1.655   1.272  1.00  0.00     0.219 HD
ENDBRANCH  12  26
TORSDOF 1
