REMARK  1 active torsions:
REMARK  status: ('A' for Active; 'I' for Inactive)
REMARK    1  A    between atoms: C11_19  and  N5_20 
ROOT
HETATM    1  N1  UNL     1       1.628  -4.659   0.485  1.00  0.00    -0.191 NA
HETATM    2  C1  UNL     1       1.616  -3.520   0.277  1.00  0.00     0.105 C 
HETATM    3  C2  UNL     1       1.582  -2.090   0.019  1.00  0.00     0.112 A 
HETATM    4  C3  UNL     1       2.809  -1.505  -0.210  1.00  0.00     0.074 A 
HETATM    5  N2  UNL     1       4.024  -2.251  -0.196  1.00  0.00    -0.101 NA
HETATM    6  C4  UNL     1       2.809  -0.139  -0.457  1.00  0.00     0.076 A 
HETATM    7  C5  UNL     1       1.614   0.559  -0.464  1.00  0.00     0.106 A 
HETATM    8  N3  UNL     1       0.459  -0.068  -0.235  1.00  0.00    -0.328 N 
ATOM      9  H3  UNL     1      -0.404   0.476  -0.247  1.00  0.00     0.169 HD
HETATM   10  C6  UNL     1       0.385  -1.382   0.010  1.00  0.00     0.125 A 
HETATM   11  N4  UNL     1      -0.836  -2.059   0.256  1.00  0.00    -0.375 N 
ATOM     12  H4  UNL     1      -0.786  -2.833   0.918  1.00  0.00     0.161 HD
HETATM   13  C7  UNL     1      -2.115  -1.804  -0.295  1.00  0.00     0.121 C 
HETATM   14  C8  UNL     1      -2.473  -0.405  -0.623  1.00  0.00     0.020 C 
HETATM   15  C9  UNL     1      -2.746   0.398   0.620  1.00  0.00     0.012 C 
HETATM   16  C10 UNL     1      -2.845   1.884   0.346  1.00  0.00     0.086 C 
HETATM   17  S1  UNL     1      -2.226   2.296  -1.295  1.00  0.00    -0.094 SA
HETATM   18  S2  UNL     1      -0.524   3.524  -1.214  1.00  0.00    -0.044 SA
HETATM   19  C11 UNL     1       0.765   2.922  -0.130  1.00  0.00     0.357 C 
HETATM   20  N6  UNL     1       1.653   1.970  -0.720  1.00  0.00    -0.340 N 
ATOM     21  H6  UNL     1       2.362   2.317  -1.366  1.00  0.00     0.164 HD
ENDROOT
BRANCH  19  22
HETATM   22  N5  UNL     1       0.241   2.436   1.154  1.00  0.00    -0.048 N 
ATOM     23  H53 UNL     1      -0.321   3.151   1.615  1.00  0.00     0.277 HD
ATOM     24  H52 UNL     1      -0.479   1.728   1.012  1.00  0.00     0.277 HD
ATOM     25  H51 UNL     1       0.976   2.093   1.772  1.00  0.00     0.277 HD
ENDBRANCH  19  22
TORSDOF 1
