REMARK  1 active torsions:
REMARK  status: ('A' for Active; 'I' for Inactive)
REMARK    1  A    between atoms: C14_23  and  O2_24 
ROOT
HETATM    1  C1  UNL     1       3.880  -0.121   0.279  1.00  0.00     0.043 C 
HETATM    2  C2  UNL     1       2.417   0.309   0.004  1.00  0.00     0.074 C 
HETATM    3  C3  UNL     1       1.810   0.456   1.374  1.00  0.00     0.043 C 
HETATM    4  N1  UNL     1       2.327   1.380  -0.871  1.00  0.00    -0.351 N 
ATOM      5  H1  UNL     1       2.789   1.158  -1.753  1.00  0.00     0.163 HD
HETATM    6  C4  UNL     1       1.849   2.541  -0.908  1.00  0.00     0.191 C 
HETATM    7  N2  UNL     1       2.075   3.259  -2.176  1.00  0.00    -0.063 NA
HETATM    8  N3  UNL     1       1.164   3.189   0.106  1.00  0.00    -0.305 N 
ATOM      9  H3  UNL     1       1.749   3.831   0.641  1.00  0.00     0.171 HD
HETATM   10  C5  UNL     1      -0.049   3.152   0.514  1.00  0.00     0.194 C 
HETATM   11  N4  UNL     1      -0.313   4.036   1.651  1.00  0.00    -0.063 NA
HETATM   12  N5  UNL     1      -1.137   2.445   0.086  1.00  0.00    -0.344 N 
ATOM     13  H5  UNL     1      -1.733   2.335   0.907  1.00  0.00     0.167 HD
HETATM   14  C6  UNL     1      -1.723   1.887  -0.820  1.00  0.00     0.063 C 
HETATM   15  C7  UNL     1      -3.066   1.245  -0.470  1.00  0.00     0.044 C 
HETATM   16  C8  UNL     1      -3.061  -0.139  -1.073  1.00  0.00     0.005 C 
HETATM   17  C9  UNL     1      -3.583  -1.175  -0.102  1.00  0.00     0.000 C 
HETATM   18  C10 UNL     1      -2.429  -1.745   0.708  1.00  0.00     0.000 C 
HETATM   19  C11 UNL     1      -1.643  -2.705  -0.138  1.00  0.00     0.002 C 
HETATM   20  C12 UNL     1      -0.555  -3.332   0.706  1.00  0.00     0.026 C 
HETATM   21  C13 UNL     1       0.790  -2.694   0.414  1.00  0.00     0.171 C 
HETATM   22  O1  UNL     1       0.693  -1.354   0.130  1.00  0.00    -0.359 OA
HETATM   23  C14 UNL     1       1.770  -0.934  -0.613  1.00  0.00     0.283 C 
ENDROOT
BRANCH  23  24
HETATM   24  O2  UNL     1       2.696  -1.953  -0.837  1.00  0.00    -0.369 OA
ATOM     25  H2  UNL     1       2.295  -2.724  -1.220  1.00  0.00     0.212 HD
ENDBRANCH  23  24
TORSDOF 1
