REMARK  8 active torsions:
REMARK  status: ('A' for Active; 'I' for Inactive)
REMARK    1  A    between atoms: C6_13  and  N4_14 
REMARK    2  A    between atoms: N4_14  and  C7_16 
REMARK    3  A    between atoms: C7_16  and  C8_17 
REMARK    4  A    between atoms: C7_16  and  C13_37 
REMARK    5  A    between atoms: C8_17  and  N5_18 
REMARK    6  A    between atoms: C9_23  and  C10_24 
REMARK    7  A    between atoms: C10_24  and  C11_25 
REMARK    8  A    between atoms: C14_42  and  N13_43 
ROOT
HETATM    1  N4  UNL     1      -1.232   1.104   0.215  1.00  0.00    -0.338 N 
ATOM      2  H4  UNL     1      -1.057   1.916   0.808  1.00  0.00     0.167 HD
ENDROOT
BRANCH   1   3
HETATM    3  C6  UNL     1      -2.527   0.856  -0.264  1.00  0.00     0.120 A 
HETATM    4  C5  UNL     1      -3.666   0.537   0.561  1.00  0.00     0.075 A 
HETATM    5  C2  UNL     1      -3.561   0.457   1.928  1.00  0.00     0.040 A 
HETATM    6  C4  UNL     1      -4.902   0.316  -0.070  1.00  0.00     0.135 A 
HETATM    7  C1  UNL     1      -2.295   0.689   2.615  1.00  0.00     0.070 C 
HETATM    8  N1  UNL     1      -4.704   0.154   2.628  1.00  0.00    -0.195 N 
HETATM    9  C3  UNL     1      -5.889  -0.061   2.053  1.00  0.00     0.677 A 
ATOM     10  H1  UNL     1      -4.643   0.090   3.644  1.00  0.00     0.184 HD
HETATM   11  N2  UNL     1      -6.913  -0.342   2.798  1.00  0.00    -0.234 N 
HETATM   12  N3  UNL     1      -5.967   0.023   0.722  1.00  0.00    -0.176 N 
ATOM     13  H22 UNL     1      -6.853  -0.406   3.814  1.00  0.00     0.174 HD
ATOM     14  H21 UNL     1      -7.819  -0.506   2.359  1.00  0.00     0.174 HD
ATOM     15  H3  UNL     1      -6.871  -0.141   0.278  1.00  0.00     0.186 HD
HETATM   16  N14 UNL     1      -5.030   0.391  -1.458  1.00  0.00    -0.332 N 
HETATM   17  C14 UNL     1      -3.903   0.719  -2.288  1.00  0.00     0.389 A 
ATOM     18  H14 UNL     1      -5.936   0.210  -1.890  1.00  0.00     0.165 HD
HETATM   19  N12 UNL     1      -2.721   0.920  -1.566  1.00  0.00    -0.332 N 
ATOM     20  H12 UNL     1      -1.897   1.147  -2.123  1.00  0.00     0.165 HD
BRANCH  17  21
HETATM   21  N13 UNL     1      -3.806  -0.377  -3.264  1.00  0.00    -0.041 N 
ATOM     22 3H13 UNL     1      -3.016  -0.234  -3.893  1.00  0.00     0.279 HD
ATOM     23 2H13 UNL     1      -3.506  -1.240  -2.812  1.00  0.00     0.279 HD
ATOM     24 1H13 UNL     1      -4.667  -0.523  -3.790  1.00  0.00     0.279 HD
ENDBRANCH  17  21
ENDBRANCH   1   3
BRANCH   1  25
HETATM   25  C7  UNL     1      -0.114   0.191  -0.136  1.00  0.00     0.109 C 
BRANCH  25  26
HETATM   26  C8  UNL     1       1.040   0.944  -0.651  1.00  0.00     0.235 C 
BRANCH  26  27
HETATM   27  N5  UNL     1       2.161   0.140  -0.992  1.00  0.00    -0.212 N 
HETATM   28  N6  UNL     1       2.527  -0.384  -2.141  1.00  0.00    -0.224 N 
HETATM   29  N7  UNL     1       3.649  -1.085  -2.021  1.00  0.00    -0.272 N 
ATOM     30  H6  UNL     1       2.014  -0.267  -3.015  1.00  0.00     0.210 HD
HETATM   31  C9  UNL     1       4.034  -1.016  -0.739  1.00  0.00     0.120 A 
ATOM     32  H7  UNL     1       4.130  -1.585  -2.769  1.00  0.00     0.190 HD
HETATM   33  N11 UNL     1       3.110  -0.262  -0.127  1.00  0.00    -0.269 N 
ATOM     34  H11 UNL     1       3.124  -0.024   0.865  1.00  0.00     0.190 HD
BRANCH  31  35
HETATM   35  C10 UNL     1       5.238  -1.664  -0.168  1.00  0.00     0.157 C 
BRANCH  35  36
HETATM   36  C11 UNL     1       6.442  -0.820  -0.196  1.00  0.00     0.112 A 
HETATM   37  N8  UNL     1       6.853   0.042   0.743  1.00  0.00    -0.309 N 
HETATM   38  C12 UNL     1       8.021   0.620   0.331  1.00  0.00     0.242 A 
ATOM     39  H8  UNL     1       6.373   0.236   1.622  1.00  0.00     0.170 HD
HETATM   40  N9  UNL     1       8.726   1.497   0.952  1.00  0.00    -0.364 N 
HETATM   41  O1  UNL     1       8.288   0.101  -0.834  1.00  0.00    -0.200 OA
ATOM     42  H92 UNL     1       8.517   1.903   1.864  1.00  0.00     0.159 HD
ATOM     43  H91 UNL     1       9.598   1.928   0.645  1.00  0.00     0.159 HD
HETATM   44  N10 UNL     1       7.352  -0.769  -1.175  1.00  0.00    -0.245 N 
ATOM     45  H10 UNL     1       7.328  -1.310  -2.039  1.00  0.00     0.196 HD
ENDBRANCH  35  36
ENDBRANCH  31  35
ENDBRANCH  26  27
ENDBRANCH  25  26
BRANCH  25  46
HETATM   46  C13 UNL     1      -0.546  -1.008  -0.791  1.00  0.00     0.224 C 
HETATM   47  O2  UNL     1      -1.671  -1.563  -0.452  1.00  0.00    -0.643 OA
HETATM   48  O3  UNL     1       0.093  -1.706  -1.791  1.00  0.00    -0.643 OA
ENDBRANCH  25  46
ENDBRANCH   1  25
TORSDOF 8
