REMARK  11 active torsions:
REMARK  status: ('A' for Active; 'I' for Inactive)
REMARK    1  A    between atoms: N2_3  and  C2_5 
REMARK    2  A    between atoms: C2_5  and  C3_6 
REMARK    3  A    between atoms: C2_5  and  S1_38 
REMARK    4  A    between atoms: C4_9  and  N4_10 
REMARK    5  A    between atoms: N4_10  and  O1_12 
REMARK    6  A    between atoms: C5_16  and  C6_17 
REMARK    7  A    between atoms: C7_22  and  C8_23 
REMARK    8  A    between atoms: C8_23  and  O2_24 
REMARK    9  A    between atoms: C11_33  and  N9_34 
REMARK   10  A    between atoms: N9_34  and  O5_36 
REMARK   11  A    between atoms: S1_38  and  N10_39 
ROOT
HETATM    1  N1  UNL     1       5.760   2.512  -2.262  1.00  0.00    -0.172 NA
HETATM    2  C1  UNL     1       4.977   1.681  -1.963  1.00  0.00     0.183 C 
HETATM    3  N2  UNL     1       4.035   0.704  -1.634  1.00  0.00    -0.281 N 
ATOM      4  H2  UNL     1       3.450   0.311  -2.371  1.00  0.00     0.179 HD
ENDROOT
BRANCH   3   5
HETATM    5  C2  UNL     1       3.870   0.245  -0.309  1.00  0.00     0.187 C 
BRANCH   5   6
HETATM    6  C3  UNL     1       2.601  -0.461   0.013  1.00  0.00     0.121 A 
HETATM    7  N3  UNL     1       2.666  -1.657   0.692  1.00  0.00    -0.185 N 
HETATM    8  C4  UNL     1       1.580  -2.342   1.019  1.00  0.00     0.703 A 
ATOM      9  H3  UNL     1       3.580  -2.028   0.952  1.00  0.00     0.184 HD
HETATM   10  N5  UNL     1       0.380  -1.873   0.690  1.00  0.00    -0.183 N 
HETATM   11  C5  UNL     1       0.247  -0.714   0.029  1.00  0.00     0.132 A 
ATOM     12  H5  UNL     1      -0.453  -2.404   0.945  1.00  0.00     0.184 HD
HETATM   13  C11 UNL     1       1.367   0.036  -0.334  1.00  0.00     0.116 A 
BRANCH   8  14
HETATM   14  N4  UNL     1       1.776  -3.458   1.662  1.00  0.00    -0.098 N 
ATOM     15  H4  UNL     1       2.722  -3.765   1.888  1.00  0.00     0.213 HD
BRANCH  14  16
HETATM   16  O1  UNL     1       0.701  -4.210   2.028  1.00  0.00    -0.276 OA
ATOM     17  H1  UNL     1       0.844  -5.024   2.497  1.00  0.00     0.245 HD
ENDBRANCH  14  16
ENDBRANCH   8  14
BRANCH  11  18
HETATM   18  C6  UNL     1      -1.099  -0.214  -0.310  1.00  0.00     0.194 A 
HETATM   19  N6  UNL     1      -1.474   0.891  -0.946  1.00  0.00    -0.276 N 
HETATM   20  N7  UNL     1      -2.787   0.916  -1.020  1.00  0.00    -0.277 N 
ATOM     21  H6  UNL     1      -0.846   1.604  -1.317  1.00  0.00     0.189 HD
HETATM   22  C7  UNL     1      -3.270  -0.188  -0.424  1.00  0.00     0.205 A 
ATOM     23  H7  UNL     1      -3.345   1.650  -1.456  1.00  0.00     0.189 HD
HETATM   24  O4  UNL     1      -2.231  -0.850  -0.005  1.00  0.00    -0.270 OA
BRANCH  22  25
HETATM   25  C8  UNL     1      -4.722  -0.505  -0.313  1.00  0.00     0.257 C 
HETATM   26  C9  UNL     1      -5.528   0.461  -1.156  1.00  0.00     0.312 C 
HETATM   27  N8  UNL     1      -6.536   0.907  -0.188  1.00  0.00    -0.049 N 
HETATM   28  C10 UNL     1      -5.709   0.984   1.012  1.00  0.00     0.403 C 
ATOM     29  H82 UNL     1      -7.046   1.755  -0.434  1.00  0.00     0.279 HD
ATOM     30  H81 UNL     1      -7.373   0.329  -0.117  1.00  0.00     0.279 HD
HETATM   31  O3  UNL     1      -5.133  -0.295   1.001  1.00  0.00    -0.320 OA
BRANCH  25  32
HETATM   32  O2  UNL     1      -5.015  -1.820  -0.644  1.00  0.00    -0.358 OA
ATOM     33  H2  UNL     1      -5.941  -2.022  -0.573  1.00  0.00     0.213 HD
ENDBRANCH  25  32
ENDBRANCH  22  25
ENDBRANCH  11  18
BRANCH  13  34
HETATM   34  N9  UNL     1       1.208   1.259  -1.023  1.00  0.00    -0.265 N 
ATOM     35  H9  UNL     1       1.238   2.140  -0.509  1.00  0.00     0.194 HD
BRANCH  34  36
HETATM   36  O5  UNL     1       1.018   1.265  -2.352  1.00  0.00    -0.289 OA
ATOM     37  H5  UNL     1       0.911   2.087  -2.815  1.00  0.00     0.244 HD
ENDBRANCH  34  36
ENDBRANCH  13  34
ENDBRANCH   5   6
BRANCH   5  38
HETATM   38  S1  UNL     1       4.346   1.382   0.970  1.00  0.00     0.275 S 
HETATM   39  O6  UNL     1       3.563   2.649   0.966  1.00  0.00    -0.199 OA
HETATM   40  O7  UNL     1       4.177   0.668   2.287  1.00  0.00    -0.199 OA
BRANCH  38  41
HETATM   41  N10 UNL     1       6.021   1.847   0.749  1.00  0.00    -0.323 N 
ATOM     42 2H10 UNL     1       6.619   1.508  -0.005  1.00  0.00     0.169 HD
ATOM     43 1H10 UNL     1       6.294   2.500   1.483  1.00  0.00     0.169 HD
ENDBRANCH  38  41
ENDBRANCH   5  38
ENDBRANCH   3   5
TORSDOF 11
