REMARK  9 active torsions:
REMARK  status: ('A' for Active; 'I' for Inactive)
REMARK    1  A    between atoms: C2_4  and  O1_5 
REMARK    2  A    between atoms: C3_7  and  O2_8 
REMARK    3  A    between atoms: C4_10  and  N3_11 
REMARK    4  A    between atoms: N3_11  and  N4_13 
REMARK    5  A    between atoms: C7_21  and  N8_22 
REMARK    6  A    between atoms: N8_22  and  N9_24 
REMARK    7  A    between atoms: C8_27  and  C9_28 
REMARK    8  A    between atoms: N11_30  and  N12_32 
REMARK       I    between atoms: N12_32  and  C10_34 
REMARK       I    between atoms: C10_34  and  N13_36 
REMARK    9  A    between atoms: N13_36  and  N14_38 
ROOT
HETATM    1  N1  UNL     1       3.127   2.857   2.993  1.00  0.00    -0.171 NA
HETATM    2  C1  UNL     1       2.147   2.422   2.520  1.00  0.00     0.191 C 
HETATM    3  N2  UNL     1       0.944   1.914   1.962  1.00  0.00    -0.220 N 
HETATM    4  C2  UNL     1      -0.239   2.471   2.170  1.00  0.00     0.193 A 
HETATM    5  C3  UNL     1      -1.177   1.689   1.454  1.00  0.00     0.149 A 
HETATM    6  C4  UNL     1      -0.512   0.656   0.819  1.00  0.00     0.117 A 
HETATM    7  C8  UNL     1       0.838   0.817   1.155  1.00  0.00     0.125 A 
ENDROOT
BRANCH   4   8
HETATM    8  O1  UNL     1      -0.615   3.583   2.908  1.00  0.00    -0.343 OA
ATOM      9  H1  UNL     1      -1.464   3.983   3.057  1.00  0.00     0.219 HD
ENDBRANCH   4   8
BRANCH   7  10
HETATM   10  C9  UNL     1       1.964   0.009   0.726  1.00  0.00     0.161 C 
HETATM   11  N10 UNL     1       1.932  -1.099  -0.131  1.00  0.00    -0.079 NA
HETATM   12  N11 UNL     1       3.157   0.336   1.170  1.00  0.00    -0.282 N 
ATOM     13  H11 UNL     1       3.255   1.136   1.795  1.00  0.00     0.188 HD
BRANCH  12  14
HETATM   14  N12 UNL     1       4.290  -0.387   0.805  1.00  0.00    -0.249 N 
HETATM   15  C10 UNL     1       5.175   0.168  -0.154  1.00  0.00     0.358 C 
HETATM   16  O5  UNL     1       4.924   1.291  -0.651  1.00  0.00    -0.244 OA
HETATM   17  N13 UNL     1       6.348  -0.518  -0.571  1.00  0.00    -0.190 N 
ATOM     18  H13 UNL     1       6.572  -1.432  -0.179  1.00  0.00     0.198 HD
ATOM     19  H12 UNL     1       4.480  -1.299   1.220  1.00  0.00     0.192 HD
BRANCH  17  20
HETATM   20  N14 UNL     1       7.185   0.057  -1.510  1.00  0.00    -0.035 N 
HETATM   21  O6  UNL     1       6.884   1.123  -2.072  1.00  0.00    -0.516 OA
HETATM   22  O7  UNL     1       8.371  -0.539  -1.844  1.00  0.00    -0.516 OA
ENDBRANCH  17  20
ENDBRANCH  12  14
ENDBRANCH   7  10
BRANCH   5  23
HETATM   23  O2  UNL     1      -2.522   1.952   1.424  1.00  0.00    -0.355 OA
ATOM     24  H2  UNL     1      -3.151   1.427   0.944  1.00  0.00     0.218 HD
ENDBRANCH   5  23
BRANCH   6  25
HETATM   25  N3  UNL     1      -1.012  -0.352  -0.033  1.00  0.00    -0.278 N 
ATOM     26  H3  UNL     1      -0.396  -1.144  -0.214  1.00  0.00     0.188 HD
BRANCH  25  27
HETATM   27  N4  UNL     1      -2.259  -0.378  -0.652  1.00  0.00    -0.103 N 
HETATM   28  C5  UNL     1      -2.458   0.513  -1.789  1.00  0.00     0.292 A 
HETATM   29  N5  UNL     1      -3.743   0.353  -2.389  1.00  0.00    -0.345 N 
HETATM   30  C6  UNL     1      -4.680  -0.430  -2.028  1.00  0.00     0.204 A 
ATOM     31  H5  UNL     1      -3.934   0.935  -3.204  1.00  0.00     0.163 HD
HETATM   32  N6  UNL     1      -5.896  -0.457  -2.743  1.00  0.00    -0.063 NA
HETATM   33  N7  UNL     1      -4.461  -1.275  -0.899  1.00  0.00    -0.161 N 
HETATM   34  C7  UNL     1      -3.332  -1.227  -0.283  1.00  0.00     0.722 A 
ATOM     35  H7  UNL     1      -5.193  -1.911  -0.583  1.00  0.00     0.187 HD
BRANCH  34  36
HETATM   36  N8  UNL     1      -3.137  -2.073   0.846  1.00  0.00    -0.070 N 
ATOM     37  H8  UNL     1      -2.560  -1.737   1.617  1.00  0.00     0.212 HD
BRANCH  36  38
HETATM   38  N9  UNL     1      -3.706  -3.348   0.938  1.00  0.00    -0.024 N 
HETATM   39  O3  UNL     1      -2.929  -4.303   1.135  1.00  0.00    -0.516 OA
HETATM   40  O4  UNL     1      -5.043  -3.607   0.827  1.00  0.00    -0.516 OA
ENDBRANCH  36  38
ENDBRANCH  34  36
ENDBRANCH  25  27
ENDBRANCH   6  25
TORSDOF 9
