REMARK  8 active torsions:
REMARK  status: ('A' for Active; 'I' for Inactive)
REMARK    1  A    between atoms: N1_1  and  C1_4 
REMARK    2  A    between atoms: C4_12  and  C5_13 
REMARK    3  A    between atoms: C6_20  and  C7_21 
REMARK    4  A    between atoms: C7_21  and  N7_22 
REMARK    5  A    between atoms: N7_22  and  C8_24 
REMARK    6  A    between atoms: C9_27  and  N9_28 
REMARK    7  A    between atoms: N9_28  and  N10_29 
REMARK    8  A    between atoms: N10_29  and  N11_31 
ROOT
HETATM    1  C5  UNL     1      -1.957  -0.210  -1.399  1.00  0.00     0.149 A 
HETATM    2  N4  UNL     1      -1.867  -0.982  -2.496  1.00  0.00    -0.269 N 
ATOM      3  H4  UNL     1      -2.707  -1.465  -2.814  1.00  0.00     0.190 HD
HETATM    4  N5  UNL     1      -0.752  -1.151  -3.186  1.00  0.00    -0.240 N 
ATOM      5  H5  UNL     1      -0.733  -1.747  -4.013  1.00  0.00     0.208 HD
HETATM    6  N6  UNL     1       0.327  -0.532  -2.778  1.00  0.00    -0.273 N 
ATOM      7  H6  UNL     1       1.199  -0.648  -3.295  1.00  0.00     0.190 HD
HETATM    8  C6  UNL     1       0.304   0.254  -1.689  1.00  0.00     0.117 A 
HETATM    9  N15 UNL     1      -0.842   0.419  -0.992  1.00  0.00    -0.327 N 
ATOM     10  H15 UNL     1      -0.860   1.015  -0.165  1.00  0.00     0.169 HD
ENDROOT
BRANCH   8  11
HETATM   11  C7  UNL     1       1.569   0.914  -1.301  1.00  0.00     0.216 C 
BRANCH  11  12
HETATM   12  N7  UNL     1       2.306   0.070  -0.397  1.00  0.00    -0.218 N 
ATOM     13  H7  UNL     1       1.924  -0.836  -0.125  1.00  0.00     0.178 HD
BRANCH  12  14
HETATM   14  C8  UNL     1       3.571   0.493   0.122  1.00  0.00     0.692 A 
HETATM   15  N8  UNL     1       4.620  -0.197  -0.111  1.00  0.00    -0.187 N 
HETATM   16  C9  UNL     1       5.946   0.082   0.328  1.00  0.00     0.333 A 
ATOM     17  H8  UNL     1       4.495  -1.039  -0.672  1.00  0.00     0.181 HD
HETATM   18  N12 UNL     1       5.980   1.292   1.106  1.00  0.00    -0.282 N 
HETATM   19  N13 UNL     1       4.825   2.017   1.340  1.00  0.00    -0.230 N 
ATOM     20  H12 UNL     1       6.867   1.619   1.490  1.00  0.00     0.185 HD
HETATM   21  N14 UNL     1       3.696   1.678   0.902  1.00  0.00    -0.118 N 
ATOM     22  H13 UNL     1       4.893   2.870   1.896  1.00  0.00     0.208 HD
ATOM     23  H14 UNL     1       2.875   2.248   1.104  1.00  0.00     0.207 HD
BRANCH  16  24
HETATM   24  N9  UNL     1       6.527  -1.027   1.081  1.00  0.00    -0.072 NA
BRANCH  24  25
HETATM   25  N10 UNL     1       7.829  -0.600   1.444  1.00  0.00    -0.183 N 
ATOM     26  H10 UNL     1       7.989  -0.087   2.311  1.00  0.00     0.210 HD
BRANCH  25  27
HETATM   27  N11 UNL     1       8.891  -0.900   0.581  1.00  0.00    -0.027 N 
HETATM   28  O2  UNL     1       8.809  -1.901  -0.175  1.00  0.00    -0.516 OA
HETATM   29  O3  UNL     1      10.005  -0.097   0.573  1.00  0.00    -0.516 OA
ENDBRANCH  25  27
ENDBRANCH  24  25
ENDBRANCH  16  24
ENDBRANCH  12  14
ENDBRANCH  11  12
ENDBRANCH   8  11
BRANCH   1  30
HETATM   30  C4  UNL     1      -3.208  -0.047  -0.662  1.00  0.00     0.079 A 
HETATM   31  N3  UNL     1      -4.348  -0.654  -1.030  1.00  0.00    -0.347 N 
HETATM   32  C3  UNL     1      -5.510  -0.530  -0.382  1.00  0.00     0.129 A 
ATOM     33  H3  UNL     1      -4.325  -1.249  -1.858  1.00  0.00     0.166 HD
HETATM   34  C2  UNL     1      -6.671  -1.165  -0.778  1.00  0.00     0.288 A 
HETATM   35  C12 UNL     1      -5.593   0.267   0.747  1.00  0.00     0.081 A 
HETATM   36  N2  UNL     1      -7.841  -1.041  -0.129  1.00  0.00    -0.154 N 
HETATM   37  O1  UNL     1      -6.634  -1.906  -1.812  1.00  0.00    -0.265 OA
HETATM   38  C1  UNL     1      -7.875  -0.263   0.954  1.00  0.00     0.679 A 
ATOM     39  H2  UNL     1      -8.677  -1.527  -0.454  1.00  0.00     0.187 HD
HETATM   40  N16 UNL     1      -6.771   0.380   1.384  1.00  0.00    -0.190 N 
ATOM     41  H16 UNL     1      -6.831   0.968   2.215  1.00  0.00     0.184 HD
HETATM   42  C11 UNL     1      -4.443   0.911   1.160  1.00  0.00     0.035 A 
HETATM   43  C10 UNL     1      -3.244   0.756   0.456  1.00  0.00     0.036 A 
BRANCH  38  44
HETATM   44  N1  UNL     1      -8.980  -0.111   1.616  1.00  0.00    -0.234 N 
ATOM     45  H12 UNL     1      -9.815  -0.598   1.291  1.00  0.00     0.174 HD
ATOM     46  H11 UNL     1      -9.006   0.484   2.444  1.00  0.00     0.174 HD
ENDBRANCH  38  44
ENDBRANCH   1  30
TORSDOF 8
