REMARK  10 active torsions:
REMARK  status: ('A' for Active; 'I' for Inactive)
REMARK    1  A    between atoms: N2_4  and  N3_6 
REMARK    2  A    between atoms: N3_6  and  C1_8 
REMARK    3  A    between atoms: C1_8  and  C2_13 
REMARK    4  A    between atoms: N4_9  and  O1_11 
REMARK    5  A    between atoms: C2_13  and  S1_15 
REMARK    6  A    between atoms: S1_15  and  C3_16 
REMARK    7  A    between atoms: N5_18  and  C5_19 
REMARK    8  A    between atoms: C7_26  and  N8_27 
REMARK    9  A    between atoms: C8_34  and  N11_35 
REMARK       I    between atoms: N11_35  and  C9_37 
REMARK       I    between atoms: C9_37  and  N12_38 
REMARK       I    between atoms: C9_37  and  N13_42 
REMARK   10  A    between atoms: C11_47  and  O5_48 
ROOT
HETATM    1  C3  UNL     1       1.242   0.273   1.183  1.00  0.00     0.058 A 
HETATM    2  C4  UNL     1       0.373  -0.650   0.639  1.00  0.00     0.138 A 
HETATM    3  N5  UNL     1      -0.847  -0.267   0.191  1.00  0.00    -0.140 N 
HETATM    4  C8  UNL     1      -1.215   1.036   0.279  1.00  0.00     0.129 A 
HETATM    5  C10 UNL     1      -0.381   1.985   0.813  1.00  0.00     0.087 A 
HETATM    6  C11 UNL     1       0.863   1.604   1.272  1.00  0.00     0.087 A 
ENDROOT
BRANCH   1   7
HETATM    7  S1  UNL     1       2.832  -0.241   1.765  1.00  0.00    -0.040 SA
BRANCH   7   8
HETATM    8  C2  UNL     1       4.069  -0.146   0.482  1.00  0.00     0.260 C 
HETATM    9  O2  UNL     1       3.735   0.252  -0.654  1.00  0.00    -0.276 OA
BRANCH   8  10
HETATM   10  C1  UNL     1       5.440  -0.534   0.782  1.00  0.00     0.199 C 
HETATM   11  N4  UNL     1       5.769  -0.941   1.951  1.00  0.00    -0.248 N 
ATOM     12  H4  UNL     1       5.065  -0.997   2.687  1.00  0.00     0.196 HD
BRANCH  10  13
HETATM   13  N3  UNL     1       6.408  -0.451  -0.250  1.00  0.00    -0.266 N 
ATOM     14  H3  UNL     1       6.444  -1.036  -1.085  1.00  0.00     0.190 HD
BRANCH  13  15
HETATM   15  N2  UNL     1       7.289   0.554   0.069  1.00  0.00    -0.248 N 
HETATM   16  N1  UNL     1       7.014   1.550   0.751  1.00  0.00    -0.331 N 
ATOM     17  H12 UNL     1       6.056   1.614   1.095  1.00  0.00     0.178 HD
ATOM     18  H11 UNL     1       7.668   2.296   0.988  1.00  0.00     0.178 HD
ATOM     19  H2  UNL     1       8.243   0.473  -0.283  1.00  0.00     0.207 HD
ENDBRANCH  13  15
ENDBRANCH  10  13
BRANCH  11  20
HETATM   20  O1  UNL     1       7.059  -1.300   2.215  1.00  0.00    -0.288 OA
ATOM     21  H1  UNL     1       7.303  -1.602   3.082  1.00  0.00     0.244 HD
ENDBRANCH  11  20
ENDBRANCH   8  10
ENDBRANCH   7   8
ENDBRANCH   1   7
BRANCH   6  22
HETATM   22  O5  UNL     1       1.695   2.575   1.810  1.00  0.00    -0.359 OA
ATOM     23  H5  UNL     1       1.435   3.487   1.871  1.00  0.00     0.217 HD
ENDBRANCH   6  22
BRANCH   3  24
HETATM   24  C5  UNL     1      -1.725  -1.237  -0.367  1.00  0.00     0.706 A 
HETATM   25  N6  UNL     1      -3.049  -1.117  -0.214  1.00  0.00    -0.171 N 
HETATM   26  C6  UNL     1      -3.943  -2.020  -0.731  1.00  0.00     0.167 A 
ATOM     27  H6  UNL     1      -3.409  -0.319   0.310  1.00  0.00     0.186 HD
HETATM   28  N7  UNL     1      -5.194  -1.863  -0.550  1.00  0.00    -0.382 N 
HETATM   29  C7  UNL     1      -3.443  -3.072  -1.423  1.00  0.00     0.233 A 
ATOM     30  H72 UNL     1      -5.570  -1.071  -0.029  1.00  0.00     0.157 HD
ATOM     31  H71 UNL     1      -5.859  -2.534  -0.934  1.00  0.00     0.157 HD
HETATM   32  N9  UNL     1      -2.096  -3.158  -1.556  1.00  0.00    -0.263 N 
HETATM   33  N10 UNL     1      -1.255  -2.276  -1.049  1.00  0.00    -0.130 N 
ATOM     34  H9  UNL     1      -1.712  -3.947  -2.076  1.00  0.00     0.189 HD
ATOM     35  H10 UNL     1      -0.250  -2.391  -1.180  1.00  0.00     0.205 HD
BRANCH  29  36
HETATM   36  N8  UNL     1      -4.198  -4.100  -2.024  1.00  0.00    -0.092 N 
HETATM   37  O3  UNL     1      -5.319  -3.985  -2.532  1.00  0.00    -0.530 OA
HETATM   38  O4  UNL     1      -3.661  -5.389  -2.089  1.00  0.00    -0.530 OA
ENDBRANCH  29  36
ENDBRANCH   3  24
BRANCH   4  39
HETATM   39  N11 UNL     1      -2.367   1.312  -0.158  1.00  0.00    -0.326 N 
HETATM   40  C9  UNL     1      -3.052   2.555  -0.216  1.00  0.00     0.481 C 
HETATM   41  N12 UNL     1      -3.255   3.048   1.127  1.00  0.00    -0.033 N 
HETATM   42  N13 UNL     1      -2.353   3.554  -1.011  1.00  0.00    -0.033 N 
ATOM     43 3H12 UNL     1      -3.733   2.370   1.721  1.00  0.00     0.278 HD
ATOM     44 2H12 UNL     1      -2.383   3.110   1.653  1.00  0.00     0.278 HD
ATOM     45 1H12 UNL     1      -3.747   3.941   1.085  1.00  0.00     0.278 HD
ATOM     46 3H13 UNL     1      -1.397   3.680  -0.678  1.00  0.00     0.278 HD
ATOM     47 2H13 UNL     1      -2.158   3.202  -1.948  1.00  0.00     0.278 HD
ATOM     48 1H13 UNL     1      -2.845   4.447  -1.053  1.00  0.00     0.278 HD
ATOM     49  H11 UNL     1      -2.888   0.517  -0.528  1.00  0.00     0.164 HD
ENDBRANCH   4  39
TORSDOF 10
