REMARK  9 active torsions:
REMARK  status: ('A' for Active; 'I' for Inactive)
REMARK    1  A    between atoms: C5_5  and  C6_6 
REMARK    2  A    between atoms: C6_6  and  C7_7 
REMARK    3  A    between atoms: C7_7  and  N1_8 
REMARK    4  A    between atoms: N1_8  and  C8_10 
REMARK    5  A    between atoms: C10_12  and  C11_13 
REMARK    6  A    between atoms: C11_13  and  O1_16 
REMARK    7  A    between atoms: N3_20  and  C14_21 
REMARK    8  A    between atoms: C16_23  and  C17_24 
REMARK    9  A    between atoms: C17_24  and  N4_25 
ROOT
HETATM    1  C8  UNL     1       0.977  -1.586  -0.358  1.00  0.00     0.125 A 
HETATM    2  C9  UNL     1       2.069  -2.420  -0.416  1.00  0.00     0.079 A 
HETATM    3  C10 UNL     1       1.640  -3.706  -0.657  1.00  0.00     0.063 A 
HETATM    4  N2  UNL     1       0.302  -3.608  -0.737  1.00  0.00    -0.293 N 
ATOM      5  H2  UNL     1      -0.323  -4.395  -0.910  1.00  0.00     0.187 HD
HETATM    6  N3  UNL     1      -0.099  -2.366  -0.564  1.00  0.00    -0.238 N 
ENDROOT
BRANCH   6   7
HETATM    7  C14 UNL     1      -1.440  -1.909  -0.593  1.00  0.00     0.080 A 
HETATM    8  C15 UNL     1      -1.948  -1.124   0.424  1.00  0.00     0.042 A 
HETATM    9  C16 UNL     1      -3.260  -0.672   0.410  1.00  0.00    -0.037 A 
HETATM   10  C25 UNL     1      -4.031  -1.046  -0.667  1.00  0.00     0.011 A 
HETATM   11  C26 UNL     1      -3.522  -1.841  -1.694  1.00  0.00     0.027 A 
HETATM   12  C27 UNL     1      -2.218  -2.281  -1.666  1.00  0.00     0.062 A 
HETATM   13 CL1  UNL     1      -1.570  -3.287  -2.972  1.00  0.00    -0.082 Cl
BRANCH   9  14
HETATM   14  C17 UNL     1      -3.787   0.182   1.500  1.00  0.00     0.172 C 
BRANCH  14  15
HETATM   15  N4  UNL     1      -5.029   0.778   1.137  1.00  0.00    -0.293 N 
HETATM   16  C18 UNL     1      -6.241   0.215   1.397  1.00  0.00     0.328 A 
HETATM   17  O2  UNL     1      -6.427  -0.868   1.985  1.00  0.00    -0.246 OA
HETATM   18  N5  UNL     1      -7.207   1.003   0.925  1.00  0.00    -0.306 N 
HETATM   19  C19 UNL     1      -6.607   2.069   0.366  1.00  0.00     0.063 A 
ATOM     20  H5  UNL     1      -8.211   0.830   0.978  1.00  0.00     0.171 HD
HETATM   21  C20 UNL     1      -7.112   3.185  -0.264  1.00  0.00     0.032 A 
HETATM   22  C24 UNL     1      -5.216   1.935   0.497  1.00  0.00     0.066 A 
HETATM   23  C21 UNL     1      -6.276   4.148  -0.754  1.00  0.00     0.002 A 
HETATM   24  C22 UNL     1      -4.903   4.025  -0.630  1.00  0.00     0.002 A 
HETATM   25  C23 UNL     1      -4.377   2.913  -0.001  1.00  0.00     0.032 A 
ENDBRANCH  14  15
ENDBRANCH   9  14
ENDBRANCH   6   7
BRANCH   1  26
HETATM   26  N1  UNL     1       0.981  -0.292  -0.150  1.00  0.00    -0.374 N 
ATOM     27  H1  UNL     1       0.109   0.236  -0.125  1.00  0.00     0.161 HD
BRANCH  26  28
HETATM   28  C7  UNL     1       2.242   0.364   0.042  1.00  0.00     0.126 C 
BRANCH  28  29
HETATM   29  C6  UNL     1       2.088   1.869   0.111  1.00  0.00     0.058 C 
BRANCH  29  30
HETATM   30  C5  UNL     1       3.384   2.558   0.292  1.00  0.00    -0.057 A 
HETATM   31  C4  UNL     1       3.954   2.863   1.503  1.00  0.00     0.007 A 
HETATM   32  C3  UNL     1       5.172   3.514   1.608  1.00  0.00     0.007 A 
HETATM   33  C2  UNL     1       5.869   3.888   0.482  1.00  0.00    -0.062 A 
HETATM   34  C1  UNL     1       7.176   4.592   0.603  1.00  0.00     0.048 C 
HETATM   35  C29 UNL     1       5.306   3.589  -0.738  1.00  0.00     0.007 A 
HETATM   36  C28 UNL     1       4.098   2.942  -0.846  1.00  0.00     0.007 A 
ENDBRANCH  29  30
ENDBRANCH  28  29
ENDBRANCH  26  28
ENDBRANCH   1  26
BRANCH   3  37
HETATM   37  C11 UNL     1       2.445  -4.947  -0.812  1.00  0.00     0.094 C 
HETATM   38  C12 UNL     1       3.872  -4.611  -1.167  1.00  0.00     0.052 C 
HETATM   39  C13 UNL     1       2.405  -5.712   0.489  1.00  0.00     0.052 C 
BRANCH  37  40
HETATM   40  O1  UNL     1       1.907  -5.745  -1.801  1.00  0.00    -0.384 OA
ATOM     41  H1  UNL     1       2.421  -6.538  -1.900  1.00  0.00     0.211 HD
ENDBRANCH  37  40
ENDBRANCH   3  37
TORSDOF 9
