REMARK  9 active torsions:
REMARK  status: ('A' for Active; 'I' for Inactive)
REMARK    1  A    between atoms: C4_5  and  C5_6 
REMARK    2  A    between atoms: C5_6  and  N1_7 
REMARK    3  A    between atoms: N1_7  and  C6_9 
REMARK    4  A    between atoms: C12_17  and  N3_18 
REMARK    5  A    between atoms: N3_18  and  C13_20 
REMARK    6  A    between atoms: C13_20  and  C14_21 
REMARK    7  A    between atoms: C14_21  and  N4_22 
REMARK    8  A    between atoms: N4_22  and  C15_23 
REMARK    9  A    between atoms: C16_26  and  C17_27 
ROOT
HETATM    1  N3  UNL     1       0.581  -0.519  -0.690  1.00  0.00    -0.383 N 
ATOM      2  H3  UNL     1       0.874  -0.253   0.250  1.00  0.00     0.160 HD
ENDROOT
BRANCH   1   3
HETATM    3  C12 UNL     1       1.466  -0.976  -1.480  1.00  0.00     0.042 A 
HETATM    4  C11 UNL     1       1.177  -1.362  -2.767  1.00  0.00     0.047 A 
HETATM    5  C10 UNL     1       2.192  -1.848  -3.566  1.00  0.00     0.090 A 
HETATM    6  N2  UNL     1       3.463  -1.954  -3.116  1.00  0.00    -0.365 N 
HETATM    7  C9  UNL     1       3.739  -1.573  -1.854  1.00  0.00     0.044 A 
ATOM      8  H2  UNL     1       4.200  -2.316  -3.722  1.00  0.00     0.165 HD
HETATM    9  C8  UNL     1       5.038  -1.671  -1.364  1.00  0.00     0.033 A 
HETATM   10  C28 UNL     1       2.768  -1.081  -1.011  1.00  0.00     0.019 A 
HETATM   11  C7  UNL     1       5.339  -1.286  -0.075  1.00  0.00     0.031 A 
HETATM   12  C6  UNL     1       4.361  -0.788   0.779  1.00  0.00     0.029 A 
HETATM   13  C29 UNL     1       3.077  -0.693   0.294  1.00  0.00     0.045 A 
BRANCH  12  14
HETATM   14  N1  UNL     1       4.682  -0.386   2.109  1.00  0.00    -0.386 N 
ATOM     15  H1  UNL     1       3.917  -0.110   2.725  1.00  0.00     0.160 HD
BRANCH  14  16
HETATM   16  C5  UNL     1       6.010  -0.348   2.628  1.00  0.00     0.158 C 
BRANCH  16  17
HETATM   17  C4  UNL     1       6.911   0.613   1.985  1.00  0.00    -0.040 A 
HETATM   18  C3  UNL     1       8.267   0.513   2.186  1.00  0.00     0.012 A 
HETATM   19  C2  UNL     1       9.124   1.422   1.589  1.00  0.00     0.043 A 
HETATM   20  C1  UNL     1       8.615   2.428   0.792  1.00  0.00     0.116 A 
HETATM   21  F1  UNL     1       9.444   3.311   0.212  1.00  0.00    -0.206 F 
HETATM   22  C31 UNL     1       7.240   2.527   0.590  1.00  0.00     0.043 A 
HETATM   23  C30 UNL     1       6.405   1.612   1.194  1.00  0.00     0.012 A 
ENDBRANCH  16  17
ENDBRANCH  14  16
ENDBRANCH  12  14
ENDBRANCH   1   3
BRANCH   1  24
HETATM   24  C13 UNL     1      -0.815  -0.351  -1.036  1.00  0.00     0.179 C 
BRANCH  24  25
HETATM   25  C14 UNL     1      -1.561  -0.149   0.279  1.00  0.00     0.177 C 
BRANCH  25  26
HETATM   26  N4  UNL     1      -2.884   0.031   0.221  1.00  0.00    -0.401 NA
BRANCH  26  27
HETATM   27  C15 UNL     1      -4.078  -0.051   0.136  1.00  0.00     0.192 A 
HETATM   28  N5  UNL     1      -4.874   1.074   0.236  1.00  0.00    -0.316 N 
HETATM   29  C16 UNL     1      -6.197   1.067   0.153  1.00  0.00     0.118 A 
ATOM     30  H5  UNL     1      -4.412   1.971   0.384  1.00  0.00     0.170 HD
HETATM   31  N7  UNL     1      -6.780  -0.154  -0.046  1.00  0.00    -0.341 N 
HETATM   32  C22 UNL     1      -6.074  -1.288  -0.153  1.00  0.00     0.048 A 
ATOM     33  H7  UNL     1      -7.796  -0.204  -0.116  1.00  0.00     0.167 HD
HETATM   34  C23 UNL     1      -6.698  -2.516  -0.355  1.00  0.00     0.030 A 
HETATM   35  C27 UNL     1      -4.704  -1.282  -0.067  1.00  0.00     0.049 A 
HETATM   36  C24 UNL     1      -6.000  -3.704  -0.469  1.00  0.00     0.002 A 
HETATM   37  C25 UNL     1      -4.626  -3.677  -0.381  1.00  0.00     0.001 A 
HETATM   38  C26 UNL     1      -3.993  -2.469  -0.181  1.00  0.00     0.018 A 
BRANCH  29  39
HETATM   39  C17 UNL     1      -7.049   2.244   0.257  1.00  0.00     0.011 A 
HETATM   40  C18 UNL     1      -8.421   2.159   0.160  1.00  0.00     0.032 A 
HETATM   41  C19 UNL     1      -9.233   3.279   0.258  1.00  0.00     0.088 A 
HETATM   42  N6  UNL     1      -8.651   4.473   0.454  1.00  0.00    -0.375 N 
HETATM   43  C20 UNL     1      -7.322   4.620   0.556  1.00  0.00     0.088 A 
ATOM     44  H6  UNL     1      -9.243   5.300   0.528  1.00  0.00     0.164 HD
HETATM   45  C21 UNL     1      -6.499   3.482   0.456  1.00  0.00     0.032 A 
ENDBRANCH  29  39
ENDBRANCH  26  27
ENDBRANCH  25  26
ENDBRANCH  24  25
ENDBRANCH   1  24
TORSDOF 9
