REMARK  9 active torsions:
REMARK  status: ('A' for Active; 'I' for Inactive)
REMARK    1  A    between atoms: C4_4  and  C5_5 
REMARK    2  A    between atoms: C8_8  and  C9_9 
REMARK    3  A    between atoms: C9_9  and  C10_10 
REMARK    4  A    between atoms: C10_10  and  C13_13 
REMARK    5  A    between atoms: C13_13  and  O1_14 
REMARK    6  A    between atoms: C17_19  and  O2_20 
REMARK    7  A    between atoms: C21_28  and  N3_29 
REMARK    8  A    between atoms: C22_32  and  C23_33 
REMARK    9  A    between atoms: C23_33  and  C24_34 
ROOT
HETATM    1  C1  UNL     1       1.080   2.130   1.089  1.00  0.00     0.018 C 
HETATM    2  C2  UNL     1       1.314   0.964   0.848  1.00  0.00    -0.074 C 
HETATM    3  C3  UNL     1       1.490  -0.413   0.528  1.00  0.00     0.058 A 
HETATM    4  C4  UNL     1       0.346  -1.142   0.159  1.00  0.00     0.030 A 
HETATM    5  C17 UNL     1       0.361  -2.464  -0.187  1.00  0.00     0.097 A 
HETATM    6  C19 UNL     1       1.587  -3.084  -0.161  1.00  0.00     0.139 A 
HETATM    7  N1  UNL     1       2.720  -2.411   0.192  1.00  0.00    -0.270 N 
HETATM    8  C20 UNL     1       3.869  -3.098   0.195  1.00  0.00     0.332 A 
HETATM    9  O3  UNL     1       3.817  -4.328  -0.138  1.00  0.00    -0.246 OA
HETATM   10  N2  UNL     1       5.015  -2.526   0.530  1.00  0.00    -0.294 N 
ATOM     11  H2  UNL     1       5.886  -3.057   0.530  1.00  0.00     0.172 HD
HETATM   12  C21 UNL     1       5.000  -1.247   0.865  1.00  0.00     0.111 A 
HETATM   13  C22 UNL     1       3.843  -0.426   0.896  1.00  0.00     0.019 A 
HETATM   14  C30 UNL     1       2.683  -1.068   0.540  1.00  0.00     0.073 A 
ENDROOT
BRANCH   4  15
HETATM   15  C5  UNL     1      -0.922  -0.467   0.141  1.00  0.00    -0.016 A 
HETATM   16  C6  UNL     1      -1.661  -0.486   1.332  1.00  0.00     0.013 A 
HETATM   17  C7  UNL     1      -2.887   0.141   1.391  1.00  0.00     0.008 A 
HETATM   18  C8  UNL     1      -3.412   0.799   0.286  1.00  0.00    -0.057 A 
HETATM   19  C14 UNL     1      -2.653   0.791  -0.853  1.00  0.00     0.014 A 
HETATM   20  C15 UNL     1      -1.430   0.181  -0.959  1.00  0.00    -0.050 A 
HETATM   21  C16 UNL     1      -0.640   0.200  -2.226  1.00  0.00     0.049 C 
BRANCH  18  22
HETATM   22  C9  UNL     1      -4.722   1.438   0.441  1.00  0.00     0.049 C 
BRANCH  22  23
HETATM   23  C10 UNL     1      -5.863   0.515   0.100  1.00  0.00    -0.022 C 
HETATM   24  C11 UNL     1      -5.833  -0.684   0.998  1.00  0.00     0.017 C 
HETATM   25  C12 UNL     1      -7.154   1.261   0.380  1.00  0.00     0.017 C 
BRANCH  23  26
HETATM   26  C13 UNL     1      -5.837   0.165  -1.363  1.00  0.00     0.173 C 
BRANCH  26  27
HETATM   27  O1  UNL     1      -5.958   1.359  -2.079  1.00  0.00    -0.400 OA
ATOM     28  H1  UNL     1      -5.942   1.138  -3.003  1.00  0.00     0.209 HD
ENDBRANCH  26  27
ENDBRANCH  23  26
ENDBRANCH  22  23
ENDBRANCH  18  22
ENDBRANCH   4  15
BRANCH   5  29
HETATM   29  O2  UNL     1      -0.786  -3.152  -0.546  1.00  0.00    -0.354 OA
HETATM   30  C18 UNL     1      -0.763  -4.526  -0.904  1.00  0.00     0.210 C 
ENDBRANCH   5  29
BRANCH  13  31
HETATM   31  C23 UNL     1       3.955   0.947   1.310  1.00  0.00     0.083 C 
BRANCH  31  32
HETATM   32  C24 UNL     1       4.719   1.835   0.398  1.00  0.00    -0.054 A 
HETATM   33  C25 UNL     1       4.391   1.982  -0.914  1.00  0.00     0.009 A 
HETATM   34  C26 UNL     1       5.084   2.828  -1.753  1.00  0.00     0.024 A 
HETATM   35  C27 UNL     1       6.167   3.579  -1.282  1.00  0.00     0.034 A 
HETATM   36 CL1  UNL     1       7.060   4.660  -2.335  1.00  0.00    -0.084 Cl
HETATM   37  C28 UNL     1       6.512   3.442   0.042  1.00  0.00     0.024 A 
HETATM   38  C29 UNL     1       5.782   2.571   0.865  1.00  0.00     0.009 A 
ENDBRANCH  31  32
ENDBRANCH  13  31
BRANCH  12  39
HETATM   39  N3  UNL     1       6.103  -0.621   1.195  1.00  0.00    -0.385 N 
ATOM     40  H32 UNL     1       6.935  -1.211   1.173  1.00  0.00     0.157 HD
ATOM     41  H31 UNL     1       6.091   0.366   1.453  1.00  0.00     0.157 HD
ENDBRANCH  12  39
TORSDOF 9
