REMARK  7 active torsions:
REMARK  status: ('A' for Active; 'I' for Inactive)
REMARK    1  A    between atoms: C1_2  and  C2_3 
REMARK       I    between atoms: C1_2  and  N2_10 
REMARK    2  A    between atoms: C2_3  and  C3_4 
REMARK    3  A    between atoms: N2_10  and  C7_12 
REMARK    4  A    between atoms: C10_15  and  C11_16 
REMARK    5  A    between atoms: C11_16  and  N3_17 
REMARK    6  A    between atoms: N7_30  and  C17_31 
REMARK    7  A    between atoms: C17_31  and  C18_32 
ROOT
HETATM    1  N3  UNL     1       0.011  -0.187  -1.316  1.00  0.00    -0.349 N 
ATOM      2  H3  UNL     1      -0.479  -0.764  -2.000  1.00  0.00     0.166 HD
HETATM    3  C12 UNL     1       0.986  -0.771  -0.820  1.00  0.00     0.137 A 
HETATM    4  N4  UNL     1       1.244  -2.043  -1.247  1.00  0.00    -0.337 N 
ATOM      5  H4  UNL     1       0.642  -2.475  -1.948  1.00  0.00     0.168 HD
HETATM    6  C13 UNL     1       2.287  -2.727  -0.747  1.00  0.00     0.183 A 
HETATM    7  N5  UNL     1       3.108  -2.211   0.174  1.00  0.00    -0.336 N 
ATOM      8  H5  UNL     1       3.889  -2.764   0.528  1.00  0.00     0.168 HD
HETATM    9  C14 UNL     1       2.908  -0.976   0.630  1.00  0.00     0.140 A 
HETATM   10  C15 UNL     1       1.829  -0.251   0.121  1.00  0.00     0.122 A 
HETATM   11  N6  UNL     1       1.880   0.921   0.748  1.00  0.00    -0.346 N 
ATOM     12  H6  UNL     1       1.220   1.684   0.596  1.00  0.00     0.167 HD
HETATM   13  C16 UNL     1       2.895   0.971   1.593  1.00  0.00     0.185 A 
HETATM   14  N7  UNL     1       3.550  -0.192   1.541  1.00  0.00    -0.323 N 
ENDROOT
BRANCH   1  15
HETATM   15  C11 UNL     1      -0.582   1.080  -1.163  1.00  0.00     0.101 C 
BRANCH  15  16
HETATM   16  C10 UNL     1      -1.968   0.887  -0.598  1.00  0.00    -0.021 A 
HETATM   17  C9  UNL     1      -2.201   0.835   0.756  1.00  0.00     0.015 A 
HETATM   18  C8  UNL     1      -3.473   0.658   1.248  1.00  0.00     0.030 A 
HETATM   19  C7  UNL     1      -4.596   0.522   0.408  1.00  0.00     0.034 A 
HETATM   20  C29 UNL     1      -4.346   0.575  -0.936  1.00  0.00     0.030 A 
HETATM   21  C28 UNL     1      -3.043   0.757  -1.441  1.00  0.00     0.015 A 
BRANCH  19  22
HETATM   22  N2  UNL     1      -5.866   0.327   0.994  1.00  0.00    -0.327 N 
HETATM   23  C1  UNL     1      -7.102   0.408   0.330  1.00  0.00     0.227 C 
HETATM   24  O1  UNL     1      -7.267   0.669  -0.876  1.00  0.00    -0.273 OA
ATOM     25  H2  UNL     1      -5.888   0.107   1.990  1.00  0.00     0.169 HD
BRANCH  23  26
HETATM   26  C2  UNL     1      -8.358   0.158   1.144  1.00  0.00     0.159 C 
BRANCH  26  27
HETATM   27  C3  UNL     1      -9.518   0.300   0.235  1.00  0.00     0.017 A 
HETATM   28  C4  UNL     1     -10.229   1.479  -0.012  1.00  0.00     0.027 A 
HETATM   29  C5  UNL     1     -11.215   1.160  -0.910  1.00  0.00     0.019 A 
HETATM   30  C6  UNL     1     -11.130  -0.180  -1.220  1.00  0.00     0.088 A 
HETATM   31  N1  UNL     1     -10.097  -0.664  -0.512  1.00  0.00    -0.369 N 
ATOM     32  H1  UNL     1      -9.789  -1.636  -0.536  1.00  0.00     0.165 HD
ENDBRANCH  26  27
ENDBRANCH  23  26
ENDBRANCH  19  22
ENDBRANCH  15  16
ENDBRANCH   1  15
BRANCH  14  33
HETATM   33  C17 UNL     1       4.721  -0.573   2.295  1.00  0.00     0.170 C 
BRANCH  33  34
HETATM   34  C18 UNL     1       5.982  -0.214   1.567  1.00  0.00    -0.039 A 
HETATM   35  C19 UNL     1       6.596   1.011   1.723  1.00  0.00     0.010 A 
HETATM   36  C20 UNL     1       7.755   1.327   1.046  1.00  0.00     0.013 A 
HETATM   37  C21 UNL     1       8.350   0.432   0.184  1.00  0.00    -0.026 A 
HETATM   38  C22 UNL     1       9.516   0.746  -0.500  1.00  0.00     0.015 A 
HETATM   39  C26 UNL     1       7.746  -0.796   0.019  1.00  0.00    -0.022 A 
HETATM   40  C23 UNL     1      10.105  -0.150  -1.358  1.00  0.00     0.043 A 
HETATM   41  C24 UNL     1       9.506  -1.381  -1.528  1.00  0.00     0.117 A 
HETATM   42  F1  UNL     1      10.106  -2.251  -2.382  1.00  0.00    -0.206 F 
HETATM   43  C25 UNL     1       8.344  -1.689  -0.844  1.00  0.00     0.054 A 
HETATM   44  C27 UNL     1       6.583  -1.109   0.701  1.00  0.00     0.021 A 
ENDBRANCH  33  34
ENDBRANCH  14  33
TORSDOF 7
