REMARK  10 active torsions:
REMARK  status: ('A' for Active; 'I' for Inactive)
REMARK    1  A    between atoms: C2_2  and  C3_3 
REMARK    2  A    between atoms: C9_9  and  O1_10 
REMARK    3  A    between atoms: C10_12  and  O2_13 
REMARK    4  A    between atoms: C19_23  and  O3_24 
REMARK    5  A    between atoms: C20_26  and  C21_27 
REMARK    6  A    between atoms: C21_27  and  C23_29 
REMARK    7  A    between atoms: C23_29  and  C24_30 
REMARK    8  A    between atoms: C24_30  and  C25_31 
REMARK    9  A    between atoms: C25_31  and  C26_33 
REMARK   10  A    between atoms: C26_33  and  C27_34 
ROOT
HETATM    1  C3  UNL     1      -0.702  -1.721   0.480  1.00  0.00     0.246 C 
HETATM    2  C4  UNL     1      -1.701  -2.339  -0.470  1.00  0.00     0.040 C 
HETATM    3  C5  UNL     1      -3.038  -1.691  -0.439  1.00  0.00     0.008 C 
HETATM    4  C6  UNL     1      -3.021  -0.253  -0.845  1.00  0.00    -0.003 C 
HETATM    5  C7  UNL     1      -4.434   0.243  -1.003  1.00  0.00     0.003 C 
HETATM    6  C8  UNL     1      -4.593   1.304  -2.059  1.00  0.00     0.040 C 
HETATM    7  C9  UNL     1      -5.202   2.477  -1.316  1.00  0.00     0.148 C 
HETATM    8  C10 UNL     1      -6.085   1.753  -0.304  1.00  0.00     0.155 C 
HETATM    9  C11 UNL     1      -5.094   0.710   0.231  1.00  0.00    -0.011 C 
HETATM   10  C12 UNL     1      -5.903  -0.366   0.931  1.00  0.00     0.018 C 
HETATM   11  C13 UNL     1      -4.241   1.389   1.237  1.00  0.00     0.012 C 
HETATM   12  C14 UNL     1      -2.889   0.648   1.390  1.00  0.00     0.008 C 
HETATM   13  C15 UNL     1      -2.246   0.655   0.064  1.00  0.00     0.029 C 
HETATM   14  C16 UNL     1      -0.779   0.621  -0.084  1.00  0.00     0.164 C 
HETATM   15  C17 UNL     1      -0.443   1.339  -1.382  1.00  0.00     0.049 C 
HETATM   16  C18 UNL     1      -0.085   1.318   1.027  1.00  0.00     0.075 C 
HETATM   17  C19 UNL     1       1.401   0.887   0.941  1.00  0.00     0.154 C 
HETATM   18  C20 UNL     1       1.293  -0.377   0.146  1.00  0.00     0.257 C 
HETATM   19  N1  UNL     1      -0.094  -0.626  -0.152  1.00  0.00     0.114 N 
ENDROOT
BRANCH  18  20
HETATM   20  C21 UNL     1       2.240  -0.349  -0.979  1.00  0.00     0.018 C 
HETATM   21  C22 UNL     1       2.146  -1.588  -1.876  1.00  0.00     0.012 C 
BRANCH  20  22
HETATM   22  C23 UNL     1       3.674  -0.242  -0.477  1.00  0.00     0.014 C 
BRANCH  22  23
HETATM   23  C24 UNL     1       4.114  -1.361   0.401  1.00  0.00     0.079 C 
BRANCH  23  24
HETATM   24  C25 UNL     1       5.529  -1.153   0.792  1.00  0.00     0.132 C 
HETATM   25  O4  UNL     1       6.076  -1.971   1.495  1.00  0.00    -0.298 OA
BRANCH  24  26
HETATM   26  C26 UNL     1       6.275   0.034   0.338  1.00  0.00     0.129 C 
BRANCH  26  27
HETATM   27  C27 UNL     1       7.674   0.044   0.829  1.00  0.00     0.014 C 
HETATM   28 CL1  UNL     1       8.000   0.043   2.549  1.00  0.00    -0.089 Cl
HETATM   29  C28 UNL     1       8.661   0.054  -0.026  1.00  0.00    -0.011 C 
HETATM   30  C29 UNL     1      10.097   0.065   0.403  1.00  0.00     0.037 C 
ENDBRANCH  26  27
ENDBRANCH  24  26
ENDBRANCH  23  24
ENDBRANCH  22  23
ENDBRANCH  20  22
ENDBRANCH  18  20
BRANCH  17  31
HETATM   31  O3  UNL     1       2.038   1.939   0.341  1.00  0.00    -0.393 OA
ATOM     32  H3  UNL     1       2.949   1.675   0.288  1.00  0.00     0.210 HD
ENDBRANCH  17  31
BRANCH   1  33
HETATM   33  C2  UNL     1       0.211  -2.818   0.880  1.00  0.00    -0.002 C 
HETATM   34  C1  UNL     1       0.461  -3.131   2.149  1.00  0.00     0.009 C 
ENDBRANCH   1  33
BRANCH   7  35
HETATM   35  O1  UNL     1      -5.955   3.212  -2.205  1.00  0.00    -0.393 OA
ATOM     36  H1  UNL     1      -6.337   3.947  -1.739  1.00  0.00     0.210 HD
ENDBRANCH   7  35
BRANCH   8  37
HETATM   37  O2  UNL     1      -7.147   1.155  -0.936  1.00  0.00    -0.392 OA
ATOM     38  H2  UNL     1      -7.697   0.704  -0.306  1.00  0.00     0.210 HD
ENDBRANCH   8  37
TORSDOF 10
