REMARK  9 active torsions:
REMARK  status: ('A' for Active; 'I' for Inactive)
REMARK    1  A    between atoms: C2_2  and  C3_3 
REMARK    2  A    between atoms: C5_5  and  C6_6 
REMARK    3  A    between atoms: C10_11  and  O2_12 
REMARK    4  A    between atoms: O2_12  and  C11_13 
REMARK    5  A    between atoms: C11_13  and  C12_15 
REMARK    6  A    between atoms: C12_15  and  C13_16 
REMARK    7  A    between atoms: C12_15  and  C14_18 
REMARK    8  A    between atoms: C14_18  and  O4_20 
REMARK    9  A    between atoms: C24_30  and  O5_31 
ROOT
HETATM    1  C6  UNL     1      -0.263   2.075   0.289  1.00  0.00     0.094 C 
HETATM    2  O1  UNL     1      -1.417   2.497   0.939  1.00  0.00    -0.362 OA
HETATM    3  C7  UNL     1      -2.187   1.459   1.361  1.00  0.00     0.083 C 
HETATM    4  C8  UNL     1      -2.525   1.676   2.831  1.00  0.00     0.048 C 
HETATM    5  C9  UNL     1      -3.554   1.515   0.713  1.00  0.00     0.048 C 
HETATM    6  C10 UNL     1      -1.438   0.178   1.092  1.00  0.00     0.177 C 
HETATM    7  C16 UNL     1      -0.024   0.622   0.802  1.00  0.00     0.028 C 
HETATM    8  C17 UNL     1       0.632   0.698   2.177  1.00  0.00     0.022 C 
HETATM    9  C18 UNL     1       0.808  -0.160  -0.089  1.00  0.00     0.029 C 
HETATM   10  C19 UNL     1       0.717  -1.658  -0.114  1.00  0.00     0.011 C 
HETATM   11  C20 UNL     1       1.753  -2.323  -0.985  1.00  0.00     0.011 C 
HETATM   12  C21 UNL     1       3.096  -1.740  -1.056  1.00  0.00    -0.027 C 
HETATM   13  C22 UNL     1       3.325  -0.944  -2.335  1.00  0.00     0.016 C 
HETATM   14  C23 UNL     1       4.112  -2.876  -1.147  1.00  0.00     0.046 C 
HETATM   15  C24 UNL     1       4.155  -3.720   0.077  1.00  0.00     0.141 C 
HETATM   16  C25 UNL     1       3.592  -3.056   1.275  1.00  0.00     0.002 C 
HETATM   17  C26 UNL     1       3.212  -1.802   1.325  1.00  0.00    -0.014 C 
HETATM   18  C27 UNL     1       3.301  -0.881   0.171  1.00  0.00     0.004 C 
HETATM   19  C28 UNL     1       4.705  -0.347   0.218  1.00  0.00     0.025 C 
HETATM   20  C29 UNL     1       2.251   0.165   0.083  1.00  0.00    -0.066 C 
HETATM   21  C30 UNL     1       2.733   1.408   0.156  1.00  0.00    -0.022 C 
HETATM   22  C31 UNL     1       2.200   2.760   0.113  1.00  0.00     0.035 C 
HETATM   23  C32 UNL     1       0.831   3.024   0.576  1.00  0.00     0.024 C 
HETATM   24  C33 UNL     1       0.785   3.667   1.967  1.00  0.00     0.014 C 
ENDROOT
BRANCH   6  25
HETATM   25  O2  UNL     1      -2.034  -0.854   0.540  1.00  0.00    -0.312 OA
BRANCH  25  26
HETATM   26  C11 UNL     1      -2.595  -2.028   0.971  1.00  0.00     0.267 C 
HETATM   27  O3  UNL     1      -2.462  -2.030   2.188  1.00  0.00    -0.265 OA
BRANCH  26  28
HETATM   28  C12 UNL     1      -3.220  -3.062   0.157  1.00  0.00     0.127 C 
BRANCH  28  29
HETATM   29  C13 UNL     1      -3.697  -4.165   1.109  1.00  0.00     0.132 C 
HETATM   30 CL1  UNL     1      -4.859  -3.423   2.229  1.00  0.00    -0.130 Cl
ENDBRANCH  28  29
BRANCH  28  31
HETATM   31  C14 UNL     1      -4.459  -2.515  -0.517  1.00  0.00     0.128 C 
HETATM   32  C15 UNL     1      -5.133  -3.574  -1.373  1.00  0.00     0.040 C 
BRANCH  31  33
HETATM   33  O4  UNL     1      -4.124  -1.432  -1.353  1.00  0.00    -0.395 OA
ATOM     34  H4  UNL     1      -4.902  -1.089  -1.776  1.00  0.00     0.210 HD
ENDBRANCH  31  33
ENDBRANCH  28  31
ENDBRANCH  26  28
ENDBRANCH  25  26
ENDBRANCH   6  25
BRANCH   1  35
HETATM   35  C5  UNL     1      -0.553   2.100  -1.164  1.00  0.00     0.019 C 
HETATM   36  C3  UNL     1      -0.963   3.226  -1.952  1.00  0.00    -0.064 C 
HETATM   37  C4  UNL     1       0.117   4.079  -2.564  1.00  0.00     0.048 C 
BRANCH  36  38
HETATM   38  C2  UNL     1      -2.139   4.036  -1.714  1.00  0.00    -0.004 C 
HETATM   39  C1  UNL     1      -2.212   5.333  -1.463  1.00  0.00     0.012 C 
ENDBRANCH  36  38
ENDBRANCH   1  35
BRANCH  15  40
HETATM   40  O5  UNL     1       3.578  -4.979  -0.065  1.00  0.00    -0.392 OA
ATOM     41  H5  UNL     1       3.605  -5.518   0.717  1.00  0.00     0.210 HD
ENDBRANCH  15  40
TORSDOF 9
