REMARK  10 active torsions:
REMARK  status: ('A' for Active; 'I' for Inactive)
REMARK    1  A    between atoms: C2_2  and  C3_4 
REMARK    2  A    between atoms: C12_14  and  O2_15 
REMARK    3  A    between atoms: O2_15  and  C13_16 
REMARK    4  A    between atoms: C13_16  and  C14_17 
REMARK    5  A    between atoms: C14_17  and  O3_18 
REMARK    6  A    between atoms: O3_18  and  C15_19 
REMARK    7  A    between atoms: C16_20  and  C17_21 
REMARK    8  A    between atoms: C16_20  and  C18_24 
REMARK    9  A    between atoms: C17_21  and  O4_22 
REMARK   10  A    between atoms: C18_24  and  O5_25 
ROOT
HETATM    1  C3  UNL     1       6.469  -1.246  -0.499  1.00  0.00     0.063 C 
HETATM    2  C4  UNL     1       6.078  -2.417  -1.377  1.00  0.00     0.013 C 
HETATM    3  C5  UNL     1       4.574  -2.266  -1.432  1.00  0.00     0.007 C 
HETATM    4  C6  UNL     1       4.298  -0.770  -1.254  1.00  0.00     0.002 C 
HETATM    5  C7  UNL     1       3.300  -0.552  -0.167  1.00  0.00     0.029 C 
HETATM    6  C8  UNL     1       1.933  -0.765  -0.767  1.00  0.00     0.175 C 
HETATM    7  F1  UNL     1       1.840  -2.143  -1.019  1.00  0.00    -0.249 F 
HETATM    8  C9  UNL     1       0.800  -0.399   0.114  1.00  0.00     0.050 C 
HETATM    9  C10 UNL     1       1.157   0.348   1.351  1.00  0.00    -0.008 C 
HETATM   10  C11 UNL     1       1.706  -0.543   2.440  1.00  0.00     0.019 C 
HETATM   11  C12 UNL     1       0.078   1.176   1.951  1.00  0.00     0.130 C 
HETATM   12  C26 UNL     1       0.869   2.183   2.780  1.00  0.00     0.033 C 
HETATM   13  C27 UNL     1       2.285   2.171   2.265  1.00  0.00     0.013 C 
HETATM   14  C28 UNL     1       2.187   1.395   0.970  1.00  0.00    -0.030 C 
HETATM   15  C29 UNL     1       1.714   2.329  -0.083  1.00  0.00     0.016 C 
HETATM   16  C30 UNL     1       3.444   0.721   0.583  1.00  0.00     0.002 C 
HETATM   17  C31 UNL     1       4.240   1.703  -0.289  1.00  0.00     0.007 C 
HETATM   18  C32 UNL     1       5.653   1.120  -0.301  1.00  0.00     0.011 C 
HETATM   19  C33 UNL     1       5.615  -0.140  -1.080  1.00  0.00    -0.030 C 
HETATM   20  C34 UNL     1       6.198   0.156  -2.469  1.00  0.00     0.016 C 
ENDROOT
BRANCH  11  21
HETATM   21  O2  UNL     1      -0.694   0.407   2.790  1.00  0.00    -0.383 OA
BRANCH  21  22
HETATM   22  C13 UNL     1      -2.044   0.463   2.599  1.00  0.00     0.194 C 
BRANCH  22  23
HETATM   23  C14 UNL     1      -2.528   0.032   1.239  1.00  0.00     0.194 C 
BRANCH  23  24
HETATM   24  O3  UNL     1      -3.915   0.161   1.247  1.00  0.00    -0.382 OA
BRANCH  24  25
HETATM   25  C15 UNL     1      -4.494  -0.216   0.028  1.00  0.00     0.142 C 
HETATM   26  C16 UNL     1      -5.189   0.923  -0.627  1.00  0.00     0.029 C 
HETATM   27  C19 UNL     1      -6.686   0.834  -0.636  1.00  0.00     0.017 C 
HETATM   28  C20 UNL     1      -7.233  -0.474  -1.088  1.00  0.00     0.006 C 
HETATM   29  C21 UNL     1      -6.434  -1.659  -0.693  1.00  0.00    -0.008 C 
HETATM   30  C22 UNL     1      -7.393  -2.691  -0.085  1.00  0.00     0.011 C 
HETATM   31  C23 UNL     1      -5.365  -1.411   0.304  1.00  0.00    -0.017 C 
HETATM   32  C24 UNL     1      -5.875  -1.314   1.733  1.00  0.00     0.018 C 
HETATM   33  C25 UNL     1      -4.437  -2.635   0.283  1.00  0.00     0.018 C 
BRANCH  26  34
HETATM   34  C17 UNL     1      -4.629   1.175  -2.021  1.00  0.00     0.178 C 
BRANCH  34  35
HETATM   35  O4  UNL     1      -4.760   0.098  -2.860  1.00  0.00    -0.400 OA
ATOM     36  H4  UNL     1      -4.411   0.255  -3.729  1.00  0.00     0.209 HD
ENDBRANCH  34  35
ENDBRANCH  26  34
BRANCH  26  37
HETATM   37  C18 UNL     1      -4.849   2.193   0.170  1.00  0.00     0.178 C 
BRANCH  37  38
HETATM   38  O5  UNL     1      -5.495   3.301  -0.427  1.00  0.00    -0.400 OA
ATOM     39  H5  UNL     1      -5.285   4.086   0.065  1.00  0.00     0.209 HD
ENDBRANCH  37  38
ENDBRANCH  26  37
ENDBRANCH  24  25
ENDBRANCH  23  24
ENDBRANCH  22  23
ENDBRANCH  21  22
ENDBRANCH  11  21
BRANCH   1  40
HETATM   40  C2  UNL     1       7.915  -1.001  -0.670  1.00  0.00     0.128 C 
HETATM   41  C1  UNL     1       8.634   0.095   0.059  1.00  0.00     0.091 C 
HETATM   42  O1  UNL     1       8.604  -1.688  -1.425  1.00  0.00    -0.298 OA
ENDBRANCH   1  40
TORSDOF 10
