REMARK  11 active torsions:
REMARK  status: ('A' for Active; 'I' for Inactive)
REMARK    1  A    between atoms: C3_3  and  C4_4 
REMARK    2  A    between atoms: C4_4  and  C5_6 
REMARK    3  A    between atoms: C8_10  and  C10_12 
REMARK    4  A    between atoms: C10_12  and  O2_13 
REMARK    5  A    between atoms: C20_24  and  C21_25 
REMARK    6  A    between atoms: C21_25  and  C23_27 
REMARK    7  A    between atoms: C24_28  and  C25_29 
REMARK       I    between atoms: C25_29  and  N1_31 
REMARK       I    between atoms: N1_31  and  C26_33 
REMARK    8  A    between atoms: C26_33  and  O5_35 
REMARK    9  A    between atoms: O5_35  and  C27_36 
REMARK   10  A    between atoms: C27_36  and  C28_37 
REMARK   11  A    between atoms: C28_37  and  C29_38 
ROOT
HETATM    1  C1  UNL     1     -11.095   0.620  -1.906  1.00  0.00     0.112 C 
HETATM    2  C2  UNL     1      -9.716   0.774  -1.427  1.00  0.00    -0.103 C 
HETATM    3  C3  UNL     1      -8.576   0.905  -1.054  1.00  0.00    -0.026 C 
ENDROOT
BRANCH   3   4
HETATM    4  C4  UNL     1      -7.196   1.079  -0.623  1.00  0.00     0.242 C 
HETATM    5  O1  UNL     1      -6.860   2.207  -0.277  1.00  0.00    -0.280 OA
BRANCH   4   6
HETATM    6  C5  UNL     1      -6.361  -0.149  -0.658  1.00  0.00     0.180 C 
HETATM    7  F1  UNL     1      -6.553  -0.613  -1.979  1.00  0.00    -0.233 F 
HETATM    8  C6  UNL     1      -6.891  -1.242   0.228  1.00  0.00     0.054 C 
HETATM    9  C7  UNL     1      -5.809  -1.974   0.961  1.00  0.00     0.015 C 
HETATM   10  C8  UNL     1      -4.922  -1.042   1.778  1.00  0.00    -0.018 C 
HETATM   11  C9  UNL     1      -4.055  -1.926   2.596  1.00  0.00     0.018 C 
HETATM   12  C11 UNL     1      -4.302  -0.064   0.863  1.00  0.00     0.012 C 
HETATM   13  C12 UNL     1      -2.809  -0.214   0.655  1.00  0.00     0.020 C 
HETATM   14  C34 UNL     1      -4.911   0.043  -0.490  1.00  0.00     0.043 C 
HETATM   15  C13 UNL     1      -1.983   0.388   1.767  1.00  0.00     0.010 C 
HETATM   16  C31 UNL     1      -2.312   0.424  -0.591  1.00  0.00    -0.074 C 
HETATM   17  C14 UNL     1      -0.534   0.273   1.471  1.00  0.00     0.011 C 
HETATM   18  C15 UNL     1      -0.073   0.922   0.180  1.00  0.00    -0.032 C 
HETATM   19  C16 UNL     1      -0.308   2.380   0.281  1.00  0.00     0.016 C 
HETATM   20  C17 UNL     1      -0.875   0.227  -0.913  1.00  0.00     0.023 C 
HETATM   21  C20 UNL     1       1.301   0.458  -0.095  1.00  0.00     0.002 C 
HETATM   22  C18 UNL     1      -0.371  -1.160  -0.827  1.00  0.00     0.010 C 
HETATM   23  C19 UNL     1       1.063  -1.036  -0.330  1.00  0.00     0.007 C 
HETATM   24  C32 UNL     1      -3.015   1.167  -1.426  1.00  0.00    -0.023 C 
HETATM   25  C33 UNL     1      -4.454   1.385  -1.080  1.00  0.00     0.036 C 
BRANCH  10  26
HETATM   26  C10 UNL     1      -5.839  -0.334   2.793  1.00  0.00     0.173 C 
BRANCH  26  27
HETATM   27  O2  UNL     1      -5.086   0.544   3.584  1.00  0.00    -0.400 OA
ATOM     28  H2  UNL     1      -5.652   0.981   4.210  1.00  0.00     0.209 HD
ENDBRANCH  26  27
ENDBRANCH  10  26
BRANCH  21  29
HETATM   29  C21 UNL     1       2.040   0.996  -1.265  1.00  0.00     0.009 C 
HETATM   30  C22 UNL     1       2.270   2.467  -1.317  1.00  0.00     0.014 C 
BRANCH  29  31
HETATM   31  C23 UNL     1       3.406   0.353  -1.222  1.00  0.00    -0.017 C 
HETATM   32  C24 UNL     1       4.507   1.048  -1.205  1.00  0.00     0.071 C 
BRANCH  32  33
HETATM   33  C25 UNL     1       5.833   0.444  -1.165  1.00  0.00     0.249 C 
HETATM   34  O3  UNL     1       5.921  -0.803  -1.146  1.00  0.00    -0.268 OA
HETATM   35  N1  UNL     1       6.977   1.269  -1.149  1.00  0.00    -0.269 N 
HETATM   36  C26 UNL     1       8.306   0.721  -1.111  1.00  0.00     0.367 C 
ATOM     37  H1  UNL     1       6.858   2.282  -1.165  1.00  0.00     0.174 HD
HETATM   38  O4  UNL     1       9.301   1.484  -1.100  1.00  0.00    -0.238 OA
BRANCH  36  39
HETATM   39  O5  UNL     1       8.530  -0.629  -1.085  1.00  0.00    -0.304 OA
BRANCH  39  40
HETATM   40  C27 UNL     1       9.774  -1.276  -1.047  1.00  0.00     0.180 C 
BRANCH  40  41
HETATM   41  C28 UNL     1      10.602  -0.930   0.168  1.00  0.00     0.026 C 
BRANCH  41  42
HETATM   42  C29 UNL     1      11.900  -1.709   0.059  1.00  0.00    -0.002 C 
HETATM   43  C30 UNL     1      12.822  -1.439   1.233  1.00  0.00     0.005 C 
ENDBRANCH  41  42
ENDBRANCH  40  41
ENDBRANCH  39  40
ENDBRANCH  36  39
ENDBRANCH  32  33
ENDBRANCH  29  31
ENDBRANCH  21  29
ENDBRANCH   4   6
ENDBRANCH   3   4
TORSDOF 11
