REMARK  11 active torsions:
REMARK  status: ('A' for Active; 'I' for Inactive)
REMARK    1  A    between atoms: C3_5  and  C4_6 
REMARK    2  A    between atoms: C3_5  and  N7_27 
REMARK    3  A    between atoms: C4_6  and  N2_7 
REMARK    4  A    between atoms: N2_7  and  C7_10 
REMARK    5  A    between atoms: N3_14  and  C11_15 
REMARK    6  A    between atoms: C11_15  and  C12_16 
REMARK    7  A    between atoms: C12_16  and  C13_17 
REMARK    8  A    between atoms: C13_17  and  C14_18 
REMARK    9  A    between atoms: C14_18  and  N4_19 
REMARK   10  A    between atoms: N7_27  and  C18_29 
REMARK   11  A    between atoms: C21_34  and  N9_35 
ROOT
HETATM    1  C1  UNL     1      -6.176  -1.019  -2.333  1.00  0.00     0.037 C 
HETATM    2  C2  UNL     1      -5.186  -1.327  -1.714  1.00  0.00     0.000 C 
HETATM    3  N1  UNL     1      -4.032  -1.695  -1.013  1.00  0.00    -0.304 N 
ATOM      4  H1  UNL     1      -3.380  -2.343  -1.455  1.00  0.00     0.177 HD
HETATM    5  C3  UNL     1      -3.755  -1.255   0.161  1.00  0.00     0.117 C 
ENDROOT
BRANCH   5   6
HETATM    6  C4  UNL     1      -2.558  -1.607   0.942  1.00  0.00     0.320 C 
BRANCH   6   7
HETATM    7  N2  UNL     1      -1.647  -2.510   0.297  1.00  0.00    -0.037 N 
HETATM    8  C5  UNL     1      -1.348  -2.187  -1.076  1.00  0.00     0.279 C 
HETATM    9  C6  UNL     1      -2.186  -3.858   0.427  1.00  0.00     0.279 C 
BRANCH   7  10
HETATM   10  C7  UNL     1      -0.388  -2.431   0.983  1.00  0.00     0.151 A 
HETATM   11  C8  UNL     1       0.058  -3.486   1.741  1.00  0.00     0.040 A 
HETATM   12  C9  UNL     1       1.278  -3.354   2.380  1.00  0.00     0.019 A 
HETATM   13  C10 UNL     1       1.971  -2.181   2.220  1.00  0.00     0.090 A 
HETATM   14  N3  UNL     1       1.498  -1.159   1.463  1.00  0.00    -0.364 N 
HETATM   15  C17 UNL     1       0.316  -1.268   0.835  1.00  0.00     0.127 A 
BRANCH  14  16
HETATM   16  C11 UNL     1       2.317   0.029   1.370  1.00  0.00     0.128 C 
BRANCH  16  17
HETATM   17  C12 UNL     1       3.282  -0.041   0.209  1.00  0.00     0.022 C 
BRANCH  17  18
HETATM   18  C13 UNL     1       4.135   1.199   0.114  1.00  0.00     0.023 C 
BRANCH  18  19
HETATM   19  C14 UNL     1       5.063   1.046  -1.065  1.00  0.00     0.150 C 
BRANCH  19  20
HETATM   20  N4  UNL     1       5.910   2.212  -1.205  1.00  0.00    -0.287 N 
HETATM   21  C15 UNL     1       7.105   2.345  -0.621  1.00  0.00     0.201 A 
HETATM   22  N5  UNL     1       7.564   3.560  -0.998  1.00  0.00    -0.346 N 
HETATM   23  C16 UNL     1       6.639   4.118  -1.791  1.00  0.00     0.198 A 
ATOM     24  H5  UNL     1       8.455   3.977  -0.727  1.00  0.00     0.167 HD
HETATM   25  N6  UNL     1       5.613   3.275  -1.916  1.00  0.00    -0.293 N 
ATOM     26  H6  UNL     1       4.763   3.427  -2.459  1.00  0.00     0.188 HD
ENDBRANCH  19  20
ENDBRANCH  18  19
ENDBRANCH  17  18
ENDBRANCH  16  17
ENDBRANCH  14  16
ENDBRANCH   7  10
ENDBRANCH   6   7
ENDBRANCH   5   6
BRANCH   5  27
HETATM   27  N7  UNL     1      -4.680  -0.353   0.754  1.00  0.00    -0.330 N 
ATOM     28  H7  UNL     1      -5.365  -0.734   1.406  1.00  0.00     0.168 HD
BRANCH  27  29
HETATM   29  C18 UNL     1      -4.710   0.896   0.526  1.00  0.00     0.123 A 
HETATM   30  C19 UNL     1      -5.630   1.721   1.131  1.00  0.00     0.066 A 
HETATM   31  C20 UNL     1      -5.657   3.093   0.877  1.00  0.00     0.110 A 
HETATM   32  N8  UNL     1      -4.773   3.640   0.025  1.00  0.00    -0.202 N 
HETATM   33  C21 UNL     1      -3.882   2.817  -0.556  1.00  0.00     0.677 A 
ATOM     34  H8  UNL     1      -4.778   4.641  -0.173  1.00  0.00     0.183 HD
HETATM   35  N10 UNL     1      -3.843   1.478  -0.318  1.00  0.00    -0.177 N 
ATOM     36  H10 UNL     1      -3.142   0.906  -0.789  1.00  0.00     0.185 HD
BRANCH  33  37
HETATM   37  N9  UNL     1      -3.036   3.340  -1.371  1.00  0.00    -0.234 N 
ATOM     38  H92 UNL     1      -3.065   4.344  -1.549  1.00  0.00     0.174 HD
ATOM     39  H91 UNL     1      -2.360   2.716  -1.812  1.00  0.00     0.174 HD
ENDBRANCH  33  37
ENDBRANCH  27  29
ENDBRANCH   5  27
TORSDOF 11
