REMARK  13 active torsions:
REMARK  status: ('A' for Active; 'I' for Inactive)
REMARK    1  A    between atoms: C4_5  and  C5_6 
REMARK    2  A    between atoms: C5_6  and  N2_7 
REMARK    3  A    between atoms: C10_14  and  C11_15 
REMARK    4  A    between atoms: C12_16  and  C13_17 
REMARK    5  A    between atoms: C14_18  and  C15_19 
REMARK    6  A    between atoms: C15_19  and  N4_20 
REMARK    7  A    between atoms: N4_20  and  C16_22 
REMARK    8  A    between atoms: N5_24  and  C18_25 
REMARK    9  A    between atoms: C18_25  and  C19_26 
REMARK   10  A    between atoms: C19_26  and  C20_27 
REMARK   11  A    between atoms: C20_27  and  C21_28 
REMARK   12  A    between atoms: C21_28  and  C22_29 
REMARK   13  A    between atoms: C22_29  and  N6_30 
ROOT
HETATM    1  C15 UNL     1      -1.455  -1.348   3.760  1.00  0.00     0.216 C 
ENDROOT
BRANCH   1   2
HETATM    2  C14 UNL     1      -0.113  -1.419   3.150  1.00  0.00    -0.073 C 
HETATM    3  C13 UNL     1       0.991  -1.460   2.663  1.00  0.00    -0.013 C 
BRANCH   3   4
HETATM    4  C12 UNL     1       2.293  -1.488   2.103  1.00  0.00    -0.008 C 
HETATM    5  C11 UNL     1       3.406  -1.491   1.633  1.00  0.00    -0.035 C 
BRANCH   5   6
HETATM    6  C10 UNL     1       4.734  -1.472   1.085  1.00  0.00     0.089 A 
HETATM    7  N1  UNL     1       5.231  -2.532   0.412  1.00  0.00    -0.354 N 
HETATM    8  C1  UNL     1       4.417  -3.738   0.224  1.00  0.00     0.156 C 
HETATM    9  C2  UNL     1       6.459  -2.543  -0.108  1.00  0.00     0.092 A 
HETATM   10  C3  UNL     1       7.235  -1.398   0.069  1.00  0.00     0.026 A 
HETATM   11  C4  UNL     1       6.770  -0.305   0.745  1.00  0.00    -0.036 A 
HETATM   12  C9  UNL     1       5.500  -0.324   1.269  1.00  0.00     0.048 A 
BRANCH  11  13
HETATM   13  C5  UNL     1       7.604   0.899   0.923  1.00  0.00     0.167 C 
BRANCH  13  14
HETATM   14  N2  UNL     1       7.438   1.861  -0.145  1.00  0.00    -0.347 N 
HETATM   15  C6  UNL     1       8.155   1.904  -1.279  1.00  0.00     0.109 A 
HETATM   16  C7  UNL     1       7.693   2.961  -2.033  1.00  0.00     0.106 A 
HETATM   17  N3  UNL     1       6.692   3.542  -1.327  1.00  0.00    -0.361 N 
HETATM   18  C8  UNL     1       6.544   2.863  -0.177  1.00  0.00     0.182 A 
ATOM     19  H3  UNL     1       6.146   4.353  -1.618  1.00  0.00     0.166 HD
ENDBRANCH  13  14
ENDBRANCH  11  13
ENDBRANCH   5   6
ENDBRANCH   3   4
ENDBRANCH   1   2
BRANCH   1  20
HETATM   20  N4  UNL     1      -2.208  -0.370   3.041  1.00  0.00    -0.365 N 
ATOM     21  H4  UNL     1      -2.248   0.574   3.425  1.00  0.00     0.162 HD
BRANCH  20  22
HETATM   22  C16 UNL     1      -2.841  -0.597   1.940  1.00  0.00     0.117 A 
HETATM   23  C17 UNL     1      -3.540   0.399   1.316  1.00  0.00     0.138 A 
HETATM   24  N5  UNL     1      -4.232   0.227   0.148  1.00  0.00    -0.362 N 
HETATM   25  C23 UNL     1      -4.208  -0.991  -0.392  1.00  0.00     0.107 A 
HETATM   26  C24 UNL     1      -3.508  -2.025   0.218  1.00  0.00     0.107 A 
HETATM   27  N7  UNL     1      -2.829  -1.819   1.380  1.00  0.00    -0.350 N 
ATOM     28  H7  UNL     1      -2.317  -2.583   1.821  1.00  0.00     0.166 HD
BRANCH  24  29
HETATM   29  C18 UNL     1      -4.912   1.369  -0.428  1.00  0.00     0.128 C 
BRANCH  29  30
HETATM   30  C19 UNL     1      -6.289   1.472   0.156  1.00  0.00     0.020 C 
BRANCH  30  31
HETATM   31  C20 UNL     1      -7.195   0.350  -0.147  1.00  0.00     0.003 C 
BRANCH  31  32
HETATM   32  C21 UNL     1      -7.543   0.122  -1.568  1.00  0.00     0.027 C 
BRANCH  32  33
HETATM   33  C22 UNL     1      -8.270   1.272  -2.184  1.00  0.00     0.229 C 
BRANCH  33  34
HETATM   34  N6  UNL     1      -7.584   2.509  -2.236  1.00  0.00    -0.079 N 
ATOM     35  H63 UNL     1      -7.272   2.765  -1.299  1.00  0.00     0.274 HD
ATOM     36  H62 UNL     1      -6.687   2.382  -2.705  1.00  0.00     0.274 HD
ATOM     37  H61 UNL     1      -8.081   3.294  -2.657  1.00  0.00     0.274 HD
ENDBRANCH  33  34
ENDBRANCH  32  33
ENDBRANCH  31  32
ENDBRANCH  30  31
ENDBRANCH  29  30
ENDBRANCH  24  29
ENDBRANCH  20  22
ENDBRANCH   1  20
TORSDOF 13
