REMARK  13 active torsions:
REMARK  status: ('A' for Active; 'I' for Inactive)
REMARK    1  A    between atoms: C2_2  and  C3_3 
REMARK    2  A    between atoms: C3_3  and  C4_4 
REMARK    3  A    between atoms: C6_7  and  O2_8 
REMARK    4  A    between atoms: O2_8  and  C7_9 
REMARK    5  A    between atoms: C9_11  and  C11_13 
REMARK    6  A    between atoms: C13_15  and  O3_16 
REMARK    7  A    between atoms: O3_16  and  C14_17 
REMARK    8  A    between atoms: C16_20  and  O5_21 
REMARK    9  A    between atoms: C17_23  and  O6_24 
REMARK   10  A    between atoms: C18_26  and  O7_27 
REMARK   11  A    between atoms: C19_29  and  O8_30 
REMARK   12  A    between atoms: C20_32  and  O9_33 
REMARK   13  A    between atoms: C22_36  and  N1_37 
ROOT
HETATM    1  C7  UNL     1       0.819  -0.015   0.708  1.00  0.00     0.157 C 
HETATM    2  C8  UNL     1       0.100   1.169   0.217  1.00  0.00     0.050 C 
HETATM    3  C9  UNL     1      -1.343   1.030  -0.151  1.00  0.00     0.004 C 
HETATM    4  C10 UNL     1      -2.147   2.241   0.349  1.00  0.00     0.022 C 
HETATM    5  C13 UNL     1      -2.033  -0.180   0.332  1.00  0.00     0.168 C 
HETATM    6  C19 UNL     1      -1.409  -0.783   1.574  1.00  0.00     0.179 C 
HETATM    7  C20 UNL     1       0.050  -1.079   1.396  1.00  0.00     0.178 C 
ENDROOT
BRANCH   1   8
HETATM    8  O2  UNL     1       1.565  -0.565  -0.333  1.00  0.00    -0.353 OA
BRANCH   8   9
HETATM    9  C6  UNL     1       2.931  -0.504  -0.125  1.00  0.00     0.262 C 
HETATM   10  O1  UNL     1       3.535  -1.734  -0.088  1.00  0.00    -0.361 OA
HETATM   11  C5  UNL     1       4.883  -1.725  -0.325  1.00  0.00     0.177 C 
HETATM   12  C4  UNL     1       5.572  -0.465   0.209  1.00  0.00     0.043 C 
HETATM   13  C22 UNL     1       4.991   0.744  -0.501  1.00  0.00     0.194 C 
HETATM   14  C21 UNL     1       3.640   0.355  -1.146  1.00  0.00     0.094 C 
BRANCH  12  15
HETATM   15  C3  UNL     1       7.020  -0.627  -0.079  1.00  0.00     0.035 C 
BRANCH  15  16
HETATM   16  C2  UNL     1       7.933   0.413   0.364  1.00  0.00    -0.036 C 
HETATM   17  C1  UNL     1       7.630   1.443   1.117  1.00  0.00     0.007 C 
ENDBRANCH  15  16
ENDBRANCH  12  15
BRANCH  13  18
HETATM   18  N1  UNL     1       5.866   1.268  -1.511  1.00  0.00    -0.074 N 
ATOM     19  H13 UNL     1       6.786   1.478  -1.124  1.00  0.00     0.274 HD
ATOM     20  H12 UNL     1       6.129   0.543  -2.179  1.00  0.00     0.274 HD
ATOM     21  H11 UNL     1       5.476   2.081  -1.988  1.00  0.00     0.274 HD
ENDBRANCH  13  18
ENDBRANCH   8   9
ENDBRANCH   1   8
BRANCH   7  22
HETATM   22  O9  UNL     1       0.602  -1.459   2.641  1.00  0.00    -0.390 OA
ATOM     23  H9  UNL     1       0.109  -2.141   3.082  1.00  0.00     0.210 HD
ENDBRANCH   7  22
BRANCH   3  24
HETATM   24  C11 UNL     1      -1.433   1.078  -1.633  1.00  0.00    -0.025 C 
HETATM   25  C12 UNL     1      -1.112   0.021  -2.346  1.00  0.00     0.008 C 
ENDBRANCH   3  24
BRANCH   6  26
HETATM   26  O8  UNL     1      -2.098  -1.916   1.991  1.00  0.00    -0.390 OA
ATOM     27  H8  UNL     1      -1.707  -2.294   2.770  1.00  0.00     0.210 HD
ENDBRANCH   6  26
BRANCH   5  28
HETATM   28  O3  UNL     1      -3.387   0.111   0.570  1.00  0.00    -0.350 OA
BRANCH  28  29
HETATM   29  C14 UNL     1      -4.248  -0.707  -0.118  1.00  0.00     0.291 C 
HETATM   30  O4  UNL     1      -4.846  -1.582   0.827  1.00  0.00    -0.356 OA
HETATM   31  C15 UNL     1      -6.081  -2.029   0.417  1.00  0.00     0.205 C 
HETATM   32  C16 UNL     1      -7.157  -0.961   0.510  1.00  0.00     0.173 C 
HETATM   33  C17 UNL     1      -6.496   0.355   0.148  1.00  0.00     0.182 C 
HETATM   34  C18 UNL     1      -5.359  -0.009  -0.803  1.00  0.00     0.204 C 
BRANCH  32  35
HETATM   35  O5  UNL     1      -7.628  -0.882   1.830  1.00  0.00    -0.391 OA
ATOM     36  H5  UNL     1      -8.301  -0.214   1.888  1.00  0.00     0.210 HD
ENDBRANCH  32  35
BRANCH  33  37
HETATM   37  O6  UNL     1      -6.054   1.042   1.252  1.00  0.00    -0.390 OA
ATOM     38  H6  UNL     1      -5.640   1.866   1.025  1.00  0.00     0.210 HD
ENDBRANCH  33  37
BRANCH  34  39
HETATM   39  O7  UNL     1      -5.037   1.122  -1.496  1.00  0.00    -0.388 OA
ATOM     40  H7  UNL     1      -5.750   1.570  -1.936  1.00  0.00     0.210 HD
ENDBRANCH  34  39
ENDBRANCH  28  29
ENDBRANCH   5  28
TORSDOF 13
