REMARK  13 active torsions:
REMARK  status: ('A' for Active; 'I' for Inactive)
REMARK    1  A    between atoms: C1_4  and  N2_5 
REMARK    2  A    between atoms: C1_4  and  C2_10 
REMARK    3  A    between atoms: N2_5  and  N3_7 
REMARK    4  A    between atoms: C6_14  and  O1_15 
REMARK    5  A    between atoms: O1_15  and  C7_16 
REMARK    6  A    between atoms: C8_18  and  O3_19 
REMARK    7  A    between atoms: C9_21  and  O4_22 
REMARK    8  A    between atoms: C10_24  and  O5_25 
REMARK    9  A    between atoms: O5_25  and  C11_26 
REMARK   10  A    between atoms: C11_26  and  C12_28 
REMARK   11  A    between atoms: C13_29  and  C14_30 
REMARK   12  A    between atoms: C14_30  and  C15_31 
REMARK   13  A    between atoms: C21_37  and  O7_38 
ROOT
HETATM    1  C7  UNL     1      -1.359  -1.006  -0.771  1.00  0.00     0.297 C 
HETATM    2  O2  UNL     1      -1.193  -1.128  -2.133  1.00  0.00    -0.326 OA
HETATM    3  C8  UNL     1      -0.731   0.075  -2.624  1.00  0.00     0.291 C 
HETATM    4  C9  UNL     1       0.558   0.540  -2.086  1.00  0.00     0.205 C 
HETATM    5  C10 UNL     1       0.826   0.211  -0.646  1.00  0.00     0.199 C 
HETATM    6  C21 UNL     1      -0.002  -0.947  -0.138  1.00  0.00     0.205 C 
ENDROOT
BRANCH   1   7
HETATM    7  O1  UNL     1      -2.126   0.124  -0.495  1.00  0.00    -0.329 OA
BRANCH   7   8
HETATM    8  C6  UNL     1      -3.294  -0.194   0.185  1.00  0.00     0.264 C 
HETATM    9  C5  UNL     1      -3.219   0.543   1.524  1.00  0.00     0.061 C 
HETATM   10  C4  UNL     1      -4.417   0.140   2.329  1.00  0.00     0.008 C 
HETATM   11  C3  UNL     1      -5.698   0.161   1.564  1.00  0.00     0.040 C 
HETATM   12  C2  UNL     1      -5.534  -0.271   0.124  1.00  0.00     0.193 C 
HETATM   13  O8  UNL     1      -4.417   0.305  -0.471  1.00  0.00    -0.348 OA
BRANCH  12  14
HETATM   14  C1  UNL     1      -6.769   0.117  -0.594  1.00  0.00     0.118 C 
HETATM   15  N1  UNL     1      -6.740   0.926  -1.591  1.00  0.00    -0.386 N 
ATOM     16  H12 UNL     1      -7.591   1.193  -2.086  1.00  0.00     0.157 HD
ATOM     17  H11 UNL     1      -5.844   1.309  -1.893  1.00  0.00     0.157 HD
BRANCH  14  18
HETATM   18  N2  UNL     1      -8.012  -0.414  -0.175  1.00  0.00    -0.294 N 
ATOM     19  H2  UNL     1      -8.481   0.037   0.611  1.00  0.00     0.187 HD
BRANCH  18  20
HETATM   20  N3  UNL     1      -8.637  -1.506  -0.759  1.00  0.00    -0.344 N 
ATOM     21  H32 UNL     1      -8.154  -1.945  -1.543  1.00  0.00     0.176 HD
ATOM     22  H31 UNL     1      -9.533  -1.889  -0.457  1.00  0.00     0.176 HD
ENDBRANCH  18  20
ENDBRANCH  14  18
ENDBRANCH  12  14
ENDBRANCH   7   8
ENDBRANCH   1   7
BRANCH   6  23
HETATM   23  O7  UNL     1       0.626  -2.178  -0.385  1.00  0.00    -0.388 OA
ATOM     24  H7  UNL     1       1.486  -2.141   0.016  1.00  0.00     0.210 HD
ENDBRANCH   6  23
BRANCH   3  25
HETATM   25  O3  UNL     1      -0.642  -0.064  -4.024  1.00  0.00    -0.368 OA
ATOM     26  H3  UNL     1      -0.324   0.765  -4.362  1.00  0.00     0.212 HD
ENDBRANCH   3  25
BRANCH   5  27
HETATM   27  O5  UNL     1       2.198   0.047  -0.366  1.00  0.00    -0.307 OA
BRANCH  27  28
HETATM   28  C11 UNL     1       2.880   0.882   0.489  1.00  0.00     0.283 C 
HETATM   29  O6  UNL     1       2.209   1.807   1.013  1.00  0.00    -0.260 OA
BRANCH  28  30
HETATM   30  C12 UNL     1       4.279   0.762   0.813  1.00  0.00     0.078 C 
HETATM   31  C13 UNL     1       4.836   1.613   1.643  1.00  0.00    -0.016 C 
BRANCH  31  32
HETATM   32  C14 UNL     1       6.267   1.573   2.039  1.00  0.00     0.066 C 
BRANCH  32  33
HETATM   33  C15 UNL     1       6.982   0.450   1.374  1.00  0.00    -0.055 A 
HETATM   34  C16 UNL     1       7.579   0.661   0.153  1.00  0.00     0.007 A 
HETATM   35  C17 UNL     1       8.242  -0.366  -0.473  1.00  0.00     0.001 A 
HETATM   36  C18 UNL     1       8.342  -1.622   0.071  1.00  0.00     0.000 A 
HETATM   37  C19 UNL     1       7.735  -1.810   1.299  1.00  0.00     0.001 A 
HETATM   38  C20 UNL     1       7.071  -0.801   1.936  1.00  0.00     0.007 A 
ENDBRANCH  32  33
ENDBRANCH  31  32
ENDBRANCH  28  30
ENDBRANCH  27  28
ENDBRANCH   5  27
BRANCH   4  39
HETATM   39  O4  UNL     1       0.661   1.925  -2.323  1.00  0.00    -0.388 OA
ATOM     40  H4  UNL     1       1.493   2.225  -1.976  1.00  0.00     0.210 HD
ENDBRANCH   4  39
TORSDOF 13
