REMARK  12 active torsions:
REMARK  status: ('A' for Active; 'I' for Inactive)
REMARK    1  A    between atoms: O1_2  and  C2_3 
REMARK    2  A    between atoms: C3_4  and  C4_5 
REMARK    3  A    between atoms: C4_5  and  C5_6 
REMARK    4  A    between atoms: C7_11  and  O5_12 
REMARK    5  A    between atoms: O5_12  and  C8_13 
REMARK    6  A    between atoms: C11_16  and  N1_17 
REMARK    7  A    between atoms: C12_21  and  O6_22 
REMARK    8  A    between atoms: C13_24  and  O7_25 
REMARK    9  A    between atoms: C14_27  and  O8_28 
REMARK   10  A    between atoms: O8_28  and  C15_29 
REMARK   11  A    between atoms: C18_32  and  O9_34 
REMARK   12  A    between atoms: C21_37  and  O10_38 
ROOT
HETATM    1  C2  UNL     1      -0.510   2.145   2.500  1.00  0.00     0.181 C 
HETATM    2  C3  UNL     1      -0.160   3.421   1.802  1.00  0.00     0.163 C 
HETATM    3  O4  UNL     1      -0.043   3.289   0.437  1.00  0.00    -0.380 OA
HETATM    4  C6  UNL     1       0.810   2.302   0.002  1.00  0.00     0.203 C 
HETATM    5  C7  UNL     1      -0.049   1.121  -0.471  1.00  0.00     0.177 C 
HETATM    6  C14 UNL     1      -0.459   0.381   0.755  1.00  0.00     0.184 C 
HETATM    7  C21 UNL     1      -1.381   1.253   1.594  1.00  0.00     0.181 C 
ENDROOT
BRANCH   5   8
HETATM    8  O5  UNL     1       0.672   0.308  -1.324  1.00  0.00    -0.373 OA
BRANCH   8   9
HETATM    9  C8  UNL     1       0.159   0.256  -2.624  1.00  0.00     0.153 C 
HETATM   10  C9  UNL     1       1.305   0.751  -3.509  1.00  0.00     0.037 C 
HETATM   11  C10 UNL     1       0.810   0.834  -4.926  1.00  0.00     0.038 C 
HETATM   12  C11 UNL     1       0.393  -0.539  -5.416  1.00  0.00     0.214 C 
HETATM   13  C12 UNL     1      -0.601  -1.181  -4.469  1.00  0.00     0.179 C 
HETATM   14  C13 UNL     1      -0.123  -1.164  -3.050  1.00  0.00     0.177 C 
BRANCH  12  15
HETATM   15  N1  UNL     1       1.555  -1.350  -5.663  1.00  0.00    -0.072 N 
ATOM     16  H13 UNL     1       2.207  -0.898  -6.304  1.00  0.00     0.274 HD
ATOM     17  H12 UNL     1       2.163  -1.405  -4.846  1.00  0.00     0.274 HD
ATOM     18  H11 UNL     1       1.274  -2.274  -5.993  1.00  0.00     0.274 HD
ENDBRANCH  12  15
BRANCH  13  19
HETATM   19  O6  UNL     1      -1.862  -0.670  -4.603  1.00  0.00    -0.391 OA
ATOM     20  H6  UNL     1      -2.485  -1.072  -4.009  1.00  0.00     0.210 HD
ENDBRANCH  13  19
BRANCH  14  21
HETATM   21  O7  UNL     1       0.989  -1.978  -2.845  1.00  0.00    -0.390 OA
ATOM     22  H7  UNL     1       0.811  -2.872  -3.113  1.00  0.00     0.210 HD
ENDBRANCH  14  21
ENDBRANCH   8   9
ENDBRANCH   5   8
BRANCH   6  23
HETATM   23  O8  UNL     1      -0.994  -0.883   0.569  1.00  0.00    -0.375 OA
BRANCH  23  24
HETATM   24  C15 UNL     1      -0.267  -1.871   1.225  1.00  0.00     0.125 C 
HETATM   25  C16 UNL     1      -0.007  -3.102   0.437  1.00  0.00     0.035 C 
HETATM   26  C17 UNL     1      -0.023  -4.229   1.446  1.00  0.00     0.040 C 
HETATM   27  C18 UNL     1      -1.122  -3.844   2.373  1.00  0.00     0.057 C 
HETATM   28  C19 UNL     1      -0.809  -4.388   3.757  1.00  0.00     0.045 C 
HETATM   29  C20 UNL     1      -1.194  -2.357   2.357  1.00  0.00     0.069 C 
BRANCH  27  30
HETATM   30  O9  UNL     1      -2.304  -4.465   1.969  1.00  0.00    -0.390 OA
ATOM     31  H9  UNL     1      -3.005  -4.219   2.561  1.00  0.00     0.210 HD
ENDBRANCH  27  30
ENDBRANCH  23  24
ENDBRANCH   6  23
BRANCH   7  32
HETATM   32  O10 UNL     1      -2.071   2.124   0.757  1.00  0.00    -0.390 OA
ATOM     33  H10 UNL     1      -2.608   1.574   0.199  1.00  0.00     0.210 HD
ENDBRANCH   7  32
BRANCH   2  34
HETATM   34  C4  UNL     1       1.094   4.062   2.359  1.00  0.00     0.147 C 
BRANCH  34  35
HETATM   35  C5  UNL     1       1.331   5.304   1.590  1.00  0.00     0.175 C 
HETATM   36  O2  UNL     1       1.365   5.366   0.333  1.00  0.00    -0.648 OA
HETATM   37  O3  UNL     1       1.527   6.493   2.316  1.00  0.00    -0.648 OA
ENDBRANCH  34  35
ENDBRANCH   2  34
BRANCH   1  38
HETATM   38  O1  UNL     1       0.587   1.441   2.959  1.00  0.00    -0.385 OA
HETATM   39  C1  UNL     1       0.565   1.162   4.307  1.00  0.00     0.202 C 
ENDBRANCH   1  38
TORSDOF 12
