REMARK  2 active torsions:
REMARK  status: ('A' for Active; 'I' for Inactive)
REMARK    1  A    between atoms: C1_4  and  N2_5 
REMARK    2  A    between atoms: C1_4  and  C3_10 
REMARK       I    between atoms: C3_10  and  N5_12 
ROOT
HETATM    1  N1  UNL     1       1.308   0.412   2.046  1.00  0.00    -0.381 N 
ATOM      2  H11 UNL     1       0.816   0.901   2.794  1.00  0.00     0.157 HD
ATOM      3  H12 UNL     1       2.326   0.416   1.977  1.00  0.00     0.157 HD
HETATM    4  C1  UNL     1       0.615  -0.220   1.176  1.00  0.00     0.170 C 
ENDROOT
BRANCH   4   5
HETATM    5  N2  UNL     1       1.299  -0.900   0.136  1.00  0.00    -0.315 N 
HETATM    6  C2  UNL     1       2.321  -0.394  -0.454  1.00  0.00     0.202 C 
HETATM    7  N3  UNL     1       2.765   0.885  -0.042  1.00  0.00    -0.066 NA
HETATM    8  N4  UNL     1       3.002  -1.073  -1.491  1.00  0.00    -0.066 NA
ATOM      9  H2  UNL     1       0.968  -1.821  -0.153  1.00  0.00     0.170 HD
ENDBRANCH   4   5
BRANCH   4  10
HETATM   10  C3  UNL     1      -0.831  -0.225   1.274  1.00  0.00     0.291 C 
HETATM   11  O1  UNL     1      -1.386   0.395   2.218  1.00  0.00    -0.264 OA
HETATM   12  N5  UNL     1      -1.638  -0.926   0.312  1.00  0.00    -0.297 N 
HETATM   13  C4  UNL     1      -2.443  -0.255  -0.415  1.00  0.00     0.203 C 
ATOM     14  H5  UNL     1      -1.568  -1.939   0.213  1.00  0.00     0.171 HD
HETATM   15  N6  UNL     1      -3.267  -0.910  -1.385  1.00  0.00    -0.066 NA
HETATM   16  N7  UNL     1      -2.558   1.153  -0.295  1.00  0.00    -0.066 NA
ENDBRANCH   4  10
TORSDOF 2
