REMARK  2 active torsions:
REMARK  status: ('A' for Active; 'I' for Inactive)
REMARK       I    between atoms: C1_4  and  N3_6 
REMARK       I    between atoms: C2_8  and  N5_10 
REMARK       I    between atoms: N5_10  and  C3_12 
REMARK    1  A    between atoms: C3_12  and  C4_14 
REMARK    2  A    between atoms: N6_15  and  O2_17 
ROOT
HETATM    1  N1  UNL     1       1.734  -1.511   1.838  1.00  0.00    -0.373 N 
ATOM      2  H11 UNL     1       1.173  -1.033   2.543  1.00  0.00     0.158 HD
ATOM      3  H12 UNL     1       1.900  -2.510   1.961  1.00  0.00     0.158 HD
HETATM    4  C1  UNL     1       2.178  -0.811   0.861  1.00  0.00     0.188 C 
HETATM    5  N2  UNL     1       2.958  -1.475  -0.120  1.00  0.00    -0.064 NA
HETATM    6  N3  UNL     1       1.948   0.573   0.690  1.00  0.00    -0.305 N 
ATOM      7  H3  UNL     1       2.726   1.218   0.828  1.00  0.00     0.171 HD
HETATM    8  C2  UNL     1       0.788   1.059   0.364  1.00  0.00     0.197 C 
HETATM    9  N4  UNL     1       0.710   2.470   0.228  1.00  0.00    -0.063 NA
HETATM   10  N5  UNL     1      -0.337   0.232   0.155  1.00  0.00    -0.296 N 
ATOM     11  H5  UNL     1      -0.239  -0.778   0.262  1.00  0.00     0.171 HD
HETATM   12  C3  UNL     1      -1.580   0.762  -0.194  1.00  0.00     0.265 C 
HETATM   13  O1  UNL     1      -1.616   2.051  -0.310  1.00  0.00    -0.267 OA
ENDROOT
BRANCH  12  14
HETATM   14  C4  UNL     1      -2.797   0.048  -0.435  1.00  0.00     0.188 C 
HETATM   15  N6  UNL     1      -3.012  -1.191  -0.385  1.00  0.00    -0.275 N 
ATOM     16  H6  UNL     1      -3.957  -1.516  -0.590  1.00  0.00     0.193 HD
BRANCH  15  17
HETATM   17  O2  UNL     1      -2.076  -2.128  -0.077  1.00  0.00    -0.290 OA
ATOM     18  H2  UNL     1      -2.238  -3.063  -0.039  1.00  0.00     0.244 HD
ENDBRANCH  15  17
ENDBRANCH  12  14
TORSDOF 2
