REMARK  2 active torsions:
REMARK  status: ('A' for Active; 'I' for Inactive)
REMARK    1  A    between atoms: N2_4  and  N3_6 
REMARK    2  A    between atoms: C2_11  and  C3_12 
ROOT
HETATM    1  N3  UNL     1       2.514   0.138  -0.184  1.00  0.00    -0.268 N 
ATOM      2  H3  UNL     1       3.335  -0.449  -0.034  1.00  0.00     0.190 HD
HETATM    3  C1  UNL     1       1.308  -0.312   0.021  1.00  0.00     0.167 A 
HETATM    4  N4  UNL     1       0.067   0.362  -0.138  1.00  0.00    -0.320 N 
ATOM      5  H4  UNL     1      -0.049   1.327  -0.446  1.00  0.00     0.169 HD
HETATM    6  C2  UNL     1      -0.986  -0.528   0.202  1.00  0.00     0.175 A 
HETATM    7  N6  UNL     1      -0.482  -1.639   0.538  1.00  0.00    -0.322 N 
ATOM      8  H6  UNL     1      -1.040  -2.443   0.826  1.00  0.00     0.169 HD
HETATM    9  C4  UNL     1       0.935  -1.657   0.475  1.00  0.00     0.147 A 
HETATM   10  N7  UNL     1       1.772  -2.597   0.739  1.00  0.00    -0.382 N 
ATOM     11  H71 UNL     1       1.513  -3.532   1.055  1.00  0.00     0.157 HD
ATOM     12  H72 UNL     1       2.791  -2.610   0.694  1.00  0.00     0.157 HD
ENDROOT
BRANCH   1  13
HETATM   13  N2  UNL     1       2.631   1.462  -0.619  1.00  0.00    -0.248 N 
HETATM   14  N1  UNL     1       3.119   2.291   0.228  1.00  0.00    -0.331 N 
ATOM     15  H12 UNL     1       3.401   1.987   1.160  1.00  0.00     0.178 HD
ATOM     16  H11 UNL     1       3.204   3.257  -0.089  1.00  0.00     0.178 HD
ATOM     17  H2  UNL     1       2.345   1.751  -1.555  1.00  0.00     0.207 HD
ENDBRANCH   1  13
BRANCH   6  18
HETATM   18  C3  UNL     1      -2.425  -0.203   0.167  1.00  0.00     0.298 C 
HETATM   19  N5  UNL     1      -2.878   1.066  -0.223  1.00  0.00    -0.054 NA
HETATM   20  O1  UNL     1      -3.285  -1.063   0.487  1.00  0.00    -0.268 OA
ENDBRANCH   6  18
TORSDOF 2
