REMARK  1 active torsions:
REMARK  status: ('A' for Active; 'I' for Inactive)
REMARK    1  A    between atoms: N1_1  and  N2_4 
REMARK       I    between atoms: C1_6  and  N4_8 
REMARK       I    between atoms: C2_10  and  N6_12 
ROOT
HETATM    1  N2  UNL     1       2.961   0.412  -0.164  1.00  0.00    -0.280 N 
ATOM      2  H2  UNL     1       3.924   0.090  -0.260  1.00  0.00     0.189 HD
HETATM    3  C1  UNL     1       2.083  -0.382   0.370  1.00  0.00     0.209 C 
HETATM    4  N3  UNL     1       2.514  -1.665   0.794  1.00  0.00    -0.062 NA
HETATM    5  N4  UNL     1       0.763   0.082   0.493  1.00  0.00    -0.302 N 
ATOM      6  H4  UNL     1       0.594   0.884   1.101  1.00  0.00     0.171 HD
HETATM    7  C2  UNL     1      -0.248  -0.438  -0.111  1.00  0.00     0.212 C 
HETATM    8  N5  UNL     1      -0.097  -1.550  -0.970  1.00  0.00    -0.062 NA
HETATM    9  N6  UNL     1      -1.541   0.094   0.071  1.00  0.00    -0.253 N 
HETATM   10  C3  UNL     1      -2.331   1.216  -0.409  1.00  0.00     0.256 C 
HETATM   11  C4  UNL     1      -3.026   1.072   0.879  1.00  0.00     0.256 C 
HETATM   12  O1  UNL     1      -3.664   1.773   1.673  1.00  0.00    -0.270 OA
HETATM   13  N7  UNL     1      -2.645  -0.284   0.844  1.00  0.00    -0.264 N 
ATOM     14  H7  UNL     1      -3.013  -1.159   1.218  1.00  0.00     0.190 HD
ENDROOT
BRANCH   1  15
HETATM   15  N1  UNL     1       2.628   1.693  -0.611  1.00  0.00    -0.343 N 
ATOM     16  H12 UNL     1       1.660   1.999  -0.507  1.00  0.00     0.176 HD
ATOM     17  H11 UNL     1       3.318   2.317  -1.030  1.00  0.00     0.176 HD
ENDBRANCH   1  15
TORSDOF 1
