REMARK  2 active torsions:
REMARK  status: ('A' for Active; 'I' for Inactive)
REMARK    1  A    between atoms: N3_4  and  N4_6 
REMARK       I    between atoms: N4_6  and  C2_7 
REMARK    2  A    between atoms: C2_7  and  C3_9 
REMARK       I    between atoms: C3_9  and  N5_11 
ROOT
HETATM    1  N4  UNL     1      -1.097   0.200   0.454  1.00  0.00    -0.274 NA
HETATM    2  C2  UNL     1       0.191   0.727   0.344  1.00  0.00     0.403 C 
HETATM    3  O1  UNL     1       0.571   1.792   0.846  1.00  0.00    -0.244 OA
ENDROOT
BRANCH   2   4
HETATM    4  C3  UNL     1       1.197  -0.021  -0.422  1.00  0.00     0.332 C 
HETATM    5  O2  UNL     1       0.844  -1.086  -0.975  1.00  0.00    -0.261 OA
HETATM    6  N5  UNL     1       2.507   0.411  -0.538  1.00  0.00    -0.294 N 
HETATM    7  C4  UNL     1       3.536  -0.276  -0.907  1.00  0.00     0.203 C 
ATOM      8  H5  UNL     1       2.680   1.389  -0.304  1.00  0.00     0.171 HD
HETATM    9  N6  UNL     1       4.794   0.354  -0.955  1.00  0.00    -0.066 NA
HETATM   10  N7  UNL     1       3.356  -1.633  -1.250  1.00  0.00    -0.066 NA
ENDBRANCH   2   4
BRANCH   1  11
HETATM   11  N3  UNL     1      -2.243  -0.268   0.551  1.00  0.00    -0.205 N 
HETATM   12  C1  UNL     1      -3.454   0.054   0.785  1.00  0.00     0.226 C 
HETATM   13  N1  UNL     1      -3.846   1.366   1.057  1.00  0.00    -0.065 NA
HETATM   14  N2  UNL     1      -4.424  -0.970   0.774  1.00  0.00    -0.065 NA
ATOM     15  H3  UNL     1      -2.200  -1.273   0.383  1.00  0.00     0.204 HD
ENDBRANCH   1  11
TORSDOF 2
