REMARK  1 active torsions:
REMARK  status: ('A' for Active; 'I' for Inactive)
REMARK       I    between atoms: C1_2  and  N2_4 
REMARK    1  A    between atoms: N2_4  and  N3_6 
REMARK       I    between atoms: N3_6  and  C2_8 
REMARK       I    between atoms: C2_8  and  N4_10 
ROOT
HETATM    1  N3  UNL     1       1.137   0.653  -0.068  1.00  0.00    -0.246 N 
ATOM      2  H3  UNL     1       0.906   1.644  -0.134  1.00  0.00     0.192 HD
HETATM    3  C2  UNL     1       0.113  -0.324  -0.012  1.00  0.00     0.356 C 
HETATM    4  O2  UNL     1       0.473  -1.550   0.069  1.00  0.00    -0.244 OA
HETATM    5  N4  UNL     1      -1.259   0.023  -0.045  1.00  0.00    -0.226 N 
HETATM    6  C3  UNL     1      -2.372  -0.887   0.005  1.00  0.00     0.176 C 
HETATM    7  C4  UNL     1      -3.482  -0.063  -0.602  1.00  0.00     0.163 C 
HETATM    8  N5  UNL     1      -3.000   1.284  -0.439  1.00  0.00    -0.320 N 
ATOM      9  H5  UNL     1      -3.579   2.116  -0.556  1.00  0.00     0.181 HD
HETATM   10  N6  UNL     1      -1.771   1.313  -0.133  1.00  0.00    -0.241 N 
ATOM     11  H6  UNL     1      -1.232   2.164   0.027  1.00  0.00     0.208 HD
ENDROOT
BRANCH   1  12
HETATM   12  N2  UNL     1       2.463   0.237  -0.031  1.00  0.00    -0.250 N 
HETATM   13  C1  UNL     1       3.172   0.063   1.185  1.00  0.00     0.347 C 
HETATM   14  N1  UNL     1       4.505  -0.354   1.238  1.00  0.00    -0.038 NA
HETATM   15  O1  UNL     1       2.556   0.300   2.255  1.00  0.00    -0.249 OA
ATOM     16  H2  UNL     1       2.944   0.050  -0.911  1.00  0.00     0.191 HD
ENDBRANCH   1  12
TORSDOF 1
