REMARK  5 active torsions:
REMARK  status: ('A' for Active; 'I' for Inactive)
REMARK       I    between atoms: C1_4  and  N2_5 
REMARK       I    between atoms: C1_4  and  N3_10 
REMARK    1  A    between atoms: N2_5  and  C2_7 
REMARK    2  A    between atoms: C2_7  and  C3_8 
REMARK       I    between atoms: N3_10  and  C4_12 
REMARK    3  A    between atoms: C4_12  and  C5_14 
REMARK       I    between atoms: N4_19  and  C10_20 
REMARK       I    between atoms: C10_20  and  N5_22 
REMARK    4  A    between atoms: N5_22  and  N6_24 
REMARK    5  A    between atoms: N6_24  and  C11_26 
ROOT
HETATM    1  C5  UNL     1      -0.076  -0.904   0.051  1.00  0.00     0.181 C 
HETATM    2  C6  UNL     1      -0.401  -2.043  -0.966  1.00  0.00     0.035 C 
HETATM    3  C7  UNL     1       0.677  -3.034  -1.120  1.00  0.00     0.004 C 
HETATM    4  C8  UNL     1       1.610  -2.885   0.081  1.00  0.00     0.020 C 
HETATM    5  C9  UNL     1       2.263  -1.547  -0.002  1.00  0.00     0.129 C 
HETATM    6  N4  UNL     1       1.242  -0.442  -0.080  1.00  0.00    -0.319 N 
HETATM    7  C10 UNL     1       1.773   0.853  -0.240  1.00  0.00     0.337 C 
HETATM    8  O3  UNL     1       1.159   1.924  -0.299  1.00  0.00    -0.245 OA
HETATM    9  N5  UNL     1       3.213   1.000  -0.355  1.00  0.00    -0.250 N 
ATOM     10  H5  UNL     1       3.793   0.162  -0.318  1.00  0.00     0.192 HD
ENDROOT
BRANCH   1  11
HETATM   11  C4  UNL     1      -1.223  -0.018   0.051  1.00  0.00     0.259 C 
HETATM   12  N3  UNL     1      -2.389  -0.425   0.787  1.00  0.00    -0.159 N 
HETATM   13  C1  UNL     1      -3.584   0.299   0.904  1.00  0.00     0.674 C 
ATOM     14  H3  UNL     1      -2.343  -1.323   1.268  1.00  0.00     0.187 HD
HETATM   15  N1  UNL     1      -4.537  -0.195   1.601  1.00  0.00    -0.235 N 
HETATM   16  N2  UNL     1      -3.747   1.540   0.260  1.00  0.00    -0.220 N 
ATOM     17  H12 UNL     1      -5.406   0.332   1.686  1.00  0.00     0.174 HD
ATOM     18  H11 UNL     1      -4.419  -1.094   2.068  1.00  0.00     0.174 HD
ATOM     19  H2  UNL     1      -3.028   2.252   0.389  1.00  0.00     0.178 HD
HETATM   20  O2  UNL     1      -1.270   1.059  -0.533  1.00  0.00    -0.270 OA
BRANCH  16  21
HETATM   21  C2  UNL     1      -4.886   1.855  -0.577  1.00  0.00     0.207 C 
BRANCH  21  22
HETATM   22  C3  UNL     1      -6.144   2.074   0.162  1.00  0.00     0.251 C 
HETATM   23  O1  UNL     1      -6.231   2.098   1.362  1.00  0.00    -0.305 OA
ENDBRANCH  21  22
ENDBRANCH  16  21
ENDBRANCH   1  11
BRANCH   9  24
HETATM   24  N6  UNL     1       3.833   2.226  -0.513  1.00  0.00    -0.275 N 
ATOM     25  H6  UNL     1       3.292   3.016  -0.864  1.00  0.00     0.189 HD
BRANCH  24  26
HETATM   26  C11 UNL     1       5.206   2.410  -0.198  1.00  0.00     0.199 C 
HETATM   27  N7  UNL     1       5.956   1.306   0.290  1.00  0.00    -0.068 NA
HETATM   28  S1  UNL     1       5.936   3.855  -0.383  1.00  0.00    -0.043 SA
ENDBRANCH  24  26
ENDBRANCH   9  24
TORSDOF 5
