REMARK  4 active torsions:
REMARK  status: ('A' for Active; 'I' for Inactive)
REMARK       I    between atoms: N3_4  and  C2_6 
REMARK    1  A    between atoms: C2_6  and  C3_8 
REMARK    2  A    between atoms: C3_8  and  C4_9 
REMARK    3  A    between atoms: C4_9  and  C5_10 
REMARK    4  A    between atoms: C5_10  and  N4_11 
ROOT
HETATM    1  N4  UNL     1       0.300   0.319  -0.196  1.00  0.00    -0.392 N 
HETATM    2  C6  UNL     1      -0.093   0.263   1.129  1.00  0.00     0.123 C 
HETATM    3  C7  UNL     1      -0.047  -1.179   1.662  1.00  0.00     0.039 C 
HETATM    4  C8  UNL     1      -1.362  -1.872   1.530  1.00  0.00     0.115 C 
HETATM    5  N5  UNL     1      -2.094  -2.009   2.753  1.00  0.00    -0.420 N 
ATOM      6  H5  UNL     1      -1.699  -2.477   3.569  1.00  0.00     0.153 HD
HETATM    7  C9  UNL     1      -3.408  -1.452   2.764  1.00  0.00     0.141 C 
HETATM    8  C10 UNL     1      -4.282  -1.907   1.645  1.00  0.00     0.251 C 
HETATM    9  N6  UNL     1      -5.205  -0.904   1.189  1.00  0.00    -0.074 N 
ATOM     10  H61 UNL     1      -6.011  -0.852   1.812  1.00  0.00     0.277 HD
ATOM     11  H62 UNL     1      -5.667  -1.208   0.332  1.00  0.00     0.277 HD
HETATM   12  C11 UNL     1      -4.619   0.404   1.011  1.00  0.00     0.234 C 
HETATM   13  C12 UNL     1      -5.107   1.121  -0.223  1.00  0.00     0.055 C 
HETATM   14  C13 UNL     1      -3.976   2.055  -0.676  1.00  0.00     0.234 C 
HETATM   15  N7  UNL     1      -2.963   1.331  -1.388  1.00  0.00    -0.074 N 
ATOM     16  H71 UNL     1      -3.082   1.432  -2.396  1.00  0.00     0.277 HD
ATOM     17  H72 UNL     1      -3.107   0.325  -1.304  1.00  0.00     0.277 HD
HETATM   18  C14 UNL     1      -1.600   1.704  -0.979  1.00  0.00     0.252 C 
HETATM   19  C15 UNL     1      -0.686   0.543  -1.203  1.00  0.00     0.149 C 
ENDROOT
BRANCH   1  20
HETATM   20  C5  UNL     1       1.541   0.853  -0.576  1.00  0.00     0.058 C 
BRANCH  20  21
HETATM   21  C4  UNL     1       2.773   0.120  -0.197  1.00  0.00     0.053 C 
BRANCH  21  22
HETATM   22  C3  UNL     1       3.971   0.887  -0.712  1.00  0.00     0.108 C 
BRANCH  22  23
HETATM   23  C2  UNL     1       5.244   0.219  -0.373  1.00  0.00     0.224 C 
HETATM   24  N3  UNL     1       6.513   0.688  -0.706  1.00  0.00    -0.304 N 
HETATM   25  C1  UNL     1       7.294  -0.022  -1.442  1.00  0.00     0.203 C 
ATOM     26  H3  UNL     1       6.824   1.598  -0.365  1.00  0.00     0.171 HD
HETATM   27  N1  UNL     1       6.848  -1.279  -1.906  1.00  0.00    -0.066 NA
HETATM   28  N2  UNL     1       8.591   0.388  -1.817  1.00  0.00    -0.066 NA
HETATM   29  O1  UNL     1       5.168  -0.865   0.272  1.00  0.00    -0.273 OA
ENDBRANCH  22  23
ENDBRANCH  21  22
ENDBRANCH  20  21
ENDBRANCH   1  20
TORSDOF 4
