REMARK  3 active torsions:
REMARK  status: ('A' for Active; 'I' for Inactive)
REMARK    1  A    between atoms: C8_8  and  N1_9 
REMARK    2  A    between atoms: C8_8  and  C13_26 
REMARK       I    between atoms: N1_9  and  C9_11 
REMARK    3  A    between atoms: C9_11  and  C10_13 
REMARK       I    between atoms: C10_13  and  N2_15 
REMARK       I    between atoms: N2_15  and  C11_17 
REMARK       I    between atoms: N4_19  and  C12_21 
ROOT
HETATM    1  N1  UNL     1      -0.513   0.287  -0.220  1.00  0.00    -0.333 N 
ATOM      2  H1  UNL     1      -0.438   1.303  -0.180  1.00  0.00     0.164 HD
HETATM    3  C9  UNL     1       0.636  -0.522  -0.078  1.00  0.00     0.310 C 
HETATM    4  O1  UNL     1       0.526  -1.767  -0.127  1.00  0.00    -0.262 OA
ENDROOT
BRANCH   3   5
HETATM    5  C10 UNL     1       1.953   0.059   0.126  1.00  0.00     0.315 C 
HETATM    6  O2  UNL     1       2.085   1.305   0.177  1.00  0.00    -0.262 OA
HETATM    7  N2  UNL     1       3.095  -0.770   0.268  1.00  0.00    -0.293 N 
HETATM    8  C11 UNL     1       4.405  -0.246   0.470  1.00  0.00     0.197 C 
ATOM      9  H2  UNL     1       2.974  -1.782   0.224  1.00  0.00     0.172 HD
HETATM   10  N3  UNL     1       4.534   1.175   0.525  1.00  0.00    -0.063 NA
HETATM   11  N4  UNL     1       5.435  -1.002   0.598  1.00  0.00    -0.305 N 
HETATM   12  C12 UNL     1       6.707  -0.402   0.796  1.00  0.00     0.188 C 
ATOM     13  H4  UNL     1       5.341  -2.017   0.558  1.00  0.00     0.171 HD
HETATM   14  N5  UNL     1       6.946   0.389   1.793  1.00  0.00    -0.373 N 
HETATM   15  N6  UNL     1       7.744  -0.683  -0.134  1.00  0.00    -0.064 NA
ATOM     16  H52 UNL     1       6.202   0.591   2.461  1.00  0.00     0.158 HD
ATOM     17  H51 UNL     1       7.860   0.820   1.935  1.00  0.00     0.158 HD
ENDBRANCH   3   5
BRANCH   1  18
HETATM   18  C8  UNL     1      -1.819  -0.358  -0.427  1.00  0.00     0.128 C 
HETATM   19  C2  UNL     1      -2.822   0.762  -0.509  1.00  0.00    -0.012 C 
HETATM   20  C1  UNL     1      -4.073   0.415  -1.268  1.00  0.00     0.018 C 
HETATM   21  C3  UNL     1      -2.245   2.019  -1.126  1.00  0.00     0.018 C 
HETATM   22  C4  UNL     1      -3.276   1.160   0.902  1.00  0.00     0.012 C 
HETATM   23  C5  UNL     1      -4.020  -0.005   1.492  1.00  0.00     0.001 C 
HETATM   24  C6  UNL     1      -3.378  -1.326   1.304  1.00  0.00     0.003 C 
HETATM   25  C7  UNL     1      -2.037  -1.322   0.662  1.00  0.00     0.043 C 
BRANCH  18  26
HETATM   26  C13 UNL     1      -1.737  -0.989  -1.765  1.00  0.00     0.203 C 
HETATM   27  O3  UNL     1      -0.748  -0.913  -2.536  1.00  0.00    -0.646 OA
HETATM   28  O4  UNL     1      -2.814  -1.725  -2.235  1.00  0.00    -0.646 OA
ENDBRANCH  18  26
ENDBRANCH   1  18
TORSDOF 3
