REMARK  9 active torsions:
REMARK  status: ('A' for Active; 'I' for Inactive)
REMARK    1  A    between atoms: N1_1  and  S1_4 
REMARK    2  A    between atoms: S1_4  and  N2_6 
REMARK    3  A    between atoms: S1_4  and  N7_21 
REMARK       I    between atoms: N2_6  and  C1_8 
REMARK       I    between atoms: C1_8  and  N3_10 
REMARK    4  A    between atoms: N3_10  and  N4_12 
REMARK    5  A    between atoms: N4_12  and  C2_13 
REMARK    6  A    between atoms: C2_13  and  O3_14 
REMARK    7  A    between atoms: C2_13  and  N5_16 
REMARK    8  A    between atoms: N5_16  and  C3_17 
REMARK    9  A    between atoms: C3_17  and  O4_19 
ROOT
HETATM    1  N2  UNL     1      -0.322   0.031  -1.542  1.00  0.00    -0.234 N 
ATOM      2  H2  UNL     1      -0.938   0.721  -1.972  1.00  0.00     0.183 HD
HETATM    3  C1  UNL     1       1.004   0.331  -1.439  1.00  0.00     0.358 C 
HETATM    4  O2  UNL     1       1.868  -0.431  -1.033  1.00  0.00    -0.244 OA
HETATM    5  N3  UNL     1       1.354   1.682  -1.837  1.00  0.00    -0.179 N 
ATOM      6  H3  UNL     1       0.675   2.363  -2.178  1.00  0.00     0.207 HD
ENDROOT
BRANCH   1   7
HETATM    7  S1  UNL     1      -1.040  -1.485  -0.974  1.00  0.00     0.201 S 
HETATM    8  O1  UNL     1      -0.323  -2.635  -1.316  1.00  0.00    -0.205 OA
BRANCH   7   9
HETATM    9  N1  UNL     1      -2.415  -1.471  -1.772  1.00  0.00    -0.328 N 
ATOM     10  H12 UNL     1      -2.713  -2.194  -2.427  1.00  0.00     0.168 HD
ATOM     11  H11 UNL     1      -2.938  -0.632  -1.522  1.00  0.00     0.168 HD
ENDBRANCH   7   9
BRANCH   7  12
HETATM   12  N7  UNL     1      -1.277  -1.256   0.714  1.00  0.00    -0.290 N 
HETATM   13  C4  UNL     1      -2.094  -0.086   0.873  1.00  0.00     0.145 C 
HETATM   14  C5  UNL     1      -3.154  -0.180   1.897  1.00  0.00     0.005 C 
HETATM   15  C6  UNL     1      -4.211  -1.195   1.646  1.00  0.00     0.007 C 
HETATM   16  C9  UNL     1      -2.459  -0.727   3.174  1.00  0.00     0.016 C 
HETATM   17  C7  UNL     1      -3.714  -2.512   2.237  1.00  0.00     0.010 C 
HETATM   18  C8  UNL     1      -2.334  -2.208   2.759  1.00  0.00     0.025 C 
HETATM   19  C10 UNL     1      -1.413  -2.307   1.548  1.00  0.00     0.080 C 
ENDBRANCH   7  12
ENDBRANCH   1   7
BRANCH   5  20
HETATM   20  N4  UNL     1       2.773   1.964  -1.699  1.00  0.00    -0.262 NA
BRANCH  20  21
HETATM   21  C2  UNL     1       3.946   2.197  -1.565  1.00  0.00     0.399 C 
BRANCH  21  22
HETATM   22  O3  UNL     1       4.486   2.256  -0.226  1.00  0.00    -0.308 OA
ATOM     23  H3  UNL     1       5.412   2.440  -0.120  1.00  0.00     0.223 HD
ENDBRANCH  21  22
BRANCH  21  24
HETATM   24  N5  UNL     1       5.046   2.517  -2.374  1.00  0.00    -0.312 NA
BRANCH  24  25
HETATM   25  C3  UNL     1       6.142   2.867  -3.003  1.00  0.00     0.310 C 
HETATM   26  N6  UNL     1       6.614   2.834  -4.390  1.00  0.00    -0.042 NA
BRANCH  25  27
HETATM   27  O4  UNL     1       7.186   3.434  -2.316  1.00  0.00    -0.324 OA
ATOM     28  H4  UNL     1       7.980   3.688  -2.772  1.00  0.00     0.221 HD
ENDBRANCH  25  27
ENDBRANCH  24  25
ENDBRANCH  21  24
ENDBRANCH  20  21
ENDBRANCH   5  20
TORSDOF 9
