REMARK  6 active torsions:
REMARK  status: ('A' for Active; 'I' for Inactive)
REMARK       I    between atoms: N1_3  and  C3_5 
REMARK       I    between atoms: C3_5  and  N2_7 
REMARK    1  A    between atoms: N2_7  and  C4_9 
REMARK    2  A    between atoms: C4_9  and  C5_10 
REMARK    3  A    between atoms: C5_10  and  N3_11 
REMARK    4  A    between atoms: N3_11  and  C6_13 
REMARK    5  A    between atoms: C6_13  and  N4_15 
REMARK    6  A    between atoms: N4_15  and  N5_17 
REMARK       I    between atoms: N5_17  and  C7_19 
REMARK       I    between atoms: C7_19  and  N8_24 
ROOT
HETATM    1  C1  UNL     1       5.594   0.179   4.749  1.00  0.00     0.123 C 
HETATM    2  C2  UNL     1       5.150  -0.386   3.763  1.00  0.00    -0.071 C 
HETATM    3  N1  UNL     1       4.637  -1.053   2.650  1.00  0.00    -0.278 N 
ATOM      4  H1  UNL     1       5.264  -1.594   2.054  1.00  0.00     0.180 HD
HETATM    5  C3  UNL     1       3.252  -0.988   2.336  1.00  0.00     0.327 C 
HETATM    6  O1  UNL     1       2.484  -0.325   3.057  1.00  0.00    -0.246 OA
HETATM    7  N2  UNL     1       2.775  -1.697   1.187  1.00  0.00    -0.338 N 
ATOM      8  H2  UNL     1       3.420  -2.234   0.608  1.00  0.00     0.164 HD
ENDROOT
BRANCH   7   9
HETATM    9  C4  UNL     1       1.344  -1.642   0.851  1.00  0.00     0.169 C 
BRANCH   9  10
HETATM   10  C5  UNL     1       1.143  -2.497  -0.398  1.00  0.00     0.083 C 
BRANCH  10  11
HETATM   11  N3  UNL     1       1.857  -2.048  -1.526  1.00  0.00    -0.344 N 
ATOM     12  H3  UNL     1       2.700  -2.577  -1.749  1.00  0.00     0.167 HD
BRANCH  11  13
HETATM   13  C6  UNL     1       1.577  -0.991  -2.374  1.00  0.00     0.190 C 
HETATM   14  S1  UNL     1       2.697  -0.660  -3.611  1.00  0.00    -0.039 SA
BRANCH  13  15
HETATM   15  N4  UNL     1       0.489  -0.123  -2.376  1.00  0.00    -0.262 N 
ATOM     16  H4  UNL     1       0.520   0.602  -3.093  1.00  0.00     0.190 HD
BRANCH  15  17
HETATM   17  N5  UNL     1      -0.628  -0.088  -1.559  1.00  0.00    -0.129 N 
HETATM   18  C7  UNL     1      -1.052   1.093  -0.831  1.00  0.00     0.704 C 
HETATM   19  N6  UNL     1      -0.131   1.951  -0.577  1.00  0.00    -0.125 N 
HETATM   20  N8  UNL     1      -2.400   1.247  -0.452  1.00  0.00    -0.216 N 
HETATM   21  C8  UNL     1      -0.320   3.153   0.110  1.00  0.00     0.196 C 
ATOM     22  H6  UNL     1       0.812   1.739  -0.902  1.00  0.00     0.197 HD
HETATM   23  N7  UNL     1      -0.493   4.129   0.688  1.00  0.00    -0.171 NA
HETATM   24  C9  UNL     1      -3.171   2.453  -0.519  1.00  0.00     0.141 C 
HETATM   25  C12 UNL     1      -3.267   0.216   0.062  1.00  0.00     0.141 C 
HETATM   26  C10 UNL     1      -4.485   1.952  -1.124  1.00  0.00     0.022 C 
HETATM   27  C11 UNL     1      -4.667   0.631  -0.417  1.00  0.00     0.022 C 
ATOM     28  H5  UNL     1      -1.183  -0.939  -1.464  1.00  0.00     0.205 HD
ENDBRANCH  15  17
ENDBRANCH  13  15
ENDBRANCH  11  13
ENDBRANCH  10  11
ENDBRANCH   9  10
ENDBRANCH   7   9
TORSDOF 6
