REMARK  4 active torsions:
REMARK  status: ('A' for Active; 'I' for Inactive)
REMARK    1  A    between atoms: C2_4  and  N2_5 
REMARK    2  A    between atoms: C2_4  and  C9_24 
REMARK    3  A    between atoms: N2_5  and  N3_7 
REMARK    4  A    between atoms: N3_7  and  C3_9 
REMARK       I    between atoms: N4_13  and  C7_14 
REMARK       I    between atoms: N6_16  and  C8_18 
ROOT
HETATM    1  C3  UNL     1       0.677  -0.497   0.565  1.00  0.00     0.266 C 
HETATM    2  C4  UNL     1       0.601   0.288  -0.691  1.00  0.00     0.059 C 
HETATM    3  C5  UNL     1       1.617  -0.038  -1.729  1.00  0.00     0.027 C 
HETATM    4  C6  UNL     1       2.981  -0.372  -1.229  1.00  0.00     0.159 C 
HETATM    5  N4  UNL     1       2.915  -0.587   0.197  1.00  0.00    -0.227 N 
HETATM    6  C7  UNL     1       3.934  -0.137   1.075  1.00  0.00     0.217 C 
HETATM    7  N5  UNL     1       4.258   1.229   1.243  1.00  0.00    -0.061 NA
HETATM    8  N6  UNL     1       4.607  -1.030   1.762  1.00  0.00    -0.303 N 
ATOM      9  H6  UNL     1       4.393  -2.022   1.659  1.00  0.00     0.171 HD
HETATM   10  C8  UNL     1       5.624  -0.617   2.641  1.00  0.00     0.188 C 
HETATM   11  N7  UNL     1       5.489  -0.795   3.898  1.00  0.00    -0.373 N 
ATOM     12  H71 UNL     1       6.227  -0.495   4.536  1.00  0.00     0.158 HD
ATOM     13  H72 UNL     1       4.645  -1.235   4.265  1.00  0.00     0.158 HD
HETATM   14  N8  UNL     1       6.789  -0.009   2.134  1.00  0.00    -0.064 NA
HETATM   15  O1  UNL     1       1.852  -1.233   0.693  1.00  0.00    -0.248 OA
ENDROOT
BRANCH   1  16
HETATM   16  N3  UNL     1      -0.436  -1.343   0.854  1.00  0.00    -0.304 N 
ATOM     17  H3  UNL     1      -0.340  -2.357   0.914  1.00  0.00     0.183 HD
BRANCH  16  18
HETATM   18  N2  UNL     1      -1.647  -0.714   1.047  1.00  0.00    -0.291 N 
ATOM     19  H2  UNL     1      -1.806  -0.184   1.904  1.00  0.00     0.188 HD
BRANCH  18  20
HETATM   20  C2  UNL     1      -2.671  -0.790   0.079  1.00  0.00     0.095 C 
HETATM   21  N1  UNL     1      -2.800  -1.817  -0.650  1.00  0.00    -0.383 N 
HETATM   22  C1  UNL     1      -1.986  -2.978  -0.608  1.00  0.00     0.147 C 
ATOM     23  H1  UNL     1      -3.560  -1.809  -1.331  1.00  0.00     0.160 HD
BRANCH  20  24
HETATM   24  C9  UNL     1      -3.653   0.314  -0.122  1.00  0.00     0.058 C 
HETATM   25  C10 UNL     1      -4.597  -0.088  -1.226  1.00  0.00     0.038 C 
HETATM   26  C11 UNL     1      -5.533   1.077  -1.455  1.00  0.00     0.168 C 
HETATM   27  O2  UNL     1      -5.384   2.061  -0.492  1.00  0.00    -0.391 OA
HETATM   28  C12 UNL     1      -4.144   2.660  -0.488  1.00  0.00     0.168 C 
HETATM   29  C13 UNL     1      -3.037   1.623  -0.494  1.00  0.00     0.038 C 
ENDBRANCH  20  24
ENDBRANCH  18  20
ENDBRANCH  16  18
ENDBRANCH   1  16
TORSDOF 4
