REMARK  3 active torsions:
REMARK  status: ('A' for Active; 'I' for Inactive)
REMARK    1  A    between atoms: C3_7  and  C4_8 
REMARK    2  A    between atoms: C4_8  and  N3_9 
REMARK    3  A    between atoms: C6_11  and  C7_12 
ROOT
HETATM    1  N3  UNL     1      -1.352   0.688   0.962  1.00  0.00    -0.303 N 
HETATM    2  C5  UNL     1      -0.238  -0.021   1.276  1.00  0.00     0.113 A 
HETATM    3  C6  UNL     1       1.030   0.556   1.243  1.00  0.00     0.050 A 
HETATM    4  C11 UNL     1       1.099   1.885   0.875  1.00  0.00     0.261 A 
HETATM    5  O2  UNL     1       2.196   2.536   0.810  1.00  0.00    -0.267 OA
HETATM    6  N6  UNL     1      -0.054   2.531   0.574  1.00  0.00    -0.275 N 
ATOM      7  H6  UNL     1       0.008   3.512   0.303  1.00  0.00     0.173 HD
HETATM    8  C12 UNL     1      -1.263   1.972   0.608  1.00  0.00     0.329 A 
HETATM    9  O3  UNL     1      -2.278   2.650   0.314  1.00  0.00    -0.246 OA
ENDROOT
BRANCH   3  10
HETATM   10  C7  UNL     1       2.211  -0.165   1.621  1.00  0.00     0.053 C 
HETATM   11  C8  UNL     1       3.225  -0.514   0.822  1.00  0.00     0.104 A 
HETATM   12  N4  UNL     1       4.387  -1.227   1.244  1.00  0.00    -0.329 N 
HETATM   13  C10 UNL     1       3.360  -0.315  -0.610  1.00  0.00     0.274 A 
HETATM   14  C9  UNL     1       5.222  -1.469   0.136  1.00  0.00     0.179 A 
ATOM     15  H4  UNL     1       4.583  -1.517   2.202  1.00  0.00     0.168 HD
HETATM   16  S1  UNL     1       6.675  -2.262   0.145  1.00  0.00    -0.040 SA
HETATM   17  N5  UNL     1       4.597  -0.912  -0.998  1.00  0.00    -0.298 N 
ATOM     18  H5  UNL     1       4.970  -0.932  -1.947  1.00  0.00     0.171 HD
HETATM   19  O1  UNL     1       2.615   0.241  -1.421  1.00  0.00    -0.266 OA
ENDBRANCH   3  10
BRANCH   1  20
HETATM   20  C4  UNL     1      -2.646   0.043   0.991  1.00  0.00     0.193 C 
BRANCH  20  21
HETATM   21  C3  UNL     1      -2.980  -0.668  -0.270  1.00  0.00     0.067 A 
HETATM   22  C2  UNL     1      -3.408  -0.423  -1.554  1.00  0.00     0.047 A 
HETATM   23  C1  UNL     1      -3.778   0.804  -2.342  1.00  0.00     0.072 C 
HETATM   24  N1  UNL     1      -3.368  -1.750  -1.824  1.00  0.00    -0.303 N 
HETATM   25  N2  UNL     1      -2.961  -2.000  -0.605  1.00  0.00    -0.301 N 
ATOM     26  H1  UNL     1      -3.572  -2.322  -2.644  1.00  0.00     0.186 HD
ATOM     27  H2  UNL     1      -2.722  -2.853  -0.100  1.00  0.00     0.186 HD
ENDBRANCH  20  21
ENDBRANCH   1  20
TORSDOF 3
