REMARK  2 active torsions:
REMARK  status: ('A' for Active; 'I' for Inactive)
REMARK    1  A    between atoms: C2_5  and  N2_6 
REMARK    2  A    between atoms: N2_6  and  C3_8 
ROOT
HETATM    1  O1  UNL     1       2.945   2.365   1.816  1.00  0.00    -0.262 OA
HETATM    2  C1  UNL     1       2.534   1.370   1.180  1.00  0.00     0.316 A 
HETATM    3  N1  UNL     1       1.326   0.662   1.333  1.00  0.00    -0.290 N 
ATOM      4  H1  UNL     1       0.611   0.897   2.021  1.00  0.00     0.172 HD
HETATM    5  C2  UNL     1       1.231  -0.317   0.502  1.00  0.00     0.191 A 
HETATM    6  N5  UNL     1       2.388  -0.364  -0.306  1.00  0.00    -0.290 N 
ATOM      7  H5  UNL     1       2.572  -1.042  -1.046  1.00  0.00     0.172 HD
HETATM    8  C6  UNL     1       3.250   0.691   0.086  1.00  0.00     0.316 A 
HETATM    9  O2  UNL     1       4.377   0.978  -0.397  1.00  0.00    -0.262 OA
ENDROOT
BRANCH   5  10
HETATM   10  N2  UNL     1       0.110  -1.205   0.433  1.00  0.00    -0.313 N 
ATOM     11  H2  UNL     1       0.232  -2.180   0.706  1.00  0.00     0.170 HD
BRANCH  10  12
HETATM   12  C3  UNL     1      -1.032  -0.812   0.042  1.00  0.00     0.123 A 
HETATM   13  C4  UNL     1      -1.336   0.460  -0.350  1.00  0.00     0.068 A 
HETATM   14  C5  UNL     1      -2.682   0.483  -0.702  1.00  0.00     0.111 A 
HETATM   15  N3  UNL     1      -3.146  -0.761  -0.515  1.00  0.00    -0.310 N 
HETATM   16  N4  UNL     1      -2.143  -1.536  -0.065  1.00  0.00    -0.286 N 
ATOM     17  H3  UNL     1      -4.103  -1.069  -0.686  1.00  0.00     0.186 HD
ATOM     18  H4  UNL     1      -2.222  -2.528   0.160  1.00  0.00     0.188 HD
ENDBRANCH  10  12
ENDBRANCH   5  10
TORSDOF 2
