REMARK  4 active torsions:
REMARK  status: ('A' for Active; 'I' for Inactive)
REMARK    1  A    between atoms: C2_3  and  C3_5 
REMARK    2  A    between atoms: C6_8  and  C7_9 
REMARK    3  A    between atoms: C7_9  and  C8_11 
REMARK    4  A    between atoms: C8_11  and  N4_12 
ROOT
HETATM    1  N1  UNL     1      -3.661   1.933  -1.961  1.00  0.00    -0.190 NA
HETATM    2  C1  UNL     1      -3.356   1.338  -1.010  1.00  0.00     0.117 C 
HETATM    3  C2  UNL     1      -2.994   0.592   0.153  1.00  0.00     0.152 C 
HETATM    4  N2  UNL     1      -3.968   0.320   1.132  1.00  0.00    -0.088 NA
ENDROOT
BRANCH   3   5
HETATM    5  C3  UNL     1      -1.733   0.162   0.297  1.00  0.00     0.068 A 
HETATM    6  C4  UNL     1      -1.276  -0.564   1.376  1.00  0.00     0.034 A 
HETATM    7  C5  UNL     1       0.080  -0.803   1.127  1.00  0.00     0.033 A 
HETATM    8  C6  UNL     1       0.427  -0.231  -0.077  1.00  0.00     0.054 A 
HETATM    9  N5  UNL     1      -0.712   0.336  -0.529  1.00  0.00    -0.353 N 
ATOM     10  H5  UNL     1      -0.779   0.844  -1.411  1.00  0.00     0.166 HD
BRANCH   8  11
HETATM   11  C7  UNL     1       1.618  -0.244  -0.651  1.00  0.00     0.076 C 
HETATM   12  N3  UNL     1       1.780   0.405  -1.902  1.00  0.00    -0.103 NA
BRANCH  11  13
HETATM   13  C8  UNL     1       2.788  -0.912  -0.034  1.00  0.00     0.285 C 
BRANCH  13  14
HETATM   14  N4  UNL     1       3.804   0.044   0.186  1.00  0.00    -0.074 N 
ATOM     15  H43 UNL     1       4.051   0.550  -0.664  1.00  0.00     0.274 HD
ATOM     16  H42 UNL     1       3.476   0.838   0.736  1.00  0.00     0.274 HD
ATOM     17  H41 UNL     1       4.609  -0.416   0.611  1.00  0.00     0.274 HD
ENDBRANCH  13  14
ENDBRANCH  11  13
ENDBRANCH   8  11
ENDBRANCH   3   5
TORSDOF 4
