REMARK  3 active torsions:
REMARK  status: ('A' for Active; 'I' for Inactive)
REMARK    1  A    between atoms: N1_1  and  C1_4 
REMARK    2  A    between atoms: C4_9  and  N3_10 
REMARK       I    between atoms: N3_10  and  C5_12 
REMARK    3  A    between atoms: C5_12  and  C6_14 
ROOT
HETATM    1  C1  UNL     1      -2.737   0.454   0.069  1.00  0.00     0.677 A 
HETATM    2  N2  UNL     1      -2.722  -0.702   0.739  1.00  0.00    -0.202 N 
ATOM      3  H2  UNL     1      -3.606  -1.060   1.102  1.00  0.00     0.183 HD
HETATM    4  C2  UNL     1      -1.609  -1.418   0.961  1.00  0.00     0.110 A 
HETATM    5  C3  UNL     1      -0.427  -0.907   0.457  1.00  0.00     0.067 A 
HETATM    6  C4  UNL     1      -0.436   0.283  -0.234  1.00  0.00     0.125 A 
HETATM    7  N5  UNL     1      -1.584   0.951  -0.422  1.00  0.00    -0.177 N 
ATOM      8  H5  UNL     1      -1.585   1.833  -0.935  1.00  0.00     0.185 HD
ENDROOT
BRANCH   6   9
HETATM    9  N3  UNL     1       0.640   0.795  -0.720  1.00  0.00    -0.305 N 
HETATM   10  C5  UNL     1       1.881   0.124  -0.547  1.00  0.00     0.312 C 
HETATM   11  O1  UNL     1       2.065  -0.910  -1.235  1.00  0.00    -0.262 OA
ATOM     12  H3  UNL     1       0.602   1.679  -1.227  1.00  0.00     0.170 HD
BRANCH  10  13
HETATM   13  C6  UNL     1       2.906   0.586   0.372  1.00  0.00     0.322 C 
HETATM   14  N4  UNL     1       4.119  -0.136   0.491  1.00  0.00    -0.053 NA
HETATM   15  O2  UNL     1       2.762   1.612   1.077  1.00  0.00    -0.266 OA
ENDBRANCH  10  13
ENDBRANCH   6   9
BRANCH   1  16
HETATM   16  N1  UNL     1      -3.824   1.114  -0.125  1.00  0.00    -0.234 N 
ATOM     17  H12 UNL     1      -4.696   0.738   0.246  1.00  0.00     0.174 HD
ATOM     18  H11 UNL     1      -3.835   1.996  -0.636  1.00  0.00     0.174 HD
ENDBRANCH   1  16
TORSDOF 3
