REMARK  3 active torsions:
REMARK  status: ('A' for Active; 'I' for Inactive)
REMARK    1  A    between atoms: C1_4  and  N2_5 
REMARK    2  A    between atoms: C3_12  and  N5_13 
REMARK    3  A    between atoms: N5_13  and  C4_15 
ROOT
HETATM    1  N2  UNL     1      -1.162   0.517   0.287  1.00  0.00    -0.090 N 
HETATM    2  C2  UNL     1      -2.117  -0.452   0.272  1.00  0.00     0.361 A 
HETATM    3  O1  UNL     1      -3.358  -0.229   0.291  1.00  0.00    -0.244 OA
HETATM    4  N3  UNL     1      -1.528  -1.666   0.233  1.00  0.00    -0.236 N 
ATOM      5  H3  UNL     1      -1.994  -2.573   0.214  1.00  0.00     0.192 HD
HETATM    6  N4  UNL     1      -0.239  -1.445   0.225  1.00  0.00    -0.127 N 
ATOM      7  H4  UNL     1       0.472  -2.176   0.198  1.00  0.00     0.205 HD
HETATM    8  C3  UNL     1       0.027  -0.126   0.257  1.00  0.00     0.710 A 
ENDROOT
BRANCH   8   9
HETATM    9  N5  UNL     1       1.138   0.506   0.261  1.00  0.00    -0.166 N 
ATOM     10  H5  UNL     1       1.099   1.525   0.287  1.00  0.00     0.186 HD
BRANCH   9  11
HETATM   11  C4  UNL     1       2.415  -0.095   0.232  1.00  0.00     0.199 C 
HETATM   12  N6  UNL     1       3.268  -0.103  -0.896  1.00  0.00    -0.069 NA
HETATM   13  S1  UNL     1       2.925  -0.825   1.593  1.00  0.00    -0.044 SA
ENDBRANCH   9  11
ENDBRANCH   8   9
BRANCH   1  14
HETATM   14  C1  UNL     1      -1.381   1.921   0.326  1.00  0.00     0.205 C 
HETATM   15  N1  UNL     1      -2.123   2.506  -0.551  1.00  0.00    -0.394 N 
ATOM     16  H12 UNL     1      -2.553   1.936  -1.280  1.00  0.00     0.156 HD
ATOM     17  H11 UNL     1      -2.280   3.513  -0.523  1.00  0.00     0.156 HD
ENDBRANCH   1  14
TORSDOF 3
