REMARK  10 active torsions:
REMARK  status: ('A' for Active; 'I' for Inactive)
REMARK    1  A    between atoms: N3_4  and  C2_6 
REMARK    2  A    between atoms: C2_6  and  C3_7 
REMARK    3  A    between atoms: C3_7  and  C4_8 
REMARK    4  A    between atoms: C4_8  and  C5_9 
REMARK    5  A    between atoms: C5_9  and  C6_10 
REMARK    6  A    between atoms: C5_9  and  N7_23 
REMARK    7  A    between atoms: C6_10  and  C7_11 
REMARK    8  A    between atoms: C7_11  and  C8_12 
REMARK    9  A    between atoms: C8_12  and  N4_13 
REMARK       I    between atoms: C9_15  and  N6_17 
REMARK       I    between atoms: N7_23  and  C15_25 
REMARK       I    between atoms: C15_25  and  N8_27 
REMARK   10  A    between atoms: N8_27  and  C16_29 
ROOT
HETATM    1  C5  UNL     1      -1.197   0.716   0.394  1.00  0.00     0.086 C 
ENDROOT
BRANCH   1   2
HETATM    2  C4  UNL     1      -2.351   1.305  -0.350  1.00  0.00     0.027 C 
BRANCH   2   3
HETATM    3  C3  UNL     1      -2.469   2.798  -0.213  1.00  0.00     0.022 C 
BRANCH   3   4
HETATM    4  C2  UNL     1      -3.692   3.216  -1.031  1.00  0.00     0.122 C 
BRANCH   4   5
HETATM    5  N3  UNL     1      -3.906   4.630  -0.974  1.00  0.00    -0.367 N 
HETATM    6  C1  UNL     1      -4.910   5.182  -0.382  1.00  0.00     0.196 C 
HETATM    7  N1  UNL     1      -5.903   4.410   0.276  1.00  0.00    -0.067 NA
HETATM    8  N2  UNL     1      -5.060   6.591  -0.364  1.00  0.00    -0.067 NA
ATOM      9  H3  UNL     1      -3.224   5.237  -1.429  1.00  0.00     0.161 HD
ENDBRANCH   4   5
ENDBRANCH   3   4
ENDBRANCH   2   3
ENDBRANCH   1   2
BRANCH   1  10
HETATM   10  C6  UNL     1       0.136   1.227  -0.021  1.00  0.00     0.027 C 
BRANCH  10  11
HETATM   11  C7  UNL     1       0.411   0.948  -1.482  1.00  0.00     0.022 C 
BRANCH  11  12
HETATM   12  C8  UNL     1       1.772   1.480  -1.872  1.00  0.00     0.122 C 
BRANCH  12  13
HETATM   13  N4  UNL     1       2.758   0.827  -1.061  1.00  0.00    -0.365 N 
HETATM   14  C9  UNL     1       3.199  -0.361  -1.265  1.00  0.00     0.186 C 
HETATM   15  N5  UNL     1       2.750  -1.168  -2.332  1.00  0.00    -0.064 NA
HETATM   16  N6  UNL     1       4.175  -0.878  -0.380  1.00  0.00    -0.356 N 
HETATM   17  C10 UNL     1       5.519  -0.341  -0.487  1.00  0.00     0.125 C 
HETATM   18  C14 UNL     1       3.892  -1.900   0.607  1.00  0.00     0.125 C 
HETATM   19  C11 UNL     1       6.351  -0.912   0.639  1.00  0.00     0.020 C 
HETATM   20  C12 UNL     1       6.344  -2.424   0.543  1.00  0.00     0.003 C 
HETATM   21  C13 UNL     1       4.951  -2.981   0.424  1.00  0.00     0.020 C 
ATOM     22  H4  UNL     1       3.135   1.343  -0.266  1.00  0.00     0.162 HD
ENDBRANCH  12  13
ENDBRANCH  11  12
ENDBRANCH  10  11
ENDBRANCH   1  10
BRANCH   1  23
HETATM   23  N7  UNL     1      -1.230  -0.720   0.201  1.00  0.00    -0.338 N 
HETATM   24  C15 UNL     1      -1.400  -1.615   1.320  1.00  0.00     0.322 C 
HETATM   25  O1  UNL     1      -1.522  -1.159   2.487  1.00  0.00    -0.247 OA
HETATM   26  N8  UNL     1      -1.436  -3.008   1.170  1.00  0.00    -0.289 N 
ATOM     27  H8  UNL     1      -0.609  -3.492   0.821  1.00  0.00     0.172 HD
ATOM     28  H7  UNL     1      -1.132  -1.103  -0.739  1.00  0.00     0.164 HD
BRANCH  26  29
HETATM   29  C16 UNL     1      -2.503  -3.701   1.467  1.00  0.00     0.152 A 
HETATM   30  N9  UNL     1      -2.648  -5.019   1.363  1.00  0.00    -0.346 N 
HETATM   31  C17 UNL     1      -3.792  -5.547   1.707  1.00  0.00     0.097 A 
ATOM     32  H9  UNL     1      -1.884  -5.603   1.023  1.00  0.00     0.167 HD
HETATM   33  C18 UNL     1      -4.777  -4.709   2.155  1.00  0.00     0.070 A 
HETATM   34  S1  UNL     1      -4.012  -3.185   2.063  1.00  0.00    -0.064 SA
ENDBRANCH  26  29
ENDBRANCH   1  23
TORSDOF 10
