REMARK  14 active torsions:
REMARK  status: ('A' for Active; 'I' for Inactive)
REMARK    1  A    between atoms: C2_2  and  C3_3 
REMARK    2  A    between atoms: N1_8  and  C8_9 
REMARK    3  A    between atoms: N1_8  and  C16_20 
REMARK    4  A    between atoms: C8_9  and  C9_10 
REMARK    5  A    between atoms: C9_10  and  C10_11 
REMARK    6  A    between atoms: C10_11  and  N2_12 
REMARK       I    between atoms: N2_12  and  C11_14 
REMARK    7  A    between atoms: C11_14  and  C12_16 
REMARK    8  A    between atoms: C16_20  and  C17_21 
REMARK    9  A    between atoms: C17_21  and  C18_22 
REMARK       I    between atoms: C18_22  and  N3_24 
REMARK   10  A    between atoms: N3_24  and  C19_25 
REMARK   11  A    between atoms: C19_25  and  C20_26 
REMARK   12  A    between atoms: C20_26  and  N4_28 
REMARK   13  A    between atoms: C20_26  and  O3_32 
REMARK   14  A    between atoms: C22_34  and  O4_35 
ROOT
HETATM    1  C3  UNL     1      -1.290   3.688   1.540  1.00  0.00     0.042 C 
HETATM    2  C4  UNL     1      -1.015   4.229   0.170  1.00  0.00     0.015 C 
HETATM    3  C5  UNL     1       0.293   3.745  -0.389  1.00  0.00     0.008 C 
HETATM    4  C6  UNL     1       0.243   3.803  -1.910  1.00  0.00     0.011 C 
HETATM    5  C7  UNL     1       0.802   2.484   0.153  1.00  0.00     0.244 C 
HETATM    6  N1  UNL     1      -0.072   1.596   0.871  1.00  0.00    -0.040 N 
HETATM    7  C22 UNL     1      -0.828   2.355   1.868  1.00  0.00     0.327 C 
ENDROOT
BRANCH   6   8
HETATM    8  C8  UNL     1       0.754   0.668   1.565  1.00  0.00     0.242 C 
BRANCH   8   9
HETATM    9  C9  UNL     1       2.005   0.122   1.100  1.00  0.00     0.048 C 
BRANCH   9  10
HETATM   10  C10 UNL     1       2.041  -0.753  -0.113  1.00  0.00     0.124 C 
BRANCH  10  11
HETATM   11  N2  UNL     1       3.381  -1.210  -0.431  1.00  0.00    -0.360 N 
HETATM   12  C11 UNL     1       4.141  -2.014   0.412  1.00  0.00     0.225 C 
HETATM   13  O1  UNL     1       3.714  -2.410   1.512  1.00  0.00    -0.273 OA
ATOM     14  H2  UNL     1       3.788  -0.926  -1.322  1.00  0.00     0.162 HD
BRANCH  12  15
HETATM   15  C12 UNL     1       5.519  -2.426   0.003  1.00  0.00     0.030 C 
HETATM   16  C13 UNL     1       6.327  -1.161  -0.154  1.00  0.00     0.024 C 
HETATM   17  C14 UNL     1       5.445  -3.176  -1.323  1.00  0.00     0.024 C 
HETATM   18  C15 UNL     1       6.074  -3.341   1.050  1.00  0.00     0.024 C 
ENDBRANCH  12  15
ENDBRANCH  10  11
ENDBRANCH   9  10
ENDBRANCH   8   9
ENDBRANCH   6   8
BRANCH   6  19
HETATM   19  C16 UNL     1      -0.906   0.937  -0.067  1.00  0.00     0.251 C 
BRANCH  19  20
HETATM   20  C17 UNL     1      -1.485  -0.365   0.166  1.00  0.00     0.147 C 
BRANCH  20  21
HETATM   21  C18 UNL     1      -2.327  -0.788  -1.071  1.00  0.00     0.292 C 
HETATM   22  O2  UNL     1      -2.473   0.143  -1.905  1.00  0.00    -0.257 OA
HETATM   23  N3  UNL     1      -2.804  -2.047  -1.148  1.00  0.00    -0.383 NA
BRANCH  23  24
HETATM   24  C19 UNL     1      -3.295  -3.340  -1.231  1.00  0.00     0.226 C 
BRANCH  24  25
HETATM   25  C20 UNL     1      -4.809  -3.485  -1.326  1.00  0.00     0.263 C 
HETATM   26  C21 UNL     1      -5.167  -4.938  -1.415  1.00  0.00     0.085 C 
BRANCH  25  27
HETATM   27  N4  UNL     1      -5.317  -2.803  -2.494  1.00  0.00    -0.041 N 
ATOM     28  H43 UNL     1      -5.029  -1.825  -2.515  1.00  0.00     0.278 HD
ATOM     29  H42 UNL     1      -4.853  -3.118  -3.346  1.00  0.00     0.278 HD
ATOM     30  H41 UNL     1      -6.330  -2.900  -2.558  1.00  0.00     0.278 HD
ENDBRANCH  25  27
BRANCH  25  31
HETATM   31  O3  UNL     1      -5.365  -2.910  -0.180  1.00  0.00    -0.360 OA
ATOM     32  H3  UNL     1      -6.309  -3.000  -0.239  1.00  0.00     0.213 HD
ENDBRANCH  25  31
ENDBRANCH  24  25
ENDBRANCH  23  24
ENDBRANCH  20  21
ENDBRANCH  19  20
ENDBRANCH   6  19
BRANCH   7  33
HETATM   33  O4  UNL     1      -1.912   1.609   2.335  1.00  0.00    -0.369 OA
ATOM     34  H4  UNL     1      -1.609   0.735   2.550  1.00  0.00     0.212 HD
ENDBRANCH   7  33
BRANCH   1  35
HETATM   35  C2  UNL     1      -2.773   3.901   1.812  1.00  0.00     0.004 C 
HETATM   36  C1  UNL     1      -3.020   5.406   1.738  1.00  0.00     0.005 C 
ENDBRANCH   1  35
TORSDOF 14
