REMARK  9 active torsions:
REMARK  status: ('A' for Active; 'I' for Inactive)
REMARK    1  A    between atoms: N1_12  and  C11_13 
REMARK    2  A    between atoms: C11_13  and  C12_14 
REMARK       I    between atoms: C12_14  and  N2_16 
REMARK    3  A    between atoms: N2_16  and  C13_18 
REMARK    4  A    between atoms: C13_18  and  C14_19 
REMARK    5  A    between atoms: C14_19  and  C15_20 
REMARK    6  A    between atoms: C15_20  and  C16_21 
REMARK    7  A    between atoms: C16_21  and  C17_22 
REMARK    8  A    between atoms: C17_22  and  C18_23 
REMARK    9  A    between atoms: C18_23  and  N3_24 
REMARK       I    between atoms: N3_24  and  C19_26 
ROOT
HETATM    1  C11 UNL     1      -1.309  -1.789   0.107  1.00  0.00     0.228 C 
ENDROOT
BRANCH   1   2
HETATM    2  N1  UNL     1      -1.837  -0.497   0.397  1.00  0.00    -0.338 N 
HETATM    3  C10 UNL     1      -3.253  -0.434   0.640  1.00  0.00     0.161 C 
HETATM    4  C5  UNL     1      -3.953   0.825   0.404  1.00  0.00     0.018 C 
HETATM    5  C9  UNL     1      -3.564  -0.964   1.984  1.00  0.00     0.150 C 
HETATM    6  C4  UNL     1      -3.310   2.118   0.629  1.00  0.00     0.037 C 
HETATM    7  C6  UNL     1      -5.232   0.826   1.261  1.00  0.00     0.007 C 
HETATM    8  C2  UNL     1      -2.270   2.576  -0.347  1.00  0.00     0.025 C 
HETATM    9  C1  UNL     1      -2.062   4.071  -0.277  1.00  0.00     0.038 C 
HETATM   10  C3  UNL     1      -2.608   2.218  -1.776  1.00  0.00     0.038 C 
HETATM   11  N6  UNL     1      -1.025   1.912   0.008  1.00  0.00    -0.359 N 
HETATM   12  C20 UNL     1      -0.915   0.576   0.491  1.00  0.00     0.171 C 
ATOM     13  H6  UNL     1      -0.162   2.445  -0.097  1.00  0.00     0.162 HD
HETATM   14  S1  UNL     1       0.487   0.220   1.321  1.00  0.00    -0.041 SA
HETATM   15  C7  UNL     1      -5.841  -0.536   1.351  1.00  0.00     0.008 C 
HETATM   16  C8  UNL     1      -4.955  -1.423   2.238  1.00  0.00     0.080 C 
HETATM   17  O1  UNL     1      -2.767  -1.050   2.889  1.00  0.00    -0.296 OA
ENDBRANCH   1   2
BRANCH   1  18
HETATM   18  C12 UNL     1      -0.144  -1.847  -0.798  1.00  0.00     0.235 C 
HETATM   19  O2  UNL     1       0.294  -0.811  -1.326  1.00  0.00    -0.272 OA
HETATM   20  N2  UNL     1       0.475  -3.073  -1.067  1.00  0.00    -0.360 N 
ATOM     21  H2  UNL     1       0.102  -3.914  -0.627  1.00  0.00     0.162 HD
BRANCH  20  22
HETATM   22  C13 UNL     1       1.607  -3.199  -1.932  1.00  0.00     0.122 C 
BRANCH  22  23
HETATM   23  C14 UNL     1       2.839  -2.450  -1.498  1.00  0.00     0.020 C 
BRANCH  23  24
HETATM   24  C15 UNL     1       3.327  -2.886  -0.155  1.00  0.00     0.002 C 
BRANCH  24  25
HETATM   25  C16 UNL     1       4.570  -2.125   0.214  1.00  0.00     0.002 C 
BRANCH  25  26
HETATM   26  C17 UNL     1       4.314  -0.648   0.277  1.00  0.00     0.020 C 
BRANCH  26  27
HETATM   27  C18 UNL     1       5.643  -0.006   0.669  1.00  0.00     0.122 C 
BRANCH  27  28
HETATM   28  N3  UNL     1       5.376   1.428   0.723  1.00  0.00    -0.365 N 
HETATM   29  C19 UNL     1       5.097   2.065  -0.519  1.00  0.00     0.181 C 
HETATM   30  N4  UNL     1       4.308   3.101  -0.592  1.00  0.00    -0.374 N 
HETATM   31  N5  UNL     1       5.662   1.607  -1.745  1.00  0.00    -0.064 NA
ATOM     32  H42 UNL     1       3.904   3.429   0.285  1.00  0.00     0.158 HD
ATOM     33  H41 UNL     1       4.108   3.557  -1.482  1.00  0.00     0.158 HD
ATOM     34  H3  UNL     1       5.389   1.945   1.602  1.00  0.00     0.162 HD
ENDBRANCH  27  28
ENDBRANCH  26  27
ENDBRANCH  25  26
ENDBRANCH  24  25
ENDBRANCH  23  24
ENDBRANCH  22  23
ENDBRANCH  20  22
ENDBRANCH   1  18
TORSDOF 9
