REMARK  11 active torsions:
REMARK  status: ('A' for Active; 'I' for Inactive)
REMARK    1  A    between atoms: N1_6  and  C6_7 
REMARK    2  A    between atoms: C6_7  and  C7_8 
REMARK       I    between atoms: C7_8  and  N2_10 
REMARK    3  A    between atoms: N2_10  and  C8_12 
REMARK    4  A    between atoms: C8_12  and  C9_13 
REMARK    5  A    between atoms: C9_13  and  C10_14 
REMARK    6  A    between atoms: C10_14  and  C11_15 
REMARK    7  A    between atoms: C11_15  and  N3_16 
REMARK    8  A    between atoms: N3_16  and  C12_18 
REMARK    9  A    between atoms: C12_18  and  N4_19 
REMARK   10  A    between atoms: C13_22  and  C14_23 
REMARK   11  A    between atoms: C19_28  and  C20_29 
ROOT
HETATM    1  C10 UNL     1       0.347   2.902  -0.953  1.00  0.00     0.021 C 
ENDROOT
BRANCH   1   2
HETATM    2  C9  UNL     1       0.282   3.400   0.466  1.00  0.00     0.021 C 
BRANCH   2   3
HETATM    3  C8  UNL     1       0.690   2.373   1.470  1.00  0.00     0.122 C 
BRANCH   3   4
HETATM    4  N2  UNL     1       2.034   1.883   1.313  1.00  0.00    -0.360 N 
HETATM    5  C7  UNL     1       3.206   2.657   1.383  1.00  0.00     0.235 C 
HETATM    6  O1  UNL     1       3.103   3.906   1.605  1.00  0.00    -0.272 OA
ATOM      7  H2  UNL     1       2.147   0.885   1.135  1.00  0.00     0.162 HD
BRANCH   5   8
HETATM    8  C6  UNL     1       4.569   2.107   1.212  1.00  0.00     0.230 C 
BRANCH   8   9
HETATM    9  N1  UNL     1       4.564   0.682   0.976  1.00  0.00    -0.325 N 
HETATM   10  C5  UNL     1       4.659  -0.178   2.146  1.00  0.00     0.130 C 
HETATM   11  C4  UNL     1       5.063  -1.567   1.778  1.00  0.00     0.050 C 
HETATM   12  C2  UNL     1       5.868  -1.661   0.514  1.00  0.00     0.029 C 
HETATM   13  C1  UNL     1       6.271  -3.084   0.281  1.00  0.00     0.038 C 
HETATM   14  C3  UNL     1       7.092  -0.760   0.565  1.00  0.00     0.038 C 
HETATM   15  N6  UNL     1       5.007  -1.149  -0.555  1.00  0.00    -0.334 N 
HETATM   16  C21 UNL     1       4.476   0.167  -0.354  1.00  0.00     0.319 C 
ATOM     17  H6  UNL     1       4.798  -1.695  -1.391  1.00  0.00     0.165 HD
HETATM   18  O3  UNL     1       3.961   0.844  -1.272  1.00  0.00    -0.247 OA
ENDBRANCH   8   9
ENDBRANCH   5   8
ENDBRANCH   3   4
ENDBRANCH   2   3
ENDBRANCH   1   2
BRANCH   1  19
HETATM   19  C11 UNL     1      -0.537   1.725  -1.207  1.00  0.00     0.121 C 
BRANCH  19  20
HETATM   20  N3  UNL     1      -1.935   2.006  -0.956  1.00  0.00    -0.377 N 
ATOM     21  H3  UNL     1      -2.268   2.917  -0.640  1.00  0.00     0.161 HD
BRANCH  20  22
HETATM   22  C12 UNL     1      -2.827   0.877  -1.193  1.00  0.00     0.094 C 
HETATM   23  C13 UNL     1      -3.338   0.276  -0.002  1.00  0.00     0.051 C 
BRANCH  22  24
HETATM   24  N4  UNL     1      -2.967   0.635  -2.426  1.00  0.00    -0.386 N 
ATOM     25  H42 UNL     1      -2.602   1.064  -3.276  1.00  0.00     0.157 HD
ATOM     26  H41 UNL     1      -3.591  -0.155  -2.592  1.00  0.00     0.157 HD
ENDBRANCH  22  24
BRANCH  23  27
HETATM   27  C14 UNL     1      -4.333  -0.789   0.028  1.00  0.00    -0.064 C 
HETATM   28  C15 UNL     1      -3.923  -2.035  -0.698  1.00  0.00     0.035 C 
HETATM   29  C16 UNL     1      -4.995  -3.079  -0.826  1.00  0.00     0.004 C 
HETATM   30  C17 UNL     1      -5.877  -2.917   0.391  1.00  0.00     0.001 C 
HETATM   31  C18 UNL     1      -6.674  -1.649   0.153  1.00  0.00     0.018 C 
HETATM   32  C19 UNL     1      -5.777  -0.437   0.004  1.00  0.00     0.104 C 
BRANCH  32  33
HETATM   33  C20 UNL     1      -6.279   0.343  -1.140  1.00  0.00     0.239 C 
HETATM   34  N5  UNL     1      -6.478  -0.155  -2.458  1.00  0.00    -0.062 NA
HETATM   35  O2  UNL     1      -6.590   1.584  -1.032  1.00  0.00    -0.276 OA
ENDBRANCH  32  33
ENDBRANCH  23  27
ENDBRANCH  20  22
ENDBRANCH  19  20
ENDBRANCH   1  19
TORSDOF 11
