REMARK  11 active torsions:
REMARK  status: ('A' for Active; 'I' for Inactive)
REMARK    1  A    between atoms: C2_2  and  N1_3 
REMARK    2  A    between atoms: C4_10  and  N4_11 
REMARK    3  A    between atoms: N4_11  and  C5_13 
REMARK    4  A    between atoms: C5_13  and  C6_14 
REMARK    5  A    between atoms: N5_21  and  C12_22 
REMARK    6  A    between atoms: C12_22  and  C13_23 
REMARK    7  A    between atoms: C13_23  and  C16_26 
REMARK    8  A    between atoms: C16_26  and  C17_27 
REMARK    9  A    between atoms: C17_27  and  C18_28 
REMARK   10  A    between atoms: C18_28  and  C19_29 
REMARK   11  A    between atoms: C19_29  and  N6_30 
ROOT
HETATM    1  C6  UNL     1      -0.937  -1.433  -1.134  1.00  0.00     0.105 C 
HETATM    2  C7  UNL     1      -1.499  -2.811  -0.972  1.00  0.00     0.027 C 
HETATM    3  C8  UNL     1      -2.190  -3.132   0.282  1.00  0.00     0.002 C 
HETATM    4  C9  UNL     1      -1.231  -3.910   1.166  1.00  0.00     0.009 C 
HETATM    5  C10 UNL     1      -0.228  -3.037   1.813  1.00  0.00     0.103 C 
HETATM    6  C11 UNL     1      -0.056  -1.699   1.237  1.00  0.00     0.220 C 
HETATM    7  O1  UNL     1       0.224  -0.842   2.159  1.00  0.00    -0.273 OA
HETATM    8  N5  UNL     1      -0.109  -1.082  -0.041  1.00  0.00    -0.345 N 
ENDROOT
BRANCH   1   9
HETATM    9  C5  UNL     1      -2.005  -0.388  -1.473  1.00  0.00     0.163 C 
BRANCH   9  10
HETATM   10  N4  UNL     1      -3.023  -0.266  -0.473  1.00  0.00    -0.222 N 
ATOM     11  H4  UNL     1      -2.874  -0.633   0.467  1.00  0.00     0.177 HD
BRANCH  10  12
HETATM   12  C4  UNL     1      -4.124   0.312  -0.779  1.00  0.00     0.707 A 
HETATM   13  N3  UNL     1      -4.521   0.861  -1.944  1.00  0.00    -0.117 N 
HETATM   14  N2  UNL     1      -5.732   1.361  -1.859  1.00  0.00    -0.117 N 
ATOM     15  H3  UNL     1      -3.950   0.885  -2.789  1.00  0.00     0.206 HD
HETATM   16  C3  UNL     1      -6.166   1.145  -0.603  1.00  0.00     0.707 A 
ATOM     17  H2  UNL     1      -6.248   1.826  -2.606  1.00  0.00     0.206 HD
HETATM   18  N1  UNL     1      -7.343   1.519  -0.177  1.00  0.00    -0.225 N 
HETATM   19  N9  UNL     1      -5.193   0.511   0.048  1.00  0.00    -0.020 N 
ATOM     20  H1  UNL     1      -8.009   2.002  -0.780  1.00  0.00     0.177 HD
ATOM     21  H9  UNL     1      -5.239   0.216   1.023  1.00  0.00     0.203 HD
BRANCH  18  22
HETATM   22  C2  UNL     1      -7.647   1.200   1.224  1.00  0.00     0.134 C 
HETATM   23  C1  UNL     1      -8.781   2.063   1.709  1.00  0.00     0.027 C 
ENDBRANCH  18  22
ENDBRANCH  10  12
ENDBRANCH   9  10
ENDBRANCH   1   9
BRANCH   8  24
HETATM   24  C12 UNL     1       0.830   0.015  -0.129  1.00  0.00     0.135 C 
BRANCH  24  25
HETATM   25  C13 UNL     1       2.186  -0.280  -0.594  1.00  0.00    -0.031 C 
HETATM   26  C14 UNL     1       2.943  -1.276   0.273  1.00  0.00     0.016 C 
HETATM   27  C15 UNL     1       2.241  -0.718  -2.060  1.00  0.00     0.016 C 
BRANCH  25  28
HETATM   28  C16 UNL     1       2.973   1.010  -0.550  1.00  0.00     0.010 C 
BRANCH  28  29
HETATM   29  C17 UNL     1       3.100   1.655   0.775  1.00  0.00     0.002 C 
BRANCH  29  30
HETATM   30  C18 UNL     1       3.915   2.921   0.604  1.00  0.00     0.020 C 
BRANCH  30  31
HETATM   31  C19 UNL     1       5.289   2.705   0.072  1.00  0.00     0.122 C 
BRANCH  31  32
HETATM   32  N6  UNL     1       6.043   1.839   0.947  1.00  0.00    -0.367 N 
HETATM   33  C20 UNL     1       7.208   1.377   0.642  1.00  0.00     0.196 C 
HETATM   34  N7  UNL     1       7.883   0.535   1.552  1.00  0.00    -0.067 NA
HETATM   35  N8  UNL     1       7.748   1.754  -0.619  1.00  0.00    -0.067 NA
ATOM     36  H6  UNL     1       5.636   1.581   1.846  1.00  0.00     0.161 HD
ENDBRANCH  31  32
ENDBRANCH  30  31
ENDBRANCH  29  30
ENDBRANCH  28  29
ENDBRANCH  25  28
ENDBRANCH  24  25
ENDBRANCH   8  24
TORSDOF 11
