REMARK  12 active torsions:
REMARK  status: ('A' for Active; 'I' for Inactive)
REMARK    1  A    between atoms: C2_2  and  C3_3 
REMARK    2  A    between atoms: C7_7  and  C8_8 
REMARK    3  A    between atoms: C8_8  and  O1_9 
REMARK    4  A    between atoms: C8_8  and  C9_11 
REMARK    5  A    between atoms: C9_11  and  O2_12 
REMARK    6  A    between atoms: C9_11  and  C10_14 
REMARK    7  A    between atoms: C11_15  and  O3_16 
REMARK    8  A    between atoms: C11_15  and  C12_18 
REMARK    9  A    between atoms: C12_18  and  O4_19 
REMARK   10  A    between atoms: C12_18  and  C13_21 
REMARK   11  A    between atoms: C13_21  and  C14_22 
REMARK   12  A    between atoms: C16_24  and  C17_25 
ROOT
HETATM    1  C10 UNL     1      -0.946   1.035   0.728  1.00  0.00     0.042 C 
HETATM    2  C11 UNL     1       0.237   1.354   0.293  1.00  0.00     0.071 C 
ENDROOT
BRANCH   1   3
HETATM    3  C9  UNL     1      -1.484  -0.310   1.040  1.00  0.00     0.174 C 
BRANCH   3   4
HETATM    4  C8  UNL     1      -2.308  -0.898  -0.085  1.00  0.00     0.179 C 
BRANCH   4   5
HETATM    5  C7  UNL     1      -3.497  -0.021  -0.419  1.00  0.00     0.154 C 
HETATM    6  C6  UNL     1      -4.273  -0.709  -1.507  1.00  0.00     0.038 C 
HETATM    7  C5  UNL     1      -5.608  -0.976  -0.806  1.00  0.00     0.044 C 
HETATM    8  C3  UNL     1      -5.621   0.191   0.189  1.00  0.00     0.075 C 
HETATM    9  C4  UNL     1      -5.969   1.424  -0.613  1.00  0.00     0.050 C 
HETATM   10  O5  UNL     1      -4.330   0.179   0.651  1.00  0.00    -0.369 OA
BRANCH   8  11
HETATM   11  C2  UNL     1      -6.620  -0.029   1.230  1.00  0.00     0.000 C 
HETATM   12  C1  UNL     1      -7.720  -0.713   0.969  1.00  0.00     0.010 C 
ENDBRANCH   8  11
ENDBRANCH   4   5
BRANCH   4  13
HETATM   13  O1  UNL     1      -2.793  -2.134   0.338  1.00  0.00    -0.390 OA
ATOM     14  H1  UNL     1      -2.047  -2.684   0.547  1.00  0.00     0.210 HD
ENDBRANCH   4  13
ENDBRANCH   3   4
BRANCH   3  15
HETATM   15  O2  UNL     1      -0.445  -1.172   1.319  1.00  0.00    -0.389 OA
ATOM     16  H2  UNL     1       0.072  -0.803   2.025  1.00  0.00     0.210 HD
ENDBRANCH   3  15
ENDBRANCH   1   3
BRANCH   2  17
HETATM   17  O3  UNL     1       0.488   2.733   0.076  1.00  0.00    -0.363 OA
ATOM     18  H3  UNL     1       1.352   2.966  -0.242  1.00  0.00     0.217 HD
ENDBRANCH   2  17
BRANCH   2  19
HETATM   19  C12 UNL     1       1.358   0.461  -0.004  1.00  0.00     0.178 C 
BRANCH  19  20
HETATM   20  O4  UNL     1       1.132  -0.485  -0.969  1.00  0.00    -0.389 OA
ATOM     21  H4  UNL     1       1.860  -1.065  -1.162  1.00  0.00     0.210 HD
ENDBRANCH  19  20
BRANCH  19  22
HETATM   22  C13 UNL     1       2.617   1.244  -0.358  1.00  0.00     0.072 C 
BRANCH  22  23
HETATM   23  C14 UNL     1       3.775   0.387  -0.666  1.00  0.00    -0.081 C 
HETATM   24  C15 UNL     1       3.824  -0.590  -1.784  1.00  0.00     0.043 C 
HETATM   25  C16 UNL     1       4.859   0.485   0.078  1.00  0.00     0.003 C 
BRANCH  25  26
HETATM   26  C17 UNL     1       6.065  -0.326  -0.149  1.00  0.00     0.002 C 
HETATM   27  C18 UNL     1       7.107  -0.186   0.620  1.00  0.00    -0.088 C 
HETATM   28  C19 UNL     1       8.319  -1.005   0.386  1.00  0.00     0.043 C 
HETATM   29  C20 UNL     1       7.079   0.796   1.730  1.00  0.00     0.043 C 
ENDBRANCH  25  26
ENDBRANCH  22  23
ENDBRANCH  19  22
ENDBRANCH   2  19
TORSDOF 12
