REMARK  13 active torsions:
REMARK  status: ('A' for Active; 'I' for Inactive)
REMARK    1  A    between atoms: C2_2  and  C3_4 
REMARK    2  A    between atoms: C3_4  and  C4_5 
REMARK    3  A    between atoms: C4_5  and  N1_6 
REMARK    4  A    between atoms: C4_5  and  C17_28 
REMARK    5  A    between atoms: N1_6  and  C5_8 
REMARK    6  A    between atoms: C5_8  and  O2_9 
REMARK    7  A    between atoms: C5_8  and  C6_11 
REMARK    8  A    between atoms: C6_11  and  C7_12 
REMARK    9  A    between atoms: C7_12  and  C9_14 
REMARK   10  A    between atoms: C9_14  and  C10_15 
REMARK   11  A    between atoms: C10_15  and  C11_16 
REMARK   12  A    between atoms: C11_16  and  O3_17 
REMARK   13  A    between atoms: N2_19  and  O4_21 
ROOT
HETATM    1  C7  UNL     1      -0.352   0.704   1.081  1.00  0.00    -0.079 C 
HETATM    2  C8  UNL     1       0.017  -0.665   1.455  1.00  0.00     0.043 C 
ENDROOT
BRANCH   1   3
HETATM    3  C6  UNL     1       0.505   1.612   0.763  1.00  0.00     0.058 C 
BRANCH   3   4
HETATM    4  C5  UNL     1       1.908   1.653   0.656  1.00  0.00     0.136 C 
BRANCH   4   5
HETATM    5  N1  UNL     1       2.841   0.616   0.855  1.00  0.00    -0.356 N 
ATOM      6  H1  UNL     1       2.534  -0.323   1.108  1.00  0.00     0.162 HD
BRANCH   5   7
HETATM    7  C4  UNL     1       4.270   0.924   0.688  1.00  0.00     0.191 C 
BRANCH   7   8
HETATM    8  C3  UNL     1       4.953  -0.038  -0.239  1.00  0.00     0.114 C 
BRANCH   8   9
HETATM    9  C2  UNL     1       4.402  -0.074  -1.602  1.00  0.00     0.125 C 
HETATM   10  C1  UNL     1       5.022  -1.000  -2.594  1.00  0.00     0.091 C 
HETATM   11  O1  UNL     1       3.469   0.605  -1.982  1.00  0.00    -0.298 OA
ENDBRANCH   8   9
ENDBRANCH   7   8
BRANCH   7  12
HETATM   12  C17 UNL     1       4.912   0.816   2.040  1.00  0.00     0.197 C 
HETATM   13  O5  UNL     1       4.213   0.509   3.027  1.00  0.00    -0.646 OA
HETATM   14  O6  UNL     1       6.267   1.051   2.212  1.00  0.00    -0.646 OA
ENDBRANCH   7  12
ENDBRANCH   5   7
ENDBRANCH   4   5
BRANCH   4  15
HETATM   15  O2  UNL     1       2.412   2.826   0.325  1.00  0.00    -0.346 OA
ATOM     16  H2  UNL     1       1.783   3.525   0.191  1.00  0.00     0.219 HD
ENDBRANCH   4  15
ENDBRANCH   3   4
ENDBRANCH   1   3
BRANCH   1  17
HETATM   17  C9  UNL     1      -1.786   1.065   1.106  1.00  0.00     0.052 C 
BRANCH  17  18
HETATM   18  C10 UNL     1      -2.669   0.366   0.108  1.00  0.00     0.030 C 
HETATM   19  C12 UNL     1      -3.991   1.194   0.204  1.00  0.00     0.018 C 
HETATM   20  C13 UNL     1      -5.084   0.587  -0.599  1.00  0.00     0.001 C 
HETATM   21  C14 UNL     1      -5.398  -0.757   0.050  1.00  0.00     0.000 C 
HETATM   22  C15 UNL     1      -4.207  -1.621  -0.214  1.00  0.00     0.001 C 
HETATM   23  C16 UNL     1      -2.947  -1.044   0.395  1.00  0.00     0.018 C 
BRANCH  18  24
HETATM   24  C11 UNL     1      -2.158   0.676  -1.255  1.00  0.00     0.144 C 
HETATM   25  N2  UNL     1      -1.691  -0.085  -2.121  1.00  0.00    -0.250 N 
ATOM     26  H2  UNL     1      -1.416   0.405  -2.972  1.00  0.00     0.196 HD
BRANCH  24  27
HETATM   27  O3  UNL     1      -2.221   2.049  -1.598  1.00  0.00    -0.348 OA
ATOM     28  H3  UNL     1      -1.895   2.247  -2.468  1.00  0.00     0.219 HD
ENDBRANCH  24  27
BRANCH  25  29
HETATM   29  O4  UNL     1      -1.469  -1.399  -2.186  1.00  0.00    -0.288 OA
ATOM     30  H4  UNL     1      -1.112  -1.980  -2.847  1.00  0.00     0.244 HD
ENDBRANCH  25  29
ENDBRANCH  18  24
ENDBRANCH  17  18
ENDBRANCH   1  17
TORSDOF 13
