REMARK  10 active torsions:
REMARK  status: ('A' for Active; 'I' for Inactive)
REMARK    1  A    between atoms: C2_2  and  C3_3 
REMARK    2  A    between atoms: C3_3  and  C4_4 
REMARK    3  A    between atoms: C4_4  and  N1_5 
REMARK    4  A    between atoms: C4_4  and  C7_9 
REMARK    5  A    between atoms: N1_5  and  C5_7 
REMARK    6  A    between atoms: C7_9  and  O1_10 
REMARK    7  A    between atoms: C7_9  and  C8_12 
REMARK    8  A    between atoms: C8_12  and  O2_13 
REMARK    9  A    between atoms: C8_12  and  C9_15 
REMARK   10  A    between atoms: C18_25  and  O3_26 
ROOT
HETATM    1  C9  UNL     1      -0.632  -0.356   0.817  1.00  0.00     0.119 C 
HETATM    2  C10 UNL     1      -1.080   0.571  -0.267  1.00  0.00     0.028 C 
HETATM    3  C11 UNL     1      -1.504   0.072  -1.573  1.00  0.00     0.002 C 
HETATM    4  C12 UNL     1      -2.993  -0.282  -1.683  1.00  0.00     0.000 C 
HETATM    5  C13 UNL     1      -3.878   0.867  -1.936  1.00  0.00     0.000 C 
HETATM    6  C14 UNL     1      -4.543   1.537  -0.806  1.00  0.00     0.000 C 
HETATM    7  C15 UNL     1      -5.067   0.717   0.306  1.00  0.00     0.006 C 
HETATM    8  C16 UNL     1      -4.549   1.213   1.655  1.00  0.00     0.060 C 
HETATM    9  C17 UNL     1      -4.196   0.034   2.533  1.00  0.00     0.159 C 
HETATM   10  N2  UNL     1      -3.368  -0.791   2.255  1.00  0.00    -0.382 NA
HETATM   11  C18 UNL     1      -2.442  -1.722   1.953  1.00  0.00     0.295 C 
HETATM   12  N3  UNL     1      -1.351  -1.579   0.954  1.00  0.00    -0.333 N 
HETATM   13  C19 UNL     1      -1.126  -2.796   0.198  1.00  0.00     0.155 C 
ENDROOT
BRANCH   1  14
HETATM   14  C8  UNL     1       0.894  -0.475   0.836  1.00  0.00     0.171 C 
BRANCH  14  15
HETATM   15  C7  UNL     1       1.597  -0.746  -0.410  1.00  0.00     0.171 C 
BRANCH  15  16
HETATM   16  C4  UNL     1       3.125  -0.429  -0.168  1.00  0.00     0.111 C 
BRANCH  16  17
HETATM   17  C3  UNL     1       3.774  -0.804  -1.446  1.00  0.00     0.053 C 
BRANCH  17  18
HETATM   18  C2  UNL     1       5.214  -0.750  -1.578  1.00  0.00    -0.035 C 
HETATM   19  C1  UNL     1       5.788  -0.070  -2.591  1.00  0.00     0.007 C 
ENDBRANCH  17  18
ENDBRANCH  16  17
BRANCH  16  20
HETATM   20  N1  UNL     1       3.289   0.843   0.352  1.00  0.00    -0.415 N 
ATOM     21  H1  UNL     1       2.506   1.493   0.415  1.00  0.00     0.153 HD
BRANCH  20  22
HETATM   22  C5  UNL     1       4.573   1.206   0.790  1.00  0.00     0.110 C 
HETATM   23  C6  UNL     1       4.565   2.606   1.447  1.00  0.00     0.026 C 
ENDBRANCH  20  22
ENDBRANCH  16  20
ENDBRANCH  15  16
BRANCH  15  24
HETATM   24  O1  UNL     1       1.681  -2.041  -0.879  1.00  0.00    -0.391 OA
ATOM     25  H1  UNL     1       0.762  -2.232  -1.025  1.00  0.00     0.210 HD
ENDBRANCH  15  24
ENDBRANCH  14  15
BRANCH  14  26
HETATM   26  O2  UNL     1       1.399  -1.112   1.928  1.00  0.00    -0.391 OA
ATOM     27  H2  UNL     1       0.940  -0.935   2.741  1.00  0.00     0.210 HD
ENDBRANCH  14  26
ENDBRANCH   1  14
BRANCH  11  28
HETATM   28  O3  UNL     1      -2.355  -2.928   2.505  1.00  0.00    -0.321 OA
ATOM     29  H3  UNL     1      -1.702  -3.584   2.292  1.00  0.00     0.222 HD
ENDBRANCH  11  28
TORSDOF 10
