REMARK  7 active torsions:
REMARK  status: ('A' for Active; 'I' for Inactive)
REMARK    1  A    between atoms: C2_7  and  S1_8 
REMARK    2  A    between atoms: S1_8  and  C3_9 
REMARK    3  A    between atoms: C3_9  and  C4_10 
REMARK    4  A    between atoms: C6_14  and  S2_15 
REMARK    5  A    between atoms: S2_15  and  N4_16 
REMARK    6  A    between atoms: C7_23  and  N6_24 
REMARK    7  A    between atoms: N7_27  and  O3_28 
ROOT
HETATM    1  C4  UNL     1       1.415  -0.244  -0.146  1.00  0.00     0.011 A 
HETATM    2  C5  UNL     1       1.939   0.719   0.695  1.00  0.00     0.102 A 
HETATM    3  N3  UNL     1       3.276   0.837   0.824  1.00  0.00    -0.341 N 
ATOM      4  H3  UNL     1       3.641   1.555   1.450  1.00  0.00     0.167 HD
HETATM    5  C6  UNL     1       4.152   0.054   0.168  1.00  0.00     0.225 A 
HETATM    6  N5  UNL     1       3.633  -0.892  -0.658  1.00  0.00    -0.318 N 
ATOM      7  H5  UNL     1       4.268  -1.503  -1.171  1.00  0.00     0.169 HD
HETATM    8  C7  UNL     1       2.307  -1.047  -0.819  1.00  0.00     0.109 A 
ENDROOT
BRANCH   1   9
HETATM    9  C3  UNL     1      -0.065  -0.397  -0.308  1.00  0.00     0.126 C 
BRANCH   9  10
HETATM   10  S1  UNL     1      -0.978   0.772   0.681  1.00  0.00    -0.086 SA
BRANCH  10  11
HETATM   11  C2  UNL     1      -2.722   0.521   0.429  1.00  0.00     0.189 A 
HETATM   12  N2  UNL     1      -3.116  -0.448  -0.414  1.00  0.00    -0.168 N 
HETATM   13  C1  UNL     1      -4.412  -0.655  -0.619  1.00  0.00     0.680 A 
ATOM     14  H2  UNL     1      -2.423  -1.022  -0.894  1.00  0.00     0.186 HD
HETATM   15  N1  UNL     1      -4.821  -1.573  -1.418  1.00  0.00    -0.234 N 
HETATM   16  N9  UNL     1      -5.311   0.106   0.019  1.00  0.00    -0.161 N 
ATOM     17  H12 UNL     1      -4.136  -2.152  -1.904  1.00  0.00     0.174 HD
ATOM     18  H11 UNL     1      -5.816  -1.732  -1.575  1.00  0.00     0.174 HD
HETATM   19  C8  UNL     1      -4.913   1.088   0.872  1.00  0.00     0.235 A 
ATOM     20  H9  UNL     1      -6.306  -0.053  -0.137  1.00  0.00     0.187 HD
HETATM   21  N7  UNL     1      -3.612   1.299   1.081  1.00  0.00    -0.170 N 
HETATM   22  N8  UNL     1      -5.869   1.897   1.550  1.00  0.00    -0.060 NA
BRANCH  21  23
HETATM   23  O3  UNL     1      -3.129   2.277   1.933  1.00  0.00    -0.278 OA
ATOM     24  H3  UNL     1      -3.755   2.824   2.392  1.00  0.00     0.245 HD
ENDBRANCH  21  23
ENDBRANCH  10  11
ENDBRANCH   9  10
ENDBRANCH   1   9
BRANCH   8  25
HETATM   25  N6  UNL     1       1.826  -1.947  -1.604  1.00  0.00    -0.385 N 
ATOM     26  H62 UNL     1       0.820  -2.065  -1.726  1.00  0.00     0.157 HD
ATOM     27  H61 UNL     1       2.487  -2.542  -2.103  1.00  0.00     0.157 HD
ENDBRANCH   8  25
BRANCH   5  28
HETATM   28  S2  UNL     1       5.888   0.225   0.350  1.00  0.00     0.289 S 
HETATM   29  O1  UNL     1       6.333   1.631   0.024  1.00  0.00    -0.198 OA
HETATM   30  O2  UNL     1       6.309  -0.030   1.776  1.00  0.00    -0.198 OA
BRANCH  28  31
HETATM   31  N4  UNL     1       6.667  -0.939  -0.637  1.00  0.00    -0.322 N 
ATOM     32  H42 UNL     1       6.185  -1.615  -1.229  1.00  0.00     0.169 HD
ATOM     33  H41 UNL     1       7.677  -0.840  -0.531  1.00  0.00     0.169 HD
ENDBRANCH  28  31
ENDBRANCH   5  28
TORSDOF 7
