REMARK  6 active torsions:
REMARK  status: ('A' for Active; 'I' for Inactive)
REMARK    1  A    between atoms: N1_1  and  C1_4 
REMARK    2  A    between atoms: C2_7  and  N3_8 
REMARK    3  A    between atoms: C4_13  and  N5_14 
REMARK    4  A    between atoms: C6_20  and  C7_21 
REMARK    5  A    between atoms: C7_21  and  C8_22 
REMARK    6  A    between atoms: C8_22  and  C9_23 
ROOT
HETATM    1  N3  UNL     1      -1.369  -0.690  -0.192  1.00  0.00    -0.079 N 
HETATM    2  C3  UNL     1      -1.491  -2.030  -0.037  1.00  0.00     0.348 C 
HETATM    3  O1  UNL     1      -2.618  -2.520  -0.356  1.00  0.00    -0.245 OA
HETATM    4  N4  UNL     1      -0.595  -2.935   0.406  1.00  0.00    -0.289 N 
ATOM      5  H4  UNL     1      -0.790  -3.918   0.214  1.00  0.00     0.172 HD
HETATM    6  C4  UNL     1       0.531  -2.652   1.078  1.00  0.00     0.173 C 
HETATM    7  C5  UNL     1       1.169  -1.418   1.243  1.00  0.00     0.310 C 
HETATM    8  O2  UNL     1       2.038  -1.310   2.116  1.00  0.00    -0.263 OA
HETATM    9  N6  UNL     1       0.933  -0.312   0.539  1.00  0.00    -0.109 N 
HETATM   10  C6  UNL     1       1.866   0.669   0.374  1.00  0.00     0.054 A 
HETATM   11  C10 UNL     1       1.189   1.606  -0.423  1.00  0.00     0.132 A 
HETATM   12  N8  UNL     1      -0.041   1.214  -0.707  1.00  0.00    -0.199 N 
ATOM     13  H8  UNL     1      -0.725   1.721  -1.268  1.00  0.00     0.183 HD
HETATM   14  C11 UNL     1      -0.217   0.026  -0.118  1.00  0.00     0.704 A 
ENDROOT
BRANCH   1  15
HETATM   15  C2  UNL     1      -2.542   0.050  -0.457  1.00  0.00     0.152 A 
HETATM   16  N2  UNL     1      -3.457  -0.425  -1.320  1.00  0.00    -0.176 N 
HETATM   17  C1  UNL     1      -4.586   0.193  -1.633  1.00  0.00     0.678 A 
ATOM     18  H2  UNL     1      -3.269  -1.324  -1.765  1.00  0.00     0.186 HD
HETATM   19  N10 UNL     1      -4.850   1.379  -1.057  1.00  0.00    -0.179 N 
HETATM   20  C13 UNL     1      -3.962   1.907  -0.177  1.00  0.00     0.135 A 
ATOM     21  H10 UNL     1      -5.711   1.878  -1.280  1.00  0.00     0.185 HD
HETATM   22  C12 UNL     1      -2.781   1.262   0.153  1.00  0.00     0.096 A 
HETATM   23  N9  UNL     1      -4.264   3.161   0.419  1.00  0.00    -0.082 NA
BRANCH  17  24
HETATM   24  N1  UNL     1      -5.458  -0.287  -2.473  1.00  0.00    -0.234 N 
ATOM     25  H12 UNL     1      -5.258  -1.187  -2.910  1.00  0.00     0.174 HD
ATOM     26  H11 UNL     1      -6.327   0.189  -2.714  1.00  0.00     0.174 HD
ENDBRANCH  17  24
ENDBRANCH   1  15
BRANCH   6  27
HETATM   27  N5  UNL     1       1.157  -3.608   1.675  1.00  0.00    -0.381 N 
ATOM     28  H52 UNL     1       0.692  -4.508   1.555  1.00  0.00     0.157 HD
ATOM     29  H51 UNL     1       2.013  -3.393   2.186  1.00  0.00     0.157 HD
ENDBRANCH   6  27
BRANCH  10  30
HETATM   30  C7  UNL     1       3.228   0.741   0.926  1.00  0.00     0.069 C 
BRANCH  30  31
HETATM   31  C8  UNL     1       4.291   0.046   0.153  1.00  0.00     0.105 C 
BRANCH  31  32
HETATM   32  C9  UNL     1       4.529   0.503  -1.219  1.00  0.00     0.231 C 
HETATM   33  N7  UNL     1       5.517  -0.224  -1.979  1.00  0.00    -0.062 NA
HETATM   34  O3  UNL     1       3.972   1.442  -1.782  1.00  0.00    -0.277 OA
ENDBRANCH  31  32
ENDBRANCH  30  31
ENDBRANCH  10  30
TORSDOF 6
