REMARK  4 active torsions:
REMARK  status: ('A' for Active; 'I' for Inactive)
REMARK    1  A    between atoms: N1_1  and  N2_4 
REMARK       I    between atoms: N2_4  and  C1_6 
REMARK       I    between atoms: C1_6  and  N3_8 
REMARK    2  A    between atoms: N3_8  and  N4_10 
REMARK    3  A    between atoms: N4_10  and  C2_12 
REMARK    4  A    between atoms: N7_18  and  N8_19 
ROOT
HETATM    1  N4  UNL     1       0.490   0.233   0.394  1.00  0.00    -0.125 N 
ATOM      2  H4  UNL     1       1.309   0.794   0.161  1.00  0.00     0.206 HD
ENDROOT
BRANCH   1   3
HETATM    3  N3  UNL     1      -0.723   0.430  -0.271  1.00  0.00    -0.236 N 
HETATM    4  C1  UNL     1      -0.749   1.068  -1.537  1.00  0.00     0.353 C 
HETATM    5  N2  UNL     1      -1.993   1.257  -2.195  1.00  0.00    -0.257 N 
HETATM    6  O1  UNL     1       0.344   1.443  -2.029  1.00  0.00    -0.244 OA
ATOM      7  H2  UNL     1      -2.844   0.928  -1.739  1.00  0.00     0.191 HD
ATOM      8  H3  UNL     1      -1.594   0.113   0.156  1.00  0.00     0.192 HD
BRANCH   5   9
HETATM    9  N1  UNL     1      -2.097   1.874  -3.438  1.00  0.00    -0.341 N 
ATOM     10  H12 UNL     1      -1.236   2.197  -3.880  1.00  0.00     0.177 HD
ATOM     11  H11 UNL     1      -2.991   2.010  -3.911  1.00  0.00     0.177 HD
ENDBRANCH   5   9
ENDBRANCH   1   3
BRANCH   1  12
HETATM   12  C2  UNL     1       0.550  -0.669   1.304  1.00  0.00     0.733 A 
HETATM   13  N5  UNL     1      -0.449  -1.472   1.702  1.00  0.00    -0.128 N 
HETATM   14  N6  UNL     1      -0.019  -2.292   2.675  1.00  0.00    -0.279 N 
ATOM     15  H5  UNL     1      -1.395  -1.461   1.322  1.00  0.00     0.205 HD
HETATM   16  C3  UNL     1       1.264  -1.993   2.881  1.00  0.00     0.241 A 
ATOM     17  H6  UNL     1      -0.566  -3.003   3.160  1.00  0.00     0.188 HD
HETATM   18  N7  UNL     1       1.624  -0.999   2.045  1.00  0.00    -0.085 N 
BRANCH  18  19
HETATM   19  N8  UNL     1       2.910  -0.406   1.964  1.00  0.00    -0.323 N 
ATOM     20  H82 UNL     1       3.182   0.346   1.331  1.00  0.00     0.178 HD
ATOM     21  H81 UNL     1       3.724  -0.656   2.526  1.00  0.00     0.178 HD
ENDBRANCH  18  19
ENDBRANCH   1  12
TORSDOF 4
