REMARK  2 active torsions:
REMARK  status: ('A' for Active; 'I' for Inactive)
REMARK    1  A    between atoms: N1_1  and  N2_4 
REMARK    2  A    between atoms: N2_4  and  N3_6 
ROOT
HETATM    1  N3  UNL     1      -1.157   0.561  -0.011  1.00  0.00    -0.171 N 
HETATM    2  C1  UNL     1      -0.797   1.866   0.028  1.00  0.00     0.350 A 
HETATM    3  O1  UNL     1      -1.602   2.822  -0.038  1.00  0.00    -0.244 OA
HETATM    4  N4  UNL     1       0.513   2.011   0.145  1.00  0.00    -0.290 N 
ATOM      5  H4  UNL     1       1.017   2.896   0.194  1.00  0.00     0.172 HD
HETATM    6  C2  UNL     1       1.063   0.782   0.188  1.00  0.00     0.159 A 
HETATM    7  N5  UNL     1       2.334   0.325   0.289  1.00  0.00    -0.305 N 
ATOM      8  H5  UNL     1       3.114   0.978   0.362  1.00  0.00     0.170 HD
HETATM    9  C3  UNL     1       2.551  -0.993   0.292  1.00  0.00     0.262 A 
HETATM   10  O2  UNL     1       3.717  -1.422   0.379  1.00  0.00    -0.267 OA
HETATM   11  C4  UNL     1       1.511  -1.919   0.199  1.00  0.00     0.164 A 
HETATM   12  N6  UNL     1       0.266  -1.438   0.100  1.00  0.00    -0.342 N 
ATOM     13  H6  UNL     1      -0.510  -2.096   0.029  1.00  0.00     0.167 HD
HETATM   14  C5  UNL     1      -0.000  -0.127   0.090  1.00  0.00     0.178 A 
ENDROOT
BRANCH   1  15
HETATM   15  N2  UNL     1      -2.450   0.056  -0.141  1.00  0.00    -0.237 N 
ATOM     16  H2  UNL     1      -3.037   0.432  -0.886  1.00  0.00     0.208 HD
BRANCH  15  17
HETATM   17  N1  UNL     1      -2.990  -0.925   0.677  1.00  0.00    -0.330 N 
ATOM     18  H12 UNL     1      -2.389  -1.290   1.416  1.00  0.00     0.178 HD
ATOM     19  H11 UNL     1      -3.936  -1.294   0.582  1.00  0.00     0.178 HD
ENDBRANCH  15  17
ENDBRANCH   1  15
TORSDOF 2
