REMARK  4 active torsions:
REMARK  status: ('A' for Active; 'I' for Inactive)
REMARK    1  A    between atoms: O1_2  and  C2_3 
REMARK       I    between atoms: C2_3  and  N1_5 
REMARK    2  A    between atoms: N1_5  and  C3_7 
REMARK    3  A    between atoms: C3_7  and  N2_8 
REMARK    4  A    between atoms: N5_15  and  N6_16 
ROOT
HETATM    1  C3  UNL     1      -0.750   0.138   0.318  1.00  0.00     0.305 C 
HETATM    2  C4  UNL     1      -0.931   0.906  -0.961  1.00  0.00     0.214 C 
HETATM    3  N3  UNL     1      -1.438  -0.149  -1.849  1.00  0.00    -0.124 NA
HETATM    4  N4  UNL     1      -1.970  -1.133  -1.046  1.00  0.00    -0.033 NA
HETATM    5  N5  UNL     1      -1.952  -0.702   0.267  1.00  0.00    -0.075 NA
ENDROOT
BRANCH   1   6
HETATM    6  N1  UNL     1       0.440  -0.651   0.382  1.00  0.00    -0.288 N 
HETATM    7  C2  UNL     1       1.711  -0.050   0.289  1.00  0.00     0.363 C 
HETATM    8  O2  UNL     1       1.842   1.185   0.150  1.00  0.00    -0.238 OA
ATOM      9  H1  UNL     1       0.368  -1.662   0.496  1.00  0.00     0.168 HD
BRANCH   7  10
HETATM   10  O1  UNL     1       2.851  -0.825   0.350  1.00  0.00    -0.309 OA
HETATM   11  C1  UNL     1       4.160  -0.312   0.266  1.00  0.00     0.215 C 
ENDBRANCH   7  10
ENDBRANCH   1   6
BRANCH   1  12
HETATM   12  N2  UNL     1      -0.845   0.988   1.490  1.00  0.00    -0.034 N 
ATOM     13  H23 UNL     1      -0.787   0.453   2.356  1.00  0.00     0.279 HD
ATOM     14  H22 UNL     1      -0.011   1.563   1.614  1.00  0.00     0.279 HD
ATOM     15  H21 UNL     1      -1.694   1.551   1.444  1.00  0.00     0.279 HD
ENDBRANCH   1  12
BRANCH   5  16
HETATM   16  N6  UNL     1      -3.035   0.188   0.426  1.00  0.00    -0.344 NA
ATOM     17  H62 UNL     1      -3.022   0.506   1.395  1.00  0.00     0.172 HD
ATOM     18  H61 UNL     1      -3.871  -0.396   0.391  1.00  0.00     0.172 HD
ENDBRANCH   5  16
TORSDOF 4
