REMARK  14 active torsions:
REMARK  status: ('A' for Active; 'I' for Inactive)
REMARK    1  A    between atoms: C2_2  and  C3_3 
REMARK    2  A    between atoms: C6_6  and  C7_7 
REMARK    3  A    between atoms: C7_7  and  N1_8 
REMARK    4  A    between atoms: N1_8  and  C8_10 
REMARK    5  A    between atoms: C11_19  and  N5_20 
REMARK    6  A    between atoms: N5_20  and  C12_22 
REMARK    7  A    between atoms: C12_22  and  C13_23 
REMARK    8  A    between atoms: C12_22  and  C21_33 
REMARK    9  A    between atoms: C14_24  and  C15_25 
REMARK   10  A    between atoms: C18_28  and  O1_29 
REMARK   11  A    between atoms: N6_37  and  C23_38 
REMARK   12  A    between atoms: C23_38  and  C24_39 
REMARK   13  A    between atoms: C24_39  and  C25_40 
REMARK   14  A    between atoms: N7_44  and  O4_45 
ROOT
HETATM    1  C8  UNL     1      -2.574  -0.458  -1.285  1.00  0.00     0.682 A 
HETATM    2  N2  UNL     1      -2.503   0.461  -2.252  1.00  0.00    -0.174 N 
ATOM      3  H2  UNL     1      -3.262   0.786  -2.851  1.00  0.00     0.186 HD
HETATM    4  C9  UNL     1      -1.210   0.872  -2.271  1.00  0.00     0.153 A 
HETATM    5  N3  UNL     1      -0.608   1.785  -3.053  1.00  0.00    -0.336 N 
ATOM      6  H3  UNL     1      -1.139   2.284  -3.767  1.00  0.00     0.168 HD
HETATM    7  C10 UNL     1       0.690   2.029  -2.884  1.00  0.00     0.183 A 
HETATM    8  N4  UNL     1       1.418   1.370  -1.934  1.00  0.00    -0.337 N 
ATOM      9  H4  UNL     1       2.410   1.588  -1.839  1.00  0.00     0.168 HD
HETATM   10  C11 UNL     1       0.880   0.448  -1.121  1.00  0.00     0.135 A 
HETATM   11  C22 UNL     1      -0.482   0.199  -1.305  1.00  0.00     0.140 A 
HETATM   12  N6  UNL     1      -1.344  -0.622  -0.704  1.00  0.00    -0.176 N 
ENDROOT
BRANCH  10  13
HETATM   13  N5  UNL     1       1.454  -0.189  -0.222  1.00  0.00    -0.357 N 
ATOM     14  H5  UNL     1       0.875  -0.852   0.293  1.00  0.00     0.162 HD
BRANCH  13  15
HETATM   15  C12 UNL     1       2.880  -0.108   0.199  1.00  0.00     0.207 C 
BRANCH  15  16
HETATM   16  C13 UNL     1       3.109   1.144   0.909  1.00  0.00     0.010 C 
HETATM   17  C14 UNL     1       4.328   1.530   1.549  1.00  0.00     0.010 C 
BRANCH  17  18
HETATM   18  C15 UNL     1       5.644   1.677   1.029  1.00  0.00    -0.036 A 
HETATM   19  C16 UNL     1       6.617   0.714   1.345  1.00  0.00     0.014 A 
HETATM   20  C17 UNL     1       7.907   0.798   0.881  1.00  0.00     0.037 A 
HETATM   21  C18 UNL     1       8.286   1.848   0.078  1.00  0.00     0.065 A 
HETATM   22  C19 UNL     1       7.360   2.818  -0.257  1.00  0.00     0.037 A 
HETATM   23  C20 UNL     1       6.086   2.707   0.220  1.00  0.00     0.014 A 
BRANCH  21  24
HETATM   24  O1  UNL     1       9.579   1.978  -0.417  1.00  0.00    -0.361 OA
ATOM     25  H1  UNL     1       9.841   2.703  -0.972  1.00  0.00     0.217 HD
ENDBRANCH  21  24
ENDBRANCH  17  18
ENDBRANCH  15  16
BRANCH  15  26
HETATM   26  C21 UNL     1       3.693  -0.514  -0.953  1.00  0.00     0.200 C 
HETATM   27  O2  UNL     1       4.891  -0.405  -1.198  1.00  0.00    -0.646 OA
HETATM   28  O3  UNL     1       2.995  -1.172  -2.019  1.00  0.00    -0.646 OA
ENDBRANCH  15  26
ENDBRANCH  13  15
ENDBRANCH  10  13
BRANCH  12  29
HETATM   29  C23 UNL     1      -1.063  -1.532   0.378  1.00  0.00     0.152 C 
BRANCH  29  30
HETATM   30  C24 UNL     1      -0.704  -2.898  -0.154  1.00  0.00     0.061 C 
BRANCH  30  31
HETATM   31  C25 UNL     1      -0.393  -3.875   0.874  1.00  0.00    -0.039 A 
HETATM   32  C26 UNL     1      -1.379  -4.664   1.420  1.00  0.00     0.010 A 
HETATM   33  C27 UNL     1      -1.104  -5.604   2.403  1.00  0.00     0.020 A 
HETATM   34  C28 UNL     1       0.213  -5.725   2.823  1.00  0.00     0.122 A 
HETATM   35  N7  UNL     1       1.181  -4.958   2.295  1.00  0.00    -0.247 N 
HETATM   36  C29 UNL     1       0.897  -4.038   1.329  1.00  0.00     0.129 A 
BRANCH  35  37
HETATM   37  O4  UNL     1       2.478  -5.094   2.725  1.00  0.00    -0.284 OA
ATOM     38  H4  UNL     1       3.163  -4.552   2.352  1.00  0.00     0.245 HD
ENDBRANCH  35  37
ENDBRANCH  30  31
ENDBRANCH  29  30
ENDBRANCH  12  29
BRANCH   1  39
HETATM   39  N1  UNL     1      -3.631  -1.099  -0.942  1.00  0.00    -0.222 N 
ATOM     40  H1  UNL     1      -3.557  -1.778  -0.185  1.00  0.00     0.178 HD
BRANCH  39  41
HETATM   41  C7  UNL     1      -4.906  -0.915  -1.561  1.00  0.00     0.176 C 
BRANCH  41  42
HETATM   42  C6  UNL     1      -5.669   0.224  -1.034  1.00  0.00    -0.040 A 
HETATM   43  C5  UNL     1      -5.161   1.001  -0.022  1.00  0.00     0.009 A 
HETATM   44  C4  UNL     1      -5.878   2.088   0.488  1.00  0.00     0.012 A 
HETATM   45  C3  UNL     1      -7.101   2.405  -0.007  1.00  0.00    -0.037 A 
HETATM   46  C31 UNL     1      -7.619   1.619  -1.033  1.00  0.00     0.012 A 
HETATM   47  C30 UNL     1      -6.908   0.558  -1.523  1.00  0.00     0.009 A 
BRANCH  45  48
HETATM   48  C2  UNL     1      -7.880   3.525   0.493  1.00  0.00     0.001 C 
HETATM   49  C1  UNL     1      -7.469   4.308   1.454  1.00  0.00     0.012 C 
ENDBRANCH  45  48
ENDBRANCH  41  42
ENDBRANCH  39  41
ENDBRANCH   1  39
TORSDOF 14
