REMARK  13 active torsions:
REMARK  status: ('A' for Active; 'I' for Inactive)
REMARK    1  A    between atoms: C2_2  and  C3_3 
REMARK    2  A    between atoms: C2_2  and  C6_8 
REMARK    3  A    between atoms: C3_3  and  C4_4 
REMARK    4  A    between atoms: C4_4  and  C5_5 
REMARK    5  A    between atoms: C6_8  and  O3_9 
REMARK    6  A    between atoms: C6_8  and  C7_11 
REMARK    7  A    between atoms: C7_11  and  C9_13 
REMARK    8  A    between atoms: C19_24  and  C21_26 
REMARK    9  A    between atoms: C23_28  and  C24_29 
REMARK   10  A    between atoms: C24_29  and  C25_30 
REMARK       I    between atoms: C25_30  and  N1_32 
REMARK   11  A    between atoms: N1_32  and  C26_34 
REMARK   12  A    between atoms: C26_34  and  C27_35 
REMARK   13  A    between atoms: C27_35  and  N2_36 
ROOT
HETATM    1  C9  UNL     1      -2.451  -1.190  -0.222  1.00  0.00     0.013 C 
HETATM    2  C10 UNL     1      -2.821  -2.539   0.263  1.00  0.00     0.065 C 
HETATM    3  C11 UNL     1      -1.718  -3.348   0.853  1.00  0.00     0.136 C 
HETATM    4  O4  UNL     1      -0.919  -3.093   1.718  1.00  0.00    -0.297 OA
HETATM    5  C12 UNL     1      -1.749  -4.655   0.150  1.00  0.00     0.056 C 
HETATM    6  C13 UNL     1      -1.131  -4.673  -1.194  1.00  0.00     0.017 C 
HETATM    7  C14 UNL     1      -1.625  -3.505  -2.080  1.00  0.00    -0.013 C 
HETATM    8  C15 UNL     1      -3.098  -3.551  -2.044  1.00  0.00     0.010 C 
HETATM    9  C16 UNL     1      -3.567  -3.441  -0.637  1.00  0.00    -0.002 C 
HETATM   10  C17 UNL     1      -3.270  -4.812   0.010  1.00  0.00     0.017 C 
HETATM   11  C18 UNL     1      -0.851  -2.354  -1.761  1.00  0.00     0.016 C 
HETATM   12  C19 UNL     1      -1.465  -1.044  -1.310  1.00  0.00    -0.019 C 
HETATM   13  C20 UNL     1      -1.948  -0.366  -2.581  1.00  0.00     0.018 C 
ENDROOT
BRANCH  12  14
HETATM   14  C21 UNL     1      -0.221  -0.211  -0.983  1.00  0.00     0.087 C 
HETATM   15  C22 UNL     1      -0.390   1.200  -0.572  1.00  0.00     0.050 C 
HETATM   16  C23 UNL     1       1.016   0.966  -0.005  1.00  0.00     0.087 C 
HETATM   17  N3  UNL     1       0.621  -0.435   0.074  1.00  0.00    -0.412 N 
ATOM     18  H3  UNL     1       0.865  -1.233   0.660  1.00  0.00     0.154 HD
BRANCH  16  19
HETATM   19  C24 UNL     1       2.139   1.308  -0.918  1.00  0.00     0.127 C 
BRANCH  19  20
HETATM   20  C25 UNL     1       3.456   1.034  -0.237  1.00  0.00     0.219 C 
HETATM   21  O5  UNL     1       3.419   0.571   0.917  1.00  0.00    -0.274 OA
HETATM   22  N1  UNL     1       4.654   1.305  -0.909  1.00  0.00    -0.359 N 
ATOM     23  H1  UNL     1       4.605   1.683  -1.855  1.00  0.00     0.162 HD
BRANCH  22  24
HETATM   24  C26 UNL     1       5.948   1.077  -0.330  1.00  0.00     0.152 C 
BRANCH  24  25
HETATM   25  C27 UNL     1       6.157   1.889   0.899  1.00  0.00     0.292 C 
BRANCH  25  26
HETATM   26  N2  UNL     1       7.467   1.687   1.494  1.00  0.00     0.094 N 
HETATM   27  C28 UNL     1       8.542   2.199   0.713  1.00  0.00     0.298 C 
HETATM   28  C29 UNL     1       9.259   1.219  -0.148  1.00  0.00     0.198 C 
HETATM   29  O6  UNL     1       9.061  -0.103   0.251  1.00  0.00    -0.388 OA
HETATM   30  C30 UNL     1       8.989  -0.152   1.644  1.00  0.00     0.198 C 
HETATM   31  C31 UNL     1       7.638   0.388   2.048  1.00  0.00     0.298 C 
ENDBRANCH  25  26
ENDBRANCH  24  25
ENDBRANCH  22  24
ENDBRANCH  19  20
ENDBRANCH  16  19
ENDBRANCH  12  14
BRANCH   1  32
HETATM   32  C7  UNL     1      -3.522  -0.153  -0.164  1.00  0.00     0.016 C 
HETATM   33  C8  UNL     1      -4.710  -0.381  -1.075  1.00  0.00     0.013 C 
BRANCH  32  34
HETATM   34  C6  UNL     1      -4.061   0.215   1.185  1.00  0.00     0.126 C 
BRANCH  34  35
HETATM   35  C2  UNL     1      -4.877   1.491   1.181  1.00  0.00     0.011 C 
HETATM   36  C1  UNL     1      -5.286   1.755   2.632  1.00  0.00     0.012 C 
BRANCH  35  37
HETATM   37  C3  UNL     1      -4.063   2.717   0.822  1.00  0.00     0.017 C 
BRANCH  37  38
HETATM   38  C4  UNL     1      -4.950   3.939   0.979  1.00  0.00     0.113 C 
BRANCH  38  39
HETATM   39  C5  UNL     1      -4.226   5.184   0.639  1.00  0.00     0.172 C 
HETATM   40  O1  UNL     1      -3.012   5.075   0.288  1.00  0.00    -0.648 OA
HETATM   41  O2  UNL     1      -4.770   6.434   0.676  1.00  0.00    -0.648 OA
ENDBRANCH  38  39
ENDBRANCH  37  38
ENDBRANCH  35  37
ENDBRANCH  34  35
BRANCH  34  42
HETATM   42  O3  UNL     1      -4.957  -0.753   1.710  1.00  0.00    -0.395 OA
ATOM     43  H3  UNL     1      -4.445  -1.553   1.713  1.00  0.00     0.210 HD
ENDBRANCH  34  42
ENDBRANCH  32  34
ENDBRANCH   1  32
TORSDOF 13
