REMARK  14 active torsions:
REMARK  status: ('A' for Active; 'I' for Inactive)
REMARK    1  A    between atoms: C2_2  and  C3_3 
REMARK    2  A    between atoms: C3_3  and  C4_4 
REMARK    3  A    between atoms: C4_4  and  C5_5 
REMARK    4  A    between atoms: C5_5  and  O1_6 
REMARK    5  A    between atoms: O1_6  and  C6_7 
REMARK       I    between atoms: C6_7  and  N1_9 
REMARK    6  A    between atoms: C10_13  and  C11_14 
REMARK    7  A    between atoms: C11_14  and  C12_15 
REMARK    8  A    between atoms: C12_15  and  C14_17 
REMARK    9  A    between atoms: C14_17  and  N2_18 
REMARK   10  A    between atoms: N2_18  and  C15_21 
REMARK   11  A    between atoms: C21_30  and  C22_31 
REMARK   12  A    between atoms: C22_31  and  C23_32 
REMARK   13  A    between atoms: C23_32  and  C24_33 
REMARK   14  A    between atoms: C24_33  and  N4_34 
ROOT
HETATM    1  C6  UNL     1       4.279   0.228   0.244  1.00  0.00     0.362 C 
HETATM    2  O2  UNL     1       4.883   1.021   1.007  1.00  0.00    -0.238 OA
HETATM    3  N1  UNL     1       3.329   0.616  -0.730  1.00  0.00    -0.327 N 
HETATM    4  C7  UNL     1       2.719  -0.405  -1.556  1.00  0.00     0.128 C 
HETATM    5  C8  UNL     1       1.424  -0.951  -0.994  1.00  0.00     0.022 C 
HETATM    6  C9  UNL     1       0.315  -0.466  -1.868  1.00  0.00     0.034 C 
HETATM    7  C10 UNL     1      -1.074  -0.792  -1.400  1.00  0.00     0.134 C 
HETATM    8  O3  UNL     1      -1.821   0.365  -1.466  1.00  0.00    -0.298 OA
HETATM    9  C19 UNL     1      -2.468   1.137  -0.579  1.00  0.00     0.363 C 
HETATM   10  O4  UNL     1      -3.747   1.280  -0.709  1.00  0.00    -0.238 OA
HETATM   11  N3  UNL     1      -1.896   1.851   0.540  1.00  0.00    -0.319 N 
HETATM   12  C20 UNL     1      -2.607   1.741   1.792  1.00  0.00     0.156 C 
HETATM   13  C21 UNL     1      -0.681   2.642   0.427  1.00  0.00     0.181 C 
HETATM   14  C26 UNL     1       0.328   2.346   1.456  1.00  0.00     0.240 C 
HETATM   15  O5  UNL     1      -0.013   2.350   2.681  1.00  0.00    -0.271 OA
HETATM   16  N7  UNL     1       1.695   2.043   1.221  1.00  0.00    -0.358 N 
ATOM     17  H7  UNL     1       2.088   1.258   1.739  1.00  0.00     0.162 HD
HETATM   18  C27 UNL     1       2.575   2.733   0.327  1.00  0.00     0.142 C 
HETATM   19  C28 UNL     1       2.997   2.001  -0.894  1.00  0.00     0.147 C 
ENDROOT
BRANCH   7  20
HETATM   20  C11 UNL     1      -1.073  -1.542  -0.119  1.00  0.00     0.038 C 
BRANCH  20  21
HETATM   21  C12 UNL     1      -2.389  -1.942   0.426  1.00  0.00     0.009 C 
HETATM   22  C13 UNL     1      -2.119  -2.693   1.740  1.00  0.00     0.011 C 
BRANCH  21  23
HETATM   23  C14 UNL     1      -3.133  -2.931  -0.444  1.00  0.00     0.237 C 
BRANCH  23  24
HETATM   24  N2  UNL     1      -4.409  -3.249   0.192  1.00  0.00    -0.067 N 
ATOM     25  H22 UNL     1      -4.274  -3.575   1.149  1.00  0.00     0.278 HD
ATOM     26  H21 UNL     1      -4.947  -2.404   0.384  1.00  0.00     0.278 HD
BRANCH  24  27
HETATM   27  C15 UNL     1      -5.173  -4.188  -0.573  1.00  0.00     0.115 C 
HETATM   28  C16 UNL     1      -4.473  -5.528  -0.712  1.00  0.00     0.045 C 
HETATM   29  C17 UNL     1      -5.584  -3.673  -1.919  1.00  0.00     0.045 C 
HETATM   30  C18 UNL     1      -6.458  -4.449   0.222  1.00  0.00     0.045 C 
ENDBRANCH  24  27
ENDBRANCH  23  24
ENDBRANCH  21  23
ENDBRANCH  20  21
ENDBRANCH   7  20
BRANCH  13  31
HETATM   31  C22 UNL     1      -0.963   4.103   0.228  1.00  0.00     0.037 C 
BRANCH  31  32
HETATM   32  C23 UNL     1      -1.748   4.768   1.303  1.00  0.00     0.022 C 
BRANCH  32  33
HETATM   33  C24 UNL     1      -1.933   6.265   0.976  1.00  0.00     0.122 C 
BRANCH  33  34
HETATM   34  N4  UNL     1      -2.639   6.416  -0.277  1.00  0.00    -0.367 N 
HETATM   35  C25 UNL     1      -2.290   7.299  -1.149  1.00  0.00     0.196 C 
HETATM   36  N5  UNL     1      -2.994   7.435  -2.372  1.00  0.00    -0.067 NA
HETATM   37  N6  UNL     1      -1.188   8.153  -0.895  1.00  0.00    -0.067 NA
ATOM     38  H4  UNL     1      -3.434   5.808  -0.476  1.00  0.00     0.161 HD
ENDBRANCH  33  34
ENDBRANCH  32  33
ENDBRANCH  31  32
ENDBRANCH  13  31
BRANCH   1  39
HETATM   39  O1  UNL     1       4.621  -1.127   0.426  1.00  0.00    -0.304 OA
BRANCH  39  40
HETATM   40  C5  UNL     1       5.568  -1.538   1.395  1.00  0.00     0.180 C 
BRANCH  40  41
HETATM   41  C4  UNL     1       5.670  -3.043   1.291  1.00  0.00     0.027 C 
BRANCH  41  42
HETATM   42  C3  UNL     1       6.122  -3.460  -0.093  1.00  0.00     0.002 C 
BRANCH  42  43
HETATM   43  C2  UNL     1       7.479  -2.872  -0.400  1.00  0.00    -0.004 C 
HETATM   44  C1  UNL     1       8.519  -3.338   0.599  1.00  0.00     0.005 C 
ENDBRANCH  42  43
ENDBRANCH  41  42
ENDBRANCH  40  41
ENDBRANCH  39  40
ENDBRANCH   1  39
TORSDOF 14
