REMARK  14 active torsions:
REMARK  status: ('A' for Active; 'I' for Inactive)
REMARK    1  A    between atoms: O1_2  and  C2_3 
REMARK    2  A    between atoms: C2_3  and  C3_5 
REMARK    3  A    between atoms: C3_5  and  N1_6 
REMARK    4  A    between atoms: C3_5  and  C8_14 
REMARK    5  A    between atoms: N1_6  and  O3_7 
REMARK    6  A    between atoms: O3_7  and  C4_8 
REMARK    7  A    between atoms: C4_8  and  C7_11 
REMARK       I    between atoms: C8_14  and  N2_16 
REMARK    8  A    between atoms: N2_16  and  C9_18 
REMARK    9  A    between atoms: C12_22  and  C13_23 
REMARK   10  A    between atoms: C13_23  and  S2_24 
REMARK   11  A    between atoms: S2_24  and  C14_25 
REMARK   12  A    between atoms: C15_28  and  N4_29 
REMARK   13  A    between atoms: N6_34  and  C16_35 
REMARK   14  A    between atoms: C19_45  and  C20_46 
ROOT
HETATM    1  C9  UNL     1      -1.851   1.438  -1.306  1.00  0.00     0.187 C 
HETATM    2  C10 UNL     1      -1.391   2.468  -0.324  1.00  0.00     0.111 C 
HETATM    3  S1  UNL     1      -0.284   1.767   0.915  1.00  0.00    -0.136 SA
HETATM    4  C11 UNL     1       0.817   0.642   0.044  1.00  0.00     0.188 A 
HETATM    5  C12 UNL     1       2.210   1.030  -0.170  1.00  0.00    -0.003 A 
HETATM    6  C19 UNL     1       1.980   1.122  -1.491  1.00  0.00     0.121 A 
HETATM    7  N10 UNL     1       0.599   0.865  -1.378  1.00  0.00    -0.292 N 
HETATM    8  C21 UNL     1      -0.698   0.772  -1.932  1.00  0.00     0.249 C 
HETATM    9  O11 UNL     1      -0.880   0.100  -2.994  1.00  0.00    -0.271 OA
ENDROOT
BRANCH   5  10
HETATM   10  C13 UNL     1       3.379   1.265   0.717  1.00  0.00     0.122 C 
BRANCH  10  11
HETATM   11  S2  UNL     1       3.892  -0.210   1.591  1.00  0.00    -0.087 SA
BRANCH  11  12
HETATM   12  C14 UNL     1       4.628  -1.432   0.507  1.00  0.00     0.180 A 
HETATM   13  N3  UNL     1       4.070  -2.433  -0.184  1.00  0.00    -0.168 N 
HETATM   14  C15 UNL     1       5.046  -3.071  -0.837  1.00  0.00     0.692 A 
ATOM     15  H3  UNL     1       3.078  -2.667  -0.208  1.00  0.00     0.186 HD
HETATM   16  N5  UNL     1       6.211  -2.443  -0.535  1.00  0.00    -0.124 N 
HETATM   17  N6  UNL     1       5.965  -1.449   0.279  1.00  0.00    -0.207 N 
ATOM     18  H5  UNL     1       7.132  -2.705  -0.887  1.00  0.00     0.206 HD
BRANCH  14  19
HETATM   19  N4  UNL     1       5.016  -4.098  -1.634  1.00  0.00    -0.233 N 
ATOM     20  H42 UNL     1       4.141  -4.570  -1.861  1.00  0.00     0.174 HD
ATOM     21  H41 UNL     1       5.761  -4.585  -2.132  1.00  0.00     0.174 HD
ENDBRANCH  14  19
BRANCH  17  22
HETATM   22  C16 UNL     1       6.976  -0.546   0.812  1.00  0.00     0.368 A 
HETATM   23  N7  UNL     1       8.150  -1.226   1.279  1.00  0.00    -0.319 N 
HETATM   24  C17 UNL     1       9.355  -1.029   0.892  1.00  0.00     0.196 A 
ATOM     25  H7  UNL     1       8.010  -1.941   1.993  1.00  0.00     0.166 HD
HETATM   26  N8  UNL     1      10.455  -1.774   1.435  1.00  0.00    -0.063 NA
HETATM   27  N9  UNL     1       9.634  -0.060  -0.105  1.00  0.00    -0.276 N 
HETATM   28  C18 UNL     1       8.538   0.669  -0.643  1.00  0.00     0.370 A 
ATOM     29  H9  UNL     1      10.588   0.108  -0.425  1.00  0.00     0.173 HD
HETATM   30  O7  UNL     1       8.743   1.533  -1.523  1.00  0.00    -0.238 OA
HETATM   31  O8  UNL     1       7.235   0.412  -0.184  1.00  0.00    -0.258 OA
ENDBRANCH  17  22
ENDBRANCH  11  12
ENDBRANCH  10  11
ENDBRANCH   5  10
BRANCH   6  32
HETATM   32  C20 UNL     1       2.830   1.461  -2.622  1.00  0.00     0.227 C 
HETATM   33  O9  UNL     1       2.351   1.476  -3.809  1.00  0.00    -0.643 OA
HETATM   34  O10 UNL     1       4.154   1.780  -2.506  1.00  0.00    -0.643 OA
ENDBRANCH   6  32
BRANCH   1  35
HETATM   35  N2  UNL     1      -2.734   0.416  -0.737  1.00  0.00    -0.341 N 
HETATM   36  C8  UNL     1      -4.118   0.625  -0.713  1.00  0.00     0.292 C 
HETATM   37  O6  UNL     1      -4.499   1.764  -1.188  1.00  0.00    -0.264 OA
ATOM     38  H2  UNL     1      -2.341  -0.446  -0.359  1.00  0.00     0.163 HD
BRANCH  36  39
HETATM   39  C3  UNL     1      -5.177  -0.278  -0.221  1.00  0.00     0.281 C 
BRANCH  39  40
HETATM   40  C2  UNL     1      -4.901  -1.630   0.229  1.00  0.00     0.332 C 
HETATM   41  O2  UNL     1      -5.876  -2.367   0.562  1.00  0.00    -0.256 OA
BRANCH  40  42
HETATM   42  O1  UNL     1      -3.665  -2.213   0.335  1.00  0.00    -0.320 OA
HETATM   43  C1  UNL     1      -3.479  -3.557   0.787  1.00  0.00     0.213 C 
ENDBRANCH  40  42
ENDBRANCH  39  40
BRANCH  39  44
HETATM   44  N1  UNL     1      -6.317   0.186  -0.277  1.00  0.00    -0.268 NA
BRANCH  44  45
HETATM   45  O3  UNL     1      -7.426   0.638  -0.331  1.00  0.00    -0.186 OA
BRANCH  45  46
HETATM   46  C4  UNL     1      -8.413   1.183   0.441  1.00  0.00     0.183 C 
HETATM   47  C5  UNL     1      -9.561   1.599  -0.499  1.00  0.00     0.061 C 
HETATM   48  C6  UNL     1      -7.844   2.424   1.121  1.00  0.00     0.061 C 
BRANCH  46  49
HETATM   49  C7  UNL     1      -8.935   0.308   1.490  1.00  0.00     0.212 C 
HETATM   50  O4  UNL     1      -9.792   0.758   2.321  1.00  0.00    -0.646 OA
HETATM   51  O5  UNL     1      -8.585  -1.012   1.682  1.00  0.00    -0.646 OA
ENDBRANCH  46  49
ENDBRANCH  45  46
ENDBRANCH  44  45
ENDBRANCH  39  44
ENDBRANCH  36  39
ENDBRANCH   1  35
TORSDOF 14
