REMARK  15 active torsions:
REMARK  status: ('A' for Active; 'I' for Inactive)
REMARK    1  A    between atoms: C2_2  and  O1_3 
REMARK    2  A    between atoms: O1_3  and  C3_4 
REMARK    3  A    between atoms: C3_4  and  C4_6 
REMARK    4  A    between atoms: C8_15  and  C9_16 
REMARK    5  A    between atoms: C13_25  and  N5_26 
REMARK       I    between atoms: N5_26  and  C14_28 
REMARK    6  A    between atoms: C14_28  and  C15_30 
REMARK    7  A    between atoms: C15_30  and  S2_31 
REMARK    8  A    between atoms: C15_30  and  C20_46 
REMARK    9  A    between atoms: S2_31  and  C16_32 
REMARK   10  A    between atoms: C16_32  and  C17_33 
REMARK   11  A    between atoms: C17_33  and  C18_35 
REMARK   12  A    between atoms: C18_35  and  O7_36 
REMARK   13  A    between atoms: C18_35  and  N6_38 
REMARK   14  A    between atoms: N6_38  and  C19_40 
REMARK   15  A    between atoms: C19_40  and  O8_44 
ROOT
HETATM    1  N5  UNL     1      -0.524   0.120   0.038  1.00  0.00    -0.326 N 
ATOM      2  H5  UNL     1      -0.051  -0.630  -0.467  1.00  0.00     0.165 HD
HETATM    3  C14 UNL     1      -1.897   0.316  -0.137  1.00  0.00     0.238 C 
HETATM    4  O5  UNL     1      -2.493   1.237   0.479  1.00  0.00    -0.272 OA
ENDROOT
BRANCH   3   5
HETATM    5  C15 UNL     1      -2.715  -0.529  -1.039  1.00  0.00     0.179 C 
BRANCH   5   6
HETATM    6  S2  UNL     1      -4.446  -0.011  -1.054  1.00  0.00    -0.142 SA
BRANCH   6   7
HETATM    7  C16 UNL     1      -4.589   1.627  -1.788  1.00  0.00     0.158 C 
BRANCH   7   8
HETATM    8  C17 UNL     1      -6.024   2.030  -1.787  1.00  0.00     0.184 C 
HETATM    9  O6  UNL     1      -6.272   3.137  -2.278  1.00  0.00    -0.292 OA
BRANCH   8  10
HETATM   10  C18 UNL     1      -7.100   1.172  -1.237  1.00  0.00     0.292 C 
BRANCH  10  11
HETATM   11  O7  UNL     1      -8.315   1.842  -1.425  1.00  0.00    -0.370 OA
ATOM     12  H7  UNL     1      -9.005   1.292  -1.072  1.00  0.00     0.212 HD
ENDBRANCH  10  11
BRANCH  10  13
HETATM   13  N6  UNL     1      -6.849   0.966   0.160  1.00  0.00    -0.324 N 
ATOM     14  H6  UNL     1      -6.036   1.398   0.600  1.00  0.00     0.166 HD
BRANCH  13  15
HETATM   15  C19 UNL     1      -7.735   0.157   0.938  1.00  0.00     0.212 C 
HETATM   16  N7  UNL     1      -8.759   0.700   1.489  1.00  0.00    -0.366 N 
ATOM     17  H72 UNL     1      -8.938   1.698   1.373  1.00  0.00     0.159 HD
ATOM     18  H71 UNL     1      -9.391   0.123   2.044  1.00  0.00     0.159 HD
BRANCH  15  19
HETATM   19  O8  UNL     1      -7.493  -1.194   1.095  1.00  0.00    -0.333 OA
ATOM     20  H8  UNL     1      -8.082  -1.731   1.612  1.00  0.00     0.220 HD
ENDBRANCH  15  19
ENDBRANCH  13  15
ENDBRANCH  10  13
ENDBRANCH   8  10
ENDBRANCH   7   8
ENDBRANCH   6   7
ENDBRANCH   5   6
BRANCH   5  21
HETATM   21  C20 UNL     1      -2.644  -1.926  -0.585  1.00  0.00     0.049 A 
HETATM   22  C21 UNL     1      -2.776  -2.232   0.748  1.00  0.00     0.109 A 
HETATM   23  N8  UNL     1      -2.708  -3.512   1.140  1.00  0.00    -0.313 N 
HETATM   24  C22 UNL     1      -2.853  -3.801   2.556  1.00  0.00     0.160 C 
HETATM   25  C23 UNL     1      -2.513  -4.513   0.263  1.00  0.00     0.328 A 
HETATM   26  O9  UNL     1      -2.454  -5.719   0.672  1.00  0.00    -0.246 OA
HETATM   27  N9  UNL     1      -2.384  -4.216  -1.041  1.00  0.00    -0.275 N 
HETATM   28  C24 UNL     1      -2.445  -2.947  -1.481  1.00  0.00     0.258 A 
ATOM     29  H9  UNL     1      -2.237  -4.970  -1.712  1.00  0.00     0.173 HD
HETATM   30  O10 UNL     1      -2.315  -2.741  -2.714  1.00  0.00    -0.267 OA
ENDBRANCH   5  21
ENDBRANCH   3   5
BRANCH   1  31
HETATM   31  C13 UNL     1       0.227   0.969   0.926  1.00  0.00     0.305 C 
HETATM   32  C6  UNL     1       1.261   1.776   0.183  1.00  0.00     0.175 A 
HETATM   33  O3  UNL     1       1.113   3.143  -0.002  1.00  0.00    -0.278 OA
HETATM   34  N2  UNL     1       2.345   1.334  -0.343  1.00  0.00    -0.336 N 
HETATM   35  C5  UNL     1       2.207   3.594  -0.710  1.00  0.00     0.152 A 
HETATM   36  C4  UNL     1       3.048   2.421  -0.953  1.00  0.00     0.261 A 
HETATM   37  N1  UNL     1       2.401   4.837  -1.066  1.00  0.00    -0.381 N 
ATOM     38  H12 UNL     1       3.210   5.171  -1.590  1.00  0.00     0.158 HD
ATOM     39  H11 UNL     1       1.815   5.654  -0.897  1.00  0.00     0.158 HD
HETATM   40  C7  UNL     1       2.839  -0.049  -0.356  1.00  0.00     0.169 C 
HETATM   41  C8  UNL     1       2.816  -0.693   0.951  1.00  0.00     0.015 C 
HETATM   42  C12 UNL     1       1.920  -0.572   1.912  1.00  0.00     0.149 C 
HETATM   43  O4  UNL     1       0.768   0.188   1.946  1.00  0.00    -0.329 OA
BRANCH  36  44
HETATM   44  C3  UNL     1       4.433   2.580  -0.459  1.00  0.00     0.290 C 
HETATM   45  O2  UNL     1       4.930   1.860   0.411  1.00  0.00    -0.262 OA
BRANCH  44  46
HETATM   46  O1  UNL     1       5.197   3.595  -1.013  1.00  0.00    -0.320 OA
BRANCH  46  47
HETATM   47  C2  UNL     1       6.527   3.872  -0.649  1.00  0.00     0.174 C 
HETATM   48  C1  UNL     1       7.456   2.704  -0.888  1.00  0.00     0.034 C 
ENDBRANCH  46  47
ENDBRANCH  44  46
ENDBRANCH  36  44
BRANCH  41  49
HETATM   49  C9  UNL     1       3.931  -1.616   1.291  1.00  0.00     0.085 A 
HETATM   50  N3  UNL     1       4.974  -1.957   0.568  1.00  0.00    -0.338 N 
HETATM   51  C10 UNL     1       5.851  -2.784   1.039  1.00  0.00     0.123 A 
ATOM     52  H3  UNL     1       5.093  -1.569  -0.368  1.00  0.00     0.167 HD
HETATM   53  N4  UNL     1       7.022  -3.200   0.295  1.00  0.00    -0.082 NA
HETATM   54  C11 UNL     1       5.644  -3.279   2.303  1.00  0.00     0.097 A 
HETATM   55  S1  UNL     1       4.174  -2.502   2.730  1.00  0.00    -0.080 SA
ENDBRANCH  41  49
ENDBRANCH   1  31
TORSDOF 15
