REMARK  15 active torsions:
REMARK  status: ('A' for Active; 'I' for Inactive)
REMARK    1  A    between atoms: O1_2  and  C2_3 
REMARK    2  A    between atoms: C2_3  and  C3_4 
REMARK    3  A    between atoms: N1_11  and  C7_12 
REMARK    4  A    between atoms: N4_19  and  C10_20 
REMARK    5  A    between atoms: C10_20  and  C11_21 
REMARK       I    between atoms: C11_21  and  N5_23 
REMARK    6  A    between atoms: N5_23  and  C12_25 
REMARK    7  A    between atoms: C12_25  and  C13_26 
REMARK    8  A    between atoms: C12_25  and  C15_32 
REMARK    9  A    between atoms: C13_26  and  C14_27 
REMARK   10  A    between atoms: C14_27  and  N6_28 
REMARK       I    between atoms: C15_32  and  N7_34 
REMARK   11  A    between atoms: N7_34  and  N8_36 
REMARK   12  A    between atoms: C20_48  and  C21_49 
REMARK   13  A    between atoms: N11_50  and  O8_52 
REMARK   14  A    between atoms: C24_57  and  C25_58 
REMARK   15  A    between atoms: C25_58  and  O10_59 
ROOT
HETATM    1  C7  UNL     1       0.399   0.067   0.328  1.00  0.00     0.688 A 
HETATM    2  N2  UNL     1       0.929  -1.167   0.298  1.00  0.00    -0.172 N 
ATOM      3  H2  UNL     1       0.599  -1.958   0.851  1.00  0.00     0.186 HD
HETATM    4  C8  UNL     1       1.968  -1.209  -0.575  1.00  0.00     0.168 A 
HETATM    5  N3  UNL     1       2.851  -2.101  -1.023  1.00  0.00    -0.334 N 
ATOM      6  H3  UNL     1       2.808  -3.052  -0.658  1.00  0.00     0.168 HD
HETATM    7  C9  UNL     1       3.795  -1.808  -1.932  1.00  0.00     0.202 A 
HETATM    8  N4  UNL     1       3.901  -0.546  -2.455  1.00  0.00    -0.277 N 
HETATM    9  N9  UNL     1       3.033   0.344  -2.019  1.00  0.00    -0.279 N 
ATOM     10  H9  UNL     1       3.107   1.284  -2.407  1.00  0.00     0.189 HD
HETATM   11  C16 UNL     1       2.067   0.141  -1.121  1.00  0.00     0.180 A 
HETATM   12  N10 UNL     1       1.107   0.842  -0.543  1.00  0.00    -0.171 N 
ATOM     13  H10 UNL     1       0.921   1.828  -0.724  1.00  0.00     0.186 HD
ENDROOT
BRANCH   1  14
HETATM   14  N1  UNL     1      -0.709   0.476   1.104  1.00  0.00    -0.149 N 
HETATM   15  C2  UNL     1      -1.549  -0.455   1.880  1.00  0.00     0.360 C 
HETATM   16  O4  UNL     1      -2.883  -0.176   1.657  1.00  0.00    -0.289 OA
HETATM   17  C4  UNL     1      -3.188   0.670   0.629  1.00  0.00     0.203 C 
HETATM   18  C5  UNL     1      -2.456   1.987   0.623  1.00  0.00     0.092 C 
HETATM   19  O7  UNL     1      -4.562   1.003   0.788  1.00  0.00    -0.316 OA
HETATM   20  C24 UNL     1      -3.165  -0.079  -0.667  1.00  0.00     0.211 C 
HETATM   21  C6  UNL     1      -1.060   1.870   1.157  1.00  0.00     0.153 C 
HETATM   22  C17 UNL     1      -5.279   0.053   0.112  1.00  0.00     0.168 C 
HETATM   23  C18 UNL     1      -6.283   0.726  -0.780  1.00  0.00     0.069 C 
HETATM   24  C23 UNL     1      -5.838  -0.916   1.087  1.00  0.00     0.069 C 
HETATM   25  O9  UNL     1      -4.421  -0.644  -0.735  1.00  0.00    -0.342 OA
HETATM   26  C19 UNL     1      -7.592   1.004  -0.135  1.00  0.00     0.015 C 
HETATM   27  C20 UNL     1      -8.109  -0.338   0.396  1.00  0.00     0.026 C 
HETATM   28  C22 UNL     1      -7.220  -0.632   1.594  1.00  0.00     0.015 C 
BRANCH  15  29
HETATM   29  O1  UNL     1      -1.219  -1.698   1.393  1.00  0.00    -0.334 OA
HETATM   30  C1  UNL     1      -1.891  -2.777   1.861  1.00  0.00     0.208 C 
ENDBRANCH  15  29
BRANCH  15  31
HETATM   31  C3  UNL     1      -1.246  -0.333   3.311  1.00  0.00     0.264 C 
HETATM   32  O2  UNL     1      -1.605   0.673   4.003  1.00  0.00    -0.642 OA
HETATM   33  O3  UNL     1      -0.547  -1.301   3.994  1.00  0.00    -0.642 OA
ENDBRANCH  15  31
BRANCH  27  34
HETATM   34  C21 UNL     1      -9.533  -0.293   0.697  1.00  0.00     0.091 C 
HETATM   35  N11 UNL     1     -10.401  -0.501  -0.220  1.00  0.00    -0.284 N 
ATOM     36  H11 UNL     1     -11.392  -0.464   0.020  1.00  0.00     0.192 HD
BRANCH  35  37
HETATM   37  O8  UNL     1     -10.040  -0.772  -1.516  1.00  0.00    -0.291 OA
ATOM     38  H8  UNL     1     -10.684  -0.926  -2.197  1.00  0.00     0.244 HD
ENDBRANCH  35  37
ENDBRANCH  27  34
BRANCH  20  39
HETATM   39  C25 UNL     1      -2.905   0.764  -1.867  1.00  0.00     0.201 C 
BRANCH  39  40
HETATM   40  O10 UNL     1      -3.014  -0.069  -2.994  1.00  0.00    -0.398 OA
ATOM     41  H10 UNL     1      -2.848   0.469  -3.759  1.00  0.00     0.209 HD
ENDBRANCH  39  40
ENDBRANCH  20  39
ENDBRANCH   1  14
BRANCH   8  42
HETATM   42  C10 UNL     1       4.886  -0.170  -3.438  1.00  0.00     0.252 C 
BRANCH  42  43
HETATM   43  C11 UNL     1       6.169   0.364  -2.818  1.00  0.00     0.238 C 
HETATM   44  O5  UNL     1       6.905   0.911  -3.684  1.00  0.00    -0.272 OA
HETATM   45  N5  UNL     1       6.447   0.246  -1.473  1.00  0.00    -0.346 N 
ATOM     46  H5  UNL     1       5.713  -0.261  -0.979  1.00  0.00     0.163 HD
BRANCH  45  47
HETATM   47  C12 UNL     1       7.482   0.644  -0.604  1.00  0.00     0.179 C 
BRANCH  47  48
HETATM   48  C13 UNL     1       7.716  -0.244   0.571  1.00  0.00     0.062 C 
BRANCH  48  49
HETATM   49  C14 UNL     1       6.550  -0.433   1.481  1.00  0.00     0.232 C 
BRANCH  49  50
HETATM   50  N6  UNL     1       6.032   0.761   2.086  1.00  0.00    -0.079 N 
ATOM     51  H63 UNL     1       6.778   1.255   2.575  1.00  0.00     0.274 HD
ATOM     52  H62 UNL     1       5.803   1.445   1.365  1.00  0.00     0.274 HD
ATOM     53  H61 UNL     1       5.234   0.632   2.708  1.00  0.00     0.274 HD
ENDBRANCH  49  50
ENDBRANCH  48  49
ENDBRANCH  47  48
BRANCH  47  54
HETATM   54  C15 UNL     1       8.784   0.991  -1.261  1.00  0.00     0.258 C 
HETATM   55  O6  UNL     1       8.772   1.762  -2.251  1.00  0.00    -0.269 OA
HETATM   56  N7  UNL     1      10.051   0.468  -0.793  1.00  0.00    -0.275 N 
ATOM     57  H7  UNL     1      10.099  -0.168   0.003  1.00  0.00     0.189 HD
BRANCH  56  58
HETATM   58  N8  UNL     1      11.192   0.862  -1.463  1.00  0.00    -0.343 N 
ATOM     59  H82 UNL     1      11.128   1.499  -2.257  1.00  0.00     0.176 HD
ATOM     60  H81 UNL     1      12.084   0.494  -1.133  1.00  0.00     0.176 HD
ENDBRANCH  56  58
ENDBRANCH  47  54
ENDBRANCH  45  47
ENDBRANCH  42  43
ENDBRANCH   8  42
TORSDOF 15
