REMARK  15 active torsions:
REMARK  status: ('A' for Active; 'I' for Inactive)
REMARK    1  A    between atoms: O1_2  and  C2_3 
REMARK    2  A    between atoms: C2_3  and  C3_4 
REMARK    3  A    between atoms: C2_3  and  C17_34 
REMARK    4  A    between atoms: C6_8  and  O2_9 
REMARK    5  A    between atoms: C7_11  and  O3_12 
REMARK    6  A    between atoms: C8_14  and  C9_15 
REMARK    7  A    between atoms: C9_15  and  O4_16 
REMARK    8  A    between atoms: C9_15  and  C10_18 
REMARK    9  A    between atoms: C10_18  and  O5_19 
REMARK   10  A    between atoms: C10_18  and  O6_21 
REMARK   11  A    between atoms: O6_21  and  C12_22 
REMARK   12  A    between atoms: C14_25  and  O8_26 
REMARK   13  A    between atoms: C15_28  and  O9_29 
REMARK   14  A    between atoms: C16_31  and  O10_32 
REMARK   15  A    between atoms: C17_34  and  S1_35 
ROOT
HETATM    1  C9  UNL     1       0.293  -0.389  -0.755  1.00  0.00     0.198 C 
ENDROOT
BRANCH   1   2
HETATM    2  C8  UNL     1      -0.655   0.710  -0.964  1.00  0.00     0.148 C 
HETATM    3  N1  UNL     1      -2.046   0.402  -0.760  1.00  0.00    -0.381 N 
HETATM    4  C3  UNL     1      -2.471  -0.844  -0.425  1.00  0.00     0.091 C 
HETATM    5  C4  UNL     1      -2.800   1.308  -1.554  1.00  0.00     0.125 C 
HETATM    6  C5  UNL     1      -2.406   2.752  -1.356  1.00  0.00     0.054 C 
HETATM    7  C6  UNL     1      -1.363   3.019  -0.327  1.00  0.00     0.150 C 
HETATM    8  C7  UNL     1      -0.367   1.926  -0.084  1.00  0.00     0.172 C 
BRANCH   4   9
HETATM    9  C2  UNL     1      -3.666  -0.963   0.501  1.00  0.00     0.170 C 
BRANCH   9  10
HETATM   10  O1  UNL     1      -3.362  -0.338   1.702  1.00  0.00    -0.385 OA
HETATM   11  C1  UNL     1      -4.174   0.692   2.071  1.00  0.00     0.202 C 
ENDBRANCH   9  10
BRANCH   9  12
HETATM   12  C17 UNL     1      -4.038  -2.413   0.713  1.00  0.00     0.145 C 
BRANCH  12  13
HETATM   13  S1  UNL     1      -5.449  -2.628   1.736  1.00  0.00     0.013 S 
HETATM   14  C18 UNL     1      -6.870  -1.837   1.004  1.00  0.00     0.127 C 
HETATM   15  O11 UNL     1      -5.796  -4.268   1.827  1.00  0.00    -0.258 OA
ENDBRANCH  12  13
ENDBRANCH   9  12
ENDBRANCH   4   9
BRANCH   7  16
HETATM   16  O2  UNL     1      -1.894   3.408   0.903  1.00  0.00    -0.393 OA
ATOM     17  H2  UNL     1      -1.229   3.578   1.559  1.00  0.00     0.210 HD
ENDBRANCH   7  16
BRANCH   8  18
HETATM   18  O3  UNL     1      -0.408   1.462   1.231  1.00  0.00    -0.391 OA
ATOM     19  H3  UNL     1       0.223   0.769   1.385  1.00  0.00     0.210 HD
ENDBRANCH   8  18
ENDBRANCH   1   2
BRANCH   1  20
HETATM   20  O4  UNL     1      -0.058  -1.453  -1.637  1.00  0.00    -0.388 OA
ATOM     21  H4  UNL     1       0.556  -2.165  -1.502  1.00  0.00     0.210 HD
ENDBRANCH   1  20
BRANCH   1  22
HETATM   22  C10 UNL     1       1.710  -0.035  -1.203  1.00  0.00     0.293 C 
BRANCH  22  23
HETATM   23  O5  UNL     1       1.710   0.289  -2.542  1.00  0.00    -0.363 OA
HETATM   24  C11 UNL     1       2.191   1.523  -2.876  1.00  0.00     0.204 C 
ENDBRANCH  22  23
BRANCH  22  25
HETATM   25  O6  UNL     1       2.565  -1.130  -0.968  1.00  0.00    -0.326 OA
BRANCH  25  26
HETATM   26  C12 UNL     1       3.542  -0.751  -0.054  1.00  0.00     0.294 C 
HETATM   27  O7  UNL     1       3.398  -1.531   1.083  1.00  0.00    -0.356 OA
HETATM   28  C13 UNL     1       4.493  -1.461   1.935  1.00  0.00     0.205 C 
HETATM   29  C14 UNL     1       5.360  -0.253   1.661  1.00  0.00     0.173 C 
HETATM   30  C15 UNL     1       5.931  -0.276   0.267  1.00  0.00     0.182 C 
HETATM   31  C16 UNL     1       4.920  -0.862  -0.664  1.00  0.00     0.204 C 
BRANCH  29  32
HETATM   32  O8  UNL     1       6.416  -0.286   2.571  1.00  0.00    -0.391 OA
ATOM     33  H8  UNL     1       6.961   0.473   2.399  1.00  0.00     0.210 HD
ENDBRANCH  29  32
BRANCH  30  34
HETATM   34  O9  UNL     1       7.097  -1.059   0.190  1.00  0.00    -0.390 OA
ATOM     35  H9  UNL     1       7.457  -1.074  -0.689  1.00  0.00     0.210 HD
ENDBRANCH  30  34
BRANCH  31  36
HETATM   36  O10 UNL     1       5.226  -2.170  -1.025  1.00  0.00    -0.388 OA
ATOM     37  H10 UNL     1       6.092  -2.240  -1.409  1.00  0.00     0.210 HD
ENDBRANCH  31  36
ENDBRANCH  25  26
ENDBRANCH  22  25
ENDBRANCH   1  22
TORSDOF 15
