REMARK  16 active torsions:
REMARK  status: ('A' for Active; 'I' for Inactive)
REMARK    1  A    between atoms: C2_2  and  C3_3 
REMARK    2  A    between atoms: C2_2  and  C4_5 
REMARK    3  A    between atoms: C4_5  and  O2_6 
REMARK    4  A    between atoms: C4_5  and  C6_10 
REMARK    5  A    between atoms: O2_6  and  C5_7 
REMARK    6  A    between atoms: C6_10  and  C8_12 
REMARK    7  A    between atoms: C8_12  and  O5_14 
REMARK    8  A    between atoms: O5_14  and  C9_15 
REMARK    9  A    between atoms: C9_15  and  O6_16 
REMARK   10  A    between atoms: C9_15  and  C10_18 
REMARK   11  A    between atoms: C10_18  and  O7_19 
REMARK   12  A    between atoms: C10_18  and  C11_21 
REMARK   13  A    between atoms: C11_21  and  C12_22 
REMARK   14  A    between atoms: C11_21  and  C13_25 
REMARK   15  A    between atoms: C13_25  and  C14_26 
REMARK   16  A    between atoms: C15_29  and  O12_30 
ROOT
HETATM    1  C10 UNL     1       1.083  -0.432   0.137  1.00  0.00     0.191 C 
ENDROOT
BRANCH   1   2
HETATM    2  C9  UNL     1      -0.062   0.121  -0.657  1.00  0.00     0.296 C 
BRANCH   2   3
HETATM    3  O5  UNL     1      -1.325  -0.278  -0.287  1.00  0.00    -0.287 OA
BRANCH   3   4
HETATM    4  C8  UNL     1      -2.295  -0.821  -1.092  1.00  0.00     0.267 C 
HETATM    5  O4  UNL     1      -1.925  -0.939  -2.280  1.00  0.00    -0.265 OA
BRANCH   4   6
HETATM    6  C6  UNL     1      -3.643  -1.240  -0.667  1.00  0.00     0.112 C 
HETATM    7  C7  UNL     1      -4.336  -1.949  -1.792  1.00  0.00     0.023 C 
BRANCH   6   8
HETATM    8  C4  UNL     1      -4.454  -0.105  -0.085  1.00  0.00     0.156 C 
BRANCH   8   9
HETATM    9  C2  UNL     1      -5.742  -0.632   0.445  1.00  0.00     0.073 C 
HETATM   10  C1  UNL     1      -6.468   0.421   1.269  1.00  0.00     0.020 C 
BRANCH   9  11
HETATM   11  C3  UNL     1      -5.414  -1.749   1.386  1.00  0.00     0.237 C 
HETATM   12  O1  UNL     1      -5.232  -1.592   2.572  1.00  0.00    -0.306 OA
ENDBRANCH   9  11
ENDBRANCH   8   9
BRANCH   8  13
HETATM   13  O2  UNL     1      -4.551   1.003  -0.913  1.00  0.00    -0.299 OA
BRANCH  13  14
HETATM   14  C5  UNL     1      -4.040   2.250  -0.682  1.00  0.00     0.373 C 
HETATM   15  N1  UNL     1      -4.230   3.274  -1.634  1.00  0.00    -0.032 NA
HETATM   16  O3  UNL     1      -3.411   2.437   0.389  1.00  0.00    -0.242 OA
ENDBRANCH  13  14
ENDBRANCH   8  13
ENDBRANCH   6   8
ENDBRANCH   4   6
ENDBRANCH   3   4
ENDBRANCH   2   3
BRANCH   2  17
HETATM   17  O6  UNL     1      -0.032   1.519  -0.553  1.00  0.00    -0.368 OA
ATOM     18  H6  UNL     1       0.840   1.795  -0.809  1.00  0.00     0.212 HD
ENDBRANCH   2  17
ENDBRANCH   1   2
BRANCH   1  19
HETATM   19  O7  UNL     1       0.889  -0.026   1.453  1.00  0.00    -0.390 OA
ATOM     20  H7  UNL     1       1.615  -0.376   1.956  1.00  0.00     0.210 HD
ENDBRANCH   1  19
BRANCH   1  21
HETATM   21  C11 UNL     1       2.412   0.052  -0.327  1.00  0.00     0.173 C 
BRANCH  21  22
HETATM   22  C12 UNL     1       2.691  -0.315  -1.755  1.00  0.00     0.183 C 
HETATM   23  O8  UNL     1       2.907   0.529  -2.660  1.00  0.00    -0.648 OA
HETATM   24  O9  UNL     1       2.724  -1.660  -2.159  1.00  0.00    -0.648 OA
ENDBRANCH  21  22
BRANCH  21  25
HETATM   25  C13 UNL     1       3.611  -0.345   0.450  1.00  0.00     0.287 C 
HETATM   26  C15 UNL     1       3.840   0.278   1.763  1.00  0.00     0.171 C 
HETATM   27  C16 UNL     1       4.852   1.404   1.568  1.00  0.00     0.071 C 
HETATM   28  C17 UNL     1       5.088   1.434   0.091  1.00  0.00     0.229 C 
HETATM   29  C18 UNL     1       6.540   1.086  -0.274  1.00  0.00     0.066 C 
HETATM   30  N2  UNL     1       4.747   0.112  -0.391  1.00  0.00     0.117 N 
HETATM   31  C19 UNL     1       6.037  -0.322   0.006  1.00  0.00     0.277 C 
BRANCH  25  32
HETATM   32  C14 UNL     1       3.815  -1.810   0.545  1.00  0.00     0.217 C 
HETATM   33  O10 UNL     1       4.695  -2.467  -0.047  1.00  0.00    -0.646 OA
HETATM   34  O11 UNL     1       2.963  -2.552   1.365  1.00  0.00    -0.646 OA
ENDBRANCH  25  32
BRANCH  26  35
HETATM   35  O12 UNL     1       4.426  -0.617   2.695  1.00  0.00    -0.392 OA
ATOM     36  H12 UNL     1       4.574  -0.215   3.543  1.00  0.00     0.210 HD
ENDBRANCH  26  35
ENDBRANCH  21  25
ENDBRANCH   1  21
TORSDOF 16
