REMARK  12 active torsions:
REMARK  status: ('A' for Active; 'I' for Inactive)
REMARK    1  A    between atoms: C2_2  and  C3_3 
REMARK    2  A    between atoms: C2_2  and  S1_38 
REMARK       I    between atoms: C3_3  and  N1_5 
REMARK    3  A    between atoms: N1_5  and  C4_7 
REMARK    4  A    between atoms: C4_7  and  O2_8 
REMARK    5  A    between atoms: C4_7  and  C5_10 
REMARK    6  A    between atoms: C5_10  and  N2_11 
REMARK       I    between atoms: N2_11  and  C6_13 
REMARK    7  A    between atoms: C6_13  and  C7_15 
REMARK    8  A    between atoms: C7_15  and  N3_16 
REMARK    9  A    between atoms: C7_15  and  C8_20 
REMARK   10  A    between atoms: N3_16  and  O4_18 
REMARK   11  A    between atoms: C11_26  and  C12_27 
REMARK   12  A    between atoms: C12_27  and  C13_29 
REMARK       I    between atoms: C13_29  and  N4_31 
ROOT
HETATM    1  C13 UNL     1      -3.118  -4.024   0.209  1.00  0.00     0.302 C 
HETATM    2  O9  UNL     1      -4.148  -3.721  -0.430  1.00  0.00    -0.263 OA
HETATM    3  N4  UNL     1      -3.081  -5.341   0.772  1.00  0.00    -0.257 N 
ATOM      4  H4  UNL     1      -2.262  -5.637   1.304  1.00  0.00     0.181 HD
HETATM    5  C14 UNL     1      -4.147  -6.224   0.604  1.00  0.00     0.184 C 
HETATM    6  N5  UNL     1      -5.026  -6.964   0.484  1.00  0.00    -0.172 NA
ENDROOT
BRANCH   1   7
HETATM    7  C12 UNL     1      -2.025  -3.091   0.370  1.00  0.00     0.255 C 
HETATM    8  O8  UNL     1      -1.015  -3.526   0.998  1.00  0.00    -0.284 OA
BRANCH   7   9
HETATM    9  C11 UNL     1      -2.096  -1.725  -0.174  1.00  0.00     0.337 C 
HETATM   10  C10 UNL     1      -3.127  -0.962   0.567  1.00  0.00     0.169 C 
HETATM   11  C9  UNL     1      -2.427   0.056   1.381  1.00  0.00     0.147 C 
HETATM   12  O7  UNL     1      -4.365  -1.129   0.526  1.00  0.00    -0.295 OA
HETATM   13  C5  UNL     1      -1.085   0.195   0.711  1.00  0.00     0.251 C 
HETATM   14  N6  UNL     1      -0.867  -1.005  -0.025  1.00  0.00    -0.025 N 
ATOM     15  H62 UNL     1      -0.420  -0.825  -0.924  1.00  0.00     0.281 HD
ATOM     16  H61 UNL     1      -0.137  -1.581   0.393  1.00  0.00     0.281 HD
BRANCH  13  17
HETATM   17  C4  UNL     1       0.003   0.314   1.803  1.00  0.00     0.278 C 
BRANCH  17  18
HETATM   18  N1  UNL     1       1.279   0.344   1.123  1.00  0.00    -0.330 N 
HETATM   19  C3  UNL     1       2.212   1.396   1.277  1.00  0.00     0.235 C 
HETATM   20  O1  UNL     1       1.947   2.358   2.035  1.00  0.00    -0.272 OA
ATOM     21  H1  UNL     1       1.517  -0.430   0.503  1.00  0.00     0.165 HD
BRANCH  19  22
HETATM   22  C2  UNL     1       3.483   1.358   0.553  1.00  0.00     0.166 C 
HETATM   23  C1  UNL     1       3.249   1.310  -0.933  1.00  0.00     0.034 C 
BRANCH  22  24
HETATM   24  S1  UNL     1       4.520   0.018   1.089  1.00  0.00     0.024 S 
HETATM   25  C15 UNL     1       6.097   0.098   0.282  1.00  0.00     0.128 C 
HETATM   26  O10 UNL     1       4.775   0.162   2.745  1.00  0.00    -0.258 OA
ENDBRANCH  22  24
ENDBRANCH  19  22
ENDBRANCH  17  18
BRANCH  17  27
HETATM   27  O2  UNL     1       0.004  -0.788   2.644  1.00  0.00    -0.372 OA
ATOM     28  H2  UNL     1      -0.834  -0.808   3.091  1.00  0.00     0.212 HD
ENDBRANCH  17  27
ENDBRANCH  13  17
BRANCH  13  29
HETATM   29  N2  UNL     1      -0.994   1.389  -0.078  1.00  0.00    -0.322 N 
HETATM   30  C6  UNL     1      -1.745   1.761  -1.190  1.00  0.00     0.255 C 
HETATM   31  O3  UNL     1      -2.644   1.027  -1.642  1.00  0.00    -0.270 OA
ATOM     32  H2  UNL     1      -0.282   2.057   0.216  1.00  0.00     0.165 HD
BRANCH  30  33
HETATM   33  C7  UNL     1      -1.524   3.045  -1.901  1.00  0.00     0.297 C 
BRANCH  33  34
HETATM   34  N3  UNL     1      -0.434   3.777  -1.280  1.00  0.00    -0.281 N 
ATOM     35  H3  UNL     1       0.512   3.697  -1.653  1.00  0.00     0.189 HD
BRANCH  34  36
HETATM   36  O4  UNL     1      -0.645   4.472  -0.333  1.00  0.00    -0.293 OA
ATOM     37  H4  UNL     1       0.068   4.951   0.073  1.00  0.00     0.244 HD
ENDBRANCH  34  36
ENDBRANCH  33  34
BRANCH  33  38
HETATM   38  C8  UNL     1      -1.174   2.855  -3.332  1.00  0.00     0.208 C 
HETATM   39  O5  UNL     1      -0.082   3.295  -3.828  1.00  0.00    -0.646 OA
HETATM   40  O6  UNL     1      -2.016   2.187  -4.210  1.00  0.00    -0.646 OA
ENDBRANCH  33  38
ENDBRANCH  30  33
ENDBRANCH  13  29
ENDBRANCH   7   9
ENDBRANCH   1   7
TORSDOF 12
