REMARK  14 active torsions:
REMARK  status: ('A' for Active; 'I' for Inactive)
REMARK    1  A    between atoms: C2_2  and  C3_3 
REMARK    2  A    between atoms: C2_2  and  C9_16 
REMARK    3  A    between atoms: C3_3  and  C4_5 
REMARK       I    between atoms: C4_5  and  N1_7 
REMARK    4  A    between atoms: N1_7  and  C5_9 
REMARK    5  A    between atoms: C5_9  and  C6_10 
REMARK    6  A    between atoms: C5_9  and  C7_12 
REMARK    7  A    between atoms: C7_12  and  O5_14 
REMARK    8  A    between atoms: C9_16  and  O6_17 
REMARK    9  A    between atoms: C9_16  and  C10_19 
REMARK   10  A    between atoms: C10_19  and  C11_20 
REMARK   11  A    between atoms: C11_20  and  O7_21 
REMARK   12  A    between atoms: C11_20  and  C12_23 
REMARK       I    between atoms: C12_23  and  N2_25 
REMARK   13  A    between atoms: N2_25  and  C13_27 
REMARK   14  A    between atoms: C17_34  and  O11_35 
ROOT
HETATM    1  C11 UNL     1      -1.807  -2.804  -1.451  1.00  0.00     0.212 C 
ENDROOT
BRANCH   1   2
HETATM    2  C10 UNL     1      -1.331  -2.978  -0.026  1.00  0.00     0.078 C 
BRANCH   2   3
HETATM    3  C9  UNL     1       0.106  -2.555   0.151  1.00  0.00     0.157 C 
BRANCH   3   4
HETATM    4  C2  UNL     1       0.513  -2.720   1.549  1.00  0.00     0.017 C 
HETATM    5  C1  UNL     1      -0.347  -3.274   2.408  1.00  0.00     0.025 C 
BRANCH   4   6
HETATM    6  C3  UNL     1       1.827  -2.325   2.002  1.00  0.00     0.247 C 
HETATM    7  O1  UNL     1       2.071  -2.585   3.249  1.00  0.00    -0.282 OA
BRANCH   6   8
HETATM    8  C4  UNL     1       2.814  -1.698   1.198  1.00  0.00     0.293 C 
HETATM    9  O2  UNL     1       2.664  -1.373   0.019  1.00  0.00    -0.264 OA
HETATM   10  N1  UNL     1       4.095  -1.415   1.800  1.00  0.00    -0.335 N 
ATOM     11  H1  UNL     1       4.272  -1.662   2.774  1.00  0.00     0.164 HD
BRANCH  10  12
HETATM   12  C5  UNL     1       5.116  -0.783   1.017  1.00  0.00     0.246 C 
BRANCH  12  13
HETATM   13  C6  UNL     1       6.306  -1.663   0.902  1.00  0.00     0.266 C 
HETATM   14  O3  UNL     1       6.287  -2.752   1.446  1.00  0.00    -0.304 OA
ENDBRANCH  12  13
BRANCH  12  15
HETATM   15  C7  UNL     1       5.540   0.473   1.715  1.00  0.00     0.288 C 
HETATM   16  O4  UNL     1       5.035   0.842   2.806  1.00  0.00    -0.262 OA
BRANCH  15  17
HETATM   17  O5  UNL     1       6.544   1.238   1.095  1.00  0.00    -0.325 OA
HETATM   18  C8  UNL     1       6.931   2.420   1.769  1.00  0.00     0.213 C 
ENDBRANCH  15  17
ENDBRANCH  12  15
ENDBRANCH  10  12
ENDBRANCH   6   8
ENDBRANCH   4   6
ENDBRANCH   3   4
BRANCH   3  19
HETATM   19  O6  UNL     1       0.946  -3.377  -0.620  1.00  0.00    -0.391 OA
ATOM     20  H6  UNL     1       0.682  -3.270  -1.526  1.00  0.00     0.210 HD
ENDBRANCH   3  19
ENDBRANCH   2   3
ENDBRANCH   1   2
BRANCH   1  21
HETATM   21  O7  UNL     1      -1.098  -3.525  -2.374  1.00  0.00    -0.386 OA
ATOM     22  H7  UNL     1      -1.397  -3.416  -3.269  1.00  0.00     0.210 HD
ENDBRANCH   1  21
BRANCH   1  23
HETATM   23  C12 UNL     1      -1.931  -1.372  -1.783  1.00  0.00     0.248 C 
HETATM   24  O8  UNL     1      -1.403  -0.904  -2.844  1.00  0.00    -0.271 OA
HETATM   25  N2  UNL     1      -2.625  -0.448  -0.965  1.00  0.00    -0.330 N 
ATOM     26  H2  UNL     1      -3.057  -0.790  -0.107  1.00  0.00     0.164 HD
BRANCH  25  27
HETATM   27  C13 UNL     1      -2.752   0.954  -1.284  1.00  0.00     0.303 C 
HETATM   28  C14 UNL     1      -2.178   1.753  -0.150  1.00  0.00     0.195 C 
HETATM   29  S1  UNL     1      -2.598   3.466  -0.349  1.00  0.00     0.155 S 
HETATM   30  O9  UNL     1      -2.762   4.058   1.034  1.00  0.00    -0.227 OA
HETATM   31  O10 UNL     1      -1.467   4.213  -1.003  1.00  0.00    -0.227 OA
HETATM   32  C15 UNL     1      -4.094   3.681  -1.277  1.00  0.00     0.160 C 
HETATM   33  C16 UNL     1      -5.226   3.950  -0.324  1.00  0.00     0.031 C 
HETATM   34  C17 UNL     1      -4.368   2.503  -2.181  1.00  0.00     0.339 C 
HETATM   35  N3  UNL     1      -4.158   1.241  -1.517  1.00  0.00    -0.026 N 
ATOM     36  H32 UNL     1      -4.606   0.480  -2.028  1.00  0.00     0.282 HD
ATOM     37  H31 UNL     1      -4.690   1.193  -0.648  1.00  0.00     0.282 HD
BRANCH  34  38
HETATM   38  O11 UNL     1      -3.651   2.576  -3.377  1.00  0.00    -0.369 OA
ATOM     39  H11 UNL     1      -3.823   1.835  -3.946  1.00  0.00     0.212 HD
ENDBRANCH  34  38
ENDBRANCH  25  27
ENDBRANCH   1  23
TORSDOF 14
