REMARK  9 active torsions:
REMARK  status: ('A' for Active; 'I' for Inactive)
REMARK    1  A    between atoms: N1_1  and  C1_5 
REMARK    2  A    between atoms: C1_5  and  C2_6 
REMARK    3  A    between atoms: C1_5  and  C9_24 
REMARK       I    between atoms: C2_6  and  N2_8 
REMARK    4  A    between atoms: N2_8  and  N3_10 
REMARK    5  A    between atoms: C8_21  and  O4_22 
REMARK    6  A    between atoms: C9_24  and  N4_25 
REMARK    7  A    between atoms: C9_24  and  C10_29 
REMARK    8  A    between atoms: C10_29  and  O5_30 
REMARK    9  A    between atoms: N5_32  and  O6_34 
ROOT
HETATM    1  C2  UNL     1       1.505  -0.318  -0.152  1.00  0.00     0.269 C 
HETATM    2  O1  UNL     1       0.921   0.510   0.604  1.00  0.00    -0.269 OA
HETATM    3  N2  UNL     1       0.772  -1.429  -0.620  1.00  0.00    -0.268 N 
ATOM      4  H2  UNL     1       1.211  -2.116  -1.233  1.00  0.00     0.190 HD
ENDROOT
BRANCH   1   5
HETATM    5  C1  UNL     1       2.921  -0.152  -0.555  1.00  0.00     0.314 C 
BRANCH   5   6
HETATM    6  N1  UNL     1       3.335  -1.285  -1.341  1.00  0.00    -0.064 N 
ATOM      7  H13 UNL     1       3.174  -2.168  -0.857  1.00  0.00     0.275 HD
ATOM      8  H12 UNL     1       2.723  -1.442  -2.142  1.00  0.00     0.275 HD
ATOM      9  H11 UNL     1       4.310  -1.171  -1.618  1.00  0.00     0.275 HD
ENDBRANCH   5   6
BRANCH   5  10
HETATM   10  C9  UNL     1       3.760  -0.058   0.700  1.00  0.00     0.298 C 
BRANCH  10  11
HETATM   11  N4  UNL     1       3.600  -1.235   1.476  1.00  0.00    -0.065 N 
ATOM     12  H43 UNL     1       2.620  -1.427   1.684  1.00  0.00     0.275 HD
ATOM     13  H42 UNL     1       3.805  -2.078   0.940  1.00  0.00     0.275 HD
ATOM     14  H41 UNL     1       4.166  -1.172   2.322  1.00  0.00     0.275 HD
ENDBRANCH  10  11
BRANCH  10  15
HETATM   15  C10 UNL     1       5.130   0.326   0.368  1.00  0.00     0.169 C 
HETATM   16  N5  UNL     1       6.134  -0.398   0.682  1.00  0.00    -0.249 N 
ATOM     17  H5  UNL     1       7.059  -0.060   0.415  1.00  0.00     0.196 HD
BRANCH  15  18
HETATM   18  O5  UNL     1       5.352   1.515  -0.308  1.00  0.00    -0.346 OA
ATOM     19  H5  UNL     1       6.243   1.765  -0.524  1.00  0.00     0.219 HD
ENDBRANCH  15  18
BRANCH  16  20
HETATM   20  O6  UNL     1       6.069  -1.575   1.339  1.00  0.00    -0.288 OA
ATOM     21  H6  UNL     1       6.816  -2.114   1.573  1.00  0.00     0.244 HD
ENDBRANCH  16  20
ENDBRANCH  10  15
ENDBRANCH   5  10
ENDBRANCH   1   5
BRANCH   3  22
HETATM   22  N3  UNL     1      -0.558  -1.577  -0.236  1.00  0.00    -0.292 N 
HETATM   23  C3  UNL     1      -1.403  -0.682  -0.609  1.00  0.00     0.099 C 
HETATM   24  S1  UNL     1      -1.383   0.817  -1.549  1.00  0.00    -0.104 SA
HETATM   25  C8  UNL     1      -2.879  -0.585  -0.346  1.00  0.00     0.133 C 
HETATM   26  C4  UNL     1      -3.147   0.466  -1.367  1.00  0.00     0.096 C 
HETATM   27  C5  UNL     1      -3.979   1.609  -0.890  1.00  0.00     0.034 C 
HETATM   28  C6  UNL     1      -5.291   1.058  -0.315  1.00  0.00     0.142 C 
HETATM   29  S2  UNL     1      -4.831   0.288   1.244  1.00  0.00     0.147 S 
HETATM   30  O2  UNL     1      -4.942   1.377   2.285  1.00  0.00    -0.228 OA
HETATM   31  O3  UNL     1      -5.692  -0.881   1.555  1.00  0.00    -0.228 OA
HETATM   32  C7  UNL     1      -3.111  -0.163   1.066  1.00  0.00     0.186 C 
ATOM     33  H3  UNL     1      -0.855  -2.374   0.327  1.00  0.00     0.187 HD
BRANCH  25  34
HETATM   34  O4  UNL     1      -3.519  -1.785  -0.643  1.00  0.00    -0.381 OA
ATOM     35  H4  UNL     1      -4.452  -1.724  -0.477  1.00  0.00     0.211 HD
ENDBRANCH  25  34
ENDBRANCH   3  22
TORSDOF 9
