REMARK  7 active torsions:
REMARK  status: ('A' for Active; 'I' for Inactive)
REMARK    1  A    between atoms: C2_2  and  N1_3 
REMARK    2  A    between atoms: N1_3  and  C3_5 
REMARK    3  A    between atoms: C3_5  and  O1_6 
REMARK    4  A    between atoms: C3_5  and  C4_8 
REMARK    5  A    between atoms: C4_8  and  N2_9 
REMARK    6  A    between atoms: C4_8  and  C5_13 
REMARK    7  A    between atoms: C11_27  and  N6_28 
ROOT
HETATM    1  C1  UNL     1       0.161  -0.607   2.063  1.00  0.00     0.041 C 
HETATM    2  C2  UNL     1       0.078  -0.232   0.542  1.00  0.00     0.059 C 
HETATM    3  C6  UNL     1       0.124  -1.487  -0.221  1.00  0.00     0.172 C 
HETATM    4  S2  UNL     1      -0.955  -2.782   0.339  1.00  0.00     0.148 S 
HETATM    5  O2  UNL     1      -0.790  -3.899  -0.692  1.00  0.00    -0.228 OA
HETATM    6  O3  UNL     1      -0.572  -3.366   1.640  1.00  0.00    -0.228 OA
HETATM    7  C7  UNL     1      -2.658  -2.304   0.238  1.00  0.00     0.160 C 
HETATM    8  C8  UNL     1      -2.697  -1.181  -0.779  1.00  0.00     0.141 C 
HETATM    9  N3  UNL     1      -2.317   0.073  -0.149  1.00  0.00    -0.346 N 
HETATM   10  C9  UNL     1      -3.467   0.926  -0.141  1.00  0.00     0.186 C 
HETATM   11  N4  UNL     1      -4.762   0.317  -0.349  1.00  0.00    -0.064 NA
HETATM   12  N5  UNL     1      -3.344   2.181   0.040  1.00  0.00    -0.362 N 
ATOM     13  H5  UNL     1      -4.193   2.746   0.038  1.00  0.00     0.162 HD
HETATM   14  C10 UNL     1      -2.097   2.855   0.246  1.00  0.00     0.157 C 
HETATM   15  C11 UNL     1      -0.916   1.996  -0.207  1.00  0.00     0.226 C 
HETATM   16  C12 UNL     1      -1.132   0.604   0.421  1.00  0.00     0.147 C 
ENDROOT
BRANCH   2  17
HETATM   17  N1  UNL     1       1.207   0.602   0.232  1.00  0.00    -0.384 N 
ATOM     18  H1  UNL     1       1.048   1.553  -0.102  1.00  0.00     0.156 HD
BRANCH  17  19
HETATM   19  C3  UNL     1       2.518   0.138   0.378  1.00  0.00     0.245 C 
BRANCH  19  20
HETATM   20  O1  UNL     1       3.258   0.902   1.331  1.00  0.00    -0.375 OA
ATOM     21  H1  UNL     1       4.149   0.587   1.430  1.00  0.00     0.212 HD
ENDBRANCH  19  20
BRANCH  19  22
HETATM   22  C4  UNL     1       3.325   0.179  -0.893  1.00  0.00     0.241 C 
BRANCH  22  23
HETATM   23  N2  UNL     1       2.747  -0.511  -1.998  1.00  0.00    -0.070 N 
ATOM     24  H23 UNL     1       2.543  -1.477  -1.742  1.00  0.00     0.274 HD
ATOM     25  H22 UNL     1       1.802  -0.169  -2.171  1.00  0.00     0.274 HD
ATOM     26  H21 UNL     1       3.294  -0.483  -2.859  1.00  0.00     0.274 HD
ENDBRANCH  22  23
BRANCH  22  27
HETATM   27  C5  UNL     1       4.714  -0.444  -0.684  1.00  0.00     0.123 C 
HETATM   28  S1  UNL     1       5.630   0.472   0.579  1.00  0.00    -0.095 SA
ENDBRANCH  22  27
ENDBRANCH  19  22
ENDBRANCH  17  19
ENDBRANCH   2  17
BRANCH  15  29
HETATM   29  N6  UNL     1      -0.941   1.990  -1.631  1.00  0.00    -0.071 N 
ATOM     30  H63 UNL     1      -1.834   1.684  -2.018  1.00  0.00     0.274 HD
ATOM     31  H62 UNL     1      -0.939   2.925  -2.038  1.00  0.00     0.274 HD
ATOM     32  H61 UNL     1      -0.153   1.417  -1.933  1.00  0.00     0.274 HD
ENDBRANCH  15  29
TORSDOF 7
