REMARK  10 active torsions:
REMARK  status: ('A' for Active; 'I' for Inactive)
REMARK    1  A    between atoms: C2_2  and  N1_3 
REMARK    2  A    between atoms: C2_2  and  C3_7 
REMARK    3  A    between atoms: C4_10  and  N3_11 
REMARK    4  A    between atoms: N3_11  and  C5_13 
REMARK    5  A    between atoms: C5_13  and  N4_15 
REMARK       I    between atoms: N4_15  and  C6_17 
REMARK    6  A    between atoms: C6_17  and  C7_19 
REMARK    7  A    between atoms: C7_19  and  N5_20 
REMARK    8  A    between atoms: C7_19  and  C8_24 
REMARK    9  A    between atoms: C8_24  and  N6_25 
REMARK   10  A    between atoms: C11_33  and  N7_34 
ROOT
HETATM    1  C3  UNL     1      -3.055   0.169   0.413  1.00  0.00     0.139 C 
HETATM    2  N2  UNL     1      -1.716  -0.056   0.501  1.00  0.00    -0.393 N 
ATOM      3  H2  UNL     1      -1.255   0.362   1.309  1.00  0.00     0.155 HD
HETATM    4  C4  UNL     1      -0.892  -0.768  -0.346  1.00  0.00     0.189 C 
HETATM    5  C9  UNL     1      -1.093  -2.264  -0.379  1.00  0.00     0.132 C 
HETATM    6  S2  UNL     1      -1.961  -2.816  -1.875  1.00  0.00    -0.094 SA
HETATM    7  S3  UNL     1      -4.022  -3.053  -1.397  1.00  0.00    -0.095 SA
HETATM    8  C10 UNL     1      -4.430  -1.777  -0.161  1.00  0.00     0.121 C 
HETATM    9  C11 UNL     1      -3.913  -0.408  -0.621  1.00  0.00     0.217 C 
ENDROOT
BRANCH   4  10
HETATM   10  N3  UNL     1       0.485  -0.544   0.072  1.00  0.00    -0.345 N 
ATOM     11  H3  UNL     1       0.686  -0.118   0.977  1.00  0.00     0.164 HD
BRANCH  10  12
HETATM   12  C5  UNL     1       1.536  -0.921  -0.784  1.00  0.00     0.175 C 
HETATM   13  S1  UNL     1       1.146  -1.581  -2.270  1.00  0.00    -0.041 SA
BRANCH  12  14
HETATM   14  N4  UNL     1       2.910  -0.778  -0.516  1.00  0.00    -0.302 N 
HETATM   15  C6  UNL     1       3.498  -0.259   0.643  1.00  0.00     0.256 C 
HETATM   16  O1  UNL     1       2.907   0.174   1.655  1.00  0.00    -0.271 OA
ATOM     17  H4  UNL     1       3.549  -1.087  -1.249  1.00  0.00     0.171 HD
BRANCH  15  18
HETATM   18  C7  UNL     1       5.013  -0.185   0.747  1.00  0.00     0.300 C 
BRANCH  18  19
HETATM   19  N5  UNL     1       5.636  -0.692  -0.437  1.00  0.00    -0.065 N 
ATOM     20  H53 UNL     1       5.320  -1.638  -0.652  1.00  0.00     0.275 HD
ATOM     21  H52 UNL     1       5.293  -0.219  -1.273  1.00  0.00     0.275 HD
ATOM     22  H51 UNL     1       6.652  -0.642  -0.367  1.00  0.00     0.275 HD
ENDBRANCH  18  19
BRANCH  18  23
HETATM   23  C8  UNL     1       5.343   1.284   0.884  1.00  0.00     0.272 C 
BRANCH  23  24
HETATM   24  N6  UNL     1       6.774   1.484   0.993  1.00  0.00    -0.077 N 
ATOM     25  H63 UNL     1       7.174   0.935   1.754  1.00  0.00     0.274 HD
ATOM     26  H62 UNL     1       7.275   1.056   0.214  1.00  0.00     0.274 HD
ATOM     27  H61 UNL     1       6.997   2.475   1.085  1.00  0.00     0.274 HD
ENDBRANCH  23  24
ENDBRANCH  18  23
ENDBRANCH  15  18
ENDBRANCH  12  14
ENDBRANCH  10  12
ENDBRANCH   4  10
BRANCH   1  28
HETATM   28  C2  UNL     1      -3.278   1.699   0.405  1.00  0.00     0.203 C 
HETATM   29  C1  UNL     1      -2.590   2.350  -0.757  1.00  0.00     0.042 C 
BRANCH  28  30
HETATM   30  N1  UNL     1      -2.754   2.283   1.623  1.00  0.00    -0.073 N 
ATOM     31  H13 UNL     1      -1.738   2.223   1.683  1.00  0.00     0.274 HD
ATOM     32  H12 UNL     1      -2.833   3.300   1.638  1.00  0.00     0.274 HD
ATOM     33  H11 UNL     1      -3.222   1.840   2.414  1.00  0.00     0.274 HD
ENDBRANCH  28  30
ENDBRANCH   1  28
BRANCH   9  34
HETATM   34  N7  UNL     1      -3.412  -0.552  -1.930  1.00  0.00    -0.072 N 
ATOM     35  H73 UNL     1      -3.076   0.355  -2.253  1.00  0.00     0.274 HD
ATOM     36  H72 UNL     1      -2.543  -1.085  -1.891  1.00  0.00     0.274 HD
ATOM     37  H71 UNL     1      -4.010  -0.954  -2.651  1.00  0.00     0.274 HD
ENDBRANCH   9  34
TORSDOF 10
