REMARK  12 active torsions:
REMARK  status: ('A' for Active; 'I' for Inactive)
REMARK    1  A    between atoms: N1_1  and  N2_4 
REMARK    2  A    between atoms: C1_6  and  C2_7 
REMARK    3  A    between atoms: C1_6  and  O6_28 
REMARK    4  A    between atoms: C2_7  and  N3_8 
REMARK    5  A    between atoms: N3_8  and  C3_10 
REMARK    6  A    between atoms: C8_20  and  N6_21 
REMARK    7  A    between atoms: C9_24  and  N7_25 
REMARK    8  A    between atoms: O6_28  and  C10_29 
REMARK    9  A    between atoms: C10_29  and  C11_30 
REMARK   10  A    between atoms: C10_29  and  C12_37 
REMARK       I    between atoms: C11_30  and  N8_32 
REMARK   11  A    between atoms: N8_32  and  N9_34 
REMARK   12  A    between atoms: C17_43  and  O9_44 
ROOT
HETATM    1  N2  UNL     1      -0.806  -0.354  -1.473  1.00  0.00    -0.289 N 
ATOM      2  H2  UNL     1      -1.629   0.142  -1.131  1.00  0.00     0.188 HD
HETATM    3  C1  UNL     1      -0.475  -1.475  -0.949  1.00  0.00     0.151 C 
ENDROOT
BRANCH   3   4
HETATM    4  C2  UNL     1       0.681  -2.282  -1.348  1.00  0.00     0.205 C 
BRANCH   4   5
HETATM    5  N3  UNL     1       1.785  -1.594  -1.914  1.00  0.00    -0.380 N 
ATOM      6  H3  UNL     1       2.005  -1.696  -2.905  1.00  0.00     0.160 HD
BRANCH   5   7
HETATM    7  C3  UNL     1       2.590  -0.750  -1.070  1.00  0.00     0.065 A 
HETATM    8  C4  UNL     1       2.371  -0.608   0.281  1.00  0.00     0.051 A 
HETATM    9  C5  UNL     1       3.144   0.190   1.087  1.00  0.00     0.066 A 
HETATM   10  C6  UNL     1       3.150   0.512   2.442  1.00  0.00     0.272 A 
HETATM   11  C7  UNL     1       4.198   0.900   0.557  1.00  0.00     0.099 A 
HETATM   12  O1  UNL     1       2.322   0.044   3.243  1.00  0.00    -0.266 OA
HETATM   13  N4  UNL     1       4.161   1.367   2.684  1.00  0.00    -0.265 N 
HETATM   14  N5  UNL     1       4.792   1.604   1.564  1.00  0.00    -0.294 N 
ATOM     15  H4  UNL     1       4.396   1.765   3.593  1.00  0.00     0.190 HD
ATOM     16  H5  UNL     1       5.600   2.218   1.459  1.00  0.00     0.187 HD
HETATM   17  C8  UNL     1       4.444   0.776  -0.803  1.00  0.00     0.167 A 
HETATM   18  C9  UNL     1       3.648  -0.036  -1.594  1.00  0.00     0.164 A 
BRANCH  17  19
HETATM   19  N6  UNL     1       5.526   1.512  -1.329  1.00  0.00    -0.111 N 
HETATM   20  O2  UNL     1       6.678   1.143  -1.097  1.00  0.00    -0.532 OA
HETATM   21  O3  UNL     1       5.300   2.619  -2.087  1.00  0.00    -0.532 OA
ENDBRANCH  17  19
BRANCH  18  22
HETATM   22  N7  UNL     1       3.981  -0.094  -2.976  1.00  0.00    -0.111 N 
HETATM   23  O4  UNL     1       3.289   0.472  -3.838  1.00  0.00    -0.532 OA
HETATM   24  O5  UNL     1       5.098  -0.797  -3.355  1.00  0.00    -0.532 OA
ENDBRANCH  18  22
ENDBRANCH   5   7
ENDBRANCH   4   5
ENDBRANCH   3   4
BRANCH   3  25
HETATM   25  O6  UNL     1      -1.351  -1.892   0.079  1.00  0.00    -0.317 OA
BRANCH  25  26
HETATM   26  C10 UNL     1      -2.741  -1.817  -0.001  1.00  0.00     0.257 C 
BRANCH  26  27
HETATM   27  C11 UNL     1      -3.249  -2.387   1.307  1.00  0.00     0.269 C 
HETATM   28  O7  UNL     1      -4.520  -2.419   1.437  1.00  0.00    -0.269 OA
HETATM   29  N8  UNL     1      -2.381  -2.852   2.318  1.00  0.00    -0.274 N 
ATOM     30  H8  UNL     1      -1.372  -2.809   2.174  1.00  0.00     0.189 HD
BRANCH  29  31
HETATM   31  N9  UNL     1      -2.880  -3.365   3.501  1.00  0.00    -0.343 N 
ATOM     32  H92 UNL     1      -3.891  -3.401   3.629  1.00  0.00     0.176 HD
ATOM     33  H91 UNL     1      -2.253  -3.701   4.232  1.00  0.00     0.176 HD
ENDBRANCH  29  31
ENDBRANCH  26  27
BRANCH  26  34
HETATM   34  C12 UNL     1      -3.275  -0.424  -0.091  1.00  0.00    -0.017 C 
HETATM   35  C13 UNL     1      -4.189  -0.187  -1.093  1.00  0.00     0.010 C 
HETATM   36  C14 UNL     1      -4.826   1.020  -1.353  1.00  0.00     0.005 C 
HETATM   37  C15 UNL     1      -4.992   2.145  -0.545  1.00  0.00     0.058 C 
HETATM   38  C16 UNL     1      -4.270   2.485   0.586  1.00  0.00     0.204 C 
HETATM   39  O8  UNL     1      -4.580   3.586   1.137  1.00  0.00    -0.285 OA
HETATM   40  C17 UNL     1      -3.256   1.753   1.169  1.00  0.00     0.116 C 
HETATM   41  C18 UNL     1      -2.807   0.486   0.854  1.00  0.00     0.050 C 
BRANCH  40  42
HETATM   42  O9  UNL     1      -2.632   2.426   2.211  1.00  0.00    -0.357 OA
ATOM     43  H9  UNL     1      -1.934   1.922   2.612  1.00  0.00     0.218 HD
ENDBRANCH  40  42
ENDBRANCH  26  34
ENDBRANCH  25  26
ENDBRANCH   3  25
BRANCH   1  44
HETATM   44  N1  UNL     1      -0.053   0.187  -2.500  1.00  0.00    -0.343 N 
ATOM     45  H12 UNL     1       0.767  -0.322  -2.830  1.00  0.00     0.176 HD
ATOM     46  H11 UNL     1      -0.317   1.080  -2.917  1.00  0.00     0.176 HD
ENDBRANCH   1  44
TORSDOF 12
