REMARK  8 active torsions:
REMARK  status: ('A' for Active; 'I' for Inactive)
REMARK    1  A    between atoms: N1_1  and  C1_4 
REMARK    2  A    between atoms: C2_7  and  C3_8 
REMARK    3  A    between atoms: N5_18  and  C8_19 
REMARK    4  A    between atoms: C8_19  and  C9_20 
REMARK    5  A    between atoms: C9_20  and  S1_21 
REMARK    6  A    between atoms: S1_21  and  C10_22 
REMARK    7  A    between atoms: C11_27  and  C12_28 
REMARK    8  A    between atoms: C12_28  and  C13_29 
ROOT
HETATM    1  C10 UNL     1       0.911  -0.180  -1.830  1.00  0.00     0.173 A 
HETATM    2  N6  UNL     1       1.043  -0.653  -0.589  1.00  0.00    -0.277 N 
ATOM      3  H6  UNL     1       0.276  -0.569   0.078  1.00  0.00     0.189 HD
HETATM    4  N7  UNL     1       2.191  -1.238  -0.227  1.00  0.00    -0.286 N 
ATOM      5  H7  UNL     1       2.291  -1.599   0.722  1.00  0.00     0.188 HD
HETATM    6  C11 UNL     1       3.209  -1.358  -1.084  1.00  0.00     0.117 A 
HETATM    7  N12 UNL     1       3.076  -0.885  -2.326  1.00  0.00    -0.286 N 
ATOM      8  H12 UNL     1       3.842  -0.968  -2.994  1.00  0.00     0.188 HD
HETATM    9  N13 UNL     1       1.927  -0.301  -2.685  1.00  0.00    -0.277 N 
ATOM     10  H13 UNL     1       1.826   0.060  -3.634  1.00  0.00     0.189 HD
ENDROOT
BRANCH   1  11
HETATM   11  S1  UNL     1      -0.633   0.601  -2.300  1.00  0.00    -0.090 SA
BRANCH  11  12
HETATM   12  C9  UNL     1      -1.716  -0.699  -2.949  1.00  0.00     0.104 C 
BRANCH  12  13
HETATM   13  C8  UNL     1      -2.100  -1.679  -1.836  1.00  0.00     0.160 C 
BRANCH  13  14
HETATM   14  N5  UNL     1      -2.795  -0.943  -0.810  1.00  0.00    -0.285 N 
HETATM   15  C6  UNL     1      -4.088  -0.649  -0.605  1.00  0.00     0.133 A 
HETATM   16  C5  UNL     1      -5.333  -0.836  -1.154  1.00  0.00     0.204 C 
HETATM   17  C7  UNL     1      -3.800   0.043   0.551  1.00  0.00     0.124 A 
HETATM   18  C4  UNL     1      -6.562  -0.430  -0.635  1.00  0.00     0.092 C 
HETATM   19  O2  UNL     1      -5.375  -1.448  -2.259  1.00  0.00    -0.286 OA
HETATM   20  C2  UNL     1      -6.858   0.227   0.540  1.00  0.00     0.103 C 
HETATM   21  N2  UNL     1      -5.970   0.805   1.366  1.00  0.00    -0.337 N 
HETATM   22  C1  UNL     1      -4.622   0.701   1.428  1.00  0.00     0.130 C 
ATOM     23  H2  UNL     1      -6.380   1.426   2.063  1.00  0.00     0.167 HD
HETATM   24  N4  UNL     1      -2.522  -0.277   0.302  1.00  0.00    -0.292 N 
ATOM     25  H4  UNL     1      -1.651  -0.078   0.793  1.00  0.00     0.187 HD
BRANCH  20  26
HETATM   26  C3  UNL     1      -8.250   0.317   0.946  1.00  0.00     0.281 C 
HETATM   27  N3  UNL     1      -8.629   0.975   2.139  1.00  0.00    -0.056 NA
HETATM   28  O1  UNL     1      -9.122  -0.205   0.212  1.00  0.00    -0.269 OA
ENDBRANCH  20  26
BRANCH  22  29
HETATM   29  N1  UNL     1      -4.037   1.276   2.412  1.00  0.00    -0.384 N 
ATOM     30  H12 UNL     1      -4.649   1.766   3.065  1.00  0.00     0.157 HD
ATOM     31  H11 UNL     1      -3.021   1.198   2.459  1.00  0.00     0.157 HD
ENDBRANCH  22  29
ENDBRANCH  13  14
ENDBRANCH  12  13
ENDBRANCH  11  12
ENDBRANCH   1  11
BRANCH   6  32
HETATM   32  C12 UNL     1       4.452  -2.011  -0.636  1.00  0.00     0.155 C 
BRANCH  32  33
HETATM   33  C13 UNL     1       5.356  -0.979  -0.072  1.00  0.00     0.090 A 
HETATM   34  N8  UNL     1       6.275  -0.287  -0.807  1.00  0.00    -0.330 N 
HETATM   35  C14 UNL     1       6.938   0.571  -0.023  1.00  0.00     0.141 A 
ATOM     36  H8  UNL     1       6.433  -0.407  -1.808  1.00  0.00     0.168 HD
HETATM   37  N9  UNL     1       7.912   1.444  -0.289  1.00  0.00    -0.320 N 
HETATM   38  C17 UNL     1       6.402   0.399   1.254  1.00  0.00     0.147 A 
HETATM   39  C15 UNL     1       8.413   2.203   0.702  1.00  0.00     0.160 A 
ATOM     40  H9  UNL     1       8.274   1.535  -1.238  1.00  0.00     0.169 HD
HETATM   41  S2  UNL     1       9.719   3.365   0.316  1.00  0.00    -0.013 SA
HETATM   42  N10 UNL     1       7.939   2.085   1.958  1.00  0.00    -0.301 N 
HETATM   43  C16 UNL     1       6.952   1.203   2.239  1.00  0.00     0.278 A 
ATOM     44  H10 UNL     1       8.327   2.665   2.702  1.00  0.00     0.171 HD
HETATM   45  O3  UNL     1       6.529   1.109   3.401  1.00  0.00    -0.265 OA
HETATM   46  N11 UNL     1       5.447  -0.543   1.202  1.00  0.00    -0.338 N 
ATOM     47  H11 UNL     1       4.887  -0.872   1.989  1.00  0.00     0.167 HD
ENDBRANCH  32  33
ENDBRANCH   6  32
TORSDOF 8
