REMARK  11 active torsions:
REMARK  status: ('A' for Active; 'I' for Inactive)
REMARK    1  A    between atoms: C3_3  and  C4_4 
REMARK    2  A    between atoms: C4_4  and  O2_6 
REMARK    3  A    between atoms: O2_6  and  C5_7 
REMARK    4  A    between atoms: C8_14  and  N3_15 
REMARK    5  A    between atoms: C9_17  and  C10_18 
REMARK    6  A    between atoms: C10_18  and  C11_19 
REMARK    7  A    between atoms: C15_32  and  N9_33 
REMARK    8  A    between atoms: N9_33  and  O3_35 
REMARK    9  A    between atoms: O3_35  and  N10_36 
REMARK   10  A    between atoms: C18_42  and  O4_43 
REMARK   11  A    between atoms: O4_43  and  C19_44 
ROOT
HETATM    1  C11 UNL     1      -8.920   0.695   0.214  1.00  0.00     0.106 C 
HETATM    2  N4  UNL     1      -9.564  -0.041  -0.819  1.00  0.00    -0.087 NA
HETATM    3  N5  UNL     1      -9.460   0.874   1.370  1.00  0.00    -0.285 N 
ATOM      4  H5  UNL     1     -10.380   0.479   1.564  1.00  0.00     0.179 HD
HETATM    5  C12 UNL     1      -8.793   1.610   2.370  1.00  0.00     0.182 C 
HETATM    6  N6  UNL     1      -8.229   2.232   3.176  1.00  0.00    -0.172 NA
ENDROOT
BRANCH   1   7
HETATM    7  C10 UNL     1      -7.593   1.270  -0.047  1.00  0.00     0.118 C 
BRANCH   7   8
HETATM    8  C9  UNL     1      -6.562   0.182  -0.341  1.00  0.00     0.086 C 
HETATM    9  N3  UNL     1      -5.327   0.726  -0.542  1.00  0.00    -0.205 N 
ATOM     10  H3  UNL     1      -5.458   1.708  -0.786  1.00  0.00     0.183 HD
BRANCH   9  11
HETATM   11  C8  UNL     1      -4.118   0.499  -0.545  1.00  0.00     0.685 A 
HETATM   12  N2  UNL     1      -3.281   1.546  -0.841  1.00  0.00    -0.175 N 
HETATM   13  C7  UNL     1      -1.965   1.318  -0.897  1.00  0.00     0.137 A 
ATOM     14  H2  UNL     1      -3.656   2.479  -1.015  1.00  0.00     0.186 HD
HETATM   15  N1  UNL     1      -1.133   2.357  -1.197  1.00  0.00    -0.348 N 
HETATM   16  C14 UNL     1      -1.385   0.091  -0.674  1.00  0.00     0.084 A 
HETATM   17  C6  UNL     1       0.161   2.187  -1.272  1.00  0.00     0.129 A 
ATOM     18  H1  UNL     1      -1.528   3.282  -1.366  1.00  0.00     0.167 HD
HETATM   19  C5  UNL     1       0.799   0.947  -1.052  1.00  0.00     0.124 A 
HETATM   20  C15 UNL     1      -0.015  -0.119  -0.743  1.00  0.00     0.109 A 
HETATM   21  C13 UNL     1      -2.241  -0.985  -0.378  1.00  0.00     0.131 A 
HETATM   22  N7  UNL     1      -3.582  -0.704  -0.330  1.00  0.00    -0.176 N 
HETATM   23  N8  UNL     1      -1.849  -2.151  -0.247  1.00  0.00    -0.384 N 
ATOM     24  H7  UNL     1      -4.218  -1.472  -0.114  1.00  0.00     0.186 HD
ATOM     25  H82 UNL     1      -2.470  -2.931  -0.032  1.00  0.00     0.157 HD
ATOM     26  H81 UNL     1      -0.851  -2.360  -0.283  1.00  0.00     0.157 HD
BRANCH  19  27
HETATM   27  O2  UNL     1       2.143   0.866  -1.160  1.00  0.00    -0.271 OA
BRANCH  27  28
HETATM   28  C4  UNL     1       3.081   0.901  -0.206  1.00  0.00     0.305 C 
HETATM   29  O1  UNL     1       2.804   0.991   0.994  1.00  0.00    -0.258 OA
BRANCH  28  30
HETATM   30  C3  UNL     1       4.516   0.835  -0.525  1.00  0.00     0.083 C 
HETATM   31  C2  UNL     1       5.586   0.769   0.222  1.00  0.00    -0.030 C 
HETATM   32  C1  UNL     1       5.503   0.742   1.730  1.00  0.00     0.050 C 
HETATM   33  C17 UNL     1       6.836   0.747  -0.464  1.00  0.00    -0.019 C 
HETATM   34  C16 UNL     1       6.773   1.729  -1.644  1.00  0.00     0.120 C 
HETATM   35  C18 UNL     1       7.909  -0.008  -0.287  1.00  0.00     0.155 C 
HETATM   36  S1  UNL     1       5.146   0.999  -2.237  1.00  0.00    -0.119 SA
BRANCH  35  37
HETATM   37  O4  UNL     1       7.977  -0.984   0.692  1.00  0.00    -0.276 OA
BRANCH  37  38
HETATM   38  C19 UNL     1       7.601  -2.274   0.467  1.00  0.00     0.377 C 
HETATM   39  N11 UNL     1       7.664  -3.295   1.470  1.00  0.00    -0.032 NA
HETATM   40  O5  UNL     1       7.178  -2.598  -0.656  1.00  0.00    -0.242 OA
ENDBRANCH  37  38
ENDBRANCH  35  37
ENDBRANCH  28  30
ENDBRANCH  27  28
ENDBRANCH  19  27
BRANCH  20  41
HETATM   41  N9  UNL     1       0.518  -1.411  -0.513  1.00  0.00    -0.238 N 
ATOM     42  H9  UNL     1       0.473  -2.055  -1.303  1.00  0.00     0.197 HD
BRANCH  41  43
HETATM   43  O3  UNL     1       1.056  -1.884   0.568  1.00  0.00    -0.164 OA
BRANCH  43  44
HETATM   44  N10 UNL     1       0.796  -1.477   1.778  1.00  0.00    -0.286 N 
ATOM     45 2H10 UNL     1       0.112  -0.725   1.864  1.00  0.00     0.186 HD
ATOM     46 1H10 UNL     1       1.219  -1.849   2.628  1.00  0.00     0.186 HD
ENDBRANCH  43  44
ENDBRANCH  41  43
ENDBRANCH  20  41
ENDBRANCH   9  11
ENDBRANCH   7   8
ENDBRANCH   1   7
TORSDOF 11
