REMARK  8 active torsions:
REMARK  status: ('A' for Active; 'I' for Inactive)
REMARK    1  A    between atoms: C2_2  and  N1_3 
REMARK       I    between atoms: C3_5  and  N3_7 
REMARK    2  A    between atoms: N3_7  and  C4_9 
REMARK    3  A    between atoms: C4_9  and  N4_10 
REMARK    4  A    between atoms: C4_9  and  C10_21 
REMARK       I    between atoms: N4_10  and  C5_12 
REMARK    5  A    between atoms: C5_12  and  C6_14 
REMARK       I    between atoms: C10_21  and  N6_23 
REMARK       I    between atoms: N6_23  and  C11_25 
REMARK       I    between atoms: C11_25  and  N8_29 
REMARK    6  A    between atoms: N8_29  and  C12_31 
REMARK    7  A    between atoms: C12_31  and  C13_32 
REMARK    8  A    between atoms: C13_32  and  N9_33 
ROOT
HETATM    1  C4  UNL     1       1.197  -0.146   0.948  1.00  0.00     0.281 C 
ENDROOT
BRANCH   1   2
HETATM    2  N3  UNL     1       1.835  -1.419   1.148  1.00  0.00    -0.336 N 
HETATM    3  C3  UNL     1       3.117  -1.470   1.772  1.00  0.00     0.185 C 
HETATM    4  N1  UNL     1       3.973  -2.319   1.380  1.00  0.00    -0.365 N 
HETATM    5  N2  UNL     1       3.432  -0.576   2.827  1.00  0.00    -0.064 NA
ATOM      6  H1  UNL     1       3.693  -2.936   0.618  1.00  0.00     0.162 HD
ATOM      7  H3  UNL     1       1.375  -2.278   0.846  1.00  0.00     0.164 HD
BRANCH   4   8
HETATM    8  C2  UNL     1       5.303  -2.499   1.905  1.00  0.00     0.118 C 
HETATM    9  C1  UNL     1       5.425  -3.746   2.729  1.00  0.00     0.026 C 
ENDBRANCH   4   8
ENDBRANCH   1   2
BRANCH   1  10
HETATM   10  N4  UNL     1       1.943   0.705   0.036  1.00  0.00    -0.330 N 
HETATM   11  C5  UNL     1       2.293   2.032   0.303  1.00  0.00     0.251 C 
HETATM   12  O1  UNL     1       2.003   2.647   1.358  1.00  0.00    -0.271 OA
ATOM     13  H4  UNL     1       2.230   0.308  -0.858  1.00  0.00     0.165 HD
BRANCH  11  14
HETATM   14  C6  UNL     1       3.062   2.787  -0.722  1.00  0.00     0.283 C 
HETATM   15  N5  UNL     1       3.317   4.190  -0.401  1.00  0.00    -0.057 N 
HETATM   16  C7  UNL     1       4.402   3.967  -1.353  1.00  0.00     0.194 A 
ATOM     17  H52 UNL     1       2.623   4.933  -0.487  1.00  0.00     0.278 HD
ATOM     18  H51 UNL     1       3.450   4.546   0.546  1.00  0.00     0.278 HD
HETATM   19  C8  UNL     1       5.629   3.285  -1.162  1.00  0.00     0.043 A 
HETATM   20  C9  UNL     1       4.569   2.711  -0.397  1.00  0.00     0.058 A 
ENDBRANCH  11  14
ENDBRANCH   1  10
BRANCH   1  21
HETATM   21  C10 UNL     1      -0.130  -0.359   0.308  1.00  0.00     0.278 C 
HETATM   22  O2  UNL     1      -0.499  -1.499   0.023  1.00  0.00    -0.268 OA
HETATM   23  N6  UNL     1      -0.922   0.777   0.052  1.00  0.00    -0.157 N 
HETATM   24  C11 UNL     1      -2.194   0.680  -0.547  1.00  0.00     0.674 C 
ATOM     25  H6  UNL     1      -0.564   1.697   0.308  1.00  0.00     0.187 HD
HETATM   26  N7  UNL     1      -2.883   1.734  -0.766  1.00  0.00    -0.235 N 
HETATM   27  N8  UNL     1      -2.674  -0.633  -0.893  1.00  0.00    -0.225 N 
ATOM     28  H72 UNL     1      -2.543   2.664  -0.521  1.00  0.00     0.174 HD
ATOM     29  H71 UNL     1      -3.804   1.664  -1.200  1.00  0.00     0.174 HD
ATOM     30  H8  UNL     1      -2.324  -1.089  -1.736  1.00  0.00     0.177 HD
BRANCH  27  31
HETATM   31  C12 UNL     1      -3.629  -1.306  -0.078  1.00  0.00     0.166 C 
BRANCH  31  32
HETATM   32  C13 UNL     1      -4.975  -0.695  -0.096  1.00  0.00     0.256 C 
BRANCH  32  33
HETATM   33  N9  UNL     1      -5.666  -0.707  -1.326  1.00  0.00    -0.077 N 
HETATM   34  C14 UNL     1      -4.884  -1.002  -2.474  1.00  0.00     0.271 C 
HETATM   35  C15 UNL     1      -6.342   0.575  -1.542  1.00  0.00     0.271 C 
HETATM   36  C16 UNL     1      -6.740  -1.739  -1.209  1.00  0.00     0.271 C 
ENDBRANCH  32  33
ENDBRANCH  31  32
ENDBRANCH  27  31
ENDBRANCH   1  21
TORSDOF 8
