REMARK  8 active torsions:
REMARK  status: ('A' for Active; 'I' for Inactive)
REMARK    1  A    between atoms: N1_2  and  C2_3 
REMARK    2  A    between atoms: C2_3  and  C3_4 
REMARK    3  A    between atoms: C3_4  and  N2_5 
REMARK       I    between atoms: N2_5  and  C4_7 
REMARK       I    between atoms: C4_7  and  N4_11 
REMARK    4  A    between atoms: C6_13  and  N5_14 
REMARK       I    between atoms: N5_14  and  C7_16 
REMARK    5  A    between atoms: C7_16  and  C8_18 
REMARK    6  A    between atoms: C8_18  and  N6_19 
REMARK    7  A    between atoms: C9_23  and  C10_24 
REMARK    8  A    between atoms: C10_24  and  N7_25 
REMARK       I    between atoms: N7_25  and  C11_27 
ROOT
HETATM    1  N2  UNL     1       1.631  -0.300   1.272  1.00  0.00    -0.225 N 
ATOM      2  H2  UNL     1       1.237   0.136   2.106  1.00  0.00     0.177 HD
HETATM    3  C4  UNL     1       0.769  -0.584   0.187  1.00  0.00     0.678 C 
HETATM    4  N3  UNL     1       0.995  -1.612  -0.595  1.00  0.00    -0.234 N 
ATOM      5  H31 UNL     1       0.373  -1.817  -1.377  1.00  0.00     0.174 HD
ATOM      6  H32 UNL     1       1.820  -2.162  -0.354  1.00  0.00     0.174 HD
HETATM    7  N4  UNL     1      -0.384   0.185  -0.150  1.00  0.00    -0.131 N 
HETATM    8  C5  UNL     1      -1.219  -0.176  -1.279  1.00  0.00     0.179 C 
HETATM    9  C6  UNL     1      -2.652  -0.202  -0.787  1.00  0.00     0.128 C 
HETATM   10  C9  UNL     1      -3.091   1.098  -0.210  1.00  0.00     0.128 C 
HETATM   11  N10 UNL     1      -2.145   1.613   0.754  1.00  0.00    -0.334 N 
ATOM     12  H10 UNL     1      -2.468   2.173   1.543  1.00  0.00     0.164 HD
HETATM   13  C12 UNL     1      -0.768   1.333   0.593  1.00  0.00     0.337 C 
HETATM   14  O2  UNL     1       0.136   2.062   1.083  1.00  0.00    -0.246 OA
ENDROOT
BRANCH   1  15
HETATM   15  C3  UNL     1       3.042  -0.599   1.253  1.00  0.00     0.166 C 
BRANCH  15  16
HETATM   16  C2  UNL     1       3.795   0.255   0.263  1.00  0.00     0.257 C 
BRANCH  16  17
HETATM   17  N1  UNL     1       5.196   0.004   0.204  1.00  0.00    -0.069 N 
HETATM   18  C1  UNL     1       5.994   0.618   1.250  1.00  0.00     0.272 C 
HETATM   19  C13 UNL     1       5.637  -1.348  -0.028  1.00  0.00     0.238 C 
HETATM   20  C14 UNL     1       5.537  -1.104  -1.518  1.00  0.00     0.056 C 
HETATM   21  C15 UNL     1       5.680   0.346  -1.145  1.00  0.00     0.238 C 
ENDBRANCH  16  17
ENDBRANCH  15  16
ENDBRANCH   1  15
BRANCH   9  22
HETATM   22  N5  UNL     1      -2.813  -1.313   0.126  1.00  0.00    -0.351 N 
HETATM   23  C7  UNL     1      -3.602  -2.443  -0.177  1.00  0.00     0.243 C 
HETATM   24  O1  UNL     1      -4.192  -2.498  -1.279  1.00  0.00    -0.272 OA
ATOM     25  H5  UNL     1      -2.336  -1.278   1.027  1.00  0.00     0.163 HD
BRANCH  23  26
HETATM   26  C8  UNL     1      -3.738  -3.554   0.787  1.00  0.00     0.332 C 
BRANCH  26  27
HETATM   27  N6  UNL     1      -4.599  -4.591   0.239  1.00  0.00    -0.071 N 
ATOM     28  H63 UNL     1      -5.506  -4.222  -0.048  1.00  0.00     0.274 HD
ATOM     29  H62 UNL     1      -4.274  -4.914  -0.672  1.00  0.00     0.274 HD
ATOM     30  H61 UNL     1      -4.693  -5.358   0.905  1.00  0.00     0.274 HD
ENDBRANCH  26  27
ENDBRANCH  23  26
ENDBRANCH   9  22
BRANCH  10  31
HETATM   31  C10 UNL     1      -3.188   2.152  -1.304  1.00  0.00     0.149 C 
BRANCH  31  32
HETATM   32  N7  UNL     1      -3.622   3.396  -0.694  1.00  0.00    -0.363 N 
HETATM   33  C11 UNL     1      -4.946   3.461  -0.188  1.00  0.00     0.181 C 
HETATM   34  N8  UNL     1      -5.127   3.634   1.066  1.00  0.00    -0.374 N 
HETATM   35  N9  UNL     1      -6.017   3.330  -1.100  1.00  0.00    -0.064 NA
ATOM     36  H82 UNL     1      -4.354   3.729   1.724  1.00  0.00     0.158 HD
ATOM     37  H81 UNL     1      -6.079   3.681   1.430  1.00  0.00     0.158 HD
ATOM     38  H7  UNL     1      -2.995   4.198  -0.631  1.00  0.00     0.162 HD
ENDBRANCH  31  32
ENDBRANCH  10  31
TORSDOF 8
