REMARK  10 active torsions:
REMARK  status: ('A' for Active; 'I' for Inactive)
REMARK    1  A    between atoms: C2_2  and  C3_3 
REMARK    2  A    between atoms: C3_3  and  N1_4 
REMARK    3  A    between atoms: N1_4  and  C4_6 
REMARK    4  A    between atoms: C4_6  and  N2_8 
REMARK    5  A    between atoms: C6_10  and  N3_11 
REMARK       I    between atoms: N3_11  and  C7_13 
REMARK       I    between atoms: C7_13  and  N4_15 
REMARK    6  A    between atoms: N4_15  and  C8_17 
REMARK    7  A    between atoms: C8_17  and  C9_18 
REMARK    8  A    between atoms: C9_18  and  N5_19 
REMARK       I    between atoms: N5_19  and  C10_21 
REMARK    9  A    between atoms: C11_26  and  N8_27 
REMARK   10  A    between atoms: C12_31  and  C13_32 
REMARK       I    between atoms: C13_32  and  N9_34 
ROOT
HETATM    1  N2  UNL     1       1.112  -0.929  -0.109  1.00  0.00    -0.319 N 
HETATM    2  C5  UNL     1      -0.323  -0.724   0.297  1.00  0.00     0.159 C 
HETATM    3  C6  UNL     1      -0.641   0.403  -0.708  1.00  0.00     0.141 C 
HETATM    4  C11 UNL     1       0.251   0.072  -1.924  1.00  0.00     0.263 C 
HETATM    5  C12 UNL     1       0.907  -1.221  -1.473  1.00  0.00     0.115 C 
ENDROOT
BRANCH   3   6
HETATM    6  N3  UNL     1      -2.023   0.393  -1.072  1.00  0.00    -0.335 N 
HETATM    7  C7  UNL     1      -2.872   1.515  -0.828  1.00  0.00     0.316 C 
HETATM    8  O1  UNL     1      -2.387   2.531  -0.282  1.00  0.00    -0.247 OA
HETATM    9  N4  UNL     1      -4.221   1.477  -1.195  1.00  0.00    -0.342 N 
ATOM     10  H4  UNL     1      -4.571   0.632  -1.647  1.00  0.00     0.164 HD
ATOM     11  H3  UNL     1      -2.413  -0.437  -1.518  1.00  0.00     0.164 HD
BRANCH   9  12
HETATM   12  C8  UNL     1      -5.129   2.537  -0.978  1.00  0.00     0.144 C 
BRANCH  12  13
HETATM   13  C9  UNL     1      -5.283   2.834   0.486  1.00  0.00     0.142 C 
BRANCH  13  14
HETATM   14  N5  UNL     1      -5.769   1.635   1.149  1.00  0.00    -0.363 N 
HETATM   15  C10 UNL     1      -5.978   1.722   2.553  1.00  0.00     0.181 C 
HETATM   16  N6  UNL     1      -6.765   2.642   2.987  1.00  0.00    -0.374 N 
HETATM   17  N7  UNL     1      -5.308   0.794   3.383  1.00  0.00    -0.064 NA
ATOM     18  H62 UNL     1      -7.248   3.311   2.388  1.00  0.00     0.158 HD
ATOM     19  H61 UNL     1      -6.915   2.704   3.994  1.00  0.00     0.158 HD
ATOM     20  H5  UNL     1      -5.951   0.774   0.633  1.00  0.00     0.162 HD
ENDBRANCH  13  14
ENDBRANCH  12  13
ENDBRANCH   9  12
ENDBRANCH   3   6
BRANCH   4  21
HETATM   21  N8  UNL     1       1.162   1.126  -2.200  1.00  0.00    -0.067 N 
ATOM     22  H83 UNL     1       0.678   2.016  -2.322  1.00  0.00     0.275 HD
ATOM     23  H82 UNL     1       1.721   1.362  -1.380  1.00  0.00     0.275 HD
ATOM     24  H81 UNL     1       1.751   0.907  -3.003  1.00  0.00     0.275 HD
ENDBRANCH   4  21
BRANCH   1  25
HETATM   25  C4  UNL     1       2.130  -0.785   0.829  1.00  0.00     0.174 C 
HETATM   26  S1  UNL     1       1.721  -0.426   2.434  1.00  0.00    -0.041 SA
BRANCH  25  27
HETATM   27  N1  UNL     1       3.522  -0.896   0.653  1.00  0.00    -0.367 N 
ATOM     28  H1  UNL     1       3.892  -1.096  -0.276  1.00  0.00     0.161 HD
BRANCH  27  29
HETATM   29  C3  UNL     1       4.440  -0.733   1.756  1.00  0.00     0.121 C 
BRANCH  29  30
HETATM   30  C2  UNL     1       5.874  -0.896   1.320  1.00  0.00     0.015 C 
HETATM   31  C1  UNL     1       6.740  -0.707   2.546  1.00  0.00     0.006 C 
ENDBRANCH  29  30
ENDBRANCH  27  29
ENDBRANCH  25  27
ENDBRANCH   1  25
BRANCH   5  32
HETATM   32  C13 UNL     1       1.831  -1.851  -2.335  1.00  0.00     0.266 C 
HETATM   33  O2  UNL     1       1.945  -1.461  -3.547  1.00  0.00    -0.266 OA
HETATM   34  N9  UNL     1       2.662  -2.919  -1.951  1.00  0.00    -0.360 N 
HETATM   35  C14 UNL     1       3.602  -3.565  -2.849  1.00  0.00     0.149 C 
ATOM     36  H9  UNL     1       2.601  -3.257  -0.991  1.00  0.00     0.162 HD
ENDBRANCH   5  32
TORSDOF 10
