REMARK  3 active torsions:
REMARK  status: ('A' for Active; 'I' for Inactive)
REMARK       I    between atoms: N1_3  and  C3_5 
REMARK       I    between atoms: C3_5  and  N3_12 
REMARK    1  A    between atoms: N2_6  and  C4_8 
REMARK    2  A    between atoms: N3_12  and  C8_14 
REMARK    3  A    between atoms: C8_14  and  C9_15 
ROOT
HETATM    1  C1  UNL     1       1.596   3.696   0.617  1.00  0.00     0.124 C 
HETATM    2  C2  UNL     1       1.940   2.578   0.977  1.00  0.00    -0.059 C 
HETATM    3  N1  UNL     1       2.351   1.314   1.400  1.00  0.00    -0.161 N 
ATOM      4  H1  UNL     1       3.028   1.229   2.158  1.00  0.00     0.194 HD
HETATM    5  C3  UNL     1       1.833   0.146   0.782  1.00  0.00     0.685 C 
HETATM    6  N2  UNL     1       2.534  -0.675   0.121  1.00  0.00    -0.217 N 
ATOM      7  H2  UNL     1       2.037  -1.475  -0.271  1.00  0.00     0.178 HD
HETATM    8  N3  UNL     1       0.413  -0.170   0.888  1.00  0.00    -0.201 N 
ATOM      9  H3  UNL     1       0.061  -0.696   1.688  1.00  0.00     0.183 HD
ENDROOT
BRANCH   6  10
HETATM   10  C4  UNL     1       3.935  -0.616  -0.142  1.00  0.00     0.036 C 
HETATM   11  C5  UNL     1       4.285  -1.694  -1.172  1.00  0.00     0.038 C 
HETATM   12  C6  UNL     1       4.774  -0.891   1.092  1.00  0.00     0.038 C 
HETATM   13  C7  UNL     1       4.400   0.695  -0.714  1.00  0.00     0.038 C 
ENDBRANCH   6  10
BRANCH   8  14
HETATM   14  C8  UNL     1      -0.480   0.264  -0.140  1.00  0.00     0.119 C 
BRANCH  14  15
HETATM   15  C9  UNL     1      -1.872  -0.091   0.039  1.00  0.00     0.003 A 
HETATM   16  C10 UNL     1      -2.324  -0.794   1.114  1.00  0.00     0.023 A 
HETATM   17  C11 UNL     1      -3.693  -1.094   1.206  1.00  0.00    -0.045 A 
HETATM   18  C12 UNL     1      -4.132  -1.871   2.412  1.00  0.00     0.049 C 
HETATM   19  C13 UNL     1      -4.571  -0.695   0.243  1.00  0.00     0.097 A 
HETATM   20  N4  UNL     1      -4.089  -0.002  -0.805  1.00  0.00    -0.363 N 
HETATM   21  C14 UNL     1      -5.031   0.431  -1.846  1.00  0.00     0.155 C 
HETATM   22  C15 UNL     1      -2.798   0.303  -0.930  1.00  0.00     0.018 A 
HETATM   23  C16 UNL     1      -2.328   1.067  -2.103  1.00  0.00     0.069 C 
ENDBRANCH  14  15
ENDBRANCH   8  14
TORSDOF 3
