REMARK  4 active torsions:
REMARK  status: ('A' for Active; 'I' for Inactive)
REMARK    1  A    between atoms: C3_3  and  C4_4 
REMARK    2  A    between atoms: C6_6  and  N1_7 
REMARK       I    between atoms: N1_7  and  C7_9 
REMARK    3  A    between atoms: C7_9  and  C8_11 
REMARK    4  A    between atoms: C8_11  and  C9_12 
ROOT
HETATM    1  C1  UNL     1       8.051   2.334  -0.514  1.00  0.00     0.112 C 
HETATM    2  C2  UNL     1       6.813   1.543  -0.299  1.00  0.00    -0.104 C 
HETATM    3  C3  UNL     1       5.813   0.911  -0.093  1.00  0.00    -0.048 C 
ENDROOT
BRANCH   3   4
HETATM    4  C4  UNL     1       4.587   0.172   0.183  1.00  0.00     0.104 A 
HETATM    5  C5  UNL     1       3.339   0.424  -0.311  1.00  0.00     0.090 A 
HETATM    6  C6  UNL     1       2.454  -0.510   0.258  1.00  0.00     0.125 A 
HETATM    7  N2  UNL     1       3.186  -1.288   1.067  1.00  0.00    -0.284 N 
HETATM    8  N3  UNL     1       4.450  -0.887   1.024  1.00  0.00    -0.291 N 
ATOM      9  H2  UNL     1       2.829  -2.063   1.626  1.00  0.00     0.188 HD
ATOM     10  H3  UNL     1       5.213  -1.314   1.549  1.00  0.00     0.188 HD
BRANCH   6  11
HETATM   11  N1  UNL     1       1.240  -0.491  -0.024  1.00  0.00    -0.308 N 
HETATM   12  C7  UNL     1       0.172  -1.309   0.421  1.00  0.00     0.247 C 
HETATM   13  O1  UNL     1       0.396  -1.977   1.454  1.00  0.00    -0.268 OA
ATOM     14  H1  UNL     1       0.970   0.236  -0.687  1.00  0.00     0.170 HD
BRANCH  12  15
HETATM   15  C8  UNL     1      -1.056  -1.351  -0.277  1.00  0.00     0.087 C 
BRANCH  15  16
HETATM   16  C9  UNL     1      -2.267  -0.667   0.037  1.00  0.00    -0.019 A 
HETATM   17  C10 UNL     1      -2.513   0.194   1.064  1.00  0.00    -0.051 A 
HETATM   18  C11 UNL     1      -1.476   0.451   2.054  1.00  0.00     0.049 C 
HETATM   19  C12 UNL     1      -3.779   0.809   1.159  1.00  0.00     0.014 A 
HETATM   20  C13 UNL     1      -4.784   0.583   0.260  1.00  0.00    -0.061 A 
HETATM   21  C14 UNL     1      -6.098   1.284   0.401  1.00  0.00     0.048 C 
HETATM   22  C15 UNL     1      -4.539  -0.281  -0.768  1.00  0.00     0.014 A 
HETATM   23  C16 UNL     1      -3.318  -0.895  -0.885  1.00  0.00    -0.051 A 
HETATM   24  C17 UNL     1      -3.135  -1.832  -2.012  1.00  0.00     0.049 C 
ENDBRANCH  15  16
ENDBRANCH  12  15
ENDBRANCH   6  11
ENDBRANCH   3   4
TORSDOF 4
