REMARK  3 active torsions:
REMARK  status: ('A' for Active; 'I' for Inactive)
REMARK    1  A    between atoms: C3_3  and  C4_4 
REMARK    2  A    between atoms: C8_8  and  C9_9 
REMARK    3  A    between atoms: C12_12  and  C13_13 
REMARK       I    between atoms: C13_13  and  N1_15 
ROOT
HETATM    1  C1  UNL     1      -4.545   4.140  -0.753  1.00  0.00     0.112 C 
HETATM    2  C2  UNL     1      -4.038   2.819  -0.349  1.00  0.00    -0.106 C 
HETATM    3  C3  UNL     1      -3.607   1.736  -0.028  1.00  0.00    -0.072 C 
ENDROOT
BRANCH   3   4
HETATM    4  C4  UNL     1      -3.092   0.458   0.374  1.00  0.00    -0.004 A 
HETATM    5  C5  UNL     1      -3.762  -0.669   0.555  1.00  0.00    -0.010 A 
HETATM    6  C6  UNL     1      -2.868  -1.762   0.969  1.00  0.00     0.034 A 
HETATM    7  C7  UNL     1      -1.491  -1.202   1.007  1.00  0.00     0.003 A 
HETATM    8  C8  UNL     1      -0.600  -1.828  -0.050  1.00  0.00    -0.005 C 
HETATM    9  C17 UNL     1      -1.645   0.235   0.653  1.00  0.00     0.036 A 
HETATM   10  C11 UNL     1       0.196  -0.688  -0.634  1.00  0.00     0.008 C 
HETATM   11  C12 UNL     1       1.092   0.061   0.296  1.00  0.00     0.083 C 
HETATM   12  C16 UNL     1      -0.784   0.489  -0.533  1.00  0.00     0.001 C 
HETATM   13  C15 UNL     1       0.437   1.353  -0.220  1.00  0.00     0.020 C 
BRANCH   8  14
HETATM   14  C9  UNL     1       0.231  -2.903   0.571  1.00  0.00     0.001 C 
HETATM   15  C10 UNL     1       1.108  -3.520  -0.485  1.00  0.00     0.005 C 
ENDBRANCH   8  14
BRANCH  11  16
HETATM   16  C13 UNL     1       2.520   0.104  -0.073  1.00  0.00     0.228 C 
HETATM   17  O1  UNL     1       2.947  -0.438  -1.108  1.00  0.00    -0.273 OA
HETATM   18  N1  UNL     1       3.451   0.775   0.756  1.00  0.00    -0.303 N 
HETATM   19  C14 UNL     1       4.628   1.109   0.363  1.00  0.00     0.203 C 
ATOM     20  H1  UNL     1       3.174   1.004   1.711  1.00  0.00     0.171 HD
HETATM   21  N2  UNL     1       5.097   0.831  -0.948  1.00  0.00    -0.066 NA
HETATM   22  N3  UNL     1       5.488   1.778   1.268  1.00  0.00    -0.066 NA
ENDBRANCH  11  16
ENDBRANCH   3   4
TORSDOF 3
