REMARK  9 active torsions:
REMARK  status: ('A' for Active; 'I' for Inactive)
REMARK    1  A    between atoms: N1_2  and  C2_3 
REMARK    2  A    between atoms: C2_3  and  C3_4 
REMARK    3  A    between atoms: C3_4  and  N2_5 
REMARK       I    between atoms: N2_5  and  C4_7 
REMARK    4  A    between atoms: C4_7  and  C5_9 
REMARK    5  A    between atoms: C5_9  and  C6_10 
REMARK    6  A    between atoms: C6_10  and  C7_11 
REMARK    7  A    between atoms: C7_11  and  C8_12 
REMARK    8  A    between atoms: C8_12  and  C9_13 
REMARK    9  A    between atoms: C9_13  and  C10_14 
ROOT
HETATM    1  N2  UNL     1       2.126   0.409  -0.872  1.00  0.00    -0.359 N 
ATOM      2  H2  UNL     1       2.153   0.056  -1.829  1.00  0.00     0.162 HD
HETATM    3  C4  UNL     1       0.904   0.879  -0.347  1.00  0.00     0.217 C 
HETATM    4  O1  UNL     1       0.902   1.306   0.831  1.00  0.00    -0.274 OA
ENDROOT
BRANCH   3   5
HETATM    5  C5  UNL     1      -0.303   0.862  -1.156  1.00  0.00     0.103 C 
BRANCH   5   6
HETATM    6  C6  UNL     1      -1.555   1.323  -0.500  1.00  0.00     0.009 C 
BRANCH   6   7
HETATM    7  C7  UNL     1      -2.005   0.543   0.686  1.00  0.00     0.000 C 
BRANCH   7   8
HETATM    8  C8  UNL     1      -3.275   1.157   1.223  1.00  0.00     0.000 C 
BRANCH   8   9
HETATM    9  C9  UNL     1      -4.415   1.190   0.266  1.00  0.00     0.004 C 
BRANCH   9  10
HETATM   10  C10 UNL     1      -4.852  -0.171  -0.233  1.00  0.00    -0.014 C 
HETATM   11  C11 UNL     1      -5.268  -0.985   0.947  1.00  0.00     0.004 C 
HETATM   12  C12 UNL     1      -6.506  -1.812   0.679  1.00  0.00     0.000 C 
HETATM   13  C13 UNL     1      -7.595  -0.802   0.376  1.00  0.00     0.000 C 
HETATM   14  C14 UNL     1      -7.297  -0.007  -0.856  1.00  0.00     0.000 C 
HETATM   15  C15 UNL     1      -5.881  -0.036  -1.303  1.00  0.00     0.004 C 
ENDBRANCH   9  10
ENDBRANCH   8   9
ENDBRANCH   7   8
ENDBRANCH   6   7
ENDBRANCH   5   6
ENDBRANCH   3   5
BRANCH   1  16
HETATM   16  C3  UNL     1       3.363   0.415  -0.073  1.00  0.00     0.150 C 
BRANCH  16  17
HETATM   17  C2  UNL     1       4.507  -0.146  -0.897  1.00  0.00     0.256 C 
BRANCH  17  18
HETATM   18  N1  UNL     1       5.741  -0.169  -0.181  1.00  0.00    -0.069 N 
HETATM   19  C1  UNL     1       6.433   1.101  -0.166  1.00  0.00     0.272 C 
HETATM   20  C16 UNL     1       6.616  -1.172  -0.732  1.00  0.00     0.237 C 
HETATM   21  C17 UNL     1       7.755  -1.196   0.286  1.00  0.00     0.029 C 
HETATM   22  C18 UNL     1       7.011  -0.965   1.571  1.00  0.00     0.029 C 
HETATM   23  C19 UNL     1       5.597  -0.595   1.195  1.00  0.00     0.237 C 
ENDBRANCH  17  18
ENDBRANCH  16  17
ENDBRANCH   1  16
TORSDOF 9
