REMARK  11 active torsions:
REMARK  status: ('A' for Active; 'I' for Inactive)
REMARK    1  A    between atoms: N1_2  and  C2_3 
REMARK    2  A    between atoms: C2_3  and  C3_4 
REMARK    3  A    between atoms: C3_4  and  C4_5 
REMARK    4  A    between atoms: C4_5  and  C5_6 
REMARK    5  A    between atoms: C5_6  and  C6_7 
REMARK    6  A    between atoms: C6_7  and  C7_8 
REMARK    7  A    between atoms: C7_8  and  C8_9 
REMARK    8  A    between atoms: C8_9  and  C9_10 
REMARK    9  A    between atoms: C9_10  and  C10_11 
REMARK   10  A    between atoms: C10_11  and  C11_12 
REMARK   11  A    between atoms: C12_13  and  C13_14 
ROOT
HETATM    1  C4  UNL     1       0.259   0.074  -1.257  1.00  0.00     0.002 C 
ENDROOT
BRANCH   1   2
HETATM    2  C3  UNL     1      -1.151   0.577  -1.427  1.00  0.00     0.028 C 
BRANCH   2   3
HETATM    3  C2  UNL     1      -1.896   0.666  -0.106  1.00  0.00     0.237 C 
BRANCH   3   4
HETATM    4  N1  UNL     1      -3.253   1.164  -0.366  1.00  0.00    -0.071 N 
HETATM    5  C1  UNL     1      -3.189   2.320  -1.250  1.00  0.00     0.272 C 
HETATM    6  C14 UNL     1      -3.832   1.624   0.878  1.00  0.00     0.237 C 
HETATM    7  C15 UNL     1      -4.331   0.513   1.744  1.00  0.00     0.028 C 
HETATM    8  C16 UNL     1      -5.797   0.218   1.546  1.00  0.00     0.002 C 
HETATM    9  C17 UNL     1      -6.095  -0.332   0.181  1.00  0.00     0.002 C 
HETATM   10  C18 UNL     1      -5.482   0.502  -0.931  1.00  0.00     0.028 C 
HETATM   11  C19 UNL     1      -4.009   0.131  -1.000  1.00  0.00     0.237 C 
ENDBRANCH   3   4
ENDBRANCH   2   3
ENDBRANCH   1   2
BRANCH   1  12
HETATM   12  C5  UNL     1       0.298  -1.310  -0.645  1.00  0.00     0.000 C 
BRANCH  12  13
HETATM   13  C6  UNL     1       1.687  -1.824  -0.472  1.00  0.00     0.000 C 
BRANCH  13  14
HETATM   14  C7  UNL     1       2.515  -0.937   0.428  1.00  0.00     0.000 C 
BRANCH  14  15
HETATM   15  C8  UNL     1       3.911  -1.458   0.600  1.00  0.00     0.001 C 
BRANCH  15  16
HETATM   16  C9  UNL     1       4.663  -1.562  -0.697  1.00  0.00     0.012 C 
BRANCH  16  17
HETATM   17  C10 UNL     1       6.051  -2.097  -0.393  1.00  0.00     0.094 C 
BRANCH  17  18
HETATM   18  C11 UNL     1       6.724  -1.159   0.526  1.00  0.00    -0.097 C 
HETATM   19  C12 UNL     1       7.275  -0.375   1.265  1.00  0.00    -0.009 C 
BRANCH  19  20
HETATM   20  C13 UNL     1       7.929   0.572   2.124  1.00  0.00     0.309 C 
HETATM   21  N2  UNL     1       8.490   1.751   1.572  1.00  0.00    -0.049 NA
HETATM   22  O1  UNL     1       8.029   0.401   3.377  1.00  0.00    -0.262 OA
ENDBRANCH  19  20
ENDBRANCH  17  18
ENDBRANCH  16  17
ENDBRANCH  15  16
ENDBRANCH  14  15
ENDBRANCH  13  14
ENDBRANCH  12  13
ENDBRANCH   1  12
TORSDOF 11
