REMARK  11 active torsions:
REMARK  status: ('A' for Active; 'I' for Inactive)
REMARK    1  A    between atoms: C1_2  and  C2_4 
REMARK    2  A    between atoms: C2_4  and  C3_5 
REMARK    3  A    between atoms: C3_5  and  N1_6 
REMARK    4  A    between atoms: N1_6  and  C4_7 
REMARK    5  A    between atoms: C4_7  and  C5_8 
REMARK    6  A    between atoms: C5_8  and  C6_9 
REMARK    7  A    between atoms: C6_9  and  C7_10 
REMARK    8  A    between atoms: C7_10  and  C8_11 
REMARK    9  A    between atoms: C9_12  and  C10_13 
REMARK   10  A    between atoms: C10_13  and  C11_14 
REMARK   11  A    between atoms: C11_14  and  C12_15 
ROOT
HETATM    1  C5  UNL     1      -2.271   0.124  -1.645  1.00  0.00     0.029 C 
ENDROOT
BRANCH   1   2
HETATM    2  C4  UNL     1      -3.190  -0.711  -0.849  1.00  0.00     0.237 C 
BRANCH   2   3
HETATM    3  N1  UNL     1      -3.040  -0.731   0.564  1.00  0.00    -0.066 N 
HETATM    4  C17 UNL     1      -4.076  -1.626   1.129  1.00  0.00     0.239 C 
HETATM    5  C18 UNL     1      -3.096  -2.760   1.213  1.00  0.00     0.056 C 
HETATM    6  C19 UNL     1      -2.065  -1.635   1.088  1.00  0.00     0.239 C 
BRANCH   3   7
HETATM    7  C3  UNL     1      -3.166   0.537   1.260  1.00  0.00     0.248 C 
BRANCH   7   8
HETATM    8  C2  UNL     1      -4.440   1.264   0.855  1.00  0.00     0.141 C 
BRANCH   8   9
HETATM    9  C1  UNL     1      -4.595   2.543   1.561  1.00  0.00     0.174 C 
HETATM   10  O1  UNL     1      -5.476   2.623   2.477  1.00  0.00    -0.648 OA
HETATM   11  O2  UNL     1      -3.851   3.696   1.318  1.00  0.00    -0.648 OA
ENDBRANCH   8   9
ENDBRANCH   7   8
ENDBRANCH   3   7
ENDBRANCH   2   3
ENDBRANCH   1   2
BRANCH   1  12
HETATM   12  C6  UNL     1      -0.822  -0.187  -1.566  1.00  0.00     0.014 C 
BRANCH  12  13
HETATM   13  C7  UNL     1      -0.080   0.802  -2.483  1.00  0.00     0.094 C 
BRANCH  13  14
HETATM   14  C8  UNL     1       1.349   0.425  -2.410  1.00  0.00    -0.107 C 
HETATM   15  C9  UNL     1       2.521   0.096  -2.370  1.00  0.00    -0.107 C 
BRANCH  15  16
HETATM   16  C10 UNL     1       3.903  -0.309  -2.395  1.00  0.00     0.094 C 
BRANCH  16  17
HETATM   17  C11 UNL     1       4.364  -1.101  -1.254  1.00  0.00     0.017 C 
BRANCH  17  18
HETATM   18  C12 UNL     1       4.403  -0.498   0.068  1.00  0.00    -0.014 C 
HETATM   19  C13 UNL     1       5.285   0.742   0.189  1.00  0.00     0.005 C 
HETATM   20  C14 UNL     1       5.137   1.087   1.647  1.00  0.00     0.000 C 
HETATM   21  C15 UNL     1       3.736   0.669   2.000  1.00  0.00     0.000 C 
HETATM   22  C16 UNL     1       3.173  -0.079   0.771  1.00  0.00     0.005 C 
ENDBRANCH  17  18
ENDBRANCH  16  17
ENDBRANCH  15  16
ENDBRANCH  13  14
ENDBRANCH  12  13
ENDBRANCH   1  12
TORSDOF 11
