REMARK  9 active torsions:
REMARK  status: ('A' for Active; 'I' for Inactive)
REMARK    1  A    between atoms: C2_2  and  C3_3 
REMARK    2  A    between atoms: C3_3  and  C4_4 
REMARK    3  A    between atoms: C4_4  and  C5_5 
REMARK    4  A    between atoms: C5_5  and  C6_6 
REMARK    5  A    between atoms: C6_6  and  N1_7 
REMARK    6  A    between atoms: N1_7  and  C7_8 
REMARK    7  A    between atoms: C7_8  and  C8_9 
REMARK    8  A    between atoms: C8_9  and  N2_10 
REMARK       I    between atoms: N2_10  and  C9_12 
REMARK    9  A    between atoms: C9_12  and  C10_14 
ROOT
HETATM    1  C7  UNL     1       0.130  -0.308  -0.148  1.00  0.00     0.257 C 
ENDROOT
BRANCH   1   2
HETATM    2  N1  UNL     1      -1.253  -0.146  -0.632  1.00  0.00    -0.066 N 
HETATM    3  C16 UNL     1      -1.426   1.127  -1.248  1.00  0.00     0.237 C 
HETATM    4  C17 UNL     1      -1.558   0.932  -2.738  1.00  0.00     0.029 C 
HETATM    5  C18 UNL     1      -1.618  -0.543  -2.956  1.00  0.00     0.029 C 
HETATM    6  C19 UNL     1      -1.537  -1.177  -1.610  1.00  0.00     0.237 C 
BRANCH   2   7
HETATM    7  C6  UNL     1      -2.075  -0.412   0.510  1.00  0.00     0.237 C 
BRANCH   7   8
HETATM    8  C5  UNL     1      -3.516  -0.043   0.386  1.00  0.00     0.028 C 
BRANCH   8   9
HETATM    9  C4  UNL     1      -4.186  -0.416   1.696  1.00  0.00     0.002 C 
BRANCH   9  10
HETATM   10  C3  UNL     1      -5.654  -0.082   1.712  1.00  0.00    -0.000 C 
BRANCH  10  11
HETATM   11  C2  UNL     1      -6.336  -0.845   0.602  1.00  0.00    -0.005 C 
HETATM   12  C1  UNL     1      -7.818  -0.463   0.698  1.00  0.00     0.005 C 
ENDBRANCH  10  11
ENDBRANCH   9  10
ENDBRANCH   8   9
ENDBRANCH   7   8
ENDBRANCH   2   7
ENDBRANCH   1   2
BRANCH   1  13
HETATM   13  C8  UNL     1       1.133  -0.266  -1.248  1.00  0.00     0.150 C 
BRANCH  13  14
HETATM   14  N2  UNL     1       2.500  -0.428  -0.752  1.00  0.00    -0.359 N 
HETATM   15  C9  UNL     1       3.091   0.453   0.161  1.00  0.00     0.221 C 
HETATM   16  O1  UNL     1       2.493   1.470   0.636  1.00  0.00    -0.273 OA
ATOM     17  H2  UNL     1       3.048  -1.220  -1.087  1.00  0.00     0.162 HD
BRANCH  15  18
HETATM   18  C10 UNL     1       4.467   0.240   0.626  1.00  0.00     0.078 C 
HETATM   19  C11 UNL     1       4.942   1.275   1.602  1.00  0.00     0.014 C 
HETATM   20  C12 UNL     1       6.450   1.384   1.624  1.00  0.00     0.001 C 
HETATM   21  C13 UNL     1       7.111   0.054   1.334  1.00  0.00     0.000 C 
HETATM   22  C14 UNL     1       6.696  -0.541   0.026  1.00  0.00     0.001 C 
HETATM   23  C15 UNL     1       5.470   0.175  -0.501  1.00  0.00     0.014 C 
ENDBRANCH  15  18
ENDBRANCH  13  14
ENDBRANCH   1  13
TORSDOF 9
