REMARK  9 active torsions:
REMARK  status: ('A' for Active; 'I' for Inactive)
REMARK    1  A    between atoms: N1_2  and  C2_3 
REMARK    2  A    between atoms: C2_3  and  C3_4 
REMARK    3  A    between atoms: C3_4  and  C4_5 
REMARK    4  A    between atoms: C4_5  and  C5_6 
REMARK    5  A    between atoms: C5_6  and  C6_7 
REMARK    6  A    between atoms: C6_7  and  C7_8 
REMARK    7  A    between atoms: C7_8  and  C8_9 
REMARK    8  A    between atoms: C8_9  and  N2_10 
REMARK    9  A    between atoms: N2_10  and  C9_11 
ROOT
HETATM    1  C9  UNL     1      -2.592  -1.696   0.328  1.00  0.00     0.360 C 
HETATM    2  C10 UNL     1      -3.029  -2.690  -0.653  1.00  0.00     0.087 C 
HETATM    3  N3  UNL     1      -3.376  -3.490  -1.413  1.00  0.00    -0.196 NA
ENDROOT
BRANCH   1   4
HETATM    4  N2  UNL     1      -3.015  -0.357  -0.009  1.00  0.00    -0.055 N 
HETATM    5  C11 UNL     1      -4.283  -0.126   0.648  1.00  0.00     0.238 C 
HETATM    6  C12 UNL     1      -5.459  -0.425  -0.251  1.00  0.00     0.028 C 
HETATM    7  C13 UNL     1      -5.459   0.568  -1.375  1.00  0.00     0.003 C 
HETATM    8  C14 UNL     1      -4.063   0.965  -1.795  1.00  0.00     0.028 C 
HETATM    9  C15 UNL     1      -3.046  -0.098  -1.419  1.00  0.00     0.238 C 
BRANCH   4  10
HETATM   10  C8  UNL     1      -2.075   0.611   0.580  1.00  0.00     0.238 C 
BRANCH  10  11
HETATM   11  C7  UNL     1      -1.864   0.345   2.042  1.00  0.00     0.028 C 
BRANCH  11  12
HETATM   12  C6  UNL     1      -0.899   1.361   2.593  1.00  0.00     0.002 C 
BRANCH  12  13
HETATM   13  C5  UNL     1       0.456   1.340   1.923  1.00  0.00     0.000 C 
BRANCH  13  14
HETATM   14  C4  UNL     1       1.114   0.006   2.078  1.00  0.00     0.002 C 
BRANCH  14  15
HETATM   15  C3  UNL     1       2.476  -0.095   1.449  1.00  0.00     0.028 C 
BRANCH  15  16
HETATM   16  C2  UNL     1       2.385   0.159  -0.019  1.00  0.00     0.237 C 
BRANCH  16  17
HETATM   17  N1  UNL     1       3.673   0.065  -0.683  1.00  0.00    -0.071 N 
HETATM   18  C1  UNL     1       3.825   1.121  -1.689  1.00  0.00     0.272 C 
HETATM   19  C16 UNL     1       3.846  -1.199  -1.372  1.00  0.00     0.237 C 
HETATM   20  C17 UNL     1       5.331  -1.285  -1.622  1.00  0.00     0.029 C 
HETATM   21  C18 UNL     1       5.958  -0.351  -0.605  1.00  0.00     0.029 C 
HETATM   22  C19 UNL     1       4.778   0.161   0.227  1.00  0.00     0.237 C 
ENDBRANCH  16  17
ENDBRANCH  15  16
ENDBRANCH  14  15
ENDBRANCH  13  14
ENDBRANCH  12  13
ENDBRANCH  11  12
ENDBRANCH  10  11
ENDBRANCH   4  10
ENDBRANCH   1   4
TORSDOF 9
