REMARK  1 active torsions:
REMARK  status: ('A' for Active; 'I' for Inactive)
REMARK    1  A    between atoms: C4_7  and  C5_8 
ROOT
HETATM    1  C1  UNL     1      -2.673   0.377  -0.681  1.00  0.00     0.019 C 
HETATM    2  C2  UNL     1      -1.647   1.347  -0.202  1.00  0.00     0.051 C 
HETATM    3  C3  UNL     1      -0.732   0.581   0.751  1.00  0.00     0.271 C 
HETATM    4  N1  UNL     1       0.546   0.498   0.131  1.00  0.00    -0.043 N 
ATOM      5  H11 UNL     1       1.008   1.406   0.093  1.00  0.00     0.280 HD
ATOM      6  H12 UNL     1       0.470   0.323  -0.871  1.00  0.00     0.280 HD
HETATM    7  C4  UNL     1       1.352  -0.477   0.777  1.00  0.00     0.278 C 
HETATM    8  S2  UNL     1       0.090  -1.789   1.045  1.00  0.00    -0.046 SA
HETATM    9  N2  UNL     1      -1.326  -0.726   0.818  1.00  0.00    -0.227 NA
HETATM   10  C7  UNL     1      -1.982  -0.973  -0.437  1.00  0.00     0.105 C 
ENDROOT
BRANCH   7  11
HETATM   11  C5  UNL     1       2.424  -0.949  -0.154  1.00  0.00     0.098 A 
HETATM   12  C6  UNL     1       3.362   0.129  -0.639  1.00  0.00     0.092 A 
HETATM   13  S1  UNL     1       2.253  -0.520  -1.907  1.00  0.00    -0.159 SA
ENDBRANCH   7  11
TORSDOF 1
