REMARK  1 active torsions:
REMARK  status: ('A' for Active; 'I' for Inactive)
REMARK    1  A    between atoms: O1_2  and  C2_3 
ROOT
HETATM    1  C2  UNL     1       1.068   0.758  -0.185  1.00  0.00     0.126 C 
HETATM    2  C3  UNL     1       1.174   1.621  -1.451  1.00  0.00     0.060 C 
HETATM    3  S1  UNL     1       0.094   1.718   1.007  1.00  0.00    -0.078 SA
HETATM    4  C4  UNL     1      -1.617   1.318   0.747  1.00  0.00     0.043 C 
HETATM    5  N1  UNL     1      -2.502   2.173   1.015  1.00  0.00    -0.397 N 
ATOM      6  H11 UNL     1      -3.485   1.943   0.866  1.00  0.00     0.156 HD
ATOM      7  H12 UNL     1      -2.269   3.097   1.379  1.00  0.00     0.156 HD
HETATM    8  C5  UNL     1      -1.954  -0.021   0.219  1.00  0.00     0.070 C 
HETATM    9  C6  UNL     1      -0.732  -0.898   0.377  1.00  0.00     0.009 C 
HETATM   10  C7  UNL     1      -1.150  -2.316   0.018  1.00  0.00     0.012 C 
HETATM   11  C8  UNL     1       0.383  -0.515  -0.559  1.00  0.00     0.142 C 
HETATM   12  C9  UNL     1      -0.074  -0.496  -1.951  1.00  0.00     0.068 C 
HETATM   13  N2  UNL     1      -0.426  -0.465  -3.068  1.00  0.00    -0.197 NA
ENDROOT
BRANCH   1  14
HETATM   14  O1  UNL     1       2.375   0.573   0.253  1.00  0.00    -0.373 OA
HETATM   15  C1  UNL     1       2.446  -0.196   1.401  1.00  0.00     0.204 C 
ENDBRANCH   1  14
TORSDOF 1
