REMARK  3 active torsions:
REMARK  status: ('A' for Active; 'I' for Inactive)
REMARK    1  A    between atoms: C2_2  and  C4_4 
REMARK    2  A    between atoms: C4_4  and  C5_9 
REMARK    3  A    between atoms: N1_5  and  O1_7 
ROOT
HETATM    1  C5  UNL     1       0.198   0.152  -0.684  1.00  0.00     0.205 C 
HETATM    2  O2  UNL     1       1.091  -0.733  -1.237  1.00  0.00    -0.347 OA
HETATM    3  C6  UNL     1       1.804  -1.318  -0.205  1.00  0.00     0.261 C 
HETATM    4  C7  UNL     1       3.125  -0.627   0.054  1.00  0.00     0.061 C 
HETATM    5  C8  UNL     1       2.917   0.846   0.130  1.00  0.00     0.007 C 
HETATM    6  C9  UNL     1       1.733   1.145   1.020  1.00  0.00     0.035 C 
HETATM    7  C10 UNL     1       0.587   0.184   0.760  1.00  0.00     0.159 C 
HETATM    8  O3  UNL     1       1.037  -1.151   0.947  1.00  0.00    -0.353 OA
ENDROOT
BRANCH   1   9
HETATM    9  C4  UNL     1      -1.209  -0.385  -0.776  1.00  0.00     0.068 C 
HETATM   10  N1  UNL     1      -1.372  -1.548  -1.260  1.00  0.00    -0.270 N 
ATOM     11  H1  UNL     1      -0.532  -2.030  -1.581  1.00  0.00     0.194 HD
BRANCH   9  12
HETATM   12  C2  UNL     1      -2.281   0.435  -0.277  1.00  0.00    -0.044 C 
HETATM   13  C1  UNL     1      -2.092   1.665   0.202  1.00  0.00     0.020 C 
HETATM   14  C3  UNL     1      -3.671  -0.096  -0.274  1.00  0.00     0.049 C 
ENDBRANCH   9  12
BRANCH  10  15
HETATM   15  O1  UNL     1      -2.539  -2.214  -1.395  1.00  0.00    -0.290 OA
ATOM     16  H1  UNL     1      -2.661  -3.084  -1.757  1.00  0.00     0.244 HD
ENDBRANCH  10  15
ENDBRANCH   1   9
TORSDOF 3
