REMARK  2 active torsions:
REMARK  status: ('A' for Active; 'I' for Inactive)
REMARK    1  A    between atoms: O1_2  and  C2_3 
REMARK       I    between atoms: C2_3  and  N1_5 
REMARK    2  A    between atoms: N1_5  and  N2_7 
ROOT
HETATM    1  N2  UNL     1       0.468  -0.519   0.993  1.00  0.00    -0.294 N 
ATOM      2  H2  UNL     1       0.687  -0.637   1.982  1.00  0.00     0.187 HD
HETATM    3  C3  UNL     1      -0.777  -0.388   0.630  1.00  0.00     0.062 C 
HETATM    4  C4  UNL     1      -1.101  -0.217  -0.810  1.00  0.00     0.066 C 
HETATM    5  C5  UNL     1      -2.605  -0.208  -0.984  1.00  0.00     0.007 C 
HETATM    6  C6  UNL     1      -3.128   0.975  -0.168  1.00  0.00     0.011 C 
HETATM    7  C7  UNL     1      -3.532   0.375   1.184  1.00  0.00     0.080 C 
HETATM    8  S1  UNL     1      -2.058  -0.418   1.872  1.00  0.00    -0.115 SA
ENDROOT
BRANCH   1   9
HETATM    9  N1  UNL     1       1.510  -0.502   0.064  1.00  0.00    -0.245 N 
HETATM   10  C2  UNL     1       2.836  -0.298   0.463  1.00  0.00     0.379 C 
HETATM   11  O2  UNL     1       3.098  -0.126   1.667  1.00  0.00    -0.237 OA
ATOM     12  H1  UNL     1       1.301  -0.641  -0.925  1.00  0.00     0.192 HD
BRANCH  10  13
HETATM   13  O1  UNL     1       3.857  -0.282  -0.453  1.00  0.00    -0.308 OA
HETATM   14  C1  UNL     1       5.202  -0.084  -0.127  1.00  0.00     0.215 C 
ENDBRANCH  10  13
ENDBRANCH   1   9
TORSDOF 2
