REMARK  11 active torsions:
REMARK  status: ('A' for Active; 'I' for Inactive)
REMARK    1  A    between atoms: C2_2  and  N1_3 
REMARK    2  A    between atoms: C2_2  and  C29_37 
REMARK       I    between atoms: N1_3  and  C3_5 
REMARK    3  A    between atoms: C3_5  and  C4_7 
REMARK    4  A    between atoms: C4_7  and  C5_8 
REMARK    5  A    between atoms: C5_8  and  C6_9 
REMARK    6  A    between atoms: C5_8  and  C18_26 
REMARK    7  A    between atoms: C5_8  and  C24_32 
REMARK    8  A    between atoms: C6_9  and  C7_10 
REMARK    9  A    between atoms: C7_10  and  C8_11 
REMARK   10  A    between atoms: C8_11  and  C9_12 
REMARK       I    between atoms: N2_15  and  C12_16 
REMARK   11  A    between atoms: C12_16  and  C13_18 
ROOT
HETATM    1  C5  UNL     1      -2.113   0.649  -0.764  1.00  0.00    -0.010 C 
ENDROOT
BRANCH   1   2
HETATM    2  C4  UNL     1      -3.371   0.294  -0.112  1.00  0.00     0.057 C 
BRANCH   2   3
HETATM    3  C3  UNL     1      -3.576  -0.852   0.740  1.00  0.00     0.238 C 
HETATM    4  N1  UNL     1      -4.867  -1.373   1.046  1.00  0.00    -0.345 N 
ATOM      5  H1  UNL     1      -5.667  -0.894   0.634  1.00  0.00     0.163 HD
HETATM    6  O1  UNL     1      -2.690  -1.506   1.288  1.00  0.00    -0.269 OA
BRANCH   4   7
HETATM    7  C2  UNL     1      -5.146  -2.499   1.873  1.00  0.00     0.170 C 
HETATM    8  C1  UNL     1      -6.295  -2.180   2.797  1.00  0.00     0.042 C 
BRANCH   7   9
HETATM    9  C29 UNL     1      -5.445  -3.688   1.004  1.00  0.00     0.253 C 
HETATM   10  N4  UNL     1      -5.783  -4.932   1.590  1.00  0.00    -0.060 NA
HETATM   11  O3  UNL     1      -5.401  -3.603  -0.258  1.00  0.00    -0.275 OA
ENDBRANCH   7   9
ENDBRANCH   4   7
ENDBRANCH   2   3
ENDBRANCH   1   2
BRANCH   1  12
HETATM   12  C6  UNL     1      -0.978   0.826   0.229  1.00  0.00     0.014 C 
BRANCH  12  13
HETATM   13  C7  UNL     1       0.336   1.201  -0.334  1.00  0.00     0.003 C 
BRANCH  13  14
HETATM   14  C8  UNL     1       1.364   1.333   0.807  1.00  0.00     0.033 C 
BRANCH  14  15
HETATM   15  C9  UNL     1       2.716   1.714   0.238  1.00  0.00     0.189 C 
HETATM   16  C10 UNL     1       3.178   0.658  -0.718  1.00  0.00     0.053 C 
HETATM   17  C11 UNL     1       4.697   0.622  -0.859  1.00  0.00     0.129 C 
HETATM   18  N2  UNL     1       5.226   0.472   0.477  1.00  0.00    -0.328 N 
HETATM   19  C12 UNL     1       6.580   0.156   0.664  1.00  0.00     0.228 C 
HETATM   20  C17 UNL     1       4.324   0.652   1.572  1.00  0.00     0.359 C 
HETATM   21  O2  UNL     1       7.286   0.009  -0.410  1.00  0.00    -0.273 OA
HETATM   22  N3  UNL     1       3.627   1.932   1.336  1.00  0.00    -0.055 N 
ATOM     23  H32 UNL     1       4.263   2.714   1.181  1.00  0.00     0.279 HD
ATOM     24  H31 UNL     1       3.170   2.301   2.170  1.00  0.00     0.279 HD
BRANCH  19  25
HETATM   25  C13 UNL     1       7.280  -0.026   1.950  1.00  0.00     0.030 C 
HETATM   26  C14 UNL     1       8.731  -0.398   1.668  1.00  0.00     0.025 C 
HETATM   27  C15 UNL     1       7.339   1.302   2.684  1.00  0.00     0.025 C 
HETATM   28  C16 UNL     1       6.694  -1.111   2.809  1.00  0.00     0.025 C 
ENDBRANCH  19  25
ENDBRANCH  14  15
ENDBRANCH  13  14
ENDBRANCH  12  13
ENDBRANCH   1  12
BRANCH   1  29
HETATM   29  C18 UNL     1      -1.559  -0.217  -1.842  1.00  0.00    -0.002 C 
HETATM   30  C19 UNL     1      -2.434  -0.409  -3.059  1.00  0.00     0.005 C 
HETATM   31  C20 UNL     1      -1.725  -1.498  -3.887  1.00  0.00     0.000 C 
HETATM   32  C21 UNL     1      -2.073  -2.783  -3.188  1.00  0.00     0.000 C 
HETATM   33  C22 UNL     1      -1.446  -2.750  -1.829  1.00  0.00     0.000 C 
HETATM   34  C23 UNL     1      -0.799  -1.424  -1.482  1.00  0.00     0.005 C 
ENDBRANCH   1  29
BRANCH   1  35
HETATM   35  C24 UNL     1      -2.302   2.101  -1.267  1.00  0.00    -0.002 C 
HETATM   36  C25 UNL     1      -2.526   3.021  -0.112  1.00  0.00     0.005 C 
HETATM   37  C26 UNL     1      -3.613   4.004  -0.501  1.00  0.00     0.000 C 
HETATM   38  C27 UNL     1      -4.274   3.475  -1.714  1.00  0.00     0.000 C 
HETATM   39  C28 UNL     1      -3.439   2.308  -2.200  1.00  0.00     0.005 C 
ENDBRANCH   1  35
TORSDOF 11
