REMARK  10 active torsions:
REMARK  status: ('A' for Active; 'I' for Inactive)
REMARK    1  A    between atoms: C11_11  and  N1_12 
REMARK       I    between atoms: N1_12  and  C12_14 
REMARK    2  A    between atoms: C12_14  and  C13_16 
REMARK    3  A    between atoms: C13_16  and  C14_17 
REMARK    4  A    between atoms: C14_17  and  C15_18 
REMARK    5  A    between atoms: C18_24  and  N3_25 
REMARK       I    between atoms: N3_25  and  C19_27 
REMARK    6  A    between atoms: C19_27  and  C20_29 
REMARK    7  A    between atoms: C20_29  and  C21_30 
REMARK    8  A    between atoms: C21_30  and  C22_31 
REMARK    9  A    between atoms: C22_31  and  C23_32 
REMARK   10  A    between atoms: C23_32  and  N4_33 
ROOT
HETATM    1  C15 UNL     1      -0.042  -1.038   1.977  1.00  0.00     0.038 C 
HETATM    2  C16 UNL     1      -0.108  -0.535   3.399  1.00  0.00     0.036 C 
HETATM    3  C17 UNL     1       0.159   0.931   3.318  1.00  0.00     0.235 C 
HETATM    4  N2  UNL     1       0.421   1.282   1.939  1.00  0.00    -0.054 N 
ATOM      5  H21 UNL     1       1.177   1.960   1.839  1.00  0.00     0.279 HD
ATOM      6  H22 UNL     1      -0.321   1.847   1.526  1.00  0.00     0.279 HD
HETATM    7  C18 UNL     1       0.664   0.063   1.217  1.00  0.00     0.290 C 
ENDROOT
BRANCH   1   8
HETATM    8  C14 UNL     1      -1.375  -1.378   1.406  1.00  0.00     0.017 C 
BRANCH   8   9
HETATM    9  C13 UNL     1      -2.303  -0.211   1.377  1.00  0.00     0.103 C 
BRANCH   9  10
HETATM   10  C12 UNL     1      -3.649  -0.543   0.798  1.00  0.00     0.218 C 
HETATM   11  N1  UNL     1      -4.618   0.464   0.708  1.00  0.00    -0.351 N 
ATOM     12  H1  UNL     1      -4.346   1.388   1.045  1.00  0.00     0.163 HD
HETATM   13  O1  UNL     1      -3.766  -1.741   0.441  1.00  0.00    -0.274 OA
BRANCH  11  14
HETATM   14  C11 UNL     1      -5.964   0.337   0.189  1.00  0.00     0.041 C 
HETATM   15  C8  UNL     1      -6.624   1.698   0.220  1.00  0.00    -0.022 C 
HETATM   16  C7  UNL     1      -7.823   1.786  -0.695  1.00  0.00     0.016 C 
HETATM   17  C9  UNL     1      -5.613   2.723  -0.316  1.00  0.00     0.017 C 
HETATM   18  C10 UNL     1      -6.961   2.170   1.592  1.00  0.00     0.017 C 
HETATM   19  C6  UNL     1      -8.378   0.464  -1.105  1.00  0.00    -0.005 C 
HETATM   20  C2  UNL     1      -7.377  -0.496  -1.657  1.00  0.00    -0.038 C 
HETATM   21  C5  UNL     1      -8.996  -0.166   0.121  1.00  0.00     0.010 C 
HETATM   22  C1  UNL     1      -7.471  -0.695  -3.137  1.00  0.00     0.015 C 
HETATM   23  C3  UNL     1      -7.690  -1.795  -0.895  1.00  0.00     0.014 C 
HETATM   24  C31 UNL     1      -5.942  -0.166  -1.234  1.00  0.00     0.041 C 
HETATM   25  C4  UNL     1      -7.977  -1.180   0.485  1.00  0.00    -0.011 C 
HETATM   26  C30 UNL     1      -6.688  -0.673   1.026  1.00  0.00     0.036 C 
ENDBRANCH  11  14
ENDBRANCH   9  10
ENDBRANCH   8   9
ENDBRANCH   1   8
BRANCH   7  27
HETATM   27  N3  UNL     1       2.099  -0.147   1.186  1.00  0.00    -0.333 N 
HETATM   28  C19 UNL     1       2.833  -0.248  -0.006  1.00  0.00     0.219 C 
HETATM   29  O2  UNL     1       2.270  -0.162  -1.117  1.00  0.00    -0.274 OA
ATOM     30  H3  UNL     1       2.598  -0.225   2.072  1.00  0.00     0.164 HD
BRANCH  28  31
HETATM   31  C20 UNL     1       4.308  -0.461   0.044  1.00  0.00     0.103 C 
BRANCH  31  32
HETATM   32  C21 UNL     1       4.868  -0.581  -1.343  1.00  0.00     0.011 C 
BRANCH  32  33
HETATM   33  C22 UNL     1       6.343  -0.800  -1.302  1.00  0.00     0.031 C 
BRANCH  33  34
HETATM   34  C23 UNL     1       7.102   0.318  -0.639  1.00  0.00     0.272 C 
BRANCH  34  35
HETATM   35  N4  UNL     1       8.504   0.015  -0.650  1.00  0.00     0.088 N 
HETATM   36  C24 UNL     1       9.138   0.022  -1.922  1.00  0.00     0.272 C 
HETATM   37  C25 UNL     1       9.892  -1.308  -2.046  1.00  0.00     0.030 C 
HETATM   38  C26 UNL     1      10.389  -1.623  -0.646  1.00  0.00     0.002 C 
HETATM   39  C27 UNL     1      11.339  -0.560  -0.196  1.00  0.00     0.002 C 
HETATM   40  C28 UNL     1      10.708   0.746   0.154  1.00  0.00     0.030 C 
HETATM   41  C29 UNL     1       9.235   0.690   0.398  1.00  0.00     0.272 C 
ENDBRANCH  34  35
ENDBRANCH  33  34
ENDBRANCH  32  33
ENDBRANCH  31  32
ENDBRANCH  28  31
ENDBRANCH   7  27
TORSDOF 10
