REMARK  10 active torsions:
REMARK  status: ('A' for Active; 'I' for Inactive)
REMARK    1  A    between atoms: C2_2  and  N1_3 
REMARK    2  A    between atoms: C2_2  and  C28_36 
REMARK       I    between atoms: N1_3  and  C3_5 
REMARK    3  A    between atoms: C3_5  and  C4_7 
REMARK    4  A    between atoms: C4_7  and  C5_8 
REMARK    5  A    between atoms: C6_11  and  C7_12 
REMARK    6  A    between atoms: C18_23  and  C19_24 
REMARK    7  A    between atoms: C19_24  and  S1_25 
REMARK    8  A    between atoms: S1_25  and  C20_28 
REMARK    9  A    between atoms: C20_28  and  C21_29 
REMARK   10  A    between atoms: C21_29  and  C22_30 
ROOT
HETATM    1  C5  UNL     1      -0.907   1.197   0.180  1.00  0.00     0.025 A 
HETATM    2  N2  UNL     1      -2.090   0.640   0.430  1.00  0.00    -0.361 N 
ATOM      3  H2  UNL     1      -2.928   1.125   0.751  1.00  0.00     0.165 HD
HETATM    4  C6  UNL     1      -1.979  -0.685   0.182  1.00  0.00     0.018 A 
HETATM    5  C17 UNL     1      -0.699  -0.958  -0.229  1.00  0.00     0.035 A 
HETATM    6  C18 UNL     1       0.022   0.220  -0.245  1.00  0.00    -0.019 A 
ENDROOT
BRANCH   6   7
HETATM    7  C19 UNL     1       1.420   0.510  -0.605  1.00  0.00     0.180 C 
BRANCH   7   8
HETATM    8  S1  UNL     1       2.254  -0.964  -1.075  1.00  0.00     0.148 S 
HETATM    9  O2  UNL     1       2.300  -1.942   0.043  1.00  0.00    -0.228 OA
HETATM   10  O3  UNL     1       1.612  -1.509  -2.325  1.00  0.00    -0.228 OA
BRANCH   8  11
HETATM   11  C20 UNL     1       3.956  -0.602  -1.509  1.00  0.00     0.141 C 
BRANCH  11  12
HETATM   12  C21 UNL     1       4.667   0.016  -0.332  1.00  0.00     0.019 C 
BRANCH  12  13
HETATM   13  C22 UNL     1       6.076   0.350  -0.745  1.00  0.00    -0.014 C 
HETATM   14  C23 UNL     1       6.871  -0.839  -1.202  1.00  0.00     0.005 C 
HETATM   15  C24 UNL     1       8.338  -0.615  -0.854  1.00  0.00     0.000 C 
HETATM   16  C25 UNL     1       8.536  -0.629   0.647  1.00  0.00     0.000 C 
HETATM   17  C26 UNL     1       7.433   0.143   1.346  1.00  0.00     0.000 C 
HETATM   18  C27 UNL     1       6.794   1.121   0.356  1.00  0.00     0.005 C 
ENDBRANCH  12  13
ENDBRANCH  11  12
ENDBRANCH   8  11
ENDBRANCH   7   8
ENDBRANCH   6   7
BRANCH   1  19
HETATM   19  C4  UNL     1      -0.570   2.640   0.284  1.00  0.00     0.160 C 
BRANCH  19  20
HETATM   20  C3  UNL     1      -1.753   3.441   0.755  1.00  0.00     0.224 C 
HETATM   21  N1  UNL     1      -2.450   4.280  -0.155  1.00  0.00    -0.347 N 
ATOM     22  H1  UNL     1      -2.129   4.300  -1.123  1.00  0.00     0.163 HD
HETATM   23  O1  UNL     1      -2.121   3.370   1.928  1.00  0.00    -0.273 OA
BRANCH  21  24
HETATM   24  C2  UNL     1      -3.572   5.100   0.193  1.00  0.00     0.181 C 
HETATM   25  C1  UNL     1      -3.481   6.385  -0.591  1.00  0.00     0.043 C 
BRANCH  24  26
HETATM   26  C28 UNL     1      -4.870   4.381  -0.041  1.00  0.00     0.196 C 
HETATM   27  O4  UNL     1      -4.904   3.201  -0.458  1.00  0.00    -0.646 OA
HETATM   28  O5  UNL     1      -6.071   5.029   0.205  1.00  0.00    -0.646 OA
ENDBRANCH  24  26
ENDBRANCH  21  24
ENDBRANCH  19  20
ENDBRANCH   1  19
BRANCH   4  29
HETATM   29  C7  UNL     1      -3.044  -1.725   0.301  1.00  0.00     0.003 C 
HETATM   30  C8  UNL     1      -3.441  -2.053  -1.125  1.00  0.00     0.020 C 
HETATM   31  C9  UNL     1      -4.441  -3.191  -1.110  1.00  0.00    -0.013 C 
HETATM   32  C10 UNL     1      -3.795  -4.379  -0.459  1.00  0.00     0.009 C 
HETATM   33  C14 UNL     1      -5.638  -2.713  -0.329  1.00  0.00     0.009 C 
HETATM   34  C11 UNL     1      -3.429  -4.057   0.975  1.00  0.00    -0.013 C 
HETATM   35  C12 UNL     1      -4.692  -3.661   1.695  1.00  0.00     0.009 C 
HETATM   36  C16 UNL     1      -2.425  -2.934   0.961  1.00  0.00     0.020 C 
HETATM   37  C13 UNL     1      -5.246  -2.385   1.086  1.00  0.00    -0.013 C 
HETATM   38  C15 UNL     1      -4.196  -1.294   1.146  1.00  0.00     0.020 C 
ENDBRANCH   4  29
TORSDOF 10
