REMARK  12 active torsions:
REMARK  status: ('A' for Active; 'I' for Inactive)
REMARK    1  A    between atoms: C2_2  and  C4_4 
REMARK    2  A    between atoms: C4_4  and  C5_5 
REMARK    3  A    between atoms: C5_5  and  N1_6 
REMARK    4  A    between atoms: C5_5  and  C19_23 
REMARK       I    between atoms: N1_6  and  C6_8 
REMARK       I    between atoms: C6_8  and  N2_10 
REMARK    5  A    between atoms: C10_14  and  C11_15 
REMARK    6  A    between atoms: C11_15  and  C12_16 
REMARK    7  A    between atoms: C12_16  and  C13_17 
REMARK       I    between atoms: C19_23  and  N3_25 
REMARK    8  A    between atoms: N3_25  and  C20_27 
REMARK    9  A    between atoms: C20_27  and  C21_28 
REMARK   10  A    between atoms: C20_27  and  C24_31 
REMARK   11  A    between atoms: C24_31  and  O3_32 
REMARK   12  A    between atoms: C24_31  and  C25_34 
ROOT
HETATM    1  C5  UNL     1      -0.539  -1.837   0.623  1.00  0.00     0.178 C 
ENDROOT
BRANCH   1   2
HETATM    2  C4  UNL     1      -1.197  -3.110   0.361  1.00  0.00     0.038 C 
BRANCH   2   3
HETATM    3  C2  UNL     1      -1.404  -3.645  -0.980  1.00  0.00    -0.020 C 
HETATM    4  C1  UNL     1      -2.145  -4.996  -0.796  1.00  0.00     0.009 C 
HETATM    5  C3  UNL     1      -0.227  -3.958  -1.838  1.00  0.00     0.009 C 
ENDBRANCH   2   3
ENDBRANCH   1   2
BRANCH   1   6
HETATM    6  N1  UNL     1       0.814  -1.781   0.146  1.00  0.00    -0.330 N 
HETATM    7  C6  UNL     1       1.973  -1.630   0.934  1.00  0.00     0.319 C 
HETATM    8  O1  UNL     1       1.896  -1.522   2.205  1.00  0.00    -0.247 OA
HETATM    9  N2  UNL     1       3.236  -1.594   0.338  1.00  0.00    -0.330 N 
HETATM   10  C7  UNL     1       3.554  -1.725  -1.062  1.00  0.00     0.128 C 
HETATM   11  C10 UNL     1       4.503  -1.399   1.036  1.00  0.00     0.089 C 
HETATM   12  C8  UNL     1       5.045  -1.996  -1.148  1.00  0.00     0.022 C 
HETATM   13  C9  UNL     1       5.429  -2.322   0.289  1.00  0.00     0.027 C 
ATOM     14  H1  UNL     1       0.950  -1.858  -0.862  1.00  0.00     0.165 HD
BRANCH  11  15
HETATM   15  C11 UNL     1       4.902   0.039   0.854  1.00  0.00     0.026 C 
BRANCH  15  16
HETATM   16  C12 UNL     1       6.202   0.291   1.558  1.00  0.00     0.007 C 
BRANCH  16  17
HETATM   17  C13 UNL     1       6.533   1.763   1.343  1.00  0.00    -0.010 C 
HETATM   18  C14 UNL     1       7.868   2.105   2.043  1.00  0.00     0.009 C 
HETATM   19  C15 UNL     1       7.387   3.182   2.962  1.00  0.00    -0.013 C 
HETATM   20  C16 UNL     1       6.437   3.978   2.061  1.00  0.00     0.009 C 
HETATM   21  C18 UNL     1       6.110   2.554   3.524  1.00  0.00     0.009 C 
HETATM   22  C17 UNL     1       5.624   2.673   2.096  1.00  0.00    -0.010 C 
ENDBRANCH  16  17
ENDBRANCH  15  16
ENDBRANCH  11  15
ENDBRANCH   1   6
BRANCH   1  23
HETATM   23  C19 UNL     1      -1.292  -0.599   0.337  1.00  0.00     0.240 C 
HETATM   24  O2  UNL     1      -0.741   0.413  -0.212  1.00  0.00    -0.271 OA
HETATM   25  N3  UNL     1      -2.646  -0.493   0.660  1.00  0.00    -0.352 N 
ATOM     26  H3  UNL     1      -3.112  -1.290   1.093  1.00  0.00     0.163 HD
BRANCH  25  27
HETATM   27  C20 UNL     1      -3.426   0.729   0.398  1.00  0.00     0.116 C 
BRANCH  27  28
HETATM   28  C21 UNL     1      -4.336   0.916   1.537  1.00  0.00     0.003 C 
HETATM   29  C22 UNL     1      -3.462   1.038   2.802  1.00  0.00     0.011 C 
HETATM   30  C23 UNL     1      -5.330  -0.165   1.773  1.00  0.00     0.011 C 
ENDBRANCH  27  28
BRANCH  27  31
HETATM   31  C24 UNL     1      -4.054   0.635  -0.972  1.00  0.00     0.145 C 
BRANCH  31  32
HETATM   32  O3  UNL     1      -4.934  -0.395  -1.149  1.00  0.00    -0.393 OA
ATOM     33  H3  UNL     1      -5.329  -0.454  -2.011  1.00  0.00     0.210 HD
ENDBRANCH  31  32
BRANCH  31  34
HETATM   34  C25 UNL     1      -4.522   1.894  -1.583  1.00  0.00     0.016 C 
HETATM   35  C26 UNL     1      -5.097   1.505  -2.962  1.00  0.00     0.007 C 
HETATM   36  C27 UNL     1      -6.590   1.290  -2.868  1.00  0.00     0.000 C 
HETATM   37  C28 UNL     1      -7.219   2.672  -2.839  1.00  0.00     0.000 C 
HETATM   38  C29 UNL     1      -6.351   3.508  -1.930  1.00  0.00     0.000 C 
HETATM   39  C30 UNL     1      -5.598   2.652  -0.898  1.00  0.00     0.007 C 
ENDBRANCH  31  34
ENDBRANCH  27  31
ENDBRANCH  25  27
ENDBRANCH   1  23
TORSDOF 12
