REMARK  12 active torsions:
REMARK  status: ('A' for Active; 'I' for Inactive)
REMARK       I    between atoms: C2_2  and  N1_4 
REMARK    1  A    between atoms: N1_4  and  C3_5 
REMARK    2  A    between atoms: N1_4  and  C10_18 
REMARK    3  A    between atoms: C3_5  and  C4_6 
REMARK    4  A    between atoms: C4_6  and  C5_7 
REMARK    5  A    between atoms: C5_7  and  N2_8 
REMARK    6  A    between atoms: N2_8  and  C6_10 
REMARK    7  A    between atoms: C6_10  and  C7_11 
REMARK    8  A    between atoms: C7_11  and  C8_12 
REMARK    9  A    between atoms: C8_12  and  C9_13 
REMARK   10  A    between atoms: C9_13  and  N3_14 
REMARK   11  A    between atoms: C10_18  and  C11_19 
REMARK   12  A    between atoms: C16_24  and  O2_25 
ROOT
HETATM    1  C11 UNL     1       0.533   1.656  -0.334  1.00  0.00     0.012 C 
HETATM    2  C12 UNL     1       0.085   2.566   0.742  1.00  0.00     0.007 C 
HETATM    3  C13 UNL     1      -1.311   2.025   1.142  1.00  0.00     0.006 C 
HETATM    4  C14 UNL     1      -1.842   1.774  -0.261  1.00  0.00     0.001 C 
HETATM    5  C15 UNL     1      -3.141   1.072  -0.325  1.00  0.00     0.024 C 
HETATM    6  C16 UNL     1      -3.942   1.491   0.917  1.00  0.00     0.123 C 
HETATM    7  C17 UNL     1      -5.224   0.734   1.060  1.00  0.00     0.038 C 
HETATM    8  C18 UNL     1      -5.440  -0.163  -0.111  1.00  0.00     0.004 C 
HETATM    9  C19 UNL     1      -6.817  -0.759  -0.111  1.00  0.00    -0.043 C 
HETATM   10  C20 UNL     1      -7.214  -1.503   1.104  1.00  0.00     0.015 C 
HETATM   11  C21 UNL     1      -7.781   0.435  -0.239  1.00  0.00     0.015 C 
HETATM   12  C22 UNL     1      -7.046  -1.589  -1.345  1.00  0.00     0.009 C 
HETATM   13  C23 UNL     1      -5.926  -2.495  -1.709  1.00  0.00     0.002 C 
HETATM   14  C24 UNL     1      -4.552  -1.895  -1.608  1.00  0.00     0.010 C 
HETATM   15  C25 UNL     1      -4.324  -1.138  -0.323  1.00  0.00    -0.035 C 
HETATM   16  C26 UNL     1      -4.251  -2.187   0.783  1.00  0.00     0.016 C 
HETATM   17  C27 UNL     1      -3.015  -0.428  -0.354  1.00  0.00     0.001 C 
HETATM   18  C28 UNL     1      -2.170  -0.775  -1.575  1.00  0.00     0.007 C 
HETATM   19  C29 UNL     1      -0.754  -0.280  -1.205  1.00  0.00     0.010 C 
HETATM   20  C30 UNL     1      -0.716   1.191  -1.061  1.00  0.00    -0.035 C 
HETATM   21  C31 UNL     1      -0.746   1.792  -2.460  1.00  0.00     0.016 C 
ENDROOT
BRANCH   1  22
HETATM   22  C10 UNL     1       1.417   0.553   0.074  1.00  0.00     0.131 C 
BRANCH  22  23
HETATM   23  N1  UNL     1       2.687   1.004   0.701  1.00  0.00    -0.352 N 
HETATM   24  C2  UNL     1       2.769   1.044   2.091  1.00  0.00     0.215 C 
HETATM   25  C1  UNL     1       3.855   1.646   2.909  1.00  0.00     0.117 C 
HETATM   26  O1  UNL     1       1.816   0.515   2.764  1.00  0.00    -0.274 OA
BRANCH  23  27
HETATM   27  C3  UNL     1       3.716   1.422  -0.221  1.00  0.00     0.127 C 
BRANCH  27  28
HETATM   28  C4  UNL     1       4.612   0.374  -0.739  1.00  0.00     0.039 C 
BRANCH  28  29
HETATM   29  C5  UNL     1       5.509  -0.369   0.164  1.00  0.00     0.115 C 
BRANCH  29  30
HETATM   30  N2  UNL     1       6.534   0.359   0.820  1.00  0.00    -0.421 N 
ATOM     31  H2  UNL     1       6.667   1.360   0.674  1.00  0.00     0.153 HD
BRANCH  30  32
HETATM   32  C6  UNL     1       7.363  -0.394   1.693  1.00  0.00     0.113 C 
BRANCH  32  33
HETATM   33  C7  UNL     1       8.238  -1.378   0.942  1.00  0.00     0.021 C 
BRANCH  33  34
HETATM   34  C8  UNL     1       9.128  -0.619  -0.019  1.00  0.00     0.029 C 
BRANCH  34  35
HETATM   35  C9  UNL     1       9.981  -1.641  -0.749  1.00  0.00     0.229 C 
BRANCH  35  36
HETATM   36  N3  UNL     1       9.182  -2.581  -1.487  1.00  0.00    -0.079 N 
ATOM     37  H33 UNL     1       8.494  -3.035  -0.886  1.00  0.00     0.274 HD
ATOM     38  H32 UNL     1       8.547  -2.104  -2.127  1.00  0.00     0.274 HD
ATOM     39  H31 UNL     1       9.755  -3.268  -1.977  1.00  0.00     0.274 HD
ENDBRANCH  35  36
ENDBRANCH  34  35
ENDBRANCH  33  34
ENDBRANCH  32  33
ENDBRANCH  30  32
ENDBRANCH  29  30
ENDBRANCH  28  29
ENDBRANCH  27  28
ENDBRANCH  23  27
ENDBRANCH  22  23
ENDBRANCH   1  22
BRANCH   6  40
HETATM   40  O2  UNL     1      -4.158   2.871   0.777  1.00  0.00    -0.395 OA
ATOM     41  H2  UNL     1      -4.653   3.130   1.545  1.00  0.00     0.210 HD
ENDBRANCH   6  40
TORSDOF 12
