REMARK  10 active torsions:
REMARK  status: ('A' for Active; 'I' for Inactive)
REMARK    1  A    between atoms: C6_6  and  C7_7 
REMARK    2  A    between atoms: C7_7  and  S1_8 
REMARK    3  A    between atoms: S1_8  and  C8_9 
REMARK    4  A    between atoms: C8_9  and  C9_10 
REMARK    5  A    between atoms: C9_10  and  C10_11 
REMARK    6  A    between atoms: C11_15  and  C12_16 
REMARK    7  A    between atoms: C12_16  and  N2_17 
REMARK    8  A    between atoms: N5_23  and  C15_24 
REMARK    9  A    between atoms: C15_24  and  C16_25 
REMARK   10  A    between atoms: C16_25  and  C17_26 
ROOT
HETATM    1  C10 UNL     1       1.352   1.668  -0.914  1.00  0.00     0.214 C 
HETATM    2  N1  UNL     1       1.073   2.639   0.174  1.00  0.00    -0.061 N 
ATOM      3  H11 UNL     1       1.713   3.433   0.206  1.00  0.00     0.278 HD
ATOM      4  H12 UNL     1       1.282   2.295   1.111  1.00  0.00     0.278 HD
HETATM    5  C11 UNL     1      -0.328   2.998  -0.041  1.00  0.00     0.221 C 
HETATM    6  C14 UNL     1      -1.114   1.787   0.313  1.00  0.00     0.152 C 
HETATM    7  N5  UNL     1      -0.577   0.523  -0.013  1.00  0.00    -0.400 N 
HETATM    8  C27 UNL     1       0.575   0.433  -0.839  1.00  0.00     0.049 C 
HETATM    9  C28 UNL     1       1.319  -0.815  -0.405  1.00  0.00     0.040 C 
HETATM   10  C29 UNL     1       0.176   0.111  -2.306  1.00  0.00     0.040 C 
ENDROOT
BRANCH   7  11
HETATM   11  C15 UNL     1      -1.663  -0.361  -0.322  1.00  0.00     0.118 C 
BRANCH  11  12
HETATM   12  C16 UNL     1      -2.513  -0.692   0.900  1.00  0.00     0.029 C 
BRANCH  12  13
HETATM   13  C17 UNL     1      -3.645  -1.594   0.545  1.00  0.00    -0.038 C 
HETATM   14  C18 UNL     1      -4.409  -1.868   1.844  1.00  0.00     0.014 C 
HETATM   15  C19 UNL     1      -5.627  -2.727   1.618  1.00  0.00    -0.013 C 
HETATM   16  C20 UNL     1      -5.255  -4.024   0.964  1.00  0.00     0.009 C 
HETATM   17  C24 UNL     1      -6.614  -2.017   0.708  1.00  0.00     0.009 C 
HETATM   18  C21 UNL     1      -4.544  -3.699  -0.326  1.00  0.00    -0.013 C 
HETATM   19  C22 UNL     1      -5.377  -2.923  -1.288  1.00  0.00     0.009 C 
HETATM   20  C26 UNL     1      -3.268  -2.898  -0.061  1.00  0.00     0.014 C 
HETATM   21  C23 UNL     1      -5.880  -1.683  -0.561  1.00  0.00    -0.013 C 
HETATM   22  C25 UNL     1      -4.651  -0.827  -0.323  1.00  0.00     0.014 C 
ENDBRANCH  12  13
ENDBRANCH  11  12
ENDBRANCH   7  11
BRANCH   5  23
HETATM   23  C12 UNL     1      -0.696   4.183   0.844  1.00  0.00     0.156 C 
BRANCH  23  24
HETATM   24  N2  UNL     1       0.132   5.329   0.535  1.00  0.00    -0.365 N 
HETATM   25  C13 UNL     1      -0.385   6.506   0.558  1.00  0.00     0.197 C 
HETATM   26  N3  UNL     1       0.471   7.595   0.247  1.00  0.00    -0.067 NA
HETATM   27  N4  UNL     1      -1.747   6.746   0.876  1.00  0.00    -0.067 NA
ATOM     28  H2  UNL     1       1.117   5.204   0.301  1.00  0.00     0.161 HD
ENDBRANCH  23  24
ENDBRANCH   5  23
BRANCH   1  29
HETATM   29  C9  UNL     1       2.814   1.693  -1.097  1.00  0.00     0.045 C 
BRANCH  29  30
HETATM   30  C8  UNL     1       3.667   1.355   0.092  1.00  0.00     0.076 C 
BRANCH  30  31
HETATM   31  S1  UNL     1       5.424   1.577  -0.235  1.00  0.00    -0.164 SA
BRANCH  31  32
HETATM   32  C7  UNL     1       6.072   0.350  -1.354  1.00  0.00     0.112 C 
BRANCH  32  33
HETATM   33  C6  UNL     1       6.150  -0.961  -0.686  1.00  0.00    -0.048 A 
HETATM   34  C5  UNL     1       5.166  -1.907  -0.824  1.00  0.00     0.008 A 
HETATM   35  C4  UNL     1       5.257  -3.133  -0.161  1.00  0.00     0.001 A 
HETATM   36  C3  UNL     1       6.374  -3.340   0.626  1.00  0.00     0.007 A 
HETATM   37  C2  UNL     1       7.355  -2.396   0.760  1.00  0.00    -0.061 A 
HETATM   38  C1  UNL     1       8.548  -2.644   1.610  1.00  0.00     0.048 C 
HETATM   39  C30 UNL     1       7.257  -1.208   0.113  1.00  0.00     0.014 A 
ENDBRANCH  32  33
ENDBRANCH  31  32
ENDBRANCH  30  31
ENDBRANCH  29  30
ENDBRANCH   1  29
TORSDOF 10
