REMARK  5 active torsions:
REMARK  status: ('A' for Active; 'I' for Inactive)
REMARK    1  A    between atoms: N1_4  and  N2_6 
REMARK    2  A    between atoms: N2_6  and  C4_8 
REMARK    3  A    between atoms: C5_11  and  O1_12 
REMARK    4  A    between atoms: C7_16  and  N5_17 
REMARK    5  A    between atoms: C8_20  and  N6_21 
ROOT
HETATM    1  C1  UNL     1       5.918   1.129   0.496  1.00  0.00     0.018 C 
HETATM    2  C2  UNL     1       5.032   0.330   0.312  1.00  0.00    -0.071 C 
HETATM    3  C3  UNL     1       3.946  -0.616   0.088  1.00  0.00     0.171 C 
HETATM    4  N1  UNL     1       2.738  -0.296   0.336  1.00  0.00    -0.290 N 
ATOM      5  H1  UNL     1       2.526   0.634   0.697  1.00  0.00     0.187 HD
ENDROOT
BRANCH   4   6
HETATM    6  N2  UNL     1       1.716  -1.193   0.122  1.00  0.00    -0.132 N 
ATOM      7  H2  UNL     1       1.965  -2.181   0.073  1.00  0.00     0.205 HD
BRANCH   6   8
HETATM    8  C4  UNL     1       0.483  -0.893  -0.020  1.00  0.00     0.701 C 
HETATM    9  N3  UNL     1       0.194   0.412   0.051  1.00  0.00    -0.153 N 
HETATM   10  C5  UNL     1      -1.005   1.060  -0.027  1.00  0.00     0.239 C 
ATOM     11  H3  UNL     1       1.001   1.021   0.185  1.00  0.00     0.188 HD
HETATM   12  N4  UNL     1      -2.182   0.440  -0.198  1.00  0.00    -0.305 N 
HETATM   13  C7  UNL     1      -2.506  -0.881  -0.144  1.00  0.00     0.147 C 
ATOM     14  H4  UNL     1      -2.964   1.062  -0.402  1.00  0.00     0.171 HD
HETATM   15  C8  UNL     1      -1.680  -1.946  -0.432  1.00  0.00     0.159 C 
HETATM   16  N7  UNL     1      -0.329  -1.940  -0.218  1.00  0.00    -0.172 N 
ATOM     17  H7  UNL     1       0.121  -2.856  -0.208  1.00  0.00     0.186 HD
BRANCH  10  18
HETATM   18  O1  UNL     1      -0.997   2.443   0.077  1.00  0.00    -0.327 OA
HETATM   19  C6  UNL     1      -2.250   3.096  -0.007  1.00  0.00     0.213 C 
ENDBRANCH  10  18
BRANCH  13  20
HETATM   20  N5  UNL     1      -3.698  -1.175   0.208  1.00  0.00    -0.382 N 
ATOM     21  H52 UNL     1      -4.309  -0.387   0.421  1.00  0.00     0.157 HD
ATOM     22  H51 UNL     1      -3.941  -2.165   0.248  1.00  0.00     0.157 HD
ENDBRANCH  13  20
BRANCH  15  23
HETATM   23  N6  UNL     1      -2.189  -3.005  -0.935  1.00  0.00    -0.382 N 
ATOM     24  H62 UNL     1      -3.196  -3.009  -1.095  1.00  0.00     0.157 HD
ATOM     25  H61 UNL     1      -1.578  -3.793  -1.148  1.00  0.00     0.157 HD
ENDBRANCH  15  23
ENDBRANCH   6   8
ENDBRANCH   4   6
TORSDOF 5
