REMARK  3 active torsions:
REMARK  status: ('A' for Active; 'I' for Inactive)
REMARK    1  A    between atoms: N1_1  and  C1_4 
REMARK    2  A    between atoms: C4_15  and  C5_16 
REMARK    3  A    between atoms: N5_17  and  N6_19 
ROOT
HETATM    1  C1  UNL     1      -1.523   1.178  -0.412  1.00  0.00     0.131 C 
HETATM    2  N2  UNL     1      -2.475   1.728   0.398  1.00  0.00    -0.293 N 
ATOM      3  H2  UNL     1      -2.526   2.746   0.447  1.00  0.00     0.172 HD
HETATM    4  C2  UNL     1      -3.354   1.017   1.139  1.00  0.00     0.329 C 
HETATM    5  O1  UNL     1      -4.235   1.730   1.713  1.00  0.00    -0.246 OA
HETATM    6  N3  UNL     1      -3.421  -0.329   1.349  1.00  0.00    -0.260 N 
ATOM      7  H3  UNL     1      -4.070  -0.613   2.083  1.00  0.00     0.175 HD
HETATM    8  C3  UNL     1      -2.774  -1.343   0.749  1.00  0.00     0.328 C 
HETATM    9  O2  UNL     1      -3.276  -2.496   0.800  1.00  0.00    -0.247 OA
HETATM   10  N4  UNL     1      -1.589  -1.205   0.076  1.00  0.00    -0.304 N 
ATOM     11  H4  UNL     1      -1.103  -2.076  -0.140  1.00  0.00     0.171 HD
HETATM   12  C4  UNL     1      -0.978  -0.086  -0.339  1.00  0.00     0.097 C 
ENDROOT
BRANCH  12  13
HETATM   13  C5  UNL     1       0.404  -0.219  -0.747  1.00  0.00     0.140 C 
HETATM   14  N5  UNL     1       1.036  -1.341  -0.738  1.00  0.00    -0.307 N 
ATOM     15  H5  UNL     1       0.543  -2.179  -0.429  1.00  0.00     0.186 HD
BRANCH  14  16
HETATM   16  N6  UNL     1       2.365  -1.456  -1.133  1.00  0.00    -0.276 N 
HETATM   17  C6  UNL     1       3.311  -0.864  -0.496  1.00  0.00     0.215 C 
HETATM   18  N7  UNL     1       2.975  -0.082   0.630  1.00  0.00    -0.065 NA
HETATM   19  N8  UNL     1       4.675  -0.983  -0.905  1.00  0.00    -0.065 NA
ATOM     20  H6  UNL     1       2.594  -2.024  -1.948  1.00  0.00     0.189 HD
ENDBRANCH  14  16
ENDBRANCH  12  13
BRANCH   1  21
HETATM   21  N1  UNL     1      -1.118   1.950  -1.327  1.00  0.00    -0.383 N 
ATOM     22  H12 UNL     1      -1.521   2.885  -1.381  1.00  0.00     0.157 HD
ATOM     23  H11 UNL     1      -0.407   1.539  -1.932  1.00  0.00     0.157 HD
ENDBRANCH   1  21
TORSDOF 3
