REMARK  3 active torsions:
REMARK  status: ('A' for Active; 'I' for Inactive)
REMARK    1  A    between atoms: C2_5  and  C3_7 
REMARK    2  A    between atoms: C4_8  and  C5_9 
REMARK    3  A    between atoms: C7_18  and  N7_19 
ROOT
HETATM    1  N1  UNL     1      -4.447   2.251   0.574  1.00  0.00    -0.172 NA
HETATM    2  C1  UNL     1      -3.570   1.628   0.152  1.00  0.00     0.183 C 
HETATM    3  N2  UNL     1      -2.502   0.879  -0.351  1.00  0.00    -0.281 N 
ATOM      4  H2  UNL     1      -2.648   0.311  -1.185  1.00  0.00     0.179 HD
HETATM    5  C2  UNL     1      -1.327   0.883   0.210  1.00  0.00     0.141 C 
HETATM    6  N3  UNL     1      -1.215   1.681   1.337  1.00  0.00    -0.081 NA
ENDROOT
BRANCH   5   7
HETATM    7  C3  UNL     1      -0.304   0.021  -0.322  1.00  0.00     0.081 A 
HETATM    8  C4  UNL     1       0.988  -0.098   0.097  1.00  0.00     0.119 A 
HETATM    9  N5  UNL     1       1.767  -1.097  -0.450  1.00  0.00    -0.303 N 
HETATM   10  C6  UNL     1       1.348  -1.960  -1.371  1.00  0.00     0.326 A 
ATOM     11  H5  UNL     1       2.731  -1.179  -0.126  1.00  0.00     0.171 HD
HETATM   12  O2  UNL     1       2.110  -2.855  -1.835  1.00  0.00    -0.247 OA
HETATM   13  N6  UNL     1       0.079  -1.855  -1.801  1.00  0.00    -0.294 N 
HETATM   14  C7  UNL     1      -0.720  -0.914  -1.310  1.00  0.00     0.118 A 
ATOM     15  H6  UNL     1      -0.272  -2.501  -2.508  1.00  0.00     0.172 HD
BRANCH   8  16
HETATM   16  C5  UNL     1       1.633   0.836   0.974  1.00  0.00     0.282 C 
HETATM   17  N4  UNL     1       2.662   0.316   1.846  1.00  0.00    -0.056 NA
HETATM   18  O1  UNL     1       1.404   2.022   1.061  1.00  0.00    -0.269 OA
ENDBRANCH   8  16
BRANCH  14  19
HETATM   19  N7  UNL     1      -1.923  -0.837  -1.742  1.00  0.00    -0.385 N 
ATOM     20  H72 UNL     1      -2.536  -0.115  -1.365  1.00  0.00     0.157 HD
ATOM     21  H71 UNL     1      -2.221  -1.507  -2.450  1.00  0.00     0.157 HD
ENDBRANCH  14  19
ENDBRANCH   5   7
TORSDOF 3
