REMARK  6 active torsions:
REMARK  status: ('A' for Active; 'I' for Inactive)
REMARK    1  A    between atoms: C2_7  and  C3_8 
REMARK    2  A    between atoms: C3_8  and  N3_9 
REMARK    3  A    between atoms: N3_9  and  C4_11 
REMARK       I    between atoms: N4_14  and  C7_15 
REMARK    4  A    between atoms: C7_15  and  C8_17 
REMARK    5  A    between atoms: C9_23  and  C10_24 
REMARK    6  A    between atoms: C10_24  and  O2_25 
ROOT
HETATM    1  C4  UNL     1      -1.008  -0.421   0.602  1.00  0.00     0.184 C 
HETATM    2  C5  UNL     1      -1.503  -1.830   0.530  1.00  0.00     0.066 C 
HETATM    3  C6  UNL     1       0.022  -2.111   0.674  1.00  0.00     0.132 C 
HETATM    4  N4  UNL     1       0.196  -0.784  -0.005  1.00  0.00    -0.328 N 
HETATM    5  C7  UNL     1       1.049  -0.293  -1.002  1.00  0.00     0.261 C 
HETATM    6  O1  UNL     1       0.593   0.409  -1.976  1.00  0.00    -0.269 OA
ENDROOT
BRANCH   1   7
HETATM    7  N3  UNL     1      -1.844   0.626   0.325  1.00  0.00    -0.394 N 
ATOM      8  H3  UNL     1      -2.008   1.389   0.982  1.00  0.00     0.155 HD
BRANCH   7   9
HETATM    9  C3  UNL     1      -2.495   0.563  -1.010  1.00  0.00     0.201 C 
BRANCH   9  10
HETATM   10  C2  UNL     1      -3.943   0.564  -0.570  1.00  0.00     0.161 A 
HETATM   11  N2  UNL     1      -4.585   1.666  -0.327  1.00  0.00    -0.172 N 
HETATM   12  C1  UNL     1      -5.912   1.611   0.084  1.00  0.00     0.682 A 
ATOM     13  H2  UNL     1      -4.119   2.566  -0.437  1.00  0.00     0.186 HD
HETATM   14  N1  UNL     1      -6.462   2.745   0.347  1.00  0.00    -0.234 N 
HETATM   15  N9  UNL     1      -6.448   0.416   0.208  1.00  0.00    -0.135 N 
ATOM     16  H12 UNL     1      -6.046   3.672   0.251  1.00  0.00     0.174 HD
ATOM     17  H11 UNL     1      -7.436   2.705   0.649  1.00  0.00     0.174 HD
HETATM   18  C11 UNL     1      -5.750  -0.721  -0.055  1.00  0.00     0.385 A 
ATOM     19  H9  UNL     1      -7.419   0.340   0.511  1.00  0.00     0.189 HD
HETATM   20  O3  UNL     1      -4.516  -0.626  -0.440  1.00  0.00    -0.245 OA
HETATM   21  O4  UNL     1      -6.313  -1.861   0.073  1.00  0.00    -0.237 OA
ENDBRANCH   9  10
ENDBRANCH   7   9
ENDBRANCH   1   7
BRANCH   5  22
HETATM   22  C8  UNL     1       2.498  -0.518  -1.038  1.00  0.00     0.288 C 
HETATM   23  N5  UNL     1       3.011  -1.710  -0.454  1.00  0.00    -0.091 NA
HETATM   24  N6  UNL     1       4.412  -1.720  -0.672  1.00  0.00    -0.247 N 
HETATM   25  N7  UNL     1       5.086  -0.569  -0.340  1.00  0.00    -0.300 N 
ATOM     26  H6  UNL     1       4.892  -2.535  -1.053  1.00  0.00     0.203 HD
HETATM   27  C9  UNL     1       4.304   0.512   0.193  1.00  0.00     0.219 C 
ATOM     28  H7  UNL     1       6.095  -0.486  -0.466  1.00  0.00     0.183 HD
HETATM   29  N8  UNL     1       3.142   0.678  -0.668  1.00  0.00    -0.372 N 
ATOM     30  H8  UNL     1       2.818   1.593  -0.980  1.00  0.00     0.157 HD
BRANCH  27  31
HETATM   31  C10 UNL     1       5.050   1.833   0.033  1.00  0.00     0.211 C 
BRANCH  31  32
HETATM   32  O2  UNL     1       6.306   1.846   0.564  1.00  0.00    -0.397 OA
ATOM     33  H2  UNL     1       6.771   2.669   0.464  1.00  0.00     0.209 HD
ENDBRANCH  31  32
ENDBRANCH  27  31
ENDBRANCH   5  22
TORSDOF 6
