REMARK  6 active torsions:
REMARK  status: ('A' for Active; 'I' for Inactive)
REMARK    1  A    between atoms: O1_2  and  N1_3 
REMARK       I    between atoms: N1_3  and  C2_5 
REMARK    2  A    between atoms: N3_7  and  N4_9 
REMARK    3  A    between atoms: C3_10  and  C4_11 
REMARK    4  A    between atoms: C4_11  and  C5_12 
REMARK    5  A    between atoms: C6_15  and  N5_16 
REMARK    6  A    between atoms: C7_20  and  O4_21 
ROOT
HETATM    1  N4  UNL     1       0.047   0.319  -0.026  1.00  0.00    -0.263 N 
HETATM    2  C3  UNL     1       0.173   1.403  -0.939  1.00  0.00     0.150 C 
HETATM    3  C6  UNL     1      -1.192   1.630  -1.542  1.00  0.00     0.243 C 
HETATM    4  C7  UNL     1      -2.158   0.930  -0.598  1.00  0.00     0.230 C 
HETATM    5  C8  UNL     1      -1.318  -0.169   0.030  1.00  0.00     0.270 A 
HETATM    6  N6  UNL     1      -1.513  -1.342  -0.772  1.00  0.00    -0.311 N 
ATOM      7  H6  UNL     1      -1.281  -1.281  -1.763  1.00  0.00     0.167 HD
HETATM    8  C9  UNL     1      -1.958  -2.461  -0.333  1.00  0.00     0.194 A 
HETATM    9  N7  UNL     1      -2.125  -3.595  -1.219  1.00  0.00    -0.063 NA
HETATM   10  N8  UNL     1      -2.273  -2.556   1.038  1.00  0.00    -0.299 N 
ATOM     11  H8  UNL     1      -2.631  -3.438   1.405  1.00  0.00     0.171 HD
HETATM   12  C10 UNL     1      -2.122  -1.564   1.836  1.00  0.00     0.237 A 
HETATM   13  N9  UNL     1      -2.474  -1.745   3.238  1.00  0.00    -0.056 NA
HETATM   14  O5  UNL     1      -1.643  -0.374   1.374  1.00  0.00    -0.269 OA
ENDROOT
BRANCH   1  15
HETATM   15  N3  UNL     1       1.086  -0.234   0.728  1.00  0.00    -0.270 N 
HETATM   16  C2  UNL     1       1.911  -1.094   0.218  1.00  0.00     0.227 C 
HETATM   17  N1  UNL     1       2.943  -1.628   1.007  1.00  0.00    -0.238 N 
HETATM   18  N2  UNL     1       1.799  -1.520  -1.140  1.00  0.00    -0.060 NA
ATOM     19  H1  UNL     1       2.870  -1.596   2.024  1.00  0.00     0.197 HD
ATOM     20  H3  UNL     1       1.198   0.046   1.703  1.00  0.00     0.189 HD
BRANCH  17  21
HETATM   21  O1  UNL     1       4.049  -2.192   0.421  1.00  0.00    -0.283 OA
HETATM   22  C1  UNL     1       5.205  -1.557   0.860  1.00  0.00     0.237 C 
ENDBRANCH  17  21
ENDBRANCH   1  15
BRANCH   4  23
HETATM   23  O4  UNL     1      -3.242   0.442  -1.296  1.00  0.00    -0.386 OA
ATOM     24  H4  UNL     1      -3.845   0.005  -0.706  1.00  0.00     0.210 HD
ENDBRANCH   4  23
BRANCH   2  25
HETATM   25  C4  UNL     1       0.794   2.648  -0.430  1.00  0.00     0.142 C 
BRANCH  25  26
HETATM   26  C5  UNL     1       0.121   3.289   0.702  1.00  0.00     0.174 C 
HETATM   27  O2  UNL     1      -0.087   2.597   1.764  1.00  0.00    -0.648 OA
HETATM   28  O3  UNL     1      -0.326   4.596   0.745  1.00  0.00    -0.648 OA
ENDBRANCH  25  26
ENDBRANCH   2  25
BRANCH   3  29
HETATM   29  N5  UNL     1      -1.507   3.036  -1.622  1.00  0.00    -0.070 N 
ATOM     30  H53 UNL     1      -1.420   3.490  -0.713  1.00  0.00     0.274 HD
ATOM     31  H52 UNL     1      -0.786   3.552  -2.126  1.00  0.00     0.274 HD
ATOM     32  H51 UNL     1      -2.429   3.189  -2.029  1.00  0.00     0.274 HD
ENDBRANCH   3  29
TORSDOF 6
