REMARK  8 active torsions:
REMARK  status: ('A' for Active; 'I' for Inactive)
REMARK    1  A    between atoms: S1_2  and  C2_3 
REMARK    2  A    between atoms: C2_3  and  C3_4 
REMARK    3  A    between atoms: C3_4  and  N1_5 
REMARK    4  A    between atoms: C5_12  and  C6_13 
REMARK       I    between atoms: C6_13  and  N4_15 
REMARK    5  A    between atoms: N4_15  and  C7_17 
REMARK    6  A    between atoms: C8_19  and  N5_20 
REMARK    7  A    between atoms: C8_19  and  O3_24 
REMARK    8  A    between atoms: N7_30  and  N8_31 
ROOT
HETATM    1  N1  UNL     1      -3.811   0.382   0.691  1.00  0.00    -0.223 N 
ATOM      2  H1  UNL     1      -4.159   0.340   1.649  1.00  0.00     0.177 HD
HETATM    3  C4  UNL     1      -2.559   0.380   0.468  1.00  0.00     0.709 A 
HETATM    4  N2  UNL     1      -2.061   0.437  -0.853  1.00  0.00    -0.129 N 
ATOM      5  H2  UNL     1      -2.719   0.480  -1.631  1.00  0.00     0.205 HD
HETATM    6  N3  UNL     1      -0.717   0.436  -1.114  1.00  0.00    -0.264 N 
ATOM      7  H3  UNL     1      -0.402   0.478  -2.083  1.00  0.00     0.189 HD
HETATM    8  C5  UNL     1       0.192   0.382  -0.143  1.00  0.00     0.228 A 
HETATM    9  N7  UNL     1      -0.232   0.323   1.201  1.00  0.00    -0.165 N 
HETATM   10  N9  UNL     1      -1.625   0.322   1.522  1.00  0.00    -0.108 N 
ATOM     11  H9  UNL     1      -1.936   0.280   2.492  1.00  0.00     0.208 HD
ENDROOT
BRANCH   8  12
HETATM   12  C6  UNL     1       1.588   0.386  -0.515  1.00  0.00     0.292 C 
HETATM   13  O1  UNL     1       1.794   0.443  -1.795  1.00  0.00    -0.264 OA
HETATM   14  N4  UNL     1       2.707   0.337   0.314  1.00  0.00    -0.320 N 
ATOM     15  H4  UNL     1       2.600   0.291   1.327  1.00  0.00     0.166 HD
BRANCH  14  16
HETATM   16  C7  UNL     1       4.069   0.353  -0.307  1.00  0.00     0.324 C 
HETATM   17  O2  UNL     1       4.689  -0.801   0.095  1.00  0.00    -0.281 OA
HETATM   18  C8  UNL     1       5.985  -0.490   0.474  1.00  0.00     0.427 C 
HETATM   19  N6  UNL     1       6.042   0.903   0.756  1.00  0.00    -0.278 N 
HETATM   20  C9  UNL     1       4.862   1.485   0.224  1.00  0.00     0.272 C 
ATOM     21  H6  UNL     1       6.790   1.392   1.248  1.00  0.00     0.169 HD
HETATM   22  O4  UNL     1       4.559   2.685   0.207  1.00  0.00    -0.268 OA
BRANCH  18  23
HETATM   23  N5  UNL     1       6.873  -0.891  -0.603  1.00  0.00    -0.001 N 
ATOM     24  H53 UNL     1       6.762  -1.871  -0.863  1.00  0.00     0.283 HD
ATOM     25  H52 UNL     1       6.615  -0.482  -1.501  1.00  0.00     0.283 HD
ATOM     26  H51 UNL     1       7.827  -0.662  -0.324  1.00  0.00     0.283 HD
ENDBRANCH  18  23
BRANCH  18  27
HETATM   27  O3  UNL     1       6.335  -1.212   1.605  1.00  0.00    -0.326 OA
ATOM     28  H3  UNL     1       7.224  -0.999   1.865  1.00  0.00     0.216 HD
ENDBRANCH  18  27
ENDBRANCH  14  16
ENDBRANCH   8  12
BRANCH   9  29
HETATM   29  N8  UNL     1       0.633   0.264   2.296  1.00  0.00    -0.322 N 
ATOM     30  H82 UNL     1       1.627   0.265   2.067  1.00  0.00     0.179 HD
ATOM     31  H81 UNL     1       0.326   0.221   3.268  1.00  0.00     0.179 HD
ENDBRANCH   9  29
BRANCH   1  32
HETATM   32  C3  UNL     1      -4.737   0.443  -0.408  1.00  0.00     0.148 C 
BRANCH  32  33
HETATM   33  C2  UNL     1      -6.173   0.551   0.121  1.00  0.00     0.093 C 
BRANCH  33  34
HETATM   34  S1  UNL     1      -7.254   0.620  -1.345  1.00  0.00    -0.172 SA
HETATM   35  C1  UNL     1      -7.217  -0.919  -2.265  1.00  0.00     0.089 C 
ENDBRANCH  33  34
ENDBRANCH  32  33
ENDBRANCH   1  32
TORSDOF 8
