REMARK  5 active torsions:
REMARK  status: ('A' for Active; 'I' for Inactive)
REMARK    1  A    between atoms: C3_4  and  C4_5 
REMARK    2  A    between atoms: C4_5  and  N2_6 
REMARK    3  A    between atoms: C6_11  and  N4_12 
REMARK       I    between atoms: N4_12  and  C7_14 
REMARK       I    between atoms: C7_14  and  N5_15 
REMARK       I    between atoms: C7_14  and  N6_19 
REMARK    4  A    between atoms: C8_25  and  N8_26 
REMARK    5  A    between atoms: N8_26  and  C9_28 
ROOT
HETATM    1  N2  UNL     1       0.102   0.969  -1.220  1.00  0.00    -0.126 N 
HETATM    2  C5  UNL     1      -0.610   2.090  -1.026  1.00  0.00     0.355 A 
HETATM    3  O1  UNL     1      -0.042   3.219  -1.159  1.00  0.00    -0.245 OA
HETATM    4  N3  UNL     1      -1.920   2.051  -0.693  1.00  0.00    -0.140 N 
ATOM      5  H3  UNL     1      -2.426   2.926  -0.555  1.00  0.00     0.189 HD
HETATM    6  C6  UNL     1      -2.567   0.887  -0.540  1.00  0.00     0.699 A 
HETATM    7  N7  UNL     1      -1.842  -0.247  -0.737  1.00  0.00    -0.022 N 
ATOM      8  H7  UNL     1      -2.299  -1.153  -0.630  1.00  0.00     0.203 HD
HETATM    9  C8  UNL     1      -0.537  -0.207  -1.069  1.00  0.00     0.700 A 
ENDROOT
BRANCH   6  10
HETATM   10  N4  UNL     1      -3.815   0.815  -0.223  1.00  0.00    -0.173 N 
HETATM   11  C7  UNL     1      -4.705   1.898   0.015  1.00  0.00     0.494 C 
HETATM   12  N5  UNL     1      -4.304   2.662   1.161  1.00  0.00    -0.032 N 
HETATM   13  N6  UNL     1      -4.912   2.761  -1.133  1.00  0.00    -0.032 N 
ATOM     14  H53 UNL     1      -4.203   2.072   1.987  1.00  0.00     0.278 HD
ATOM     15  H52 UNL     1      -3.339   2.982   1.078  1.00  0.00     0.278 HD
ATOM     16  H51 UNL     1      -4.942   3.439   1.332  1.00  0.00     0.278 HD
ATOM     17  H63 UNL     1      -4.019   3.104  -1.487  1.00  0.00     0.278 HD
ATOM     18  H62 UNL     1      -5.220   2.216  -1.938  1.00  0.00     0.278 HD
ATOM     19  H61 UNL     1      -5.550   3.538  -0.962  1.00  0.00     0.278 HD
ATOM     20  H4  UNL     1      -4.207  -0.122  -0.133  1.00  0.00     0.181 HD
ENDBRANCH   6  10
BRANCH   9  21
HETATM   21  N8  UNL     1       0.108  -1.308  -1.248  1.00  0.00    -0.206 N 
ATOM     22  H8  UNL     1       1.094  -1.239  -1.500  1.00  0.00     0.179 HD
BRANCH  21  23
HETATM   23  C9  UNL     1      -0.448  -2.614  -1.121  1.00  0.00     0.210 C 
HETATM   24  C10 UNL     1      -0.654  -3.058   0.291  1.00  0.00     0.061 C 
HETATM   25  C11 UNL     1      -0.128  -4.477   0.281  1.00  0.00     0.133 C 
HETATM   26  N9  UNL     1       0.917  -4.395  -0.723  1.00  0.00    -0.146 NA
HETATM   27  N10 UNL     1       0.363  -3.636  -1.758  1.00  0.00    -0.122 NA
ENDBRANCH  21  23
ENDBRANCH   9  21
BRANCH   1  28
HETATM   28  C4  UNL     1       1.478   0.997  -1.573  1.00  0.00     0.211 C 
BRANCH  28  29
HETATM   29  C3  UNL     1       2.411   1.008  -0.407  1.00  0.00     0.046 A 
HETATM   30  C2  UNL     1       2.996  -0.053   0.246  1.00  0.00     0.119 A 
HETATM   31  N1  UNL     1       3.769   0.391   1.248  1.00  0.00    -0.334 N 
HETATM   32  C1  UNL     1       4.567  -0.407   2.188  1.00  0.00     0.158 C 
HETATM   33  C12 UNL     1       3.684   1.732   1.241  1.00  0.00     0.194 A 
HETATM   34  N11 UNL     1       2.870   2.113   0.251  1.00  0.00    -0.331 N 
HETATM   35  N12 UNL     1       4.385   2.561   2.182  1.00  0.00    -0.063 NA
ATOM     36  H11 UNL     1       2.630   3.078   0.023  1.00  0.00     0.168 HD
ENDBRANCH  28  29
ENDBRANCH   1  28
TORSDOF 5
