REMARK  1 active torsions:
REMARK  status: ('A' for Active; 'I' for Inactive)
REMARK       I    between atoms: C2_2  and  N1_4 
REMARK    1  A    between atoms: N1_4  and  C3_6 
ROOT
HETATM    1  C3  UNL     1      -1.062   0.691  -0.810  1.00  0.00     0.064 A 
HETATM    2  C4  UNL     1      -1.510   1.910  -1.229  1.00  0.00     0.008 A 
HETATM    3  C5  UNL     1      -2.942   2.396  -1.266  1.00  0.00     0.059 C 
HETATM    4  S1  UNL     1      -0.114   2.754  -1.692  1.00  0.00    -0.084 SA
HETATM    5  C6  UNL     1       1.025   1.536  -1.342  1.00  0.00     0.066 A 
HETATM    6  S2  UNL     1       2.762   1.536  -1.504  1.00  0.00    -0.039 SA
HETATM    7  C7  UNL     1       3.763   0.387  -0.684  1.00  0.00     0.223 C 
HETATM    8  O2  UNL     1       4.988   0.580  -0.791  1.00  0.00    -0.280 OA
HETATM    9  C8  UNL     1       3.235  -0.655   0.028  1.00  0.00     0.038 C 
HETATM   10  C9  UNL     1       4.254  -1.272   0.968  1.00  0.00     0.056 C 
HETATM   11  C10 UNL     1       1.994  -1.212   0.028  1.00  0.00     0.177 C 
HETATM   12  F1  UNL     1       1.950  -2.466   0.638  1.00  0.00    -0.201 F 
HETATM   13  C11 UNL     1       0.817  -0.774  -0.449  1.00  0.00     0.225 C 
HETATM   14  O3  UNL     1      -0.037  -1.738  -0.553  1.00  0.00    -0.284 OA
HETATM   15  C12 UNL     1       0.286   0.467  -0.860  1.00  0.00     0.069 A 
ENDROOT
BRANCH   1  16
HETATM   16  N1  UNL     1      -2.027  -0.310  -0.334  1.00  0.00    -0.326 N 
HETATM   17  C2  UNL     1      -2.376  -0.358   1.024  1.00  0.00     0.218 C 
HETATM   18  C1  UNL     1      -3.342  -1.359   1.505  1.00  0.00     0.117 C 
HETATM   19  O1  UNL     1      -1.862   0.452   1.820  1.00  0.00    -0.274 OA
ATOM     20  H1  UNL     1      -2.443  -0.970  -0.991  1.00  0.00     0.169 HD
ENDBRANCH   1  16
TORSDOF 1
