REMARK  3 active torsions:
REMARK  status: ('A' for Active; 'I' for Inactive)
REMARK    1  A    between atoms: C2_2  and  C5_5 
REMARK    2  A    between atoms: C5_5  and  S1_6 
REMARK    3  A    between atoms: S1_6  and  C6_7 
REMARK       I    between atoms: C6_7  and  N1_9 
ROOT
HETATM    1  C6  UNL     1       0.833   0.782   2.151  1.00  0.00     0.285 C 
HETATM    2  O1  UNL     1       1.375   1.614   2.938  1.00  0.00    -0.260 OA
HETATM    3  N1  UNL     1       1.510  -0.420   1.820  1.00  0.00    -0.302 N 
ATOM      4  H1  UNL     1       1.221  -1.304   2.238  1.00  0.00     0.171 HD
HETATM    5  C7  UNL     1       2.476  -0.387   1.001  1.00  0.00     0.134 A 
HETATM    6  N2  UNL     1       2.851   0.778   0.455  1.00  0.00    -0.318 N 
ATOM      7  H2  UNL     1       2.349   1.629   0.709  1.00  0.00     0.169 HD
HETATM    8  C8  UNL     1       3.872   0.857  -0.419  1.00  0.00     0.189 A 
HETATM    9  C9  UNL     1       4.286   2.099  -1.012  1.00  0.00     0.137 C 
HETATM   10  N3  UNL     1       4.628   3.099  -1.491  1.00  0.00    -0.188 NA
HETATM   11  N4  UNL     1       4.509  -0.279  -0.729  1.00  0.00    -0.342 N 
ATOM     12  H4  UNL     1       5.285  -0.235  -1.389  1.00  0.00     0.167 HD
HETATM   13  C10 UNL     1       4.176  -1.473  -0.213  1.00  0.00     0.118 A 
HETATM   14  C11 UNL     1       3.134  -1.556   0.679  1.00  0.00     0.093 A 
HETATM   15 CL1  UNL     1       2.640  -3.087   1.397  1.00  0.00    -0.079 Cl
ENDROOT
BRANCH   1  16
HETATM   16  S1  UNL     1      -0.773   1.072   1.435  1.00  0.00    -0.068 SA
BRANCH  16  17
HETATM   17  C5  UNL     1      -1.225  -0.319   0.369  1.00  0.00     0.092 C 
BRANCH  17  18
HETATM   18  C2  UNL     1      -2.580  -0.122  -0.263  1.00  0.00    -0.042 C 
HETATM   19  C1  UNL     1      -3.596   0.003   0.863  1.00  0.00     0.015 C 
HETATM   20  C3  UNL     1      -2.896  -1.275  -1.170  1.00  0.00     0.015 C 
HETATM   21  C4  UNL     1      -2.556   1.177  -1.033  1.00  0.00     0.015 C 
ENDBRANCH  17  18
ENDBRANCH  16  17
ENDBRANCH   1  16
TORSDOF 3
