REMARK  3 active torsions:
REMARK  status: ('A' for Active; 'I' for Inactive)
REMARK    1  A    between atoms: O1_2  and  C2_3 
REMARK       I    between atoms: C2_3  and  N1_5 
REMARK    2  A    between atoms: N1_5  and  C3_7 
REMARK    3  A    between atoms: C4_10  and  C5_11 
ROOT
HETATM    1  C3  UNL     1       1.315   0.269   0.182  1.00  0.00     0.682 C 
HETATM    2  N2  UNL     1       0.113   0.683   0.195  1.00  0.00    -0.215 N 
ATOM      3  H2  UNL     1      -0.104   1.523  -0.341  1.00  0.00     0.178 HD
HETATM    4  C4  UNL     1      -0.938   0.067   0.894  1.00  0.00     0.157 C 
HETATM    5  C11 UNL     1      -0.642  -1.248   1.492  1.00  0.00     0.159 C 
HETATM    6  C12 UNL     1      -1.195  -1.374   2.860  1.00  0.00     0.071 C 
HETATM    7  N3  UNL     1      -1.638  -1.479   3.921  1.00  0.00    -0.196 NA
HETATM    8  C13 UNL     1       0.762  -1.638   1.445  1.00  0.00     0.100 C 
HETATM    9  N4  UNL     1       1.656  -0.964   0.854  1.00  0.00    -0.204 N 
ATOM     10  H4  UNL     1       2.622  -1.293   0.852  1.00  0.00     0.183 HD
ENDROOT
BRANCH   4  11
HETATM   11  C5  UNL     1      -2.246   0.153   0.171  1.00  0.00    -0.012 A 
HETATM   12  C6  UNL     1      -3.181  -0.819   0.334  1.00  0.00     0.011 A 
HETATM   13  C7  UNL     1      -4.428  -0.771  -0.307  1.00  0.00     0.001 A 
HETATM   14  C8  UNL     1      -4.677   0.310  -1.119  1.00  0.00     0.002 A 
HETATM   15  C9  UNL     1      -3.716   1.299  -1.280  1.00  0.00     0.024 A 
HETATM   16  C10 UNL     1      -2.503   1.250  -0.656  1.00  0.00     0.042 A 
HETATM   17 CL1  UNL     1      -1.258   2.472  -0.829  1.00  0.00    -0.084 Cl
ENDBRANCH   4  11
BRANCH   1  18
HETATM   18  N1  UNL     1       2.335   0.942  -0.539  1.00  0.00    -0.135 N 
HETATM   19  C2  UNL     1       3.656   0.455  -0.530  1.00  0.00     0.378 C 
HETATM   20  O2  UNL     1       4.000  -0.584   0.103  1.00  0.00    -0.238 OA
ATOM     21  H1  UNL     1       2.110   1.785  -1.068  1.00  0.00     0.189 HD
BRANCH  19  22
HETATM   22  O1  UNL     1       4.617   1.151  -1.251  1.00  0.00    -0.308 OA
HETATM   23  C1  UNL     1       5.956   0.728  -1.290  1.00  0.00     0.215 C 
ENDBRANCH  19  22
ENDBRANCH   1  18
TORSDOF 3
