REMARK  3 active torsions:
REMARK  status: ('A' for Active; 'I' for Inactive)
REMARK    1  A    between atoms: N1_1  and  N2_4 
REMARK    2  A    between atoms: N2_4  and  N3_5 
REMARK    3  A    between atoms: N3_5  and  C1_7 
ROOT
HETATM    1  C1  UNL     1      -1.296   0.612  -0.299  1.00  0.00     0.087 A 
HETATM    2  C2  UNL     1      -2.317  -0.288  -0.071  1.00  0.00     0.035 A 
HETATM    3  C3  UNL     1      -2.111  -1.631   0.074  1.00  0.00     0.028 A 
HETATM    4  C4  UNL     1      -0.846  -2.156  -0.004  1.00  0.00     0.053 A 
HETATM    5 CL1  UNL     1      -0.563  -3.886   0.181  1.00  0.00    -0.083 Cl
HETATM    6  C5  UNL     1       0.207  -1.283  -0.232  1.00  0.00     0.057 A 
HETATM    7  C6  UNL     1      -0.015   0.065  -0.375  1.00  0.00     0.127 A 
HETATM    8  S1  UNL     1       1.310   1.128  -0.659  1.00  0.00     0.269 S 
HETATM    9  O1  UNL     1       0.938   2.564  -0.403  1.00  0.00    -0.200 OA
HETATM   10  O2  UNL     1       1.761   0.957  -2.093  1.00  0.00    -0.200 OA
HETATM   11  N4  UNL     1       2.640   0.638   0.331  1.00  0.00    -0.240 N 
ATOM     12  H4  UNL     1       3.157   1.306   0.903  1.00  0.00     0.182 HD
HETATM   13  C7  UNL     1       2.975  -0.741   0.307  1.00  0.00     0.298 C 
HETATM   14  O3  UNL     1       4.087  -1.113   0.747  1.00  0.00    -0.259 OA
HETATM   15  S2  UNL     1       1.867  -1.986  -0.331  1.00  0.00    -0.025 SA
ENDROOT
BRANCH   1  16
HETATM   16  N3  UNL     1      -1.525   2.012  -0.448  1.00  0.00    -0.215 N 
ATOM     17  H3  UNL     1      -1.370   2.492  -1.335  1.00  0.00     0.204 HD
BRANCH  16  18
HETATM   18  N2  UNL     1      -1.926   2.618   0.569  1.00  0.00    -0.243 NA
BRANCH  18  19
HETATM   19  N1  UNL     1      -2.088   3.347   1.554  1.00  0.00    -0.260 N 
ATOM     20  H12 UNL     1      -1.181   3.787   1.401  1.00  0.00     0.193 HD
ATOM     21  H11 UNL     1      -2.415   3.842   2.384  1.00  0.00     0.193 HD
ENDBRANCH  18  19
ENDBRANCH  16  18
ENDBRANCH   1  16
TORSDOF 3
