REMARK  2 active torsions:
REMARK  status: ('A' for Active; 'I' for Inactive)
REMARK    1  A    between atoms: C5_6  and  N2_7 
REMARK    2  A    between atoms: C8_14  and  C9_15 
ROOT
HETATM    1  C1  UNL     1      -2.626   2.090   0.351  1.00  0.00     0.012 C 
HETATM    2  C2  UNL     1      -1.922   0.782   0.470  1.00  0.00     0.019 C 
HETATM    3  C3  UNL     1      -2.228  -0.052  -0.785  1.00  0.00     0.129 C 
HETATM    4  C4  UNL     1      -3.691  -0.219  -0.791  1.00  0.00     0.066 C 
HETATM    5  N1  UNL     1      -4.844  -0.365  -0.784  1.00  0.00    -0.197 NA
HETATM    6  C5  UNL     1      -1.628  -1.396  -0.499  1.00  0.00     0.219 C 
HETATM    7  C6  UNL     1      -0.157  -1.395  -0.304  1.00  0.00     0.134 C 
HETATM    8  C7  UNL     1       0.186  -2.706   0.261  1.00  0.00     0.067 C 
HETATM    9  N3  UNL     1       0.472  -3.754   0.702  1.00  0.00    -0.197 NA
HETATM   10  C8  UNL     1       0.360  -0.270   0.557  1.00  0.00     0.056 C 
HETATM   11  C15 UNL     1      -0.426   1.009   0.384  1.00  0.00     0.107 C 
HETATM   12  C16 UNL     1      -0.080   1.892   1.511  1.00  0.00     0.065 C 
HETATM   13  N4  UNL     1       0.188   2.593   2.393  1.00  0.00    -0.197 NA
ENDROOT
BRANCH   6  14
HETATM   14  N2  UNL     1      -1.972  -2.387  -1.490  1.00  0.00    -0.072 N 
ATOM     15  H23 UNL     1      -2.984  -2.455  -1.601  1.00  0.00     0.274 HD
ATOM     16  H22 UNL     1      -1.723  -2.068  -2.426  1.00  0.00     0.274 HD
ATOM     17  H21 UNL     1      -1.564  -3.301  -1.295  1.00  0.00     0.274 HD
ENDBRANCH   6  14
BRANCH  10  18
HETATM   18  C9  UNL     1       1.778   0.012   0.365  1.00  0.00    -0.051 A 
HETATM   19  C10 UNL     1       2.286   0.430  -0.848  1.00  0.00     0.009 A 
HETATM   20  C11 UNL     1       3.651   0.694  -1.007  1.00  0.00     0.024 A 
HETATM   21  C12 UNL     1       4.530   0.545   0.045  1.00  0.00     0.034 A 
HETATM   22 CL1  UNL     1       6.254   0.886  -0.178  1.00  0.00    -0.084 Cl
HETATM   23  C13 UNL     1       4.028   0.132   1.248  1.00  0.00     0.024 A 
HETATM   24  C14 UNL     1       2.680  -0.128   1.398  1.00  0.00     0.009 A 
ENDBRANCH  10  18
TORSDOF 2
