REMARK  4 active torsions:
REMARK  status: ('A' for Active; 'I' for Inactive)
REMARK    1  A    between atoms: C2_2  and  O1_3 
REMARK    2  A    between atoms: O1_3  and  C3_4 
REMARK       I    between atoms: C3_4  and  N1_6 
REMARK    3  A    between atoms: N1_6  and  C4_8 
REMARK    4  A    between atoms: C5_13  and  S1_14 
ROOT
HETATM    1  C4  UNL     1       0.266  -0.173  -1.251  1.00  0.00     0.170 A 
HETATM    2  N2  UNL     1       1.388   0.003  -1.958  1.00  0.00    -0.278 N 
ATOM      3  H2  UNL     1       1.362   0.021  -2.978  1.00  0.00     0.189 HD
HETATM    4  N3  UNL     1       2.485   0.147  -1.337  1.00  0.00    -0.286 N 
ATOM      5  H3  UNL     1       3.349   0.282  -1.862  1.00  0.00     0.188 HD
HETATM    6  C5  UNL     1       2.517   0.123  -0.016  1.00  0.00     0.129 A 
HETATM    7  S2  UNL     1       0.872  -0.121   0.356  1.00  0.00    -0.026 SA
ENDROOT
BRANCH   1   8
HETATM    8  N1  UNL     1      -0.952  -0.338  -1.702  1.00  0.00    -0.281 N 
HETATM    9  C3  UNL     1      -1.958  -0.504  -0.701  1.00  0.00     0.366 C 
HETATM   10  O2  UNL     1      -1.759  -1.258   0.295  1.00  0.00    -0.238 OA
ATOM     11  H1  UNL     1      -1.168  -0.347  -2.699  1.00  0.00     0.173 HD
BRANCH   9  12
HETATM   12  O1  UNL     1      -3.176   0.137  -0.763  1.00  0.00    -0.304 OA
BRANCH  12  13
HETATM   13  C2  UNL     1      -4.146  -0.064   0.265  1.00  0.00     0.176 C 
HETATM   14  C1  UNL     1      -3.607   0.367   1.612  1.00  0.00     0.034 C 
ENDBRANCH  12  13
ENDBRANCH   9  12
ENDBRANCH   1   8
BRANCH   6  15
HETATM   15  S1  UNL     1       3.859   0.289   1.154  1.00  0.00    -0.108 SA
HETATM   16  C6  UNL     1       5.422   0.531   0.328  1.00  0.00     0.097 C 
ENDBRANCH   6  15
TORSDOF 4
