REMARK  3 active torsions:
REMARK  status: ('A' for Active; 'I' for Inactive)
REMARK    1  A    between atoms: C2_2  and  N1_3 
REMARK    2  A    between atoms: C3_6  and  N3_7 
REMARK       I    between atoms: N3_7  and  C4_9 
REMARK    3  A    between atoms: C4_9  and  O2_11 
ROOT
HETATM    1  N1  UNL     1      -1.597   0.349   0.492  1.00  0.00    -0.274 N 
HETATM    2  N2  UNL     1      -0.839  -0.686   0.538  1.00  0.00    -0.276 N 
ATOM      3  H2  UNL     1      -1.241  -1.621   0.609  1.00  0.00     0.189 HD
HETATM    4  C3  UNL     1       0.481  -0.517   0.492  1.00  0.00     0.170 A 
HETATM    5  S1  UNL     1       0.629   1.179   0.379  1.00  0.00    -0.021 SA
HETATM    6  C6  UNL     1      -1.035   1.554   0.400  1.00  0.00     0.163 A 
HETATM    7  S2  UNL     1      -1.746   3.033   0.324  1.00  0.00    -0.051 SA
ENDROOT
BRANCH   4   8
HETATM    8  N3  UNL     1       1.419  -1.439   0.526  1.00  0.00    -0.281 N 
HETATM    9  C4  UNL     1       2.780  -1.027   0.463  1.00  0.00     0.366 C 
HETATM   10  O1  UNL     1       3.524  -1.135   1.445  1.00  0.00    -0.238 OA
ATOM     11  H3  UNL     1       1.176  -2.427   0.596  1.00  0.00     0.173 HD
BRANCH   9  12
HETATM   12  O2  UNL     1       3.261  -0.502  -0.719  1.00  0.00    -0.309 OA
HETATM   13  C5  UNL     1       4.620  -0.090  -0.784  1.00  0.00     0.215 C 
ENDBRANCH   9  12
ENDBRANCH   4   8
BRANCH   1  14
HETATM   14  C2  UNL     1      -3.084   0.239   0.541  1.00  0.00     0.146 C 
HETATM   15  C1  UNL     1      -3.671   0.116  -0.826  1.00  0.00     0.028 C 
ENDBRANCH   1  14
TORSDOF 3
