REMARK  1 active torsions:
REMARK  status: ('A' for Active; 'I' for Inactive)
REMARK    1  A    between atoms: C4_4  and  N1_5 
ROOT
HETATM    1  C1  UNL     1      -1.513  -0.019  -1.019  1.00  0.00     0.023 C 
HETATM    2  C2  UNL     1      -0.758  -0.186   0.271  1.00  0.00     0.022 C 
HETATM    3  C3  UNL     1      -1.770  -0.412   1.377  1.00  0.00     0.023 C 
HETATM    4  C4  UNL     1       0.198  -1.315   0.159  1.00  0.00     0.088 C 
HETATM    5  C5  UNL     1       1.289  -1.110  -0.561  1.00  0.00     0.030 C 
HETATM    6  C6  UNL     1       1.584   0.174  -1.245  1.00  0.00     0.164 C 
HETATM    7  C7  UNL     1       3.043   0.257  -1.420  1.00  0.00     0.073 C 
HETATM    8  N2  UNL     1       4.194   0.335  -1.545  1.00  0.00    -0.196 NA
HETATM    9  C8  UNL     1       1.139   1.278  -0.316  1.00  0.00     0.020 C 
HETATM   10  N3  UNL     1       1.709   2.407  -0.351  1.00  0.00    -0.403 N 
ATOM     11  H31 UNL     1       1.408   3.153   0.277  1.00  0.00     0.155 HD
ATOM     12  H32 UNL     1       2.470   2.561  -1.013  1.00  0.00     0.155 HD
HETATM   13  C9  UNL     1       0.030   1.054   0.649  1.00  0.00     0.153 C 
HETATM   14  C10 UNL     1      -0.902   2.197   0.567  1.00  0.00     0.071 C 
HETATM   15  N4  UNL     1      -1.627   3.099   0.487  1.00  0.00    -0.196 NA
ENDROOT
BRANCH   4  16
HETATM   16  N1  UNL     1      -0.040  -2.569   0.799  1.00  0.00    -0.119 N 
HETATM   17  O1  UNL     1      -0.890  -3.331   0.303  1.00  0.00    -0.532 OA
HETATM   18  O2  UNL     1       0.606  -2.996   1.930  1.00  0.00    -0.532 OA
ENDBRANCH   4  16
TORSDOF 1
