REMARK  5 active torsions:
REMARK  status: ('A' for Active; 'I' for Inactive)
REMARK    1  A    between atoms: C2_2  and  O1_4 
REMARK    2  A    between atoms: O1_4  and  C4_5 
REMARK    3  A    between atoms: C4_5  and  N1_6 
REMARK    4  A    between atoms: C4_5  and  N3_10 
REMARK    5  A    between atoms: N3_10  and  C6_12 
ROOT
HETATM    1  N1  UNL     1      -0.187  -0.773  -1.087  1.00  0.00    -0.259 N 
ATOM      2  H1  UNL     1      -0.909  -1.461  -0.873  1.00  0.00     0.181 HD
HETATM    3  C5  UNL     1       0.591  -0.964  -2.236  1.00  0.00     0.185 C 
HETATM    4  N2  UNL     1       1.250  -1.110  -3.189  1.00  0.00    -0.172 NA
ENDROOT
BRANCH   1   5
HETATM    5  C4  UNL     1      -0.040   0.220  -0.291  1.00  0.00     0.234 C 
BRANCH   5   6
HETATM    6  O1  UNL     1      -0.903   0.229   0.784  1.00  0.00    -0.317 OA
BRANCH   6   7
HETATM    7  C2  UNL     1      -2.199  -0.244   0.792  1.00  0.00     0.123 C 
HETATM    8  C1  UNL     1      -3.000   0.532  -0.240  1.00  0.00     0.040 C 
HETATM    9  C3  UNL     1      -2.404  -1.689   0.554  1.00  0.00     0.040 C 
ENDBRANCH   6   7
ENDBRANCH   5   6
BRANCH   5  10
HETATM   10  N3  UNL     1       0.921   1.251  -0.466  1.00  0.00    -0.300 N 
ATOM     11  H3  UNL     1       0.634   2.171  -0.800  1.00  0.00     0.171 HD
BRANCH  10  12
HETATM   12  C6  UNL     1       2.185   1.009  -0.194  1.00  0.00     0.167 A 
HETATM   13  N4  UNL     1       3.218   1.849  -0.298  1.00  0.00    -0.279 N 
HETATM   14  N5  UNL     1       4.372   1.435   0.011  1.00  0.00    -0.303 N 
ATOM     15  H4  UNL     1       3.079   2.807  -0.621  1.00  0.00     0.189 HD
HETATM   16  C7  UNL     1       4.554   0.191   0.429  1.00  0.00     0.160 A 
ATOM     17  H5  UNL     1       5.171   2.065  -0.062  1.00  0.00     0.186 HD
HETATM   18  S1  UNL     1       2.955  -0.412   0.371  1.00  0.00    -0.046 SA
ENDBRANCH  10  12
ENDBRANCH   5  10
ENDBRANCH   1   5
TORSDOF 5
