REMARK  4 active torsions:
REMARK  status: ('A' for Active; 'I' for Inactive)
REMARK    1  A    between atoms: C2_4  and  N2_6 
REMARK    2  A    between atoms: N2_6  and  C3_8 
REMARK    3  A    between atoms: C3_8  and  N3_10 
REMARK    4  A    between atoms: N4_13  and  C6_14 
ROOT
HETATM    1  N3  UNL     1      -0.727   0.791  -0.024  1.00  0.00    -0.355 N 
HETATM    2  C4  UNL     1       0.195   1.801  -0.427  1.00  0.00     0.145 C 
HETATM    3  C5  UNL     1       1.636   1.489  -0.111  1.00  0.00     0.145 C 
HETATM    4  N4  UNL     1       1.950   0.102  -0.214  1.00  0.00    -0.358 N 
HETATM    5  C9  UNL     1       0.992  -0.953  -0.360  1.00  0.00     0.145 C 
HETATM    6  C10 UNL     1      -0.364  -0.613   0.154  1.00  0.00     0.145 C 
ENDROOT
BRANCH   1   7
HETATM    7  C3  UNL     1      -2.077   1.135   0.224  1.00  0.00     0.176 C 
HETATM    8  S1  UNL     1      -2.534   2.689   0.039  1.00  0.00    -0.041 SA
BRANCH   7   9
HETATM    9  N2  UNL     1      -3.053   0.177   0.629  1.00  0.00    -0.310 N 
ATOM     10  H2  UNL     1      -2.771  -0.796   0.746  1.00  0.00     0.170 HD
BRANCH   9  11
HETATM   11  C2  UNL     1      -4.388   0.531   0.872  1.00  0.00     0.176 C 
HETATM   12  N1  UNL     1      -5.397  -0.257   0.611  1.00  0.00    -0.371 N 
HETATM   13  C1  UNL     1      -5.081  -1.567   0.038  1.00  0.00     0.148 C 
ATOM     14  H1  UNL     1      -6.359   0.027   0.797  1.00  0.00     0.161 HD
HETATM   15 CL1  UNL     1      -4.830   2.099   1.562  1.00  0.00    -0.045 Cl
ENDBRANCH   9  11
ENDBRANCH   7   9
ENDBRANCH   1   7
BRANCH   4  16
HETATM   16  C6  UNL     1       3.344  -0.273  -0.169  1.00  0.00     0.146 A 
HETATM   17  N5  UNL     1       4.408   0.506  -0.042  1.00  0.00    -0.346 N 
HETATM   18  C7  UNL     1       5.591  -0.017  -0.021  1.00  0.00     0.097 A 
ATOM     19  H5  UNL     1       4.295   1.516   0.039  1.00  0.00     0.167 HD
HETATM   20  C8  UNL     1       5.686  -1.383  -0.135  1.00  0.00     0.070 A 
HETATM   21  S2  UNL     1       4.041  -1.829  -0.267  1.00  0.00    -0.065 SA
ENDBRANCH   4  16
TORSDOF 4
