REMARK  5 active torsions:
REMARK  status: ('A' for Active; 'I' for Inactive)
REMARK    1  A    between atoms: C1_2  and  N1_3 
REMARK    2  A    between atoms: C1_2  and  S2_12 
REMARK    3  A    between atoms: N1_3  and  C2_5 
REMARK    4  A    between atoms: S2_12  and  C4_13 
REMARK    5  A    between atoms: C8_17  and  C9_18 
ROOT
HETATM    1  C9  UNL     1       4.934   0.013   0.248  1.00  0.00    -0.032 C 
HETATM    2  C10 UNL     1       6.110   0.217   0.412  1.00  0.00     0.011 C 
HETATM    3 CL1  UNL     1       7.805   0.522   0.665  1.00  0.00    -0.023 Cl
ENDROOT
BRANCH   1   4
HETATM    4  C8  UNL     1       3.522  -0.252   0.063  1.00  0.00     0.088 A 
HETATM    5  C7  UNL     1       3.087  -1.293  -0.730  1.00  0.00     0.039 A 
HETATM    6  C6  UNL     1       1.753  -1.557  -0.916  1.00  0.00     0.006 A 
HETATM    7  C5  UNL     1       0.789  -0.760  -0.293  1.00  0.00     0.037 A 
HETATM    8  C4  UNL     1       1.231   0.269   0.491  1.00  0.00     0.077 A 
HETATM    9  N4  UNL     1       2.584   0.488   0.641  1.00  0.00    -0.344 N 
ATOM     10  H4  UNL     1       2.882   1.265   1.231  1.00  0.00     0.167 HD
BRANCH   8  11
HETATM   11  S2  UNL     1       0.178   1.383   1.357  1.00  0.00    -0.042 SA
BRANCH  11  12
HETATM   12  C1  UNL     1      -1.523   1.163   1.210  1.00  0.00     0.160 C 
HETATM   13  S1  UNL     1      -2.561   2.194   2.012  1.00  0.00    -0.052 SA
BRANCH  12  14
HETATM   14  N1  UNL     1      -2.151   0.171   0.457  1.00  0.00    -0.173 N 
ATOM     15  H1  UNL     1      -1.688  -0.736   0.394  1.00  0.00     0.185 HD
BRANCH  14  16
HETATM   16  C2  UNL     1      -3.271   0.312  -0.165  1.00  0.00     0.705 A 
HETATM   17  N2  UNL     1      -3.985   1.435  -0.172  1.00  0.00    -0.178 N 
HETATM   18  C3  UNL     1      -5.090   1.198  -0.928  1.00  0.00     0.276 A 
ATOM     19  H2  UNL     1      -3.748   2.308   0.300  1.00  0.00     0.185 HD
HETATM   20  O1  UNL     1      -5.000  -0.032  -1.337  1.00  0.00    -0.218 OA
HETATM   21  N3  UNL     1      -3.909  -0.598  -0.893  1.00  0.00    -0.090 N 
ATOM     22  H3  UNL     1      -3.605  -1.555  -1.071  1.00  0.00     0.213 HD
ENDBRANCH  14  16
ENDBRANCH  12  14
ENDBRANCH  11  12
ENDBRANCH   8  11
ENDBRANCH   1   4
TORSDOF 5
