REMARK  1 active torsions:
REMARK  status: ('A' for Active; 'I' for Inactive)
REMARK    1  A    between atoms: C5_11  and  N4_12 
ROOT
HETATM    1  N1  UNL     1       2.584   2.870   1.222  1.00  0.00    -0.191 NA
HETATM    2  C1  UNL     1       3.066   1.878   0.864  1.00  0.00     0.106 C 
HETATM    3  C2  UNL     1       3.686   0.643   0.437  1.00  0.00     0.127 A 
HETATM    4  C3  UNL     1       5.055   0.493   0.400  1.00  0.00     0.129 A 
HETATM    5 CL1  UNL     1       6.032   1.861   0.884  1.00  0.00    -0.063 Cl
HETATM    6  N2  UNL     1       5.673  -0.633   0.016  1.00  0.00    -0.342 N 
ATOM      7  H2  UNL     1       6.691  -0.688   0.007  1.00  0.00     0.167 HD
HETATM    8  C4  UNL     1       4.931  -1.687  -0.357  1.00  0.00     0.183 A 
HETATM    9  N3  UNL     1       3.598  -1.559  -0.327  1.00  0.00    -0.337 N 
ATOM     10  H3  UNL     1       3.045  -2.367  -0.614  1.00  0.00     0.168 HD
HETATM   11  C5  UNL     1       2.926  -0.456   0.049  1.00  0.00     0.128 A 
ENDROOT
BRANCH  11  12
HETATM   12  N4  UNL     1       1.511  -0.387   0.053  1.00  0.00    -0.366 N 
HETATM   13  C6  UNL     1       0.711   0.508  -0.747  1.00  0.00     0.127 C 
HETATM   14  C7  UNL     1      -0.474   0.894   0.153  1.00  0.00     0.059 C 
HETATM   15  C8  UNL     1      -1.394  -0.295   0.152  1.00  0.00     0.129 C 
HETATM   16  C9  UNL     1      -2.316  -0.326   1.343  1.00  0.00     0.039 C 
HETATM   17  N5  UNL     1      -2.102  -0.290  -1.103  1.00  0.00    -0.066 N 
HETATM   18  C13 UNL     1      -0.547  -1.548   0.209  1.00  0.00     0.059 C 
HETATM   19  C10 UNL     1      -3.742  -0.058   0.898  1.00  0.00     0.004 C 
HETATM   20  C11 UNL     1      -3.703   1.190   0.043  1.00  0.00     0.027 C 
HETATM   21  C12 UNL     1      -3.005   0.818  -1.249  1.00  0.00     0.233 C 
ATOM     22  H52 UNL     1      -1.449  -0.329  -1.886  1.00  0.00     0.278 HD
ATOM     23  H51 UNL     1      -2.590  -1.174  -1.245  1.00  0.00     0.278 HD
HETATM   24  C14 UNL     1       0.764  -1.272   0.918  1.00  0.00     0.127 C 
ENDBRANCH  11  12
TORSDOF 1
