REMARK  7 active torsions:
REMARK  status: ('A' for Active; 'I' for Inactive)
REMARK    1  A    between atoms: N1_1  and  C1_5 
REMARK    2  A    between atoms: C1_5  and  C2_6 
REMARK    3  A    between atoms: C3_10  and  O1_11 
REMARK    4  A    between atoms: C4_13  and  N3_14 
REMARK    5  A    between atoms: C6_16  and  O2_17 
REMARK    6  A    between atoms: C6_16  and  N4_19 
REMARK    7  A    between atoms: N4_19  and  C7_21 
ROOT
HETATM    1  N3  UNL     1      -0.499  -1.618   1.026  1.00  0.00    -0.247 N 
HETATM    2  C5  UNL     1       0.673  -0.919   1.220  1.00  0.00     0.181 A 
HETATM    3  C6  UNL     1       0.784   0.513   1.364  1.00  0.00     0.202 C 
HETATM    4  N8  UNL     1       1.626  -1.870   1.353  1.00  0.00    -0.278 N 
ATOM      5  H8  UNL     1       2.617  -1.688   1.510  1.00  0.00     0.189 HD
HETATM    6  N9  UNL     1       1.088  -3.056   1.250  1.00  0.00    -0.249 N 
ATOM      7  H9  UNL     1       1.590  -3.942   1.314  1.00  0.00     0.192 HD
HETATM    8  C10 UNL     1      -0.256  -2.918   1.043  1.00  0.00     0.345 A 
HETATM    9  O5  UNL     1      -1.067  -3.885   0.902  1.00  0.00    -0.245 OA
ENDROOT
BRANCH   1  10
HETATM   10  C4  UNL     1      -1.763  -0.954   0.822  1.00  0.00     0.293 C 
HETATM   11  C3  UNL     1      -2.877  -1.859   0.351  1.00  0.00     0.371 C 
HETATM   12  N2  UNL     1      -3.796  -0.851  -0.230  1.00  0.00    -0.017 N 
HETATM   13  C2  UNL     1      -3.011   0.353  -0.350  1.00  0.00     0.351 C 
ATOM     14  H22 UNL     1      -4.660  -0.728   0.298  1.00  0.00     0.283 HD
ATOM     15  H21 UNL     1      -4.232  -1.147  -1.103  1.00  0.00     0.283 HD
HETATM   16  O6  UNL     1      -1.678   0.029  -0.198  1.00  0.00    -0.327 OA
BRANCH  11  17
HETATM   17  O1  UNL     1      -3.524  -2.530   1.381  1.00  0.00    -0.366 OA
ATOM     18  H1  UNL     1      -2.935  -3.176   1.753  1.00  0.00     0.212 HD
ENDBRANCH  11  17
BRANCH  13  19
HETATM   19  C1  UNL     1      -3.266   0.929  -1.722  1.00  0.00     0.290 C 
BRANCH  19  20
HETATM   20  N1  UNL     1      -2.493   2.119  -1.932  1.00  0.00    -0.075 N 
ATOM     21  H13 UNL     1      -2.657   2.808  -1.198  1.00  0.00     0.274 HD
ATOM     22  H12 UNL     1      -1.499   1.955  -1.772  1.00  0.00     0.274 HD
ATOM     23  H11 UNL     1      -2.665   2.508  -2.859  1.00  0.00     0.274 HD
ENDBRANCH  19  20
ENDBRANCH  13  19
ENDBRANCH   1  10
BRANCH   3  24
HETATM   24  O2  UNL     1      -0.250   1.025   2.013  1.00  0.00    -0.343 OA
ATOM     25  H2  UNL     1      -0.177   1.967   2.108  1.00  0.00     0.219 HD
ENDBRANCH   3  24
BRANCH   3  26
HETATM   26  N4  UNL     1       1.737   1.436   0.971  1.00  0.00    -0.166 N 
ATOM     27  H4  UNL     1       1.555   2.367   1.346  1.00  0.00     0.186 HD
BRANCH  26  28
HETATM   28  C7  UNL     1       2.890   1.395   0.182  1.00  0.00     0.692 A 
HETATM   29  N5  UNL     1       3.580   2.589   0.087  1.00  0.00    -0.141 N 
HETATM   30  C8  UNL     1       4.678   2.716  -0.662  1.00  0.00     0.342 A 
ATOM     31  H5  UNL     1       3.240   3.399   0.606  1.00  0.00     0.189 HD
HETATM   32  O3  UNL     1       5.287   3.816  -0.731  1.00  0.00    -0.246 OA
HETATM   33  N6  UNL     1       5.163   1.679  -1.361  1.00  0.00    -0.260 N 
HETATM   34  C9  UNL     1       4.532   0.514  -1.299  1.00  0.00     0.342 A 
ATOM     35  H6  UNL     1       6.003   1.785  -1.930  1.00  0.00     0.175 HD
HETATM   36  O4  UNL     1       4.944  -0.491  -1.935  1.00  0.00    -0.246 OA
HETATM   37  N7  UNL     1       3.407   0.413  -0.523  1.00  0.00    -0.141 N 
ATOM     38  H7  UNL     1       2.936  -0.491  -0.490  1.00  0.00     0.189 HD
ENDBRANCH  26  28
ENDBRANCH   3  26
TORSDOF 7
