REMARK  8 active torsions:
REMARK  status: ('A' for Active; 'I' for Inactive)
REMARK    1  A    between atoms: N1_1  and  C1_4 
REMARK    2  A    between atoms: C4_15  and  C5_16 
REMARK    3  A    between atoms: N7_17  and  N8_19 
REMARK    4  A    between atoms: N8_19  and  N9_20 
REMARK       I    between atoms: N8_19  and  C8_33 
REMARK    5  A    between atoms: C6_22  and  C7_24 
REMARK    6  A    between atoms: C7_24  and  N11_25 
REMARK    7  A    between atoms: C7_24  and  N12_29 
REMARK    8  A    between atoms: N14_35  and  N15_37 
ROOT
HETATM    1  N8  UNL     1      -1.838  -0.128  -0.450  1.00  0.00    -0.163 N 
HETATM    2  C8  UNL     1      -1.720  -1.563  -0.351  1.00  0.00     0.244 C 
HETATM    3  N13 UNL     1      -1.717  -2.242   0.891  1.00  0.00    -0.059 NA
HETATM    4  N14 UNL     1      -1.627  -2.228  -1.449  1.00  0.00    -0.277 N 
ATOM      5  H14 UNL     1      -1.642  -1.719  -2.333  1.00  0.00     0.189 HD
ENDROOT
BRANCH   1   6
HETATM    6  N7  UNL     1      -1.482   0.751   0.485  1.00  0.00    -0.286 N 
HETATM    7  C5  UNL     1      -0.436   1.101   1.020  1.00  0.00     0.140 C 
ATOM      8  H7  UNL     1      -2.285   1.264   0.849  1.00  0.00     0.188 HD
BRANCH   7   9
HETATM    9  C4  UNL     1       0.893   0.599   0.758  1.00  0.00     0.068 A 
HETATM   10  N6  UNL     1       1.188  -0.283  -0.183  1.00  0.00    -0.283 N 
HETATM   11  N5  UNL     1       2.431  -0.739  -0.367  1.00  0.00    -0.221 N 
ATOM     12  H6  UNL     1       0.442  -0.626  -0.788  1.00  0.00     0.188 HD
HETATM   13  N4  UNL     1       3.472  -0.369   0.349  1.00  0.00    -0.180 N 
ATOM     14  H5  UNL     1       2.583  -1.419  -1.112  1.00  0.00     0.210 HD
HETATM   15  N3  UNL     1       4.683  -0.857   0.136  1.00  0.00    -0.287 N 
HETATM   16  C10 UNL     1       3.256   0.542   1.346  1.00  0.00     0.106 A 
HETATM   17  C3  UNL     1       5.766  -0.504   0.864  1.00  0.00     0.138 A 
ATOM     18  H3  UNL     1       4.806  -1.535  -0.616  1.00  0.00     0.188 HD
HETATM   19  C2  UNL     1       5.604   0.410   1.880  1.00  0.00     0.091 A 
HETATM   20  C1  UNL     1       4.337   0.915   2.096  1.00  0.00     0.082 A 
HETATM   21  N2  UNL     1       6.670   0.848   2.708  1.00  0.00    -0.098 NA
HETATM   22  C9  UNL     1       1.984   1.013   1.540  1.00  0.00     0.068 A 
BRANCH  20  23
HETATM   23  N1  UNL     1       4.161   1.772   3.043  1.00  0.00    -0.396 N 
ATOM     24  H12 UNL     1       4.967   2.050   3.602  1.00  0.00     0.156 HD
ATOM     25  H11 UNL     1       3.225   2.145   3.203  1.00  0.00     0.156 HD
ENDBRANCH  20  23
ENDBRANCH   7   9
ENDBRANCH   1   6
BRANCH   1  26
HETATM   26  N9  UNL     1      -2.436   0.385  -1.654  1.00  0.00    -0.264 N 
HETATM   27  C6  UNL     1      -3.692   0.606  -1.594  1.00  0.00     0.167 C 
HETATM   28  N10 UNL     1      -4.413   0.349  -0.407  1.00  0.00    -0.082 NA
ATOM     29  H9  UNL     1      -1.893   0.560  -2.499  1.00  0.00     0.190 HD
BRANCH  27  30
HETATM   30  C7  UNL     1      -4.422   1.140  -2.769  1.00  0.00     0.443 C 
BRANCH  30  31
HETATM   31  N11 UNL     1      -5.492   0.229  -3.173  1.00  0.00    -0.044 N 
ATOM     32 3H11 UNL     1      -5.141  -0.714  -3.343  1.00  0.00     0.277 HD
ATOM     33 2H11 UNL     1      -6.123   0.021  -2.399  1.00  0.00     0.277 HD
ATOM     34 1H11 UNL     1      -5.994   0.596  -3.981  1.00  0.00     0.277 HD
ENDBRANCH  30  31
BRANCH  30  35
HETATM   35  N12 UNL     1      -4.985   2.459  -2.470  1.00  0.00    -0.044 N 
ATOM     36 3H12 UNL     1      -5.572   2.440  -1.636  1.00  0.00     0.277 HD
ATOM     37 2H12 UNL     1      -4.272   3.109  -2.140  1.00  0.00     0.277 HD
ATOM     38 1H12 UNL     1      -5.487   2.826  -3.278  1.00  0.00     0.277 HD
ENDBRANCH  30  35
ENDBRANCH  27  30
ENDBRANCH   1  26
BRANCH   4  39
HETATM   39  N15 UNL     1      -1.507  -3.607  -1.479  1.00  0.00    -0.343 N 
ATOM     40 2H15 UNL     1      -1.493  -4.100  -0.586  1.00  0.00     0.176 HD
ATOM     41 1H15 UNL     1      -1.433  -4.134  -2.349  1.00  0.00     0.176 HD
ENDBRANCH   4  39
TORSDOF 8
