REMARK  7 active torsions:
REMARK  status: ('A' for Active; 'I' for Inactive)
REMARK    1  A    between atoms: C2_4  and  O1_5 
REMARK    2  A    between atoms: C3_8  and  N3_9 
REMARK    3  A    between atoms: C5_11  and  C6_12 
REMARK    4  A    between atoms: C7_15  and  N5_16 
REMARK    5  A    between atoms: N5_16  and  O4_18 
REMARK    6  A    between atoms: O4_18  and  C8_19 
REMARK    7  A    between atoms: C10_25  and  O6_26 
ROOT
HETATM    1  N3  UNL     1       1.387   0.418   0.137  1.00  0.00    -0.257 N 
HETATM    2  C4  UNL     1       1.577   1.727   0.378  1.00  0.00     0.135 A 
HETATM    3  C5  UNL     1       0.352   2.349   0.264  1.00  0.00     0.093 A 
HETATM    4  C7  UNL     1      -0.590   1.364  -0.055  1.00  0.00     0.157 A 
HETATM    5  N8  UNL     1       0.101   0.234  -0.115  1.00  0.00    -0.278 N 
ATOM      6  H8  UNL     1      -0.312  -0.674  -0.331  1.00  0.00     0.189 HD
ENDROOT
BRANCH   4   7
HETATM    7  N5  UNL     1      -1.819   1.606  -0.230  1.00  0.00    -0.247 N 
ATOM      8  H5  UNL     1      -2.074   2.587  -0.119  1.00  0.00     0.196 HD
BRANCH   7   9
HETATM    9  O4  UNL     1      -2.840   0.803  -0.534  1.00  0.00    -0.260 OA
BRANCH   9  10
HETATM   10  C8  UNL     1      -3.149  -0.434   0.044  1.00  0.00     0.291 C 
HETATM   11  C9  UNL     1      -3.302  -1.537  -0.933  1.00  0.00     0.268 C 
HETATM   12  O5  UNL     1      -2.451  -1.925  -1.768  1.00  0.00    -0.269 OA
HETATM   13  N6  UNL     1      -4.621  -2.061  -0.722  1.00  0.00    -0.269 N 
HETATM   14  N7  UNL     1      -5.391  -0.998  -0.248  1.00  0.00    -0.103 NA
ATOM     15  H6  UNL     1      -4.933  -3.018  -0.886  1.00  0.00     0.185 HD
HETATM   16  C10 UNL     1      -4.515  -0.407   0.723  1.00  0.00     0.272 C 
BRANCH  16  17
HETATM   17  O6  UNL     1      -4.475  -1.210   1.854  1.00  0.00    -0.375 OA
ATOM     18  H6  UNL     1      -5.326  -1.193   2.277  1.00  0.00     0.211 HD
ENDBRANCH  16  17
ENDBRANCH   9  10
ENDBRANCH   7   9
ENDBRANCH   4   7
BRANCH   3  19
HETATM   19  C6  UNL     1       0.060   3.776   0.440  1.00  0.00     0.270 C 
HETATM   20  N4  UNL     1       1.090   4.693   0.764  1.00  0.00    -0.057 NA
HETATM   21  O3  UNL     1      -1.111   4.184   0.303  1.00  0.00    -0.271 OA
ENDBRANCH   3  19
BRANCH   1  22
HETATM   22  C3  UNL     1       2.428  -0.565   0.161  1.00  0.00     0.344 C 
HETATM   23  N1  UNL     1       2.868  -0.949  -1.162  1.00  0.00    -0.187 NA
HETATM   24  C1  UNL     1       3.580   0.088  -1.852  1.00  0.00     0.137 C 
HETATM   25  N2  UNL     1       3.615  -2.080  -0.905  1.00  0.00    -0.102 NA
HETATM   26  C2  UNL     1       3.055  -2.638   0.321  1.00  0.00     0.376 C 
HETATM   27  O2  UNL     1       1.975  -1.801   0.659  1.00  0.00    -0.305 OA
BRANCH  26  28
HETATM   28  O1  UNL     1       3.979  -2.555   1.375  1.00  0.00    -0.357 OA
ATOM     29  H1  UNL     1       3.614  -2.918   2.173  1.00  0.00     0.214 HD
ENDBRANCH  26  28
ENDBRANCH   1  22
TORSDOF 7
