REMARK  0 active torsions:
REMARK  status: ('A' for Active; 'I' for Inactive)
ROOT
HETATM    1  S1  UNL     1       2.667  -0.230   0.025  1.00  0.00    -0.062 SA
HETATM    2  C1  UNL     1       0.931  -0.489  -0.440  1.00  0.00     0.257 C 
HETATM    3  C2  UNL     1       0.066  -0.747   0.774  1.00  0.00     0.046 C 
HETATM    4  C3  UNL     1      -1.307  -0.421   0.205  1.00  0.00     0.030 C 
HETATM    5  C4  UNL     1      -1.015   0.772  -0.645  1.00  0.00     0.233 C 
HETATM    6  N1  UNL     1       0.419   0.817  -0.864  1.00  0.00    -0.061 N 
ATOM      7  H11 UNL     1       0.678   1.066  -1.819  1.00  0.00     0.278 HD
ATOM      8  H12 UNL     1       0.877   1.603  -0.404  1.00  0.00     0.278 HD
ENDROOT
TORSDOF 0
