REMARK  0 active torsions:
REMARK  status: ('A' for Active; 'I' for Inactive)
ROOT
HETATM    1  S1  UNL     1       2.599  -1.372  -0.414  1.00  0.00    -0.062 SA
HETATM    2  C1  UNL     1       1.090  -0.484  -0.015  1.00  0.00     0.257 C 
HETATM    3  C2  UNL     1      -0.125  -1.362  -0.206  1.00  0.00     0.045 C 
HETATM    4  C3  UNL     1      -1.417  -0.665  -0.135  1.00  0.00     0.004 C 
HETATM    5  C4  UNL     1      -1.422   0.806  -0.243  1.00  0.00     0.027 C 
HETATM    6  C5  UNL     1      -0.093   1.477  -0.185  1.00  0.00     0.233 C 
HETATM    7  N1  UNL     1       0.867   0.666  -0.880  1.00  0.00    -0.061 N 
ATOM      8  H11 UNL     1       0.588   0.420  -1.830  1.00  0.00     0.278 HD
ATOM      9  H12 UNL     1       1.721   1.163  -1.133  1.00  0.00     0.278 HD
ENDROOT
TORSDOF 0
