REMARK  7 active torsions:
REMARK  status: ('A' for Active; 'I' for Inactive)
REMARK    1  A    between atoms: C2_9  and  S1_10 
REMARK    2  A    between atoms: S1_10  and  C3_11 
REMARK    3  A    between atoms: C3_11  and  C4_12 
REMARK    4  A    between atoms: C4_12  and  N5_13 
REMARK    5  A    between atoms: C6_21  and  S2_22 
REMARK    6  A    between atoms: C12_35  and  C13_36 
REMARK    7  A    between atoms: C13_36  and  N11_37 
ROOT
HETATM    1  N5  UNL     1       1.777  -0.811  -1.017  1.00  0.00    -0.165 N 
HETATM    2  C5  UNL     1       2.492  -1.885  -1.483  1.00  0.00     0.701 A 
HETATM    3  N6  UNL     1       3.318  -1.762  -2.422  1.00  0.00    -0.233 N 
ATOM      4  H61 UNL     1       3.850  -2.561  -2.768  1.00  0.00     0.174 HD
ATOM      5  H62 UNL     1       3.446  -0.834  -2.826  1.00  0.00     0.174 HD
HETATM    6  N7  UNL     1       2.323  -3.106  -0.952  1.00  0.00    -0.083 N 
HETATM    7  N8  UNL     1       2.925  -4.264  -1.266  1.00  0.00    -0.265 N 
ATOM      8  H8  UNL     1       3.630  -4.373  -1.995  1.00  0.00     0.189 HD
HETATM    9  C6  UNL     1       2.476  -5.246  -0.498  1.00  0.00     0.189 A 
HETATM   10  C7  UNL     1       1.516  -4.702   0.380  1.00  0.00     0.117 A 
HETATM   11  C8  UNL     1       0.886  -5.550   1.312  1.00  0.00     0.105 C 
HETATM   12  N9  UNL     1       0.397  -6.285   2.062  1.00  0.00    -0.191 NA
HETATM   13  C9  UNL     1       1.464  -3.386   0.054  1.00  0.00     0.118 A 
HETATM   14  C10 UNL     1       0.725  -2.334   0.549  1.00  0.00     0.108 A 
HETATM   15  C11 UNL     1      -0.182  -2.516   1.530  1.00  0.00     0.263 A 
HETATM   16  O4  UNL     1      -0.440  -3.549   2.099  1.00  0.00    -0.267 OA
HETATM   17  N10 UNL     1      -0.918  -1.438   1.963  1.00  0.00    -0.311 N 
ATOM     18  H10 UNL     1      -1.605  -1.572   2.705  1.00  0.00     0.170 HD
HETATM   19  C12 UNL     1      -0.760  -0.235   1.445  1.00  0.00     0.114 A 
HETATM   20  N12 UNL     1       0.143  -0.049   0.470  1.00  0.00    -0.329 N 
ATOM     21  H12 UNL     1       0.252   0.888   0.083  1.00  0.00     0.168 HD
HETATM   22  C20 UNL     1       0.924  -1.054  -0.030  1.00  0.00     0.143 A 
ENDROOT
BRANCH   9  23
HETATM   23  S2  UNL     1       3.016  -6.924  -0.593  1.00  0.00     0.157 S 
HETATM   24  O1  UNL     1       2.911  -7.570   0.745  1.00  0.00    -0.590 OA
HETATM   25  O2  UNL     1       4.432  -6.914  -1.100  1.00  0.00    -0.590 OA
HETATM   26  O3  UNL     1       2.062  -7.794  -1.687  1.00  0.00    -0.590 OA
ENDBRANCH   9  23
BRANCH   1  27
HETATM   27  C4  UNL     1       1.977   0.457  -1.644  1.00  0.00     0.160 C 
BRANCH  27  28
HETATM   28  C3  UNL     1       3.153   1.247  -1.194  1.00  0.00     0.103 C 
BRANCH  28  29
HETATM   29  S1  UNL     1       3.255   1.870   0.446  1.00  0.00    -0.089 SA
BRANCH  29  30
HETATM   30  C2  UNL     1       2.318   3.318   0.802  1.00  0.00     0.178 A 
HETATM   31  N1  UNL     1       2.795   4.582   0.638  1.00  0.00    -0.259 N 
HETATM   32  C1  UNL     1       4.108   4.921   0.149  1.00  0.00     0.181 C 
HETATM   33  N2  UNL     1       1.883   5.471   0.991  1.00  0.00    -0.224 N 
HETATM   34  N3  UNL     1       0.828   4.781   1.380  1.00  0.00    -0.226 N 
ATOM     35  H2  UNL     1       1.976   6.486   0.967  1.00  0.00     0.210 HD
HETATM   36  N4  UNL     1       1.097   3.478   1.264  1.00  0.00    -0.263 N 
ATOM     37  H3  UNL     1      -0.050   5.178   1.715  1.00  0.00     0.210 HD
ATOM     38  H4  UNL     1       0.454   2.722   1.498  1.00  0.00     0.190 HD
ENDBRANCH  29  30
ENDBRANCH  28  29
ENDBRANCH  27  28
ENDBRANCH   1  27
BRANCH  19  39
HETATM   39  C13 UNL     1      -1.565   0.921   1.883  1.00  0.00     0.348 C 
BRANCH  39  40
HETATM   40  N11 UNL     1      -2.434   1.439   0.843  1.00  0.00     0.095 N 
HETATM   41  C14 UNL     1      -3.150   2.549   1.386  1.00  0.00     0.273 C 
HETATM   42  C15 UNL     1      -4.599   2.606   1.015  1.00  0.00     0.030 C 
HETATM   43  C16 UNL     1      -4.846   2.775  -0.450  1.00  0.00     0.002 C 
HETATM   44  C17 UNL     1      -5.165   1.385  -1.009  1.00  0.00     0.002 C 
HETATM   45  C18 UNL     1      -3.821   0.652  -1.044  1.00  0.00     0.030 C 
HETATM   46  C19 UNL     1      -3.296   0.391   0.329  1.00  0.00     0.273 C 
ENDBRANCH  39  40
ENDBRANCH  19  39
TORSDOF 7
