REMARK  16 active torsions:
REMARK  status: ('A' for Active; 'I' for Inactive)
REMARK    1  A    between atoms: O1_2  and  C2_3 
REMARK    2  A    between atoms: C2_3  and  C3_5 
REMARK    3  A    between atoms: C4_6  and  O3_7 
REMARK    4  A    between atoms: C5_9  and  O4_10 
REMARK    5  A    between atoms: O4_10  and  C6_11 
REMARK    6  A    between atoms: C6_11  and  O6_13 
REMARK    7  A    between atoms: O6_13  and  C7_14 
REMARK    8  A    between atoms: C7_14  and  C10_17 
REMARK    9  A    between atoms: C10_17  and  N1_18 
REMARK   10  A    between atoms: C11_21  and  N3_22 
REMARK   11  A    between atoms: C13_28  and  C14_29 
REMARK   12  A    between atoms: C14_29  and  O9_31 
REMARK   13  A    between atoms: C16_33  and  O10_34 
REMARK   14  A    between atoms: O10_34  and  C17_35 
REMARK   15  A    between atoms: C19_38  and  O12_39 
REMARK   16  A    between atoms: O12_39  and  C20_40 
ROOT
HETATM    1  C3  UNL     1      -1.963   1.502  -1.476  1.00  0.00     0.149 C 
HETATM    2  C4  UNL     1      -1.676   0.020  -1.642  1.00  0.00     0.165 C 
HETATM    3  C5  UNL     1      -0.766  -0.348  -0.514  1.00  0.00     0.180 C 
HETATM    4  C13 UNL     1      -1.413  -0.042   0.790  1.00  0.00     0.149 C 
HETATM    5  C16 UNL     1      -2.719   0.634   0.756  1.00  0.00     0.178 C 
HETATM    6  C19 UNL     1      -2.828   1.757  -0.265  1.00  0.00     0.178 C 
ENDROOT
BRANCH   3   7
HETATM    7  O4  UNL     1       0.547   0.080  -0.671  1.00  0.00    -0.289 OA
BRANCH   7   8
HETATM    8  C6  UNL     1       1.655  -0.705  -0.887  1.00  0.00     0.407 C 
HETATM    9  O5  UNL     1       1.478  -1.939  -0.947  1.00  0.00    -0.229 OA
BRANCH   8  10
HETATM   10  O6  UNL     1       2.932  -0.241  -1.041  1.00  0.00    -0.286 OA
BRANCH  10  11
HETATM   11  C7  UNL     1       4.083  -0.978  -1.257  1.00  0.00     0.084 C 
HETATM   12  C8  UNL     1       5.190   0.093  -1.406  1.00  0.00     0.048 C 
HETATM   13  C9  UNL     1       4.073  -1.687  -2.620  1.00  0.00     0.048 C 
BRANCH  11  14
HETATM   14  C10 UNL     1       4.462  -2.001  -0.261  1.00  0.00     0.191 C 
BRANCH  14  15
HETATM   15  N1  UNL     1       4.720  -1.490   1.103  1.00  0.00    -0.247 N 
HETATM   16  N2  UNL     1       3.779  -1.385   1.981  1.00  0.00    -0.274 N 
HETATM   17  C11 UNL     1       4.085  -0.917   3.192  1.00  0.00     0.162 A 
ATOM     18  H2  UNL     1       2.822  -1.654   1.753  1.00  0.00     0.189 HD
HETATM   19  S1  UNL     1       5.754  -0.624   3.069  1.00  0.00     0.010 SA
HETATM   20  C12 UNL     1       5.954  -1.126   1.451  1.00  0.00     0.308 A 
HETATM   21  O7  UNL     1       7.021  -1.157   0.730  1.00  0.00    -0.258 OA
BRANCH  17  22
HETATM   22  N3  UNL     1       3.294  -0.730   4.228  1.00  0.00    -0.378 N 
ATOM     23  H32 UNL     1       2.292  -0.906   4.302  1.00  0.00     0.158 HD
ATOM     24  H31 UNL     1       3.528  -0.372   5.154  1.00  0.00     0.158 HD
ENDBRANCH  17  22
ENDBRANCH  14  15
ENDBRANCH  11  14
ENDBRANCH  10  11
ENDBRANCH   8  10
ENDBRANCH   7   8
ENDBRANCH   3   7
BRANCH   2  25
HETATM   25  O3  UNL     1      -1.134  -0.168  -2.898  1.00  0.00    -0.392 OA
ATOM     26  H3  UNL     1      -0.954  -1.095  -3.002  1.00  0.00     0.210 HD
ENDBRANCH   2  25
BRANCH   4  27
HETATM   27  C14 UNL     1      -1.405  -1.258   1.632  1.00  0.00     0.267 C 
HETATM   28  O8  UNL     1      -2.389  -1.882   2.037  1.00  0.00    -0.265 OA
BRANCH  27  29
HETATM   29  O9  UNL     1      -0.142  -1.763   2.014  1.00  0.00    -0.326 OA
HETATM   30  C15 UNL     1      -0.065  -2.923   2.818  1.00  0.00     0.213 C 
ENDBRANCH  27  29
ENDBRANCH   4  27
BRANCH   1  31
HETATM   31  C2  UNL     1      -0.732   2.299  -1.439  1.00  0.00     0.267 C 
HETATM   32  O2  UNL     1      -0.414   2.965  -0.431  1.00  0.00    -0.265 OA
BRANCH  31  33
HETATM   33  O1  UNL     1       0.119   2.334  -2.534  1.00  0.00    -0.326 OA
HETATM   34  C1  UNL     1       1.321   3.112  -2.508  1.00  0.00     0.213 C 
ENDBRANCH  31  33
ENDBRANCH   1  31
BRANCH   5  35
HETATM   35  O10 UNL     1      -3.872  -0.175   0.763  1.00  0.00    -0.313 OA
BRANCH  35  36
HETATM   36  C17 UNL     1      -4.860  -0.209   1.685  1.00  0.00     0.255 C 
HETATM   37  C18 UNL     1      -6.006  -1.124   1.539  1.00  0.00     0.126 C 
HETATM   38  O11 UNL     1      -4.783   0.541   2.654  1.00  0.00    -0.266 OA
ENDBRANCH  35  36
ENDBRANCH   5  35
BRANCH   6  39
HETATM   39  O12 UNL     1      -4.150   1.922  -0.723  1.00  0.00    -0.313 OA
BRANCH  39  40
HETATM   40  C20 UNL     1      -4.879   3.071  -0.693  1.00  0.00     0.255 C 
HETATM   41  C21 UNL     1      -6.286   3.152  -1.207  1.00  0.00     0.126 C 
HETATM   42  O13 UNL     1      -4.335   4.105  -0.208  1.00  0.00    -0.266 OA
ENDBRANCH  39  40
ENDBRANCH   6  39
TORSDOF 16
