REMARK  16 active torsions:
REMARK  status: ('A' for Active; 'I' for Inactive)
REMARK    1  A    between atoms: S1_2  and  C2_3 
REMARK    2  A    between atoms: C3_5  and  O2_6 
REMARK    3  A    between atoms: C4_8  and  O3_9 
REMARK    4  A    between atoms: C5_11  and  O4_12 
REMARK    5  A    between atoms: C6_14  and  O5_15 
REMARK    6  A    between atoms: O5_15  and  C7_16 
REMARK    7  A    between atoms: C8_17  and  O6_18 
REMARK    8  A    between atoms: O6_18  and  C9_19 
REMARK    9  A    between atoms: C11_22  and  O8_23 
REMARK   10  A    between atoms: O8_23  and  C12_24 
REMARK   11  A    between atoms: C14_27  and  O10_28 
REMARK   12  A    between atoms: O10_28  and  C15_29 
REMARK   13  A    between atoms: C17_32  and  O12_33 
REMARK   14  A    between atoms: O12_33  and  C18_34 
REMARK   15  A    between atoms: C20_37  and  O14_38 
REMARK   16  A    between atoms: O14_38  and  C21_39 
ROOT
HETATM    1  C7  UNL     1      -0.130  -0.289   0.229  1.00  0.00     0.186 C 
HETATM    2  C8  UNL     1       0.702   0.968   0.220  1.00  0.00     0.195 C 
HETATM    3  C11 UNL     1       1.951   0.771  -0.615  1.00  0.00     0.196 C 
HETATM    4  C14 UNL     1       2.737  -0.283   0.179  1.00  0.00     0.196 C 
HETATM    5  C17 UNL     1       2.031  -1.579  -0.114  1.00  0.00     0.196 C 
HETATM    6  C20 UNL     1       0.578  -1.486  -0.341  1.00  0.00     0.195 C 
ENDROOT
BRANCH   1   7
HETATM    7  O5  UNL     1      -1.366  -0.067  -0.384  1.00  0.00    -0.369 OA
BRANCH   7   8
HETATM    8  C6  UNL     1      -2.443  -0.116   0.442  1.00  0.00     0.192 C 
HETATM    9  C2  UNL     1      -3.376   1.047   0.383  1.00  0.00     0.217 C 
HETATM   10  O1  UNL     1      -4.604   0.709  -0.213  1.00  0.00    -0.341 OA
HETATM   11  C3  UNL     1      -5.315  -0.189   0.583  1.00  0.00     0.289 C 
HETATM   12  C4  UNL     1      -4.496  -1.394   0.929  1.00  0.00     0.204 C 
HETATM   13  C5  UNL     1      -3.248  -1.360   0.065  1.00  0.00     0.184 C 
BRANCH   9  14
HETATM   14  S1  UNL     1      -3.688   1.628   2.074  1.00  0.00    -0.139 SA
HETATM   15  C1  UNL     1      -4.615   3.187   2.061  1.00  0.00     0.092 C 
ENDBRANCH   9  14
BRANCH  11  16
HETATM   16  O2  UNL     1      -6.416  -0.609  -0.157  1.00  0.00    -0.368 OA
ATOM     17  H2  UNL     1      -6.900  -1.221   0.385  1.00  0.00     0.212 HD
ENDBRANCH  11  16
BRANCH  12  18
HETATM   18  O3  UNL     1      -4.132  -1.477   2.256  1.00  0.00    -0.388 OA
ATOM     19  H3  UNL     1      -3.612  -2.241   2.475  1.00  0.00     0.210 HD
ENDBRANCH  12  18
BRANCH  13  20
HETATM   20  O4  UNL     1      -3.636  -1.346  -1.260  1.00  0.00    -0.390 OA
ATOM     21  H4  UNL     1      -2.855  -1.325  -1.801  1.00  0.00     0.210 HD
ENDBRANCH  13  20
ENDBRANCH   7   8
ENDBRANCH   1   7
BRANCH   2  22
HETATM   22  O6  UNL     1      -0.004   2.124  -0.132  1.00  0.00    -0.311 OA
BRANCH  22  23
HETATM   23  C9  UNL     1      -0.161   3.216   0.711  1.00  0.00     0.255 C 
HETATM   24  C10 UNL     1      -0.930   4.372   0.213  1.00  0.00     0.126 C 
HETATM   25  O7  UNL     1       0.368   3.125   1.829  1.00  0.00    -0.266 OA
ENDBRANCH  22  23
ENDBRANCH   2  22
BRANCH   6  26
HETATM   26  O14 UNL     1       0.277  -1.670  -1.712  1.00  0.00    -0.311 OA
BRANCH  26  27
HETATM   27  C21 UNL     1      -0.409  -2.746  -2.232  1.00  0.00     0.255 C 
HETATM   28  C22 UNL     1      -0.673  -2.844  -3.666  1.00  0.00     0.126 C 
HETATM   29  O15 UNL     1      -0.780  -3.608  -1.412  1.00  0.00    -0.266 OA
ENDBRANCH  26  27
ENDBRANCH   6  26
BRANCH   3  30
HETATM   30  O8  UNL     1       2.680   1.937  -0.789  1.00  0.00    -0.311 OA
BRANCH  30  31
HETATM   31  C12 UNL     1       2.925   2.416  -2.067  1.00  0.00     0.255 C 
HETATM   32  C13 UNL     1       3.692   3.649  -2.332  1.00  0.00     0.126 C 
HETATM   33  O9  UNL     1       2.478   1.782  -3.073  1.00  0.00    -0.266 OA
ENDBRANCH  30  31
ENDBRANCH   3  30
BRANCH   5  34
HETATM   34  O12 UNL     1       2.289  -2.415   1.028  1.00  0.00    -0.311 OA
BRANCH  34  35
HETATM   35  C18 UNL     1       3.092  -3.515   0.997  1.00  0.00     0.255 C 
HETATM   36  C19 UNL     1       3.363  -4.384   2.175  1.00  0.00     0.126 C 
HETATM   37  O13 UNL     1       3.641  -3.811  -0.111  1.00  0.00    -0.266 OA
ENDBRANCH  34  35
ENDBRANCH   5  34
BRANCH   4  38
HETATM   38  O10 UNL     1       4.089  -0.309  -0.181  1.00  0.00    -0.311 OA
BRANCH  38  39
HETATM   39  C15 UNL     1       5.040  -0.093   0.817  1.00  0.00     0.255 C 
HETATM   40  C16 UNL     1       6.497  -0.095   0.567  1.00  0.00     0.126 C 
HETATM   41  O11 UNL     1       4.676   0.120   2.023  1.00  0.00    -0.266 OA
ENDBRANCH  38  39
ENDBRANCH   4  38
TORSDOF 16
