REMARK  7 active torsions:
REMARK  status: ('A' for Active; 'I' for Inactive)
REMARK    1  A    between atoms: C4_6  and  N2_7 
REMARK    2  A    between atoms: N6_17  and  C7_18 
REMARK    3  A    between atoms: N7_21  and  C10_22 
REMARK    4  A    between atoms: C11_25  and  N9_26 
REMARK    5  A    between atoms: C16_34  and  N11_35 
REMARK    6  A    between atoms: C20_39  and  C21_40 
REMARK    7  A    between atoms: C21_40  and  N12_41 
ROOT
HETATM    1  C1  UNL     1      -9.206  -1.521   3.867  1.00  0.00     0.019 C 
HETATM    2  C2  UNL     1      -8.601  -1.469   2.826  1.00  0.00    -0.057 C 
HETATM    3  C3  UNL     1      -7.866  -1.418   1.596  1.00  0.00     0.133 A 
HETATM    4  N1  UNL     1      -8.530  -1.554   0.436  1.00  0.00    -0.182 N 
ATOM      5  H1  UNL     1      -9.541  -1.690   0.437  1.00  0.00     0.185 HD
HETATM    6  C4  UNL     1      -7.848  -1.509  -0.739  1.00  0.00     0.678 A 
HETATM    7  N3  UNL     1      -6.510  -1.330  -0.799  1.00  0.00    -0.173 N 
ATOM      8  H3  UNL     1      -6.037  -1.301  -1.702  1.00  0.00     0.186 HD
HETATM    9  C5  UNL     1      -5.806  -1.190   0.337  1.00  0.00     0.167 A 
HETATM   10  C6  UNL     1      -6.501  -1.236   1.538  1.00  0.00     0.128 A 
HETATM   11  N4  UNL     1      -5.579  -1.074   2.486  1.00  0.00    -0.278 N 
ATOM     12  H4  UNL     1      -5.756  -1.058   3.490  1.00  0.00     0.184 HD
HETATM   13  N5  UNL     1      -4.398  -0.938   1.911  1.00  0.00    -0.018 NA
HETATM   14  N6  UNL     1      -4.498  -1.003   0.593  1.00  0.00    -0.253 N 
ENDROOT
BRANCH   6  15
HETATM   15  N2  UNL     1      -8.521  -1.645  -1.836  1.00  0.00    -0.234 N 
ATOM     16  H22 UNL     1      -9.531  -1.780  -1.791  1.00  0.00     0.174 HD
ATOM     17  H21 UNL     1      -8.009  -1.611  -2.718  1.00  0.00     0.174 HD
ENDBRANCH   6  15
BRANCH  14  18
HETATM   18  C7  UNL     1      -3.400  -0.893  -0.379  1.00  0.00     0.111 C 
HETATM   19  C8  UNL     1      -3.223   0.570  -0.655  1.00  0.00     0.047 C 
HETATM   20  C9  UNL     1      -1.841   0.925  -1.140  1.00  0.00     0.143 C 
HETATM   21  N7  UNL     1      -0.861   0.401  -0.213  1.00  0.00    -0.216 N 
HETATM   22  C23 UNL     1      -1.324  -0.456   0.856  1.00  0.00     0.143 C 
HETATM   23  C24 UNL     1      -2.184  -1.534   0.243  1.00  0.00     0.047 C 
BRANCH  21  24
HETATM   24  C10 UNL     1       0.522   0.689  -0.297  1.00  0.00     0.709 A 
HETATM   25  N8  UNL     1       1.012   1.583  -1.206  1.00  0.00    -0.021 N 
HETATM   26  C11 UNL     1       2.309   1.873  -1.315  1.00  0.00     0.709 A 
ATOM     27  H8  UNL     1       0.355   2.051  -1.831  1.00  0.00     0.203 HD
HETATM   28  N10 UNL     1       3.155   1.246  -0.483  1.00  0.00    -0.021 N 
HETATM   29  C16 UNL     1       2.721   0.345   0.441  1.00  0.00     0.709 A 
ATOM     30  H10 UNL     1       4.152   1.450  -0.545  1.00  0.00     0.203 HD
HETATM   31  N16 UNL     1       1.403   0.083   0.517  1.00  0.00    -0.021 N 
ATOM     32  H16 UNL     1       1.066  -0.589   1.206  1.00  0.00     0.203 HD
BRANCH  26  33
HETATM   33  N9  UNL     1       2.739   2.816  -2.281  1.00  0.00    -0.213 N 
HETATM   34  C12 UNL     1       1.769   3.520  -3.092  1.00  0.00     0.167 C 
HETATM   35  C13 UNL     1       2.031   5.009  -3.031  1.00  0.00     0.188 C 
HETATM   36  O1  UNL     1       3.365   5.320  -2.877  1.00  0.00    -0.388 OA
HETATM   37  C14 UNL     1       4.217   4.332  -3.384  1.00  0.00     0.188 C 
HETATM   38  C15 UNL     1       4.143   3.107  -2.491  1.00  0.00     0.167 C 
ENDBRANCH  26  33
BRANCH  29  39
HETATM   39  N11 UNL     1       3.641  -0.313   1.323  1.00  0.00    -0.210 N 
HETATM   40  C17 UNL     1       5.037  -0.032   1.368  1.00  0.00     0.142 C 
HETATM   41  C18 UNL     1       5.557  -0.799   2.554  1.00  0.00     0.022 C 
HETATM   42  C19 UNL     1       4.381  -1.384   3.246  1.00  0.00     0.029 C 
HETATM   43  C20 UNL     1       3.286  -1.326   2.252  1.00  0.00     0.122 C 
BRANCH  43  44
HETATM   44  C21 UNL     1       2.968  -2.663   1.615  1.00  0.00     0.177 C 
BRANCH  44  45
HETATM   45  N12 UNL     1       4.027  -3.243   0.861  1.00  0.00    -0.269 N 
HETATM   46  C22 UNL     1       4.217  -3.032  -0.447  1.00  0.00     0.219 A 
HETATM   47  N13 UNL     1       5.298  -3.738  -0.811  1.00  0.00    -0.279 N 
HETATM   48  N14 UNL     1       5.733  -4.353   0.267  1.00  0.00    -0.227 N 
ATOM     49  H13 UNL     1       5.705  -3.788  -1.745  1.00  0.00     0.189 HD
HETATM   50  N15 UNL     1       4.962  -4.054   1.285  1.00  0.00    -0.225 N 
ATOM     51  H14 UNL     1       6.546  -4.968   0.305  1.00  0.00     0.210 HD
ATOM     52  H15 UNL     1       5.072  -4.394   2.240  1.00  0.00     0.210 HD
ENDBRANCH  44  45
ENDBRANCH  43  44
ENDBRANCH  29  39
ENDBRANCH  21  24
ENDBRANCH  14  18
TORSDOF 7
