REMARK  9 active torsions:
REMARK  status: ('A' for Active; 'I' for Inactive)
REMARK    1  A    between atoms: S1_2  and  C2_3 
REMARK    2  A    between atoms: C5_7  and  C6_8 
REMARK    3  A    between atoms: C7_17  and  C8_18 
REMARK    4  A    between atoms: C8_18  and  O2_21 
REMARK    5  A    between atoms: N7_30  and  C14_31 
REMARK    6  A    between atoms: C14_31  and  C15_32 
REMARK       I    between atoms: N9_35  and  C16_36 
REMARK    7  A    between atoms: C16_36  and  C17_38 
REMARK    8  A    between atoms: C17_38  and  N10_39 
REMARK    9  A    between atoms: C19_47  and  C20_48 
ROOT
HETATM    1  C20 UNL     1       3.425  -3.131   1.582  1.00  0.00     0.184 C 
HETATM    2  C21 UNL     1       4.103  -4.232   0.882  1.00  0.00     0.065 C 
HETATM    3  N15 UNL     1       4.623  -5.088   0.346  1.00  0.00    -0.197 NA
ENDROOT
BRANCH   1   4
HETATM    4  C19 UNL     1       3.518  -1.895   0.737  1.00  0.00     0.066 A 
HETATM    5  C15 UNL     1       2.832  -1.528  -0.379  1.00  0.00     0.071 A 
HETATM    6  N8  UNL     1       3.411  -0.343  -0.790  1.00  0.00    -0.277 N 
HETATM    7  N9  UNL     1       4.380  -0.016   0.027  1.00  0.00    -0.159 N 
ATOM      8  H8  UNL     1       3.126   0.196  -1.608  1.00  0.00     0.189 HD
HETATM    9  C16 UNL     1       5.166   1.159  -0.099  1.00  0.00     0.277 C 
HETATM   10  N14 UNL     1       4.477  -0.932   0.968  1.00  0.00    -0.278 N 
HETATM   11  O3  UNL     1       4.929   1.967  -1.016  1.00  0.00    -0.268 OA
ATOM     12  H14 UNL     1       5.147  -0.929   1.737  1.00  0.00     0.189 HD
BRANCH   5  13
HETATM   13  C14 UNL     1       1.669  -2.145  -0.995  1.00  0.00     0.191 C 
BRANCH  13  14
HETATM   14  N7  UNL     1       0.436  -1.440  -1.032  1.00  0.00    -0.325 N 
HETATM   15  C2  UNL     1      -0.546  -1.512  -0.156  1.00  0.00     0.091 A 
HETATM   16  C3  UNL     1      -1.773  -0.826  -0.276  1.00  0.00     0.093 A 
HETATM   17  C4  UNL     1      -2.789  -0.939   0.643  1.00  0.00     0.204 A 
HETATM   18  C11 UNL     1      -1.916  -0.033  -1.393  1.00  0.00     0.124 A 
HETATM   19  O1  UNL     1      -2.684  -1.659   1.659  1.00  0.00    -0.286 OA
HETATM   20  C5  UNL     1      -3.981  -0.227   0.433  1.00  0.00     0.087 A 
HETATM   21  C7  UNL     1      -4.109   0.562  -0.682  1.00  0.00     0.063 A 
HETATM   22  N5  UNL     1      -3.064   0.632  -1.564  1.00  0.00    -0.342 N 
ATOM     23  H5  UNL     1      -3.166   1.220  -2.391  1.00  0.00     0.167 HD
HETATM   24  N6  UNL     1      -0.908   0.030  -2.268  1.00  0.00    -0.331 N 
HETATM   25  C12 UNL     1       0.252  -0.633  -2.140  1.00  0.00     0.082 A 
ATOM     26  H6  UNL     1      -1.028   0.623  -3.089  1.00  0.00     0.168 HD
HETATM   27  C13 UNL     1       1.275  -0.462  -3.200  1.00  0.00     0.089 C 
BRANCH  15  28
HETATM   28  S1  UNL     1      -0.452  -2.478   1.368  1.00  0.00    -0.115 SA
HETATM   29  C1  UNL     1       0.210  -1.448   2.729  1.00  0.00     0.097 C 
ENDBRANCH  15  28
BRANCH  20  30
HETATM   30  C6  UNL     1      -5.072  -0.366   1.399  1.00  0.00     0.153 A 
HETATM   31  N1  UNL     1      -5.233   0.314   2.538  1.00  0.00    -0.268 N 
HETATM   32  N2  UNL     1      -6.344  -0.146   3.075  1.00  0.00    -0.227 N 
ATOM     33  H1  UNL     1      -4.622   1.039   2.914  1.00  0.00     0.190 HD
HETATM   34  N3  UNL     1      -6.872  -1.079   2.313  1.00  0.00    -0.227 N 
ATOM     35  H2  UNL     1      -6.740   0.176   3.958  1.00  0.00     0.210 HD
HETATM   36  N4  UNL     1      -6.084  -1.217   1.273  1.00  0.00    -0.268 N 
ATOM     37  H3  UNL     1      -7.731  -1.597   2.496  1.00  0.00     0.210 HD
ATOM     38  H4  UNL     1      -6.225  -1.867   0.500  1.00  0.00     0.190 HD
ENDBRANCH  20  30
BRANCH  21  39
HETATM   39  C8  UNL     1      -5.326   1.355  -0.942  1.00  0.00     0.094 C 
HETATM   40  C9  UNL     1      -5.544   2.491   0.026  1.00  0.00     0.052 C 
HETATM   41  C10 UNL     1      -5.145   2.032  -2.317  1.00  0.00     0.052 C 
BRANCH  39  42
HETATM   42  O2  UNL     1      -6.487   0.582  -1.031  1.00  0.00    -0.384 OA
ATOM     43  H2  UNL     1      -7.270   1.093  -1.198  1.00  0.00     0.211 HD
ENDBRANCH  39  42
ENDBRANCH  21  39
ENDBRANCH  13  14
ENDBRANCH   5  13
BRANCH   9  44
HETATM   44  C17 UNL     1       6.269   1.440   0.847  1.00  0.00     0.253 C 
BRANCH  44  45
HETATM   45  N10 UNL     1       6.872   2.720   0.539  1.00  0.00    -0.263 N 
HETATM   46  C18 UNL     1       7.879   2.902  -0.307  1.00  0.00     0.213 A 
HETATM   47  N11 UNL     1       8.156   4.229  -0.312  1.00  0.00    -0.281 N 
HETATM   48  N12 UNL     1       7.299   4.805   0.537  1.00  0.00    -0.008 NA
ATOM     49  H11 UNL     1       8.879   4.698  -0.858  1.00  0.00     0.184 HD
HETATM   50  N13 UNL     1       6.507   3.877   1.064  1.00  0.00    -0.005 NA
ENDBRANCH  44  45
ENDBRANCH   9  44
ENDBRANCH   1   4
TORSDOF 9
