REMARK  10 active torsions:
REMARK  status: ('A' for Active; 'I' for Inactive)
REMARK    1  A    between atoms: C1_2  and  C2_4 
REMARK    2  A    between atoms: C2_4  and  C3_5 
REMARK    3  A    between atoms: C3_5  and  C4_6 
REMARK    4  A    between atoms: C4_6  and  C5_7 
REMARK    5  A    between atoms: C13_16  and  C14_17 
REMARK    6  A    between atoms: C14_17  and  C15_18 
REMARK    7  A    between atoms: C15_18  and  N2_19 
REMARK    8  A    between atoms: N2_19  and  C16_21 
REMARK    9  A    between atoms: C20_25  and  C21_26 
REMARK   10  A    between atoms: C21_26  and  C22_27 
ROOT
HETATM    1  C5  UNL     1       4.438  -0.118  -0.182  1.00  0.00     0.190 C 
HETATM    2  C6  UNL     1       4.670  -0.744  -1.535  1.00  0.00     0.033 C 
HETATM    3  C7  UNL     1       4.209  -2.192  -1.551  1.00  0.00     0.004 C 
HETATM    4  C8  UNL     1       2.866  -2.360  -0.917  1.00  0.00     0.028 C 
HETATM    5  C9  UNL     1       2.521  -1.409   0.168  1.00  0.00     0.238 C 
HETATM    6  N1  UNL     1       3.001  -0.057  -0.001  1.00  0.00    -0.063 N 
HETATM    7  C10 UNL     1       2.614   0.671   1.185  1.00  0.00     0.238 C 
HETATM    8  C11 UNL     1       2.947   2.111   1.171  1.00  0.00     0.028 C 
HETATM    9  C12 UNL     1       2.347   2.961   0.151  1.00  0.00     0.006 C 
HETATM   10  C13 UNL     1       1.061   2.541  -0.448  1.00  0.00    -0.011 C 
HETATM   11  C28 UNL     1       1.013   1.116  -0.901  1.00  0.00     0.032 C 
HETATM   12  C29 UNL     1       2.396   0.551  -1.167  1.00  0.00     0.238 C 
ENDROOT
BRANCH  10  13
HETATM   13  C14 UNL     1      -0.142   2.913   0.431  1.00  0.00     0.024 C 
BRANCH  13  14
HETATM   14  C15 UNL     1      -1.426   2.446  -0.257  1.00  0.00     0.114 C 
BRANCH  14  15
HETATM   15  N2  UNL     1      -2.520   2.803   0.573  1.00  0.00    -0.417 N 
ATOM     16  H2  UNL     1      -2.384   3.283   1.463  1.00  0.00     0.153 HD
BRANCH  15  17
HETATM   17  C16 UNL     1      -3.816   2.457   0.101  1.00  0.00     0.080 C 
HETATM   18  C17 UNL     1      -4.194   3.132  -1.194  1.00  0.00     0.025 C 
HETATM   19  C18 UNL     1      -4.040   2.090  -2.278  1.00  0.00     0.002 C 
HETATM   20  C19 UNL     1      -3.910   0.757  -1.605  1.00  0.00     0.007 C 
HETATM   21  C20 UNL     1      -4.019   0.969  -0.129  1.00  0.00     0.008 C 
BRANCH  21  22
HETATM   22  C21 UNL     1      -5.333   0.594   0.463  1.00  0.00     0.011 C 
BRANCH  22  23
HETATM   23  C22 UNL     1      -5.724  -0.830   0.344  1.00  0.00    -0.014 C 
HETATM   24  C23 UNL     1      -7.099  -0.969   1.019  1.00  0.00     0.005 C 
HETATM   25  C24 UNL     1      -7.601  -2.348   0.604  1.00  0.00     0.000 C 
HETATM   26  C25 UNL     1      -6.755  -3.355   1.356  1.00  0.00     0.000 C 
HETATM   27  C26 UNL     1      -5.536  -2.722   1.989  1.00  0.00     0.000 C 
HETATM   28  C27 UNL     1      -4.811  -1.783   1.073  1.00  0.00     0.005 C 
ENDBRANCH  22  23
ENDBRANCH  21  22
ENDBRANCH  15  17
ENDBRANCH  14  15
ENDBRANCH  13  14
ENDBRANCH  10  13
BRANCH   1  29
HETATM   29  C4  UNL     1       5.149  -0.904   0.845  1.00  0.00     0.034 C 
BRANCH  29  30
HETATM   30  C3  UNL     1       6.635  -0.924   0.575  1.00  0.00     0.012 C 
BRANCH  30  31
HETATM   31  C2  UNL     1       7.245  -1.749   1.728  1.00  0.00     0.113 C 
BRANCH  31  32
HETATM   32  C1  UNL     1       8.715  -1.836   1.563  1.00  0.00     0.172 C 
HETATM   33  O1  UNL     1       9.322  -1.304   0.618  1.00  0.00    -0.648 OA
HETATM   34  O2  UNL     1       9.447  -2.544   2.506  1.00  0.00    -0.648 OA
ENDBRANCH  31  32
ENDBRANCH  30  31
ENDBRANCH  29  30
ENDBRANCH   1  29
TORSDOF 10
