REMARK  6 active torsions:
REMARK  status: ('A' for Active; 'I' for Inactive)
REMARK    1  A    between atoms: C4_6  and  C5_7 
REMARK       I    between atoms: C5_7  and  N2_9 
REMARK    2  A    between atoms: N2_9  and  C6_11 
REMARK    3  A    between atoms: C8_17  and  C9_18 
REMARK       I    between atoms: C9_18  and  N5_20 
REMARK    4  A    between atoms: C16_27  and  C17_28 
REMARK    5  A    between atoms: C18_29  and  C19_30 
REMARK    6  A    between atoms: C20_33  and  N7_34 
ROOT
HETATM    1  C1  UNL     1       3.966   1.262  -3.385  1.00  0.00     0.070 C 
HETATM    2  C2  UNL     1       2.755   0.764  -2.644  1.00  0.00     0.024 A 
HETATM    3  N1  UNL     1       1.565   0.645  -3.236  1.00  0.00    -0.367 N 
ATOM      4  H1  UNL     1       1.465   0.898  -4.219  1.00  0.00     0.165 HD
HETATM    5  C3  UNL     1       0.501   0.199  -2.559  1.00  0.00     0.105 A 
HETATM    6  C4  UNL     1       0.640  -0.139  -1.235  1.00  0.00     0.048 A 
HETATM    7  C15 UNL     1       1.871  -0.015  -0.626  1.00  0.00     0.041 A 
HETATM    8  C16 UNL     1       2.974   0.443  -1.314  1.00  0.00     0.041 A 
ENDROOT
BRANCH   6   9
HETATM    9  C5  UNL     1      -0.506  -0.626  -0.479  1.00  0.00     0.254 C 
HETATM   10  O1  UNL     1      -0.338  -0.927   0.752  1.00  0.00    -0.268 OA
HETATM   11  N2  UNL     1      -1.809  -0.797  -1.003  1.00  0.00    -0.334 N 
ATOM     12  H2  UNL     1      -1.986  -0.569  -1.981  1.00  0.00     0.165 HD
BRANCH  11  13
HETATM   13  C6  UNL     1      -2.914  -1.295  -0.172  1.00  0.00     0.209 C 
HETATM   14  N3  UNL     1      -3.390  -2.477  -0.708  1.00  0.00    -0.350 N 
HETATM   15  C7  UNL     1      -4.433  -2.543  -1.382  1.00  0.00     0.152 C 
ATOM     16  H3  UNL     1      -2.862  -3.334  -0.543  1.00  0.00     0.163 HD
HETATM   17  N4  UNL     1      -5.064  -3.658  -2.002  1.00  0.00    -0.075 NA
HETATM   18  S1  UNL     1      -5.080  -0.883  -1.462  1.00  0.00    -0.079 SA
HETATM   19  C8  UNL     1      -3.958  -0.213  -0.168  1.00  0.00     0.189 C 
BRANCH  19  20
HETATM   20  C9  UNL     1      -4.727  -0.278   1.100  1.00  0.00     0.237 C 
HETATM   21  O2  UNL     1      -4.473  -1.162   1.953  1.00  0.00    -0.272 OA
HETATM   22  N5  UNL     1      -5.770   0.657   1.383  1.00  0.00    -0.351 N 
HETATM   23  C10 UNL     1      -6.523   0.579   2.640  1.00  0.00     0.126 C 
HETATM   24  C14 UNL     1      -6.154   1.721   0.488  1.00  0.00     0.126 C 
HETATM   25  C11 UNL     1      -7.954   0.225   2.327  1.00  0.00     0.020 C 
HETATM   26  C12 UNL     1      -8.408   0.919   1.055  1.00  0.00     0.003 C 
HETATM   27  C13 UNL     1      -7.571   2.183   0.843  1.00  0.00     0.020 C 
ENDBRANCH  19  20
ENDBRANCH  11  13
ENDBRANCH   6   9
BRANCH   8  28
HETATM   28  C17 UNL     1       4.262   0.575  -0.685  1.00  0.00    -0.058 C 
HETATM   29  C18 UNL     1       5.338   0.670  -0.145  1.00  0.00    -0.042 C 
BRANCH  29  30
HETATM   30  C19 UNL     1       6.618   0.756   0.500  1.00  0.00     0.112 A 
HETATM   31  N6  UNL     1       6.949   1.827   1.243  1.00  0.00    -0.183 N 
HETATM   32  C20 UNL     1       8.164   1.919   1.860  1.00  0.00     0.678 A 
ATOM     33  H6  UNL     1       6.278   2.588   1.348  1.00  0.00     0.185 HD
HETATM   34  N8  UNL     1       9.094   0.955   1.764  1.00  0.00    -0.178 N 
HETATM   35  C21 UNL     1       8.805  -0.129   1.033  1.00  0.00     0.140 A 
ATOM     36  H8  UNL     1       9.995   1.046   2.234  1.00  0.00     0.185 HD
HETATM   37  N9  UNL     1       9.776  -1.156   0.921  1.00  0.00    -0.082 NA
HETATM   38  C22 UNL     1       7.586  -0.235   0.406  1.00  0.00     0.016 A 
HETATM   39  C23 UNL     1       7.263  -1.453  -0.414  1.00  0.00     0.055 C 
BRANCH  32  40
HETATM   40  N7  UNL     1       8.381   3.000   2.556  1.00  0.00    -0.234 N 
ATOM     41  H72 UNL     1       7.675   3.732   2.629  1.00  0.00     0.174 HD
ATOM     42  H71 UNL     1       9.288   3.069   3.017  1.00  0.00     0.174 HD
ENDBRANCH  32  40
ENDBRANCH  29  30
ENDBRANCH   8  28
TORSDOF 6
