REMARK  7 active torsions:
REMARK  status: ('A' for Active; 'I' for Inactive)
REMARK    1  A    between atoms: C3_7  and  N3_8 
REMARK    2  A    between atoms: C7_16  and  C8_17 
REMARK    3  A    between atoms: C9_18  and  C10_19 
REMARK    4  A    between atoms: C10_19  and  N6_20 
REMARK    5  A    between atoms: N6_20  and  C11_22 
REMARK    6  A    between atoms: C14_28  and  C15_29 
REMARK    7  A    between atoms: C18_32  and  N9_33 
ROOT
HETATM    1  N6  UNL     1      -0.188   2.658  -1.035  1.00  0.00    -0.378 N 
ATOM      2  H6  UNL     1      -0.310   3.040  -0.097  1.00  0.00     0.160 HD
ENDROOT
BRANCH   1   3
HETATM    3  C10 UNL     1       1.023   3.036  -1.705  1.00  0.00     0.215 C 
BRANCH   3   4
HETATM    4  C9  UNL     1       2.169   2.208  -1.279  1.00  0.00    -0.079 C 
HETATM    5  C8  UNL     1       3.127   1.549  -0.938  1.00  0.00    -0.028 C 
BRANCH   5   6
HETATM    6  C7  UNL     1       4.281   0.792  -0.542  1.00  0.00     0.163 A 
HETATM    7  N5  UNL     1       4.410  -0.280   0.238  1.00  0.00    -0.319 N 
HETATM    8  C6  UNL     1       5.684  -0.663   0.341  1.00  0.00     0.156 A 
ATOM      9  H5  UNL     1       3.631  -0.750   0.699  1.00  0.00     0.169 HD
HETATM   10  N4  UNL     1       6.258  -1.670   1.010  1.00  0.00    -0.170 N 
HETATM   11  C25 UNL     1       6.419   0.242  -0.439  1.00  0.00     0.124 A 
HETATM   12  C3  UNL     1       7.589  -1.787   0.909  1.00  0.00     0.682 A 
HETATM   13  C5  UNL     1       5.459  -2.572   1.796  1.00  0.00     0.177 C 
HETATM   14  N2  UNL     1       8.325  -0.955   0.184  1.00  0.00    -0.174 N 
HETATM   15  C2  UNL     1       7.772   0.093  -0.520  1.00  0.00     0.147 A 
ATOM     16  H2  UNL     1       9.335  -1.096   0.146  1.00  0.00     0.186 HD
HETATM   17  N1  UNL     1       8.525   0.838  -1.181  1.00  0.00    -0.378 N 
HETATM   18  C1  UNL     1       8.334   1.958  -1.989  1.00  0.00     0.147 C 
ATOM     19  H1  UNL     1       9.505   0.564  -1.115  1.00  0.00     0.160 HD
HETATM   20  N12 UNL     1       5.537   1.113  -0.961  1.00  0.00    -0.329 N 
ATOM     21  H12 UNL     1       5.772   1.893  -1.575  1.00  0.00     0.168 HD
BRANCH  12  22
HETATM   22  N3  UNL     1       8.177  -2.763   1.557  1.00  0.00    -0.230 N 
HETATM   23  C4  UNL     1       9.601  -2.940   1.492  1.00  0.00     0.165 C 
ATOM     24  H3  UNL     1       7.615  -3.406   2.115  1.00  0.00     0.177 HD
ENDBRANCH  12  22
ENDBRANCH   5   6
ENDBRANCH   3   4
ENDBRANCH   1   3
BRANCH   1  25
HETATM   25  C11 UNL     1      -1.116   1.924  -1.444  1.00  0.00     0.062 A 
HETATM   26  C12 UNL     1      -1.108   1.335  -2.671  1.00  0.00     0.050 A 
HETATM   27  C13 UNL     1      -2.201   0.556  -3.038  1.00  0.00     0.110 A 
HETATM   28  N7  UNL     1      -3.237   0.405  -2.171  1.00  0.00    -0.303 N 
HETATM   29  N8  UNL     1      -3.272   0.966  -0.972  1.00  0.00    -0.234 N 
ATOM     30  H7  UNL     1      -4.029  -0.170  -2.459  1.00  0.00     0.186 HD
HETATM   31  C14 UNL     1      -4.186   0.917   0.006  1.00  0.00     0.139 A 
HETATM   32  C24 UNL     1      -2.223   1.715  -0.614  1.00  0.00     0.126 A 
HETATM   33  N10 UNL     1      -3.647   1.682   1.018  1.00  0.00    -0.327 N 
HETATM   34  C23 UNL     1      -2.468   2.169   0.658  1.00  0.00     0.149 A 
ATOM     35  H10 UNL     1      -4.094   1.850   1.919  1.00  0.00     0.168 HD
HETATM   36  N11 UNL     1      -1.603   3.001   1.423  1.00  0.00    -0.080 NA
BRANCH  31  37
HETATM   37  C15 UNL     1      -5.462   0.236   0.146  1.00  0.00     0.010 A 
HETATM   38  C16 UNL     1      -5.964   0.069   1.447  1.00  0.00     0.017 A 
HETATM   39  C17 UNL     1      -7.186  -0.511   1.687  1.00  0.00     0.030 A 
HETATM   40  C18 UNL     1      -7.993  -0.965   0.669  1.00  0.00     0.029 A 
HETATM   41  C21 UNL     1      -7.513  -0.806  -0.602  1.00  0.00     0.030 A 
HETATM   42  C22 UNL     1      -6.265  -0.213  -0.860  1.00  0.00     0.017 A 
BRANCH  40  43
HETATM   43  N9  UNL     1      -9.246  -1.561   0.960  1.00  0.00    -0.390 N 
HETATM   44  C19 UNL     1      -9.257  -3.025   1.114  1.00  0.00     0.149 C 
HETATM   45  C20 UNL     1     -10.470  -0.804   1.107  1.00  0.00     0.149 C 
ENDBRANCH  40  43
ENDBRANCH  31  37
ENDBRANCH   1  25
TORSDOF 7
