REMARK  5 active torsions:
REMARK  status: ('A' for Active; 'I' for Inactive)
REMARK    1  A    between atoms: C2_2  and  C4_4 
REMARK    2  A    between atoms: C4_4  and  C5_5 
REMARK    3  A    between atoms: C9_10  and  C10_11 
REMARK    4  A    between atoms: C10_11  and  N1_12 
REMARK    5  A    between atoms: C10_11  and  O2_16 
ROOT
HETATM    1  C5  UNL     1       3.913   0.564  -0.156  1.00  0.00     0.213 C 
HETATM    2  O1  UNL     1       3.803  -0.716   0.358  1.00  0.00    -0.376 OA
HETATM    3  C6  UNL     1       2.507  -0.951   0.798  1.00  0.00     0.168 C 
HETATM    4  C7  UNL     1       1.953  -2.265   0.230  1.00  0.00     0.029 C 
HETATM    5  C8  UNL     1       0.787  -2.683   1.061  1.00  0.00     0.039 C 
HETATM    6  C9  UNL     1      -0.337  -3.292   0.234  1.00  0.00     0.188 C 
HETATM    7  O3  UNL     1      -1.515  -3.368   0.986  1.00  0.00    -0.310 OA
HETATM    8  C11 UNL     1      -2.533  -2.474   1.014  1.00  0.00     0.290 C 
HETATM    9  O4  UNL     1      -3.119  -2.216   2.091  1.00  0.00    -0.263 OA
HETATM   10  C12 UNL     1      -2.997  -1.769  -0.204  1.00  0.00     0.284 C 
HETATM   11  C13 UNL     1      -3.664  -2.798  -1.129  1.00  0.00     0.051 C 
HETATM   12  N2  UNL     1      -4.032  -0.798   0.097  1.00  0.00    -0.028 N 
ATOM     13  H21 UNL     1      -4.445  -0.988   1.010  1.00  0.00     0.281 HD
ATOM     14  H22 UNL     1      -4.847  -0.950  -0.497  1.00  0.00     0.281 HD
HETATM   15  C14 UNL     1      -3.602   0.560   0.017  1.00  0.00     0.251 C 
HETATM   16  C15 UNL     1      -4.375   1.242  -1.083  1.00  0.00     0.071 C 
HETATM   17  C16 UNL     1      -5.782   0.684  -1.204  1.00  0.00     0.006 C 
HETATM   18  C17 UNL     1      -6.754   1.345  -0.280  1.00  0.00     0.027 C 
HETATM   19  C18 UNL     1      -6.236   1.518   1.122  1.00  0.00     0.232 C 
HETATM   20  N3  UNL     1      -4.982   2.234   1.135  1.00  0.00    -0.071 N 
ATOM     21  H31 UNL     1      -4.962   2.992   1.817  1.00  0.00     0.277 HD
ATOM     22  H32 UNL     1      -4.839   2.804   0.301  1.00  0.00     0.277 HD
HETATM   23  C19 UNL     1      -3.931   1.255   1.342  1.00  0.00     0.300 C 
HETATM   24  O5  UNL     1      -2.241   0.618  -0.138  1.00  0.00    -0.351 OA
HETATM   25  C20 UNL     1      -1.824   1.883  -0.580  1.00  0.00     0.197 C 
HETATM   26  C21 UNL     1      -0.317   1.797  -0.741  1.00  0.00     0.193 C 
HETATM   27  O6  UNL     1       0.131   3.020  -1.236  1.00  0.00    -0.387 OA
HETATM   28  C22 UNL     1       1.067   3.563  -0.354  1.00  0.00     0.187 C 
HETATM   29  C23 UNL     1       2.494   3.271  -0.802  1.00  0.00     0.148 C 
HETATM   30  N4  UNL     1       3.247   2.947   0.390  1.00  0.00    -0.357 N 
ATOM     31  H4  UNL     1       3.556   3.719   0.980  1.00  0.00     0.162 HD
HETATM   32  C24 UNL     1       3.584   1.637   0.793  1.00  0.00     0.246 C 
HETATM   33  O7  UNL     1       3.592   1.408   2.031  1.00  0.00    -0.271 OA
ENDROOT
BRANCH   6  34
HETATM   34  C10 UNL     1       0.097  -4.738  -0.043  1.00  0.00     0.346 C 
BRANCH  34  35
HETATM   35  N1  UNL     1       1.301  -4.797  -0.812  1.00  0.00    -0.051 N 
ATOM     36  H13 UNL     1       1.214  -4.264  -1.677  1.00  0.00     0.277 HD
ATOM     37  H12 UNL     1       2.050  -4.264  -0.369  1.00  0.00     0.277 HD
ATOM     38  H11 UNL     1       1.589  -5.758  -0.996  1.00  0.00     0.277 HD
ENDBRANCH  34  35
BRANCH  34  39
HETATM   39  O2  UNL     1       0.145  -5.480   1.125  1.00  0.00    -0.368 OA
ATOM     40  H2  UNL     1       0.414  -6.375   0.954  1.00  0.00     0.212 HD
ENDBRANCH  34  39
ENDBRANCH   6  34
BRANCH   1  41
HETATM   41  C4  UNL     1       5.204   0.825  -0.841  1.00  0.00     0.045 C 
BRANCH  41  42
HETATM   42  C2  UNL     1       6.448   0.664  -0.054  1.00  0.00    -0.020 C 
HETATM   43  C1  UNL     1       7.610   0.987  -1.017  1.00  0.00     0.009 C 
HETATM   44  C3  UNL     1       6.629   1.541   1.135  1.00  0.00     0.009 C 
ENDBRANCH  41  42
ENDBRANCH   1  41
TORSDOF 5
