REMARK  2 active torsions:
REMARK  status: ('A' for Active; 'I' for Inactive)
REMARK    1  A    between atoms: C15_21  and  C16_22 
REMARK    2  A    between atoms: C16_22  and  N5_23 
ROOT
HETATM    1  C1  UNL     1       1.727   1.489  -2.489  1.00  0.00     0.015 C 
HETATM    2  C2  UNL     1       0.589   0.980  -1.653  1.00  0.00     0.013 C 
HETATM    3  C3  UNL     1      -0.640   1.133  -2.520  1.00  0.00     0.009 C 
HETATM    4  C4  UNL     1      -1.779   0.265  -2.132  1.00  0.00     0.007 C 
HETATM    5  C5  UNL     1      -2.164   0.398  -0.684  1.00  0.00     0.013 C 
HETATM    6  C6  UNL     1      -3.532  -0.236  -0.559  1.00  0.00     0.023 C 
HETATM    7  C7  UNL     1      -4.031   0.086   0.834  1.00  0.00     0.013 C 
HETATM    8  C8  UNL     1      -4.162   1.549   1.082  1.00  0.00     0.023 C 
HETATM    9  C9  UNL     1      -5.425  -0.539   0.938  1.00  0.00     0.023 C 
HETATM   10  C10 UNL     1      -3.086  -0.567   1.771  1.00  0.00     0.107 A 
HETATM   11  N1  UNL     1      -3.282  -1.201   2.940  1.00  0.00    -0.339 N 
ATOM     12  H1  UNL     1      -4.181  -1.342   3.401  1.00  0.00     0.168 HD
HETATM   13  C11 UNL     1      -2.078  -1.621   3.401  1.00  0.00     0.199 A 
HETATM   14  N2  UNL     1      -1.194  -1.223   2.490  1.00  0.00    -0.292 N 
ATOM     15  H2  UNL     1      -0.190  -1.391   2.553  1.00  0.00     0.188 HD
HETATM   16  N3  UNL     1      -1.788  -0.574   1.480  1.00  0.00    -0.272 N 
HETATM   17  C12 UNL     1      -1.169   0.009   0.309  1.00  0.00     0.135 C 
HETATM   18  C13 UNL     1      -0.081  -0.934  -0.131  1.00  0.00     0.148 C 
HETATM   19  C14 UNL     1      -0.732  -2.235  -0.471  1.00  0.00     0.070 C 
HETATM   20  N4  UNL     1      -1.225  -3.253  -0.752  1.00  0.00    -0.197 NA
HETATM   21  C15 UNL     1       0.776  -0.449  -1.222  1.00  0.00    -0.041 C 
ENDROOT
BRANCH  21  22
HETATM   22  C16 UNL     1       2.201  -0.871  -1.132  1.00  0.00     0.090 C 
BRANCH  22  23
HETATM   23  N5  UNL     1       3.074  -0.183  -0.282  1.00  0.00    -0.390 N 
HETATM   24  C17 UNL     1       4.395  -0.754  -0.324  1.00  0.00     0.122 C 
HETATM   25  C18 UNL     1       4.989  -0.892   1.076  1.00  0.00     0.020 C 
HETATM   26  C19 UNL     1       5.107   0.476   1.673  1.00  0.00     0.003 C 
HETATM   27  C20 UNL     1       3.759   1.147   1.640  1.00  0.00     0.020 C 
HETATM   28  C21 UNL     1       2.708   0.224   1.003  1.00  0.00     0.122 C 
ENDBRANCH  22  23
ENDBRANCH  21  22
TORSDOF 2
