REMARK  3 active torsions:
REMARK  status: ('A' for Active; 'I' for Inactive)
REMARK    1  A    between atoms: C2_2  and  C3_3 
REMARK    2  A    between atoms: C4_5  and  C5_6 
REMARK    3  A    between atoms: C5_6  and  C6_7 
ROOT
HETATM    1  C6  UNL     1       0.999   0.525  -0.801  1.00  0.00     0.077 C 
HETATM    2  C7  UNL     1       0.554   0.480  -2.229  1.00  0.00     0.040 C 
HETATM    3  C8  UNL     1       0.160  -0.945  -2.544  1.00  0.00     0.010 C 
HETATM    4  C9  UNL     1      -1.049  -1.264  -1.739  1.00  0.00     0.017 C 
HETATM    5  C10 UNL     1      -2.219  -0.425  -2.268  1.00  0.00     0.013 C 
HETATM    6  C11 UNL     1      -0.878  -1.087  -0.259  1.00  0.00     0.081 C 
HETATM    7  C12 UNL     1      -2.300  -0.937   0.283  1.00  0.00     0.040 C 
HETATM    8  C13 UNL     1      -2.413  -1.214   1.742  1.00  0.00     0.013 C 
HETATM    9  C14 UNL     1      -2.319  -2.733   1.936  1.00  0.00     0.111 C 
HETATM   10  C15 UNL     1      -1.319  -3.202   0.937  1.00  0.00     0.259 C 
HETATM   11  O2  UNL     1      -1.267  -4.450   0.733  1.00  0.00    -0.265 OA
HETATM   12  O3  UNL     1      -0.472  -2.373   0.245  1.00  0.00    -0.309 OA
HETATM   13  C16 UNL     1       0.081  -0.071   0.194  1.00  0.00     0.062 C 
HETATM   14  C17 UNL     1      -0.510   1.111   0.917  1.00  0.00     0.075 C 
HETATM   15  C18 UNL     1      -0.004   2.318   0.211  1.00  0.00     0.049 C 
HETATM   16  C19 UNL     1      -0.544   3.517   0.252  1.00  0.00    -0.058 C 
HETATM   17  C20 UNL     1      -1.767   3.725   1.064  1.00  0.00     0.045 C 
HETATM   18  C21 UNL     1       0.015   4.683  -0.480  1.00  0.00     0.045 C 
HETATM   19  O4  UNL     1       1.122   1.921  -0.477  1.00  0.00    -0.343 OA
ENDROOT
BRANCH   1  20
HETATM   20  C5  UNL     1       2.421   0.004  -0.761  1.00  0.00     0.067 C 
BRANCH  20  21
HETATM   21  C4  UNL     1       3.011  -0.018   0.581  1.00  0.00    -0.014 C 
HETATM   22  C2  UNL     1       3.467  -1.142   1.097  1.00  0.00    -0.028 C 
HETATM   23  C1  UNL     1       3.383  -2.403   0.306  1.00  0.00     0.051 C 
BRANCH  22  24
HETATM   24  C3  UNL     1       4.054  -1.190   2.423  1.00  0.00     0.265 C 
HETATM   25  O1  UNL     1       4.126  -0.136   3.087  1.00  0.00    -0.302 OA
ENDBRANCH  22  24
ENDBRANCH  20  21
ENDBRANCH   1  20
TORSDOF 3
