REMARK  7 active torsions:
REMARK  status: ('A' for Active; 'I' for Inactive)
REMARK    1  A    between atoms: O1_2  and  C2_3 
REMARK    2  A    between atoms: C2_3  and  O2_4 
REMARK    3  A    between atoms: O2_4  and  C3_5 
REMARK    4  A    between atoms: C5_8  and  S1_9 
REMARK    5  A    between atoms: C7_11  and  O4_12 
REMARK    6  A    between atoms: O4_12  and  C8_13 
REMARK    7  A    between atoms: C8_13  and  C9_14 
ROOT
HETATM    1  C3  UNL     1       2.537   0.698   0.323  1.00  0.00     0.289 C 
HETATM    2  C4  UNL     1       2.338   2.172   0.557  1.00  0.00     0.230 C 
HETATM    3  O3  UNL     1       1.289   2.454   1.404  1.00  0.00    -0.366 OA
HETATM    4  C5  UNL     1       0.132   1.938   0.868  1.00  0.00     0.237 C 
HETATM    5  C7  UNL     1       0.272   0.451   0.748  1.00  0.00     0.302 C 
HETATM    6  O5  UNL     1       1.371   0.045   0.031  1.00  0.00    -0.326 OA
ENDROOT
BRANCH   5   7
HETATM    7  O4  UNL     1      -0.864  -0.024   0.083  1.00  0.00    -0.353 OA
BRANCH   7   8
HETATM    8  C8  UNL     1      -1.614  -0.890   0.880  1.00  0.00     0.209 C 
BRANCH   8   9
HETATM    9  C9  UNL     1      -2.780  -1.323   0.067  1.00  0.00    -0.035 A 
HETATM   10  C10 UNL     1      -3.945  -0.579   0.081  1.00  0.00     0.009 A 
HETATM   11  C11 UNL     1      -4.989  -1.038  -0.695  1.00  0.00     0.001 A 
HETATM   12  C12 UNL     1      -4.871  -2.177  -1.443  1.00  0.00     0.000 A 
HETATM   13  C13 UNL     1      -3.706  -2.918  -1.455  1.00  0.00     0.001 A 
HETATM   14  C14 UNL     1      -2.656  -2.472  -0.684  1.00  0.00     0.009 A 
ENDBRANCH   8   9
ENDBRANCH   7   8
ENDBRANCH   5   7
BRANCH   4  15
HETATM   15  S1  UNL     1      -0.297   2.682  -0.729  1.00  0.00    -0.137 SA
HETATM   16  C6  UNL     1      -0.720   4.421  -0.565  1.00  0.00     0.092 C 
ENDBRANCH   4  15
BRANCH   1  17
HETATM   17  O2  UNL     1       3.233   0.046   1.282  1.00  0.00    -0.335 OA
BRANCH  17  18
HETATM   18  C2  UNL     1       4.437  -0.484   1.002  1.00  0.00     0.340 C 
BRANCH  18  19
HETATM   19  O1  UNL     1       4.499  -1.451   0.015  1.00  0.00    -0.372 OA
HETATM   20  C1  UNL     1       3.761  -2.579   0.239  1.00  0.00     0.204 C 
ENDBRANCH  18  19
ENDBRANCH  17  18
ENDBRANCH   1  17
TORSDOF 7
