REMARK  11 active torsions:
REMARK  status: ('A' for Active; 'I' for Inactive)
REMARK    1  A    between atoms: O1_2  and  C2_3 
REMARK    2  A    between atoms: C2_3  and  C3_5 
REMARK    3  A    between atoms: C3_5  and  C4_6 
REMARK    4  A    between atoms: C3_5  and  C11_19 
REMARK    5  A    between atoms: C4_6  and  N1_7 
REMARK    6  A    between atoms: N1_7  and  O3_9 
REMARK    7  A    between atoms: O3_9  and  C5_10 
REMARK    8  A    between atoms: C5_10  and  C6_11 
REMARK    9  A    between atoms: C6_11  and  O4_14 
REMARK   10  A    between atoms: O4_14  and  C8_15 
REMARK   11  A    between atoms: C8_15  and  C9_16 
ROOT
HETATM    1  C6  UNL     1       2.610  -1.213   0.566  1.00  0.00     0.253 C 
HETATM    2  C7  UNL     1       3.136  -2.562   0.924  1.00  0.00     0.093 C 
HETATM    3  N2  UNL     1       3.570  -3.577   1.160  1.00  0.00    -0.194 NA
ENDROOT
BRANCH   1   4
HETATM    4  C5  UNL     1       1.272  -1.018   1.133  1.00  0.00     0.248 C 
BRANCH   4   5
HETATM    5  O3  UNL     1       0.705   0.046   0.308  1.00  0.00    -0.269 OA
BRANCH   5   6
HETATM    6  N1  UNL     1      -0.302  -0.237  -0.385  1.00  0.00    -0.230 N 
ATOM      7  H1  UNL     1       0.091  -0.574  -1.264  1.00  0.00     0.204 HD
BRANCH   6   8
HETATM    8  C4  UNL     1      -1.460  -0.315  -0.546  1.00  0.00    -0.001 C 
BRANCH   8   9
HETATM    9  C3  UNL     1      -2.813  -0.173  -0.334  1.00  0.00     0.114 C 
BRANCH   9  10
HETATM   10  C2  UNL     1      -3.463  -1.389  -0.130  1.00  0.00     0.303 C 
HETATM   11  O2  UNL     1      -4.666  -1.544   0.247  1.00  0.00    -0.258 OA
BRANCH  10  12
HETATM   12  O1  UNL     1      -2.806  -2.623  -0.335  1.00  0.00    -0.322 OA
HETATM   13  C1  UNL     1      -3.488  -3.854  -0.124  1.00  0.00     0.213 C 
ENDBRANCH  10  12
ENDBRANCH   9  10
BRANCH   9  14
HETATM   14  C11 UNL     1      -3.157   1.209  -0.270  1.00  0.00    -0.011 A 
HETATM   15  C12 UNL     1      -3.858   1.728   0.776  1.00  0.00     0.013 A 
HETATM   16  C13 UNL     1      -4.068   3.087   0.919  1.00  0.00     0.001 A 
HETATM   17  C14 UNL     1      -3.549   3.972  -0.022  1.00  0.00     0.000 A 
HETATM   18  C15 UNL     1      -2.845   3.474  -1.086  1.00  0.00     0.001 A 
HETATM   19  C16 UNL     1      -2.660   2.126  -1.200  1.00  0.00     0.013 A 
ENDBRANCH   9  14
ENDBRANCH   8   9
ENDBRANCH   6   8
ENDBRANCH   5   6
ENDBRANCH   4   5
ENDBRANCH   1   4
BRANCH   1  20
HETATM   20  O4  UNL     1       3.602  -0.315   0.568  1.00  0.00    -0.367 OA
BRANCH  20  21
HETATM   21  C8  UNL     1       4.159  -0.264  -0.721  1.00  0.00     0.203 C 
BRANCH  21  22
HETATM   22  C9  UNL     1       5.318   0.649  -0.859  1.00  0.00     0.169 A 
HETATM   23  C10 UNL     1       6.161   1.029   0.287  1.00  0.00     0.202 A 
HETATM   24  O5  UNL     1       5.211   1.929  -0.284  1.00  0.00    -0.379 OA
ENDBRANCH  21  22
ENDBRANCH  20  21
ENDBRANCH   1  20
TORSDOF 11
