REMARK  7 active torsions:
REMARK  status: ('A' for Active; 'I' for Inactive)
REMARK    1  A    between atoms: C8_10  and  C9_11 
REMARK    2  A    between atoms: C9_11  and  N2_12 
REMARK    3  A    between atoms: N2_12  and  C10_13 
REMARK    4  A    between atoms: N2_12  and  C12_16 
REMARK    5  A    between atoms: C12_16  and  C13_17 
REMARK    6  A    between atoms: C13_17  and  O2_18 
REMARK    7  A    between atoms: O2_18  and  N4_19 
ROOT
HETATM    1  C10 UNL     1       2.376  -1.385  -1.652  1.00  0.00     0.395 C 
HETATM    2  C11 UNL     1       3.802  -1.825  -1.377  1.00  0.00     0.089 C 
HETATM    3  N3  UNL     1       4.832  -2.227  -1.125  1.00  0.00    -0.195 NA
ENDROOT
BRANCH   1   4
HETATM    4  N2  UNL     1       2.081  -0.334  -0.681  1.00  0.00     0.103 N 
BRANCH   4   5
HETATM    5  C9  UNL     1       0.918  -0.588   0.100  1.00  0.00     0.280 C 
BRANCH   5   6
HETATM    6  C8  UNL     1      -0.402  -0.194  -0.500  1.00  0.00     0.041 C 
HETATM    7  C7  UNL     1      -0.675  -0.979  -1.737  1.00  0.00     0.035 C 
HETATM    8  C6  UNL     1      -2.073  -0.739  -2.281  1.00  0.00     0.168 C 
HETATM    9  O1  UNL     1      -3.031  -0.523  -1.319  1.00  0.00    -0.384 OA
HETATM   10  C5  UNL     1      -2.640  -1.019  -0.104  1.00  0.00     0.144 C 
HETATM   11  C4  UNL     1      -3.721  -1.173   0.911  1.00  0.00     0.035 C 
HETATM   12  C14 UNL     1      -1.499  -0.232   0.510  1.00  0.00     0.113 C 
HETATM   13  C3  UNL     1      -4.137   0.203   1.365  1.00  0.00     0.022 C 
HETATM   14  C2  UNL     1      -2.923   0.823   2.045  1.00  0.00     0.117 C 
HETATM   15  N1  UNL     1      -1.872   1.010   1.087  1.00  0.00    -0.409 N 
HETATM   16  C1  UNL     1      -1.982   2.141   0.271  1.00  0.00     0.143 C 
ENDBRANCH   5   6
ENDBRANCH   4   5
BRANCH   4  17
HETATM   17  C12 UNL     1       3.151  -0.001   0.092  1.00  0.00     0.302 C 
BRANCH  17  18
HETATM   18  C13 UNL     1       3.994   1.248  -0.323  1.00  0.00     0.238 C 
BRANCH  18  19
HETATM   19  O2  UNL     1       5.020   1.123   0.627  1.00  0.00    -0.220 OA
BRANCH  19  20
HETATM   20  N4  UNL     1       5.276   1.911   1.712  1.00  0.00     0.004 N 
HETATM   21  O3  UNL     1       4.340   2.456   2.329  1.00  0.00    -0.511 OA
HETATM   22  O4  UNL     1       6.542   1.913   2.210  1.00  0.00    -0.511 OA
ENDBRANCH  19  20
ENDBRANCH  18  19
ENDBRANCH  17  18
ENDBRANCH   4  17
ENDBRANCH   1   4
TORSDOF 7
