REMARK  11 active torsions:
REMARK  status: ('A' for Active; 'I' for Inactive)
REMARK    1  A    between atoms: N1_3  and  C3_4 
REMARK    2  A    between atoms: N1_3  and  C7_20 
REMARK    3  A    between atoms: C3_4  and  O1_5 
REMARK    4  A    between atoms: O1_5  and  C4_6 
REMARK    5  A    between atoms: C4_6  and  C5_8 
REMARK    6  A    between atoms: C5_8  and  C6_9 
REMARK    7  A    between atoms: C5_8  and  N3_14 
REMARK    8  A    between atoms: C6_9  and  O3_10 
REMARK    9  A    between atoms: O3_10  and  N2_11 
REMARK   10  A    between atoms: N3_14  and  N4_16 
REMARK   11  A    between atoms: N4_16  and  N5_17 
ROOT
HETATM    1  C1  UNL     1      -0.201  -2.821   0.956  1.00  0.00     0.037 C 
HETATM    2  C2  UNL     1      -0.451  -1.665   0.741  1.00  0.00     0.003 C 
HETATM    3  N1  UNL     1      -0.789  -0.332   0.478  1.00  0.00    -0.292 N 
ENDROOT
BRANCH   3   4
HETATM    4  C3  UNL     1       0.104   0.747   0.285  1.00  0.00     0.248 C 
BRANCH   4   5
HETATM    5  O1  UNL     1       1.460   0.598   0.417  1.00  0.00    -0.271 OA
BRANCH   5   6
HETATM    6  C4  UNL     1       2.203  -0.259  -0.449  1.00  0.00     0.292 C 
HETATM    7  O2  UNL     1       1.550  -0.851  -1.290  1.00  0.00    -0.262 OA
BRANCH   6   8
HETATM    8  C5  UNL     1       3.650  -0.349  -0.355  1.00  0.00     0.240 C 
BRANCH   8   9
HETATM    9  C6  UNL     1       4.350  -0.508   0.927  1.00  0.00     0.246 C 
BRANCH   9  10
HETATM   10  O3  UNL     1       4.563   0.852   1.456  1.00  0.00    -0.219 OA
BRANCH  10  11
HETATM   11  N2  UNL     1       5.965   1.089   1.542  1.00  0.00     0.005 N 
HETATM   12  O4  UNL     1       6.791   0.273   1.872  1.00  0.00    -0.511 OA
HETATM   13  O5  UNL     1       6.371   2.351   1.099  1.00  0.00    -0.511 OA
ENDBRANCH  10  11
ENDBRANCH   9  10
ENDBRANCH   8   9
BRANCH   8  14
HETATM   14  N3  UNL     1       3.950  -1.561  -1.194  1.00  0.00    -0.236 N 
ATOM     15  H3  UNL     1       3.899  -2.507  -0.816  1.00  0.00     0.198 HD
BRANCH  14  16
HETATM   16  N4  UNL     1       4.263  -1.341  -2.372  1.00  0.00    -0.248 NA
BRANCH  16  17
HETATM   17  N5  UNL     1       4.711  -1.028  -3.455  1.00  0.00    -0.261 N 
ATOM     18  H52 UNL     1       5.440  -0.525  -2.949  1.00  0.00     0.193 HD
ATOM     19  H51 UNL     1       4.969  -0.847  -4.425  1.00  0.00     0.193 HD
ENDBRANCH  16  17
ENDBRANCH  14  16
ENDBRANCH   8  14
ENDBRANCH   6   8
ENDBRANCH   5   6
ENDBRANCH   4   5
ENDBRANCH   3   4
BRANCH   3  20
HETATM   20  C7  UNL     1      -2.228  -0.095   0.308  1.00  0.00     0.100 C 
HETATM   21  C8  UNL     1      -2.619  -0.452  -1.118  1.00  0.00     0.026 C 
HETATM   22  C9  UNL     1      -3.839   0.351  -1.488  1.00  0.00     0.002 C 
HETATM   23  C10 UNL     1      -4.862   0.382  -0.382  1.00  0.00     0.000 C 
HETATM   24  C11 UNL     1      -4.294   1.030   0.858  1.00  0.00     0.002 C 
HETATM   25  C12 UNL     1      -2.765   1.193   0.785  1.00  0.00     0.026 C 
ENDBRANCH   3  20
TORSDOF 11
