REMARK  10 active torsions:
REMARK  status: ('A' for Active; 'I' for Inactive)
REMARK    1  A    between atoms: N1_1  and  C1_4 
REMARK    2  A    between atoms: N3_8  and  C3_9 
REMARK    3  A    between atoms: C3_9  and  C4_10 
REMARK    4  A    between atoms: C4_10  and  N4_11 
REMARK    5  A    between atoms: N4_11  and  C5_13 
REMARK    6  A    between atoms: C5_13  and  C6_14 
REMARK    7  A    between atoms: C6_14  and  N5_15 
REMARK    8  A    between atoms: N5_15  and  C7_18 
REMARK    9  A    between atoms: C10_21  and  N6_22 
REMARK   10  A    between atoms: C11_26  and  O1_27 
ROOT
HETATM    1  C5  UNL     1       0.834  -0.580   0.083  1.00  0.00     0.141 C 
ENDROOT
BRANCH   1   2
HETATM    2  N4  UNL     1       1.783  -0.691  -0.993  1.00  0.00    -0.418 N 
ATOM      3  H4  UNL     1       2.063  -1.591  -1.382  1.00  0.00     0.153 HD
BRANCH   2   4
HETATM    4  C4  UNL     1       2.305   0.547  -1.478  1.00  0.00     0.135 C 
BRANCH   4   5
HETATM    5  C3  UNL     1       3.193   1.264  -0.512  1.00  0.00     0.169 C 
BRANCH   5   6
HETATM    6  N3  UNL     1       4.358   0.493  -0.139  1.00  0.00    -0.272 N 
HETATM    7  C2  UNL     1       5.543   0.528  -0.794  1.00  0.00     0.218 A 
HETATM    8  N2  UNL     1       6.369  -0.308  -0.154  1.00  0.00    -0.185 N 
HETATM    9  C1  UNL     1       5.740  -0.867   0.880  1.00  0.00     0.691 A 
ATOM     10  H2  UNL     1       7.337  -0.491  -0.418  1.00  0.00     0.185 HD
HETATM   11  N7  UNL     1       4.495  -0.360   0.876  1.00  0.00    -0.129 N 
ATOM     12  H7  UNL     1       3.765  -0.593   1.549  1.00  0.00     0.206 HD
BRANCH   9  13
HETATM   13  N1  UNL     1       6.184  -1.715   1.733  1.00  0.00    -0.233 N 
ATOM     14  H12 UNL     1       7.129  -2.100   1.736  1.00  0.00     0.174 HD
ATOM     15  H11 UNL     1       5.703  -2.143   2.524  1.00  0.00     0.174 HD
ENDBRANCH   9  13
ENDBRANCH   5   6
ENDBRANCH   4   5
ENDBRANCH   2   4
ENDBRANCH   1   2
BRANCH   1  16
HETATM   16  C6  UNL     1      -0.469   0.069  -0.384  1.00  0.00     0.252 C 
BRANCH  16  17
HETATM   17  N5  UNL     1      -1.343   0.121   0.763  1.00  0.00    -0.067 N 
ATOM     18  H52 UNL     1      -1.481  -0.808   1.161  1.00  0.00     0.277 HD
ATOM     19  H51 UNL     1      -0.883   0.572   1.554  1.00  0.00     0.277 HD
BRANCH  17  20
HETATM   20  C7  UNL     1      -2.610   0.753   0.469  1.00  0.00     0.216 C 
HETATM   21  C8  UNL     1      -3.455   0.659   1.714  1.00  0.00     0.038 C 
HETATM   22  C9  UNL     1      -4.248  -0.603   1.475  1.00  0.00     0.037 C 
HETATM   23  C10 UNL     1      -4.689  -0.388   0.036  1.00  0.00     0.214 C 
HETATM   24  C11 UNL     1      -3.335  -0.033  -0.590  1.00  0.00     0.179 C 
BRANCH  23  25
HETATM   25  N6  UNL     1      -5.260  -1.546  -0.576  1.00  0.00    -0.072 N 
ATOM     26  H63 UNL     1      -4.620  -2.337  -0.512  1.00  0.00     0.274 HD
ATOM     27  H62 UNL     1      -6.033  -1.904  -0.014  1.00  0.00     0.274 HD
ATOM     28  H61 UNL     1      -5.556  -1.402  -1.541  1.00  0.00     0.274 HD
ENDBRANCH  23  25
BRANCH  24  29
HETATM   29  O1  UNL     1      -3.562   0.682  -1.740  1.00  0.00    -0.391 OA
ATOM     30  H1  UNL     1      -4.020   0.186  -2.408  1.00  0.00     0.210 HD
ENDBRANCH  24  29
ENDBRANCH  17  20
ENDBRANCH  16  17
ENDBRANCH   1  16
TORSDOF 10
