REMARK  10 active torsions:
REMARK  status: ('A' for Active; 'I' for Inactive)
REMARK    1  A    between atoms: N1_1  and  C1_5 
REMARK    2  A    between atoms: C1_5  and  C2_6 
REMARK    3  A    between atoms: C2_6  and  N2_7 
REMARK    4  A    between atoms: N2_7  and  C3_9 
REMARK    5  A    between atoms: N4_13  and  C5_15 
REMARK    6  A    between atoms: C5_15  and  C6_16 
REMARK    7  A    between atoms: C6_16  and  C7_17 
REMARK    8  A    between atoms: C7_17  and  N5_18 
REMARK    9  A    between atoms: C7_17  and  N6_22 
REMARK   10  A    between atoms: N6_22  and  N7_23 
ROOT
HETATM    1  C3  UNL     1       2.327  -0.763  -0.273  1.00  0.00     0.681 A 
HETATM    2  N3  UNL     1       1.147  -1.324  -0.029  1.00  0.00    -0.174 N 
ATOM      3  H3  UNL     1       1.088  -2.342  -0.059  1.00  0.00     0.186 HD
HETATM    4  C4  UNL     1       0.012  -0.628   0.258  1.00  0.00     0.151 A 
HETATM    5  N4  UNL     1      -1.085  -1.243   0.482  1.00  0.00    -0.353 N 
ATOM      6  H4  UNL     1      -1.026  -2.260   0.426  1.00  0.00     0.166 HD
HETATM    7  C8  UNL     1       0.110   0.742   0.293  1.00  0.00     0.123 A 
HETATM    8  N8  UNL     1      -0.729   1.765   0.526  1.00  0.00    -0.346 N 
ATOM      9  H8  UNL     1      -1.719   1.653   0.746  1.00  0.00     0.167 HD
HETATM   10  C9  UNL     1      -0.114   2.942   0.435  1.00  0.00     0.182 A 
HETATM   11  N9  UNL     1       1.174   2.684   0.131  1.00  0.00    -0.336 N 
ATOM     12  H9  UNL     1       1.903   3.384  -0.006  1.00  0.00     0.168 HD
HETATM   13  C10 UNL     1       1.342   1.338   0.037  1.00  0.00     0.152 A 
HETATM   14  N10 UNL     1       2.432   0.576  -0.242  1.00  0.00    -0.174 N 
ATOM     15  H10 UNL     1       3.331   1.021  -0.428  1.00  0.00     0.186 HD
ENDROOT
BRANCH   5  16
HETATM   16  C5  UNL     1      -2.364  -0.740   0.794  1.00  0.00     0.066 C 
BRANCH  16  17
HETATM   17  C6  UNL     1      -3.207  -0.438  -0.441  1.00  0.00     0.096 C 
BRANCH  17  18
HETATM   18  C7  UNL     1      -4.532   0.088   0.033  1.00  0.00     0.299 C 
BRANCH  18  19
HETATM   19  N5  UNL     1      -4.385   1.298   0.822  1.00  0.00    -0.059 N 
ATOM     20  H53 UNL     1      -3.743   1.156   1.601  1.00  0.00     0.276 HD
ATOM     21  H52 UNL     1      -3.864   2.012   0.312  1.00  0.00     0.276 HD
ATOM     22  H51 UNL     1      -5.285   1.655   1.144  1.00  0.00     0.276 HD
ENDBRANCH  18  19
BRANCH  18  23
HETATM   23  N6  UNL     1      -5.152  -0.915   0.875  1.00  0.00    -0.115 NA
BRANCH  23  24
HETATM   24  N7  UNL     1      -5.384  -2.096   0.204  1.00  0.00    -0.346 N 
ATOM     25  H72 UNL     1      -5.140  -2.233  -0.777  1.00  0.00     0.172 HD
ATOM     26  H71 UNL     1      -5.820  -2.802   0.797  1.00  0.00     0.172 HD
ENDBRANCH  23  24
ENDBRANCH  18  23
ENDBRANCH  17  18
ENDBRANCH  16  17
ENDBRANCH   5  16
BRANCH   1  27
HETATM   27  N2  UNL     1       3.386  -1.460  -0.543  1.00  0.00    -0.224 N 
ATOM     28  H2  UNL     1       3.284  -2.475  -0.563  1.00  0.00     0.177 HD
BRANCH  27  29
HETATM   29  C2  UNL     1       4.678  -0.932  -0.814  1.00  0.00     0.165 C 
BRANCH  29  30
HETATM   30  C1  UNL     1       5.447  -0.562   0.436  1.00  0.00     0.249 C 
BRANCH  30  31
HETATM   31  N1  UNL     1       6.751  -0.031   0.089  1.00  0.00    -0.078 N 
ATOM     32  H13 UNL     1       7.277  -0.673  -0.504  1.00  0.00     0.274 HD
ATOM     33  H12 UNL     1       6.681   0.753  -0.560  1.00  0.00     0.274 HD
ATOM     34  H11 UNL     1       7.269   0.218   0.931  1.00  0.00     0.274 HD
ENDBRANCH  30  31
ENDBRANCH  29  30
ENDBRANCH  27  29
ENDBRANCH   1  27
TORSDOF 10
