REMARK  8 active torsions:
REMARK  status: ('A' for Active; 'I' for Inactive)
REMARK    1  A    between atoms: C2_7  and  C3_8 
REMARK    2  A    between atoms: C3_8  and  C4_9 
REMARK    3  A    between atoms: C4_9  and  C5_10 
REMARK    4  A    between atoms: C5_10  and  N3_11 
REMARK    5  A    between atoms: N3_11  and  C6_14 
REMARK    6  A    between atoms: C6_14  and  C7_15 
REMARK    7  A    between atoms: C7_15  and  N4_16 
REMARK    8  A    between atoms: N4_16  and  N5_17 
ROOT
HETATM    1  N1  UNL     1      -4.449   1.849  -2.144  1.00  0.00    -0.384 N 
ATOM      2  H11 UNL     1      -5.455   1.809  -1.981  1.00  0.00     0.157 HD
ATOM      3  H12 UNL     1      -4.056   2.427  -2.887  1.00  0.00     0.157 HD
HETATM    4  C1  UNL     1      -3.731   1.063  -1.461  1.00  0.00     0.120 A 
HETATM    5  N2  UNL     1      -2.377   1.117  -1.681  1.00  0.00    -0.328 N 
ATOM      6  H2  UNL     1      -1.983   1.693  -2.425  1.00  0.00     0.169 HD
HETATM    7  C2  UNL     1      -1.542   0.333  -0.824  1.00  0.00     0.104 A 
HETATM    8  N6  UNL     1      -2.096  -0.383   0.116  1.00  0.00    -0.328 N 
ATOM      9  H6  UNL     1      -1.486  -0.934   0.720  1.00  0.00     0.169 HD
HETATM   10  C8  UNL     1      -3.415  -0.439   0.336  1.00  0.00     0.130 A 
HETATM   11  N7  UNL     1      -3.945  -1.229   1.292  1.00  0.00    -0.293 N 
ATOM     12  H7  UNL     1      -3.340  -1.775   1.905  1.00  0.00     0.172 HD
HETATM   13  C9  UNL     1      -5.302  -1.287   1.427  1.00  0.00     0.328 A 
HETATM   14  O1  UNL     1      -5.780  -2.049   2.347  1.00  0.00    -0.247 OA
HETATM   15  N8  UNL     1      -6.115  -0.579   0.635  1.00  0.00    -0.275 N 
ATOM     16  H8  UNL     1      -7.124  -0.653   0.764  1.00  0.00     0.173 HD
HETATM   17  C10 UNL     1      -5.635   0.227  -0.325  1.00  0.00     0.267 A 
HETATM   18  O2  UNL     1      -6.381   0.923  -1.073  1.00  0.00    -0.267 OA
HETATM   19  C11 UNL     1      -4.253   0.295  -0.475  1.00  0.00     0.120 A 
ENDROOT
BRANCH   7  20
HETATM   20  C3  UNL     1      -0.197   0.346  -1.330  1.00  0.00     0.023 C 
BRANCH  20  21
HETATM   21  C4  UNL     1       0.967  -0.277  -0.728  1.00  0.00     0.058 C 
BRANCH  21  22
HETATM   22  C5  UNL     1       1.482   0.324   0.510  1.00  0.00     0.236 C 
BRANCH  22  23
HETATM   23  N3  UNL     1       2.748  -0.393   0.880  1.00  0.00    -0.074 N 
ATOM     24  H32 UNL     1       3.133  -0.103   1.779  1.00  0.00     0.277 HD
ATOM     25  H31 UNL     1       2.606  -1.375   1.118  1.00  0.00     0.277 HD
BRANCH  23  26
HETATM   26  C6  UNL     1       3.664  -0.191  -0.239  1.00  0.00     0.250 C 
BRANCH  26  27
HETATM   27  C7  UNL     1       5.087  -0.404   0.144  1.00  0.00     0.161 C 
BRANCH  27  28
HETATM   28  N4  UNL     1       5.501   0.600   1.116  1.00  0.00    -0.147 NA
BRANCH  28  29
HETATM   29  N5  UNL     1       6.854   0.330   1.427  1.00  0.00    -0.348 N 
ATOM     30  H52 UNL     1       7.418  -0.426   1.038  1.00  0.00     0.172 HD
ATOM     31  H51 UNL     1       7.144   1.033   2.107  1.00  0.00     0.172 HD
ENDBRANCH  28  29
ENDBRANCH  27  28
ENDBRANCH  26  27
ENDBRANCH  23  26
ENDBRANCH  22  23
ENDBRANCH  21  22
ENDBRANCH  20  21
ENDBRANCH   7  20
TORSDOF 8
