REMARK  10 active torsions:
REMARK  status: ('A' for Active; 'I' for Inactive)
REMARK    1  A    between atoms: N1_1  and  C1_5 
REMARK    2  A    between atoms: C1_5  and  C2_6 
REMARK    3  A    between atoms: C2_6  and  C3_7 
REMARK    4  A    between atoms: C3_7  and  C4_8 
REMARK    5  A    between atoms: C4_8  and  C5_9 
REMARK    6  A    between atoms: C5_9  and  C6_10 
REMARK    7  A    between atoms: C6_10  and  N2_11 
REMARK    8  A    between atoms: N2_11  and  C7_14 
REMARK    9  A    between atoms: C9_19  and  N4_20 
REMARK   10  A    between atoms: N6_28  and  N7_30 
ROOT
HETATM    1  C7  UNL     1      -1.351  -0.092  -0.670  1.00  0.00     0.325 C 
HETATM    2  C8  UNL     1      -2.459  -1.084  -0.490  1.00  0.00     0.257 C 
HETATM    3  O1  UNL     1      -2.399  -2.126  -1.183  1.00  0.00    -0.271 OA
HETATM    4  N3  UNL     1      -3.605  -1.010   0.380  1.00  0.00    -0.316 N 
ATOM      5  H3  UNL     1      -4.054  -1.876   0.678  1.00  0.00     0.166 HD
HETATM    6  C9  UNL     1      -4.150   0.270   0.853  1.00  0.00     0.385 C 
HETATM    7  N5  UNL     1      -3.241   1.015   1.657  1.00  0.00    -0.375 N 
ATOM      8  H5  UNL     1      -3.304   1.015   2.675  1.00  0.00     0.157 HD
HETATM    9  C10 UNL     1      -2.238   1.761   0.970  1.00  0.00     0.174 C 
HETATM   10  C11 UNL     1      -1.954   1.239  -0.398  1.00  0.00     0.060 C 
HETATM   11  N6  UNL     1      -2.260   2.000  -1.370  1.00  0.00    -0.311 N 
ATOM     12  H6  UNL     1      -2.673   2.907  -1.152  1.00  0.00     0.185 HD
ENDROOT
BRANCH   1  13
HETATM   13  N2  UNL     1      -0.352  -0.324   0.356  1.00  0.00    -0.057 N 
ATOM     14  H22 UNL     1      -0.748  -0.176   1.284  1.00  0.00     0.278 HD
ATOM     15  H21 UNL     1       0.349   0.417   0.350  1.00  0.00     0.278 HD
BRANCH  13  16
HETATM   16  C6  UNL     1       0.271  -1.608   0.272  1.00  0.00     0.233 C 
BRANCH  16  17
HETATM   17  C5  UNL     1       1.273  -1.770   1.383  1.00  0.00     0.027 C 
BRANCH  17  18
HETATM   18  C4  UNL     1       2.367  -0.755   1.374  1.00  0.00     0.002 C 
BRANCH  18  19
HETATM   19  C3  UNL     1       3.195  -0.757   0.104  1.00  0.00     0.002 C 
BRANCH  19  20
HETATM   20  C2  UNL     1       4.239   0.322   0.279  1.00  0.00     0.027 C 
BRANCH  20  21
HETATM   21  C1  UNL     1       5.157   0.454  -0.908  1.00  0.00     0.229 C 
BRANCH  21  22
HETATM   22  N1  UNL     1       4.473   0.783  -2.126  1.00  0.00    -0.079 N 
ATOM     23  H13 UNL     1       3.731   0.110  -2.317  1.00  0.00     0.274 HD
ATOM     24  H12 UNL     1       3.911   1.626  -2.008  1.00  0.00     0.274 HD
ATOM     25  H11 UNL     1       5.095   0.872  -2.930  1.00  0.00     0.274 HD
ENDBRANCH  21  22
ENDBRANCH  20  21
ENDBRANCH  19  20
ENDBRANCH  18  19
ENDBRANCH  17  18
ENDBRANCH  16  17
ENDBRANCH  13  16
ENDBRANCH   1  13
BRANCH  11  26
HETATM   26  N7  UNL     1      -2.072   1.683  -2.694  1.00  0.00    -0.345 N 
ATOM     27  H72 UNL     1      -1.658   0.772  -2.893  1.00  0.00     0.176 HD
ATOM     28  H71 UNL     1      -2.317   2.293  -3.474  1.00  0.00     0.176 HD
ENDBRANCH  11  26
BRANCH   6  29
HETATM   29  N4  UNL     1      -5.308  -0.044   1.707  1.00  0.00    -0.041 N 
ATOM     30  H43 UNL     1      -6.003  -0.628   1.241  1.00  0.00     0.279 HD
ATOM     31  H42 UNL     1      -5.084  -0.689   2.465  1.00  0.00     0.279 HD
ATOM     32  H41 UNL     1      -5.686   0.845   2.035  1.00  0.00     0.279 HD
ENDBRANCH   6  29
TORSDOF 10
