REMARK  5 active torsions:
REMARK  status: ('A' for Active; 'I' for Inactive)
REMARK    1  A    between atoms: O1_2  and  C2_3 
REMARK    2  A    between atoms: C2_3  and  C3_5 
REMARK    3  A    between atoms: C4_8  and  N2_9 
REMARK    4  A    between atoms: N5_18  and  N6_19 
REMARK    5  A    between atoms: N6_19  and  O3_21 
ROOT
HETATM    1  C3  UNL     1      -0.891   0.338   0.454  1.00  0.00     0.154 A 
HETATM    2  N1  UNL     1      -1.264   1.626   0.707  1.00  0.00    -0.184 N 
ATOM      3  H1  UNL     1      -2.244   1.837   0.897  1.00  0.00     0.184 HD
HETATM    4  C4  UNL     1      -0.366   2.613   0.709  1.00  0.00     0.677 A 
HETATM    5  N3  UNL     1       0.923   2.352   0.461  1.00  0.00    -0.186 N 
ATOM      6  H3  UNL     1       1.597   3.118   0.467  1.00  0.00     0.184 HD
HETATM    7  C5  UNL     1       1.344   1.119   0.208  1.00  0.00     0.128 A 
HETATM    8  C6  UNL     1       0.434   0.055   0.197  1.00  0.00     0.116 A 
HETATM    9  N4  UNL     1       0.895  -1.266  -0.075  1.00  0.00    -0.257 N 
ATOM     10  H4  UNL     1       0.253  -2.058  -0.089  1.00  0.00     0.191 HD
HETATM   11  N5  UNL     1       2.277  -1.437  -0.325  1.00  0.00    -0.088 N 
HETATM   12  N7  UNL     1       3.162  -0.381  -0.311  1.00  0.00    -0.122 N 
HETATM   13  N8  UNL     1       4.419   0.034  -0.453  1.00  0.00     0.007 NA
HETATM   14  N9  UNL     1       3.992   1.261  -0.200  1.00  0.00    -0.263 N 
ATOM     15  H9  UNL     1       4.455   2.168  -0.139  1.00  0.00     0.186 HD
HETATM   16  C7  UNL     1       2.731   0.864  -0.055  1.00  0.00     0.190 A 
ENDROOT
BRANCH   1  17
HETATM   17  C2  UNL     1      -1.901  -0.709   0.462  1.00  0.00     0.312 C 
HETATM   18  O2  UNL     1      -1.747  -1.925   0.255  1.00  0.00    -0.258 OA
BRANCH  17  19
HETATM   19  O1  UNL     1      -3.222  -0.284   0.740  1.00  0.00    -0.321 OA
HETATM   20  C1  UNL     1      -4.262  -1.241   0.766  1.00  0.00     0.213 C 
ENDBRANCH  17  19
ENDBRANCH   1  17
BRANCH   4  21
HETATM   21  N2  UNL     1      -0.790   3.823   0.958  1.00  0.00    -0.234 N 
ATOM     22  H22 UNL     1      -1.772   4.022   1.147  1.00  0.00     0.174 HD
ATOM     23  H21 UNL     1      -0.104   4.577   0.960  1.00  0.00     0.174 HD
ENDBRANCH   4  21
BRANCH  11  24
HETATM   24  N6  UNL     1       2.727  -2.738  -0.592  1.00  0.00    -0.172 N 
ATOM     25  H6  UNL     1       3.704  -2.982  -0.431  1.00  0.00     0.219 HD
BRANCH  24  26
HETATM   26  O3  UNL     1       1.934  -3.597  -1.026  1.00  0.00    -0.272 OA
ATOM     27  H3  UNL     1       2.239  -4.478  -1.207  1.00  0.00     0.246 HD
ENDBRANCH  24  26
ENDBRANCH  11  24
TORSDOF 5
