REMARK  4 active torsions:
REMARK  status: ('A' for Active; 'I' for Inactive)
REMARK    1  A    between atoms: C4_9  and  N4_10 
REMARK    2  A    between atoms: C5_13  and  N5_14 
REMARK    3  A    between atoms: C7_20  and  O3_21 
REMARK    4  A    between atoms: C7_20  and  C8_23 
ROOT
HETATM    1  C8  UNL     1      -1.592   1.746   0.446  1.00  0.00     0.290 C 
HETATM    2  O4  UNL     1      -1.384   2.469  -0.565  1.00  0.00    -0.275 OA
HETATM    3  C9  UNL     1      -2.157   2.402   1.588  1.00  0.00     0.144 C 
HETATM    4  N7  UNL     1      -2.605   2.934   2.532  1.00  0.00    -0.188 NA
ENDROOT
BRANCH   1   5
HETATM    5  C7  UNL     1      -1.283   0.303   0.482  1.00  0.00     0.259 C 
HETATM    6  N1  UNL     1      -1.997  -0.458  -0.490  1.00  0.00    -0.337 N 
HETATM    7  C1  UNL     1      -2.255  -1.799  -0.094  1.00  0.00     0.154 C 
HETATM    8  C2  UNL     1      -1.655  -0.247  -1.840  1.00  0.00     0.182 C 
HETATM    9  N2  UNL     1      -0.276   0.105  -2.072  1.00  0.00    -0.337 N 
HETATM   10  C3  UNL     1       0.644   0.065  -1.001  1.00  0.00     0.136 A 
ATOM     11  H2  UNL     1       0.033   0.381  -3.004  1.00  0.00     0.168 HD
HETATM   12  N3  UNL     1       1.956  -0.066  -1.243  1.00  0.00    -0.324 N 
HETATM   13  C6  UNL     1       0.180   0.160   0.284  1.00  0.00     0.120 A 
HETATM   14  C4  UNL     1       2.794  -0.100  -0.196  1.00  0.00     0.151 A 
ATOM     15  H3  UNL     1       2.308  -0.138  -2.198  1.00  0.00     0.169 HD
HETATM   16  C5  UNL     1       2.358  -0.006   1.123  1.00  0.00     0.218 A 
HETATM   17  N6  UNL     1       1.037   0.124   1.335  1.00  0.00    -0.330 N 
ATOM     18  H6  UNL     1       0.679   0.196   2.287  1.00  0.00     0.168 HD
BRANCH  14  19
HETATM   19  N4  UNL     1       4.074  -0.225  -0.372  1.00  0.00    -0.382 N 
ATOM     20  H42 UNL     1       4.393  -0.294  -1.338  1.00  0.00     0.157 HD
ATOM     21  H41 UNL     1       4.711  -0.251   0.424  1.00  0.00     0.157 HD
ENDBRANCH  14  19
BRANCH  16  22
HETATM   22  N5  UNL     1       3.304  -0.050   2.189  1.00  0.00    -0.094 N 
HETATM   23  O1  UNL     1       3.008   0.526   3.246  1.00  0.00    -0.530 OA
HETATM   24  O2  UNL     1       4.509  -0.696   2.087  1.00  0.00    -0.530 OA
ENDBRANCH  16  22
BRANCH   5  25
HETATM   25  O3  UNL     1      -1.638  -0.182   1.748  1.00  0.00    -0.359 OA
ATOM     26  H3  UNL     1      -1.162   0.325   2.396  1.00  0.00     0.213 HD
ENDBRANCH   5  25
ENDBRANCH   1   5
TORSDOF 4
