REMARK  4 active torsions:
REMARK  status: ('A' for Active; 'I' for Inactive)
REMARK    1  A    between atoms: C2_3  and  C3_4 
REMARK    2  A    between atoms: C7_13  and  N4_14 
REMARK    3  A    between atoms: N4_14  and  N5_16 
REMARK    4  A    between atoms: C8_19  and  O3_20 
ROOT
HETATM    1  C3  UNL     1       0.123   0.385  -0.039  1.00  0.00     0.102 A 
HETATM    2  N2  UNL     1      -0.158   0.835   1.223  1.00  0.00    -0.304 N 
ATOM      3  H2  UNL     1       0.604   1.223   1.779  1.00  0.00     0.171 HD
HETATM    4  C4  UNL     1      -1.384   0.792   1.767  1.00  0.00     0.329 A 
HETATM    5  O1  UNL     1      -1.590   1.224   2.949  1.00  0.00    -0.246 OA
HETATM    6  N3  UNL     1      -2.448   0.303   1.121  1.00  0.00    -0.269 N 
HETATM    7  C5  UNL     1      -3.753   0.289   1.758  1.00  0.00     0.164 C 
HETATM    8  C6  UNL     1      -2.227  -0.149  -0.113  1.00  0.00     0.281 A 
HETATM    9  O2  UNL     1      -3.194  -0.628  -0.787  1.00  0.00    -0.265 OA
HETATM   10  C7  UNL     1      -0.947  -0.119  -0.718  1.00  0.00     0.145 A 
ENDROOT
BRANCH   1  11
HETATM   11  C2  UNL     1       1.521   0.388  -0.513  1.00  0.00     0.127 A 
HETATM   12  N1  UNL     1       2.571   0.026   0.267  1.00  0.00    -0.291 N 
HETATM   13  C1  UNL     1       2.569  -0.366   1.665  1.00  0.00     0.162 C 
HETATM   14  C9  UNL     1       3.666   0.058  -0.540  1.00  0.00     0.374 A 
HETATM   15  O4  UNL     1       3.332   0.410  -1.728  1.00  0.00    -0.235 OA
HETATM   16  O5  UNL     1       4.824  -0.231  -0.113  1.00  0.00    -0.237 OA
HETATM   17  C8  UNL     1       2.036   0.622  -1.759  1.00  0.00     0.217 A 
BRANCH  17  18
HETATM   18  O3  UNL     1       1.327   1.031  -2.907  1.00  0.00    -0.339 OA
ATOM     19  H3  UNL     1       1.685   1.193  -3.772  1.00  0.00     0.220 HD
ENDBRANCH  17  18
ENDBRANCH   1  11
BRANCH  10  20
HETATM   20  N4  UNL     1      -0.840  -0.674  -2.018  1.00  0.00    -0.300 N 
ATOM     21  H4  UNL     1      -1.147  -0.128  -2.823  1.00  0.00     0.186 HD
BRANCH  20  22
HETATM   22  N5  UNL     1      -0.323  -1.952  -2.213  1.00  0.00    -0.344 N 
ATOM     23  H52 UNL     1      -0.021  -2.484  -1.397  1.00  0.00     0.176 HD
ATOM     24  H51 UNL     1      -0.246  -2.351  -3.148  1.00  0.00     0.176 HD
ENDBRANCH  20  22
ENDBRANCH  10  20
TORSDOF 4
