REMARK  6 active torsions:
REMARK  status: ('A' for Active; 'I' for Inactive)
REMARK    1  A    between atoms: C2_2  and  O2_4 
REMARK    2  A    between atoms: O2_4  and  N1_5 
REMARK    3  A    between atoms: C3_7  and  C4_8 
REMARK    4  A    between atoms: C3_7  and  N6_22 
REMARK    5  A    between atoms: N2_12  and  N3_13 
REMARK    6  A    between atoms: C7_16  and  N4_17 
ROOT
HETATM    1  C4  UNL     1      -0.772  -0.374   0.231  1.00  0.00     0.106 A 
HETATM    2  C5  UNL     1      -1.871  -0.996   0.811  1.00  0.00     0.111 A 
HETATM    3  C6  UNL     1      -3.089  -0.364   0.942  1.00  0.00     0.284 A 
HETATM    4  O3  UNL     1      -4.100  -0.902   1.462  1.00  0.00    -0.266 OA
HETATM    5  N2  UNL     1      -3.228   0.910   0.492  1.00  0.00    -0.055 N 
HETATM    6  C7  UNL     1      -2.156   1.522  -0.076  1.00  0.00     0.700 A 
HETATM    7  N5  UNL     1      -0.977   0.889  -0.195  1.00  0.00    -0.186 N 
ATOM      8  H5  UNL     1      -0.200   1.388  -0.628  1.00  0.00     0.184 HD
ENDROOT
BRANCH   1   9
HETATM    9  C3  UNL     1       0.505  -1.012   0.083  1.00  0.00     0.221 C 
HETATM   10  N1  UNL     1       1.591  -0.324   0.098  1.00  0.00    -0.234 N 
ATOM     11  H1  UNL     1       1.499   0.685   0.218  1.00  0.00     0.197 HD
BRANCH  10  12
HETATM   12  O2  UNL     1       2.842  -0.814  -0.031  1.00  0.00    -0.198 OA
BRANCH  12  13
HETATM   13  C2  UNL     1       3.835   0.004  -0.542  1.00  0.00     0.277 C 
HETATM   14  C1  UNL     1       5.242  -0.430  -0.727  1.00  0.00     0.128 C 
HETATM   15  O1  UNL     1       3.547   1.177  -0.870  1.00  0.00    -0.264 OA
ENDBRANCH  12  13
ENDBRANCH  10  12
BRANCH   9  16
HETATM   16  N6  UNL     1       0.589  -2.410  -0.081  1.00  0.00    -0.094 N 
HETATM   17  O4  UNL     1       0.365  -2.905  -1.192  1.00  0.00    -0.530 OA
HETATM   18  O5  UNL     1       0.912  -3.223   0.964  1.00  0.00    -0.530 OA
ENDBRANCH   9  16
ENDBRANCH   1   9
BRANCH   6  19
HETATM   19  N4  UNL     1      -2.342   2.735  -0.488  1.00  0.00    -0.233 N 
ATOM     20  H42 UNL     1      -3.237   3.216  -0.398  1.00  0.00     0.174 HD
ATOM     21  H41 UNL     1      -1.537   3.194  -0.914  1.00  0.00     0.174 HD
ENDBRANCH   6  19
BRANCH   5  22
HETATM   22  N3  UNL     1      -4.439   1.592   0.602  1.00  0.00    -0.321 N 
ATOM     23  H32 UNL     1      -5.244   1.133   1.028  1.00  0.00     0.178 HD
ATOM     24  H31 UNL     1      -4.543   2.549   0.264  1.00  0.00     0.178 HD
ENDBRANCH   5  22
TORSDOF 6
