REMARK  4 active torsions:
REMARK  status: ('A' for Active; 'I' for Inactive)
REMARK    1  A    between atoms: O1_2  and  N1_3 
REMARK    2  A    between atoms: C5_11  and  N3_12 
REMARK    3  A    between atoms: N3_12  and  N4_13 
REMARK    4  A    between atoms: C7_20  and  N7_21 
ROOT
HETATM    1  N3  UNL     1       3.925   1.052  -0.044  1.00  0.00    -0.022 N 
HETATM    2  C6  UNL     1       3.877   2.440   0.124  1.00  0.00     0.220 C 
HETATM    3  N5  UNL     1       3.846   3.606   0.261  1.00  0.00    -0.169 NA
ENDROOT
BRANCH   1   4
HETATM    4  C5  UNL     1       2.709   0.278  -0.088  1.00  0.00     0.716 A 
HETATM    5  N2  UNL     1       1.513   0.875   0.033  1.00  0.00    -0.165 N 
HETATM    6  C4  UNL     1       0.348   0.211  -0.000  1.00  0.00     0.190 A 
ATOM      7  H2  UNL     1       1.489   1.887   0.157  1.00  0.00     0.186 HD
HETATM    8  O2  UNL     1      -0.767   1.027   0.144  1.00  0.00    -0.325 OA
HETATM    9  C8  UNL     1       0.407  -1.167  -0.169  1.00  0.00     0.150 A 
HETATM   10  C3  UNL     1      -2.095   0.805  -0.356  1.00  0.00     0.266 C 
HETATM   11  C2  UNL     1      -2.660  -0.466   0.169  1.00  0.00     0.190 C 
HETATM   12  N1  UNL     1      -3.795  -0.419   0.812  1.00  0.00    -0.245 N 
HETATM   13  O3  UNL     1      -2.068  -1.714   0.028  1.00  0.00    -0.220 OA
ATOM     14  H1  UNL     1      -4.185  -1.289   1.174  1.00  0.00     0.196 HD
HETATM   15  N8  UNL     1      -0.731  -2.021  -0.227  1.00  0.00    -0.252 N 
ATOM     16  H8  UNL     1      -0.543  -2.988  -0.491  1.00  0.00     0.195 HD
HETATM   17  C7  UNL     1       1.604  -1.797  -0.294  1.00  0.00     0.148 A 
HETATM   18  N6  UNL     1       2.730  -1.050  -0.249  1.00  0.00    -0.172 N 
ATOM     19  H6  UNL     1       3.632  -1.518  -0.342  1.00  0.00     0.186 HD
BRANCH  12  20
HETATM   20  O1  UNL     1      -4.477   0.730   1.020  1.00  0.00    -0.283 OA
HETATM   21  C1  UNL     1      -5.563   1.199   0.277  1.00  0.00     0.237 C 
ENDBRANCH  12  20
BRANCH  17  22
HETATM   22  N7  UNL     1       1.614  -3.078  -0.450  1.00  0.00    -0.383 N 
ATOM     23  H72 UNL     1       2.513  -3.551  -0.544  1.00  0.00     0.157 HD
ATOM     24  H71 UNL     1       0.765  -3.642  -0.484  1.00  0.00     0.157 HD
ENDBRANCH  17  22
ENDBRANCH   1   4
BRANCH   1  25
HETATM   25  N4  UNL     1       5.172   0.456  -0.164  1.00  0.00    -0.315 N 
ATOM     26  H42 UNL     1       5.207  -0.556  -0.286  1.00  0.00     0.178 HD
ATOM     27  H41 UNL     1       6.032   1.003  -0.133  1.00  0.00     0.178 HD
ENDBRANCH   1  25
TORSDOF 4
