REMARK  6 active torsions:
REMARK  status: ('A' for Active; 'I' for Inactive)
REMARK    1  A    between atoms: O1_2  and  C2_3 
REMARK    2  A    between atoms: C5_6  and  N1_7 
REMARK    3  A    between atoms: N1_7  and  C6_10 
REMARK    4  A    between atoms: C9_13  and  C10_14 
REMARK    5  A    between atoms: C11_15  and  O2_16 
REMARK    6  A    between atoms: C15_22  and  N3_23 
ROOT
HETATM    1  C10 UNL     1      -0.103  -2.316   0.274  1.00  0.00     0.031 A 
HETATM    2  C11 UNL     1      -0.165  -3.144  -0.846  1.00  0.00     0.154 A 
HETATM    3  N2  UNL     1      -1.411  -3.290  -1.265  1.00  0.00    -0.331 N 
HETATM    4  C12 UNL     1      -1.852  -4.105  -2.372  1.00  0.00     0.158 C 
HETATM    5  C13 UNL     1      -2.201  -2.563  -0.438  1.00  0.00     0.051 A 
HETATM    6  C14 UNL     1      -3.556  -2.296  -0.547  1.00  0.00     0.060 A 
HETATM    7  C15 UNL     1      -4.128  -1.419   0.328  1.00  0.00     0.033 A 
HETATM    8  C24 UNL     1      -3.399  -0.823   1.298  1.00  0.00     0.053 A 
HETATM    9  C25 UNL     1      -2.013  -1.073   1.435  1.00  0.00     0.060 A 
HETATM   10  C26 UNL     1      -1.311  -0.465   2.504  1.00  0.00     0.100 C 
HETATM   11  N5  UNL     1      -0.775   0.059   3.415  1.00  0.00    -0.191 NA
HETATM   12  C27 UNL     1      -1.423  -1.932   0.558  1.00  0.00     0.026 A 
ENDROOT
BRANCH   7  13
HETATM   13  N3  UNL     1      -5.460  -0.976   0.013  1.00  0.00    -0.380 N 
HETATM   14  C16 UNL     1      -6.778  -1.322   0.338  1.00  0.00     0.123 C 
HETATM   15  C17 UNL     1      -7.632  -0.090   0.022  1.00  0.00     0.031 C 
HETATM   16  C18 UNL     1      -6.701   0.991  -0.410  1.00  0.00    -0.020 C 
HETATM   17  C19 UNL     1      -6.228   1.887   0.684  1.00  0.00     0.039 C 
HETATM   18  C22 UNL     1      -7.244   1.851  -1.546  1.00  0.00     0.039 C 
HETATM   19  C23 UNL     1      -5.524   0.187  -0.929  1.00  0.00     0.132 C 
HETATM   20  C20 UNL     1      -7.286   2.869   1.110  1.00  0.00     0.233 C 
HETATM   21  N4  UNL     1      -7.786   3.655  -0.014  1.00  0.00    -0.075 N 
HETATM   22  C21 UNL     1      -8.282   2.792  -1.057  1.00  0.00     0.233 C 
ATOM     23  H42 UNL     1      -8.488   4.334   0.281  1.00  0.00     0.277 HD
ATOM     24  H41 UNL     1      -7.082   4.305  -0.364  1.00  0.00     0.277 HD
ENDBRANCH   7  13
BRANCH   1  25
HETATM   25  C9  UNL     1       1.097  -1.724   0.736  1.00  0.00    -0.064 C 
HETATM   26  C8  UNL     1       2.213  -2.410   1.398  1.00  0.00     0.037 C 
HETATM   27  C7  UNL     1       3.585  -2.106   0.681  1.00  0.00     0.037 C 
HETATM   28  C6  UNL     1       3.841  -0.689   0.505  1.00  0.00     0.187 C 
HETATM   29  C29 UNL     1       2.574   0.160   0.463  1.00  0.00     0.037 C 
HETATM   30  C28 UNL     1       1.627  -0.768  -0.356  1.00  0.00     0.037 C 
BRANCH  28  31
HETATM   31  N1  UNL     1       4.973   0.005   0.983  1.00  0.00    -0.067 N 
ATOM     32  H12 UNL     1       5.323  -0.422   1.841  1.00  0.00     0.278 HD
ATOM     33  H11 UNL     1       4.709   0.921   1.346  1.00  0.00     0.278 HD
BRANCH  31  34
HETATM   34  C5  UNL     1       6.050   0.129  -0.017  1.00  0.00     0.186 C 
HETATM   35  C4  UNL     1       7.354  -0.173   0.543  1.00  0.00     0.035 C 
HETATM   36  C3  UNL     1       8.508   0.727   0.126  1.00  0.00     0.034 C 
HETATM   37  C2  UNL     1       8.033   2.142   0.169  1.00  0.00     0.120 C 
HETATM   38  C31 UNL     1       7.036   2.254  -1.012  1.00  0.00     0.034 C 
HETATM   39  C30 UNL     1       5.824   1.533  -0.563  1.00  0.00     0.035 C 
BRANCH  37  40
HETATM   40  O1  UNL     1       8.977   3.124   0.122  1.00  0.00    -0.391 OA
HETATM   41  C1  UNL     1       8.819   3.939   1.270  1.00  0.00     0.202 C 
ENDBRANCH  37  40
ENDBRANCH  31  34
ENDBRANCH  28  31
ENDBRANCH   1  25
BRANCH   2  42
HETATM   42  O2  UNL     1       0.947  -3.729  -1.427  1.00  0.00    -0.345 OA
ATOM     43  H2  UNL     1       0.905  -4.293  -2.190  1.00  0.00     0.219 HD
ENDBRANCH   2  42
TORSDOF 6
