REMARK  6 active torsions:
REMARK  status: ('A' for Active; 'I' for Inactive)
REMARK    1  A    between atoms: C5_5  and  C6_6 
REMARK    2  A    between atoms: C6_6  and  N1_7 
REMARK    3  A    between atoms: C9_10  and  N2_11 
REMARK    4  A    between atoms: C17_19  and  N3_20 
REMARK    5  A    between atoms: C22_26  and  N4_27 
REMARK       I    between atoms: N4_27  and  C23_29 
REMARK       I    between atoms: C23_29  and  N5_31 
REMARK    6  A    between atoms: N5_31  and  C24_33 
ROOT
HETATM    1  C1  UNL     1      -4.327  -2.474  -2.076  1.00  0.00     0.051 C 
HETATM    2  C2  UNL     1      -2.979  -2.084  -1.559  1.00  0.00    -0.024 A 
HETATM    3  C3  UNL     1      -1.858  -2.762  -1.951  1.00  0.00    -0.022 A 
HETATM    4  C4  UNL     1      -0.603  -2.438  -1.500  1.00  0.00     0.048 A 
HETATM    5  C5  UNL     1      -0.465  -1.349  -0.586  1.00  0.00     0.030 A 
HETATM    6  C17 UNL     1      -1.555  -0.640  -0.164  1.00  0.00     0.071 A 
HETATM    7  C22 UNL     1      -2.806  -1.040  -0.678  1.00  0.00     0.070 A 
HETATM    8  N6  UNL     1       0.543  -3.162  -1.917  1.00  0.00    -0.389 N 
ATOM      9  H6  UNL     1       1.430  -3.076  -1.421  1.00  0.00     0.159 HD
HETATM   10  C27 UNL     1       0.410  -4.033  -3.078  1.00  0.00     0.120 C 
HETATM   11  C28 UNL     1      -0.846  -4.855  -2.845  1.00  0.00     0.024 C 
HETATM   12  C29 UNL     1      -2.022  -3.895  -2.907  1.00  0.00     0.043 C 
ENDROOT
BRANCH   5  13
HETATM   13  C6  UNL     1       0.888  -1.181  -0.119  1.00  0.00     0.075 C 
BRANCH  13  14
HETATM   14  N1  UNL     1       1.372  -0.152   0.681  1.00  0.00    -0.292 NA
HETATM   15  C7  UNL     1       2.429  -0.734   1.542  1.00  0.00     0.097 C 
HETATM   16  C8  UNL     1       3.623  -1.028   0.724  1.00  0.00     0.050 C 
HETATM   17  C9  UNL     1       4.421   0.262   0.646  1.00  0.00     0.225 C 
HETATM   18  C15 UNL     1       3.345   1.368   0.560  1.00  0.00     0.050 C 
HETATM   19  C16 UNL     1       2.124   0.846  -0.104  1.00  0.00     0.097 C 
BRANCH  17  20
HETATM   20  N2  UNL     1       5.224   0.549   1.775  1.00  0.00     0.093 N 
HETATM   21  C10 UNL     1       5.715   1.912   1.631  1.00  0.00     0.273 C 
HETATM   22  C11 UNL     1       7.075   2.101   2.263  1.00  0.00     0.030 C 
HETATM   23  C12 UNL     1       8.146   1.336   1.526  1.00  0.00     0.003 C 
HETATM   24  C13 UNL     1       7.509   0.063   1.014  1.00  0.00     0.030 C 
HETATM   25  C14 UNL     1       6.374  -0.295   1.948  1.00  0.00     0.273 C 
ENDBRANCH  17  20
ENDBRANCH  13  14
ENDBRANCH   5  13
BRANCH   6  26
HETATM   26  N3  UNL     1      -1.553   0.448   0.774  1.00  0.00    -0.374 N 
HETATM   27  C18 UNL     1      -1.507   1.843   0.496  1.00  0.00     0.149 C 
HETATM   28  C19 UNL     1      -2.314   2.648   1.505  1.00  0.00     0.187 C 
HETATM   29  O1  UNL     1      -3.219   1.953   2.234  1.00  0.00    -0.388 OA
HETATM   30  C20 UNL     1      -2.814   0.803   2.844  1.00  0.00     0.187 C 
HETATM   31  C21 UNL     1      -1.609   0.135   2.225  1.00  0.00     0.149 C 
ENDBRANCH   6  26
BRANCH   7  32
HETATM   32  N4  UNL     1      -3.964  -0.342  -0.262  1.00  0.00    -0.306 N 
HETATM   33  C23 UNL     1      -4.525   0.737  -0.987  1.00  0.00     0.321 C 
HETATM   34  O2  UNL     1      -4.001   1.133  -2.084  1.00  0.00    -0.247 OA
HETATM   35  N5  UNL     1      -5.672   1.418  -0.544  1.00  0.00    -0.339 N 
ATOM     36  H5  UNL     1      -6.108   1.122   0.329  1.00  0.00     0.164 HD
ATOM     37  H4  UNL     1      -4.418  -0.631   0.605  1.00  0.00     0.171 HD
BRANCH  35  38
HETATM   38  C24 UNL     1      -6.262   2.523  -1.275  1.00  0.00     0.078 C 
HETATM   39  C25 UNL     1      -7.715   2.216  -1.557  1.00  0.00     0.032 C 
HETATM   40  C26 UNL     1      -6.204   3.790  -0.443  1.00  0.00     0.032 C 
ENDBRANCH  35  38
ENDBRANCH   7  32
TORSDOF 6
