REMARK  9 active torsions:
REMARK  status: ('A' for Active; 'I' for Inactive)
REMARK    1  A    between atoms: C2_2  and  C3_3 
REMARK    2  A    between atoms: C10_10  and  O1_11 
REMARK    3  A    between atoms: C11_13  and  O2_15 
REMARK    4  A    between atoms: O2_15  and  S1_16 
REMARK    5  A    between atoms: C13_19  and  C14_20 
REMARK    6  A    between atoms: C14_20  and  O5_21 
REMARK    7  A    between atoms: O5_21  and  C15_22 
REMARK    8  A    between atoms: C15_22  and  C16_24 
REMARK    9  A    between atoms: C25_33  and  O7_34 
ROOT
HETATM    1  C3  UNL     1      -3.170  -0.739   1.006  1.00  0.00    -0.040 C 
HETATM    2  C4  UNL     1      -3.609  -2.079   1.501  1.00  0.00     0.015 C 
HETATM    3  C5  UNL     1      -2.526  -0.073   2.193  1.00  0.00     0.010 C 
HETATM    4  C6  UNL     1      -2.083   1.276   1.750  1.00  0.00     0.014 C 
HETATM    5  C7  UNL     1      -0.669   1.193   1.344  1.00  0.00    -0.005 C 
HETATM    6  C8  UNL     1       0.149   0.776   2.510  1.00  0.00     0.023 C 
HETATM    7  C9  UNL     1       1.063   1.894   2.192  1.00  0.00     0.052 C 
HETATM    8  C10 UNL     1      -0.080   2.593   1.551  1.00  0.00     0.134 C 
HETATM    9  C11 UNL     1       1.942   1.401   1.030  1.00  0.00     0.090 C 
HETATM   10  C12 UNL     1       2.661   2.680   0.676  1.00  0.00     0.048 C 
HETATM   11  C13 UNL     1       1.176   0.740  -0.040  1.00  0.00     0.056 C 
HETATM   12  C19 UNL     1      -0.297   0.673   0.002  1.00  0.00    -0.018 C 
HETATM   13  C20 UNL     1      -0.866   1.706  -0.987  1.00  0.00     0.017 C 
HETATM   14  C21 UNL     1      -0.942  -0.664  -0.338  1.00  0.00    -0.031 C 
HETATM   15  C22 UNL     1      -0.289  -1.848   0.295  1.00  0.00     0.016 C 
HETATM   16  C23 UNL     1      -0.791  -0.996  -1.839  1.00  0.00     0.013 C 
HETATM   17  C24 UNL     1      -1.073  -2.471  -2.114  1.00  0.00     0.032 C 
HETATM   18  C25 UNL     1      -2.530  -2.629  -1.898  1.00  0.00     0.118 C 
HETATM   19  C26 UNL     1      -3.188  -1.434  -1.292  1.00  0.00     0.038 C 
HETATM   20  C27 UNL     1      -2.440  -0.642  -0.256  1.00  0.00     0.005 C 
ENDROOT
BRANCH  11  21
HETATM   21  C14 UNL     1       1.883   1.023  -1.348  1.00  0.00     0.187 C 
BRANCH  21  22
HETATM   22  O5  UNL     1       3.064   0.542  -1.557  1.00  0.00    -0.321 OA
BRANCH  22  23
HETATM   23  C15 UNL     1       4.239   0.065  -1.765  1.00  0.00     0.262 C 
HETATM   24  O6  UNL     1       5.068   0.461  -0.861  1.00  0.00    -0.265 OA
BRANCH  23  25
HETATM   25  C16 UNL     1       4.715  -0.831  -2.857  1.00  0.00     0.077 C 
HETATM   26  C17 UNL     1       3.977  -2.143  -2.870  1.00  0.00     0.020 C 
HETATM   27  C18 UNL     1       6.179  -1.100  -2.754  1.00  0.00     0.020 C 
ENDBRANCH  23  25
ENDBRANCH  22  23
ENDBRANCH  21  22
ENDBRANCH  11  21
BRANCH   9  28
HETATM   28  O2  UNL     1       2.871   0.586   1.656  1.00  0.00    -0.251 OA
BRANCH  28  29
HETATM   29  S1  UNL     1       3.786   1.435   2.810  1.00  0.00     0.401 S 
HETATM   30  O3  UNL     1       4.085   0.474   3.954  1.00  0.00    -0.179 OA
HETATM   31  O4  UNL     1       5.274   1.966   2.182  1.00  0.00    -0.179 OA
ENDBRANCH  28  29
ENDBRANCH   9  28
BRANCH   8  32
HETATM   32  O1  UNL     1      -0.749   3.346   2.548  1.00  0.00    -0.394 OA
ATOM     33  H1  UNL     1      -0.384   4.214   2.676  1.00  0.00     0.210 HD
ENDBRANCH   8  32
BRANCH   1  34
HETATM   34  C2  UNL     1      -4.499   0.028   0.808  1.00  0.00     0.005 C 
HETATM   35  C1  UNL     1      -5.301   0.187   2.053  1.00  0.00     0.006 C 
ENDBRANCH   1  34
BRANCH  18  36
HETATM   36  O7  UNL     1      -3.170  -2.919  -3.106  1.00  0.00    -0.396 OA
ATOM     37  H7  UNL     1      -4.104  -3.020  -2.967  1.00  0.00     0.210 HD
ENDBRANCH  18  36
TORSDOF 9
