REMARK  2 active torsions:
REMARK  status: ('A' for Active; 'I' for Inactive)
REMARK    1  A    between atoms: C2_5  and  C3_6 
REMARK    2  A    between atoms: C6_9  and  N3_10 
ROOT
HETATM    1  N1  UNL     1       4.013   1.267  -0.364  1.00  0.00    -0.172 NA
HETATM    2  C1  UNL     1       3.477   0.273  -0.032  1.00  0.00     0.181 C 
HETATM    3  N2  UNL     1       2.891  -0.893   0.359  1.00  0.00    -0.302 N 
ATOM      4  H2  UNL     1       3.541  -1.627   0.639  1.00  0.00     0.177 HD
HETATM    5  C2  UNL     1       1.700  -1.201   0.428  1.00  0.00     0.136 C 
ENDROOT
BRANCH   5   6
HETATM    6  C3  UNL     1       0.495  -0.459   0.127  1.00  0.00     0.094 A 
HETATM    7  C4  UNL     1       0.312   0.823  -0.330  1.00  0.00     0.043 A 
HETATM    8  C5  UNL     1      -1.042   1.069  -0.460  1.00  0.00     0.065 A 
HETATM    9  C6  UNL     1      -1.642  -0.101  -0.069  1.00  0.00     0.215 A 
HETATM   10  O3  UNL     1      -0.739  -0.950   0.260  1.00  0.00    -0.287 OA
BRANCH   9  11
HETATM   11  N3  UNL     1      -3.052  -0.319  -0.038  1.00  0.00    -0.090 N 
HETATM   12  O1  UNL     1      -3.532  -1.407   0.329  1.00  0.00    -0.530 OA
HETATM   13  O2  UNL     1      -3.931   0.667  -0.414  1.00  0.00    -0.530 OA
ENDBRANCH   9  11
ENDBRANCH   5   6
TORSDOF 2
