REMARK  3 active torsions:
REMARK  status: ('A' for Active; 'I' for Inactive)
REMARK    1  A    between atoms: C1_2  and  C2_4 
REMARK    2  A    between atoms: C2_4  and  C3_5 
REMARK    3  A    between atoms: N1_9  and  O3_10 
ROOT
HETATM    1  C3  UNL     1      -0.388   0.333   0.034  1.00  0.00     0.119 C 
HETATM    2  C4  UNL     1      -1.362   0.753  -0.935  1.00  0.00     0.111 C 
HETATM    3  S1  UNL     1      -3.029   0.276  -0.455  1.00  0.00    -0.077 SA
HETATM    4  S2  UNL     1      -2.320  -1.062   1.087  1.00  0.00     0.018 SA
HETATM    5  N1  UNL     1      -0.773  -0.288   1.194  1.00  0.00    -0.122 NA
ENDROOT
BRANCH   1   6
HETATM    6  C2  UNL     1       0.732  -0.479  -0.653  1.00  0.00     0.137 C 
BRANCH   6   7
HETATM    7  C1  UNL     1       1.718  -0.916   0.363  1.00  0.00     0.174 C 
HETATM    8  O1  UNL     1       1.810  -2.152   0.634  1.00  0.00    -0.648 OA
HETATM    9  O2  UNL     1       2.546  -0.024   1.032  1.00  0.00    -0.648 OA
ENDBRANCH   6   7
ENDBRANCH   1   6
BRANCH   5  10
HETATM   10  O3  UNL     1      -0.822   0.533   2.294  1.00  0.00    -0.301 OA
ATOM     11  H3  UNL     1      -1.089   0.103   3.098  1.00  0.00     0.238 HD
ENDBRANCH   5  10
TORSDOF 3
