REMARK  3 active torsions:
REMARK  status: ('A' for Active; 'I' for Inactive)
REMARK    1  A    between atoms: N2_8  and  N3_9 
REMARK    2  A    between atoms: N3_9  and  C4_11 
REMARK    3  A    between atoms: C4_11  and  C5_12 
ROOT
HETATM    1  N1  UNL     1      -2.629   2.381  -0.589  1.00  0.00    -0.363 N 
ATOM      2  H11 UNL     1      -1.737   2.859  -0.460  1.00  0.00     0.159 HD
ATOM      3  H12 UNL     1      -3.330   3.078  -0.841  1.00  0.00     0.159 HD
HETATM    4  C1  UNL     1      -2.833   1.118  -0.455  1.00  0.00     0.243 A 
HETATM    5  O1  UNL     1      -3.980   0.503  -0.621  1.00  0.00    -0.289 OA
HETATM    6  C2  UNL     1      -3.840  -0.792  -0.407  1.00  0.00     0.165 A 
HETATM    7  C3  UNL     1      -2.522  -0.997  -0.088  1.00  0.00     0.145 A 
HETATM    8  N2  UNL     1      -1.899   0.189  -0.119  1.00  0.00    -0.229 N 
ENDROOT
BRANCH   8   9
HETATM    9  N3  UNL     1      -0.553   0.405   0.146  1.00  0.00    -0.300 N 
ATOM     10  H3  UNL     1      -0.265   1.289   0.566  1.00  0.00     0.186 HD
BRANCH   9  11
HETATM   11  C4  UNL     1       0.340  -0.479  -0.124  1.00  0.00     0.145 C 
BRANCH  11  12
HETATM   12  C5  UNL     1       1.741  -0.147   0.199  1.00  0.00     0.091 A 
HETATM   13  C6  UNL     1       2.850  -0.937  -0.003  1.00  0.00     0.040 A 
HETATM   14  C7  UNL     1       3.947  -0.248   0.436  1.00  0.00     0.027 A 
HETATM   15  C8  UNL     1       3.472   0.960   0.901  1.00  0.00     0.142 A 
HETATM   16  O2  UNL     1       2.172   0.966   0.737  1.00  0.00    -0.321 OA
ENDBRANCH  11  12
ENDBRANCH   9  11
ENDBRANCH   8   9
TORSDOF 3
