REMARK  4 active torsions:
REMARK  status: ('A' for Active; 'I' for Inactive)
REMARK    1  A    between atoms: O1_1  and  N1_3 
REMARK    2  A    between atoms: N1_3  and  N2_5 
REMARK    3  A    between atoms: N3_7  and  C1_9 
REMARK    4  A    between atoms: C6_14  and  N4_15 
ROOT
HETATM    1  C1  UNL     1       0.290   0.310   0.669  1.00  0.00     0.082 A 
HETATM    2  C2  UNL     1      -0.092  -0.897   1.264  1.00  0.00     0.033 A 
HETATM    3  C3  UNL     1      -1.167  -1.625   0.774  1.00  0.00     0.002 A 
HETATM    4  C4  UNL     1      -1.889  -1.186  -0.310  1.00  0.00     0.003 A 
HETATM    5  C5  UNL     1      -1.514   0.002  -0.897  1.00  0.00     0.038 A 
HETATM    6  C6  UNL     1      -0.439   0.746  -0.419  1.00  0.00     0.131 A 
ENDROOT
BRANCH   1   7
HETATM    7  N3  UNL     1       1.382   1.067   1.154  1.00  0.00    -0.283 N 
HETATM    8  N2  UNL     1       2.544   0.820   0.723  1.00  0.00    -0.223 N 
ATOM      9  H2  UNL     1       3.336   1.362   1.069  1.00  0.00     0.210 HD
ATOM     10  H3  UNL     1       1.233   1.804   1.844  1.00  0.00     0.188 HD
BRANCH   8  11
HETATM   11  N1  UNL     1       2.756  -0.186  -0.221  1.00  0.00    -0.196 N 
ATOM     12  H1  UNL     1       2.167  -0.215  -1.053  1.00  0.00     0.217 HD
BRANCH  11  13
HETATM   13  O1  UNL     1       3.637  -1.045  -0.080  1.00  0.00    -0.273 OA
ATOM     14  H1  UNL     1       3.781  -1.730  -0.723  1.00  0.00     0.246 HD
ENDBRANCH  11  13
ENDBRANCH   8  11
ENDBRANCH   1   7
BRANCH   6  15
HETATM   15  N4  UNL     1      -0.050   1.977  -1.026  1.00  0.00    -0.113 N 
HETATM   16  O2  UNL     1      -0.266   2.222  -2.239  1.00  0.00    -0.532 OA
HETATM   17  O3  UNL     1       0.583   2.935  -0.270  1.00  0.00    -0.532 OA
ENDBRANCH   6  15
TORSDOF 4
