REMARK  3 active torsions:
REMARK  status: ('A' for Active; 'I' for Inactive)
REMARK    1  A    between atoms: N1_3  and  O1_4 
REMARK    2  A    between atoms: N1_3  and  C3_6 
REMARK    3  A    between atoms: C6_9  and  N2_10 
ROOT
HETATM    1  C1  UNL     1       3.733  -0.131  -0.516  1.00  0.00     0.039 C 
HETATM    2  C2  UNL     1       2.684   0.371  -0.189  1.00  0.00     0.032 C 
HETATM    3  N1  UNL     1       1.480   0.940   0.192  1.00  0.00    -0.157 N 
ENDROOT
BRANCH   3   4
HETATM    4  O1  UNL     1       1.478   2.159   0.750  1.00  0.00    -0.273 OA
ATOM      5  H1  UNL     1       0.652   2.549   1.011  1.00  0.00     0.246 HD
ENDBRANCH   3   4
BRANCH   3   6
HETATM    6  C3  UNL     1       0.263   0.256   0.002  1.00  0.00     0.185 A 
HETATM    7  C4  UNL     1       0.153  -0.999  -0.561  1.00  0.00     0.064 A 
HETATM    8  C5  UNL     1      -1.191  -1.301  -0.563  1.00  0.00     0.067 A 
HETATM    9  C6  UNL     1      -1.849  -0.227  -0.007  1.00  0.00     0.216 A 
HETATM   10  O4  UNL     1      -0.949   0.672   0.314  1.00  0.00    -0.268 OA
BRANCH   9  11
HETATM   11  N2  UNL     1      -3.270  -0.123   0.184  1.00  0.00    -0.090 N 
HETATM   12  O2  UNL     1      -4.008  -1.057  -0.169  1.00  0.00    -0.530 OA
HETATM   13  O3  UNL     1      -3.821   0.985   0.746  1.00  0.00    -0.530 OA
ENDBRANCH   9  11
ENDBRANCH   3   6
TORSDOF 3
