REMARK  3 active torsions:
REMARK  status: ('A' for Active; 'I' for Inactive)
REMARK    1  A    between atoms: N1_3  and  C3_4 
REMARK    2  A    between atoms: C3_4  and  N2_5 
REMARK    3  A    between atoms: C8_11  and  O2_12 
ROOT
HETATM    1  C1  UNL     1       0.532   2.771  -0.258  1.00  0.00     0.064 C 
HETATM    2  C2  UNL     1       0.701   1.472  -0.071  1.00  0.00     0.107 A 
HETATM    3  N1  UNL     1      -0.315   0.460  -0.239  1.00  0.00    -0.277 N 
HETATM    4  C8  UNL     1       0.275  -0.777   0.056  1.00  0.00     0.172 A 
HETATM    5  C9  UNL     1       1.570  -0.621   0.394  1.00  0.00     0.065 A 
HETATM    6  C10 UNL     1       2.465  -1.723   0.757  1.00  0.00     0.062 C 
HETATM    7  C11 UNL     1       3.776  -1.718   0.029  1.00  0.00     0.006 C 
HETATM    8  C12 UNL     1       4.639  -0.535   0.400  1.00  0.00     0.002 C 
HETATM    9  C13 UNL     1       4.177   0.737  -0.274  1.00  0.00     0.020 C 
HETATM   10  C14 UNL     1       3.136   1.403   0.602  1.00  0.00     0.131 C 
HETATM   11  N3  UNL     1       1.865   0.765   0.324  1.00  0.00    -0.333 N 
ENDROOT
BRANCH   3  12
HETATM   12  C3  UNL     1      -1.646   0.762  -0.661  1.00  0.00     0.163 C 
BRANCH  12  13
HETATM   13  N2  UNL     1      -2.580  -0.320  -0.547  1.00  0.00    -0.275 NA
HETATM   14  C4  UNL     1      -3.825   0.146  -1.158  1.00  0.00     0.122 C 
HETATM   15  C5  UNL     1      -5.015  -0.696  -0.730  1.00  0.00     0.182 C 
HETATM   16  O1  UNL     1      -5.241  -0.564   0.644  1.00  0.00    -0.389 OA
HETATM   17  C6  UNL     1      -4.145   0.039   1.267  1.00  0.00     0.182 C 
HETATM   18  C7  UNL     1      -2.874  -0.621   0.850  1.00  0.00     0.122 C 
ENDBRANCH  12  13
ENDBRANCH   3  12
BRANCH   4  19
HETATM   19  O2  UNL     1      -0.304  -2.031   0.030  1.00  0.00    -0.344 OA
ATOM     20  H2  UNL     1       0.096  -2.869   0.230  1.00  0.00     0.219 HD
ENDBRANCH   4  19
TORSDOF 3
