REMARK  3 active torsions:
REMARK  status: ('A' for Active; 'I' for Inactive)
REMARK    1  A    between atoms: C2_3  and  C8_13 
REMARK    2  A    between atoms: N2_4  and  N3_6 
REMARK       I    between atoms: C8_13  and  N4_15 
REMARK    3  A    between atoms: N4_15  and  C9_17 
ROOT
HETATM    1  N1  UNL     1      -0.803   2.113   1.514  1.00  0.00    -0.190 NA
HETATM    2  C1  UNL     1      -0.309   1.062   1.563  1.00  0.00     0.125 C 
HETATM    3  C2  UNL     1       0.309  -0.226   1.611  1.00  0.00     0.197 C 
HETATM    4  N2  UNL     1      -0.424  -1.269   1.520  1.00  0.00    -0.286 N 
ATOM      5  H2  UNL     1      -0.006  -2.199   1.553  1.00  0.00     0.188 HD
ENDROOT
BRANCH   3   6
HETATM    6  C8  UNL     1       1.753  -0.354   1.762  1.00  0.00     0.286 C 
HETATM    7  O1  UNL     1       2.291  -1.491   1.804  1.00  0.00    -0.265 OA
HETATM    8  N4  UNL     1       2.585   0.782   1.865  1.00  0.00    -0.301 N 
ATOM      9  H4  UNL     1       2.514   1.388   2.683  1.00  0.00     0.171 HD
BRANCH   8  10
HETATM   10  C9  UNL     1       3.454   1.068   0.914  1.00  0.00     0.151 A 
HETATM   11  N5  UNL     1       4.298   2.096   0.873  1.00  0.00    -0.346 N 
HETATM   12  C10 UNL     1       5.087   2.218  -0.152  1.00  0.00     0.097 A 
ATOM     13  H5  UNL     1       4.325   2.776   1.633  1.00  0.00     0.167 HD
HETATM   14  C11 UNL     1       5.006   1.273  -1.141  1.00  0.00     0.070 A 
HETATM   15  S1  UNL     1       3.784   0.242  -0.544  1.00  0.00    -0.064 SA
ENDBRANCH   8  10
ENDBRANCH   3   6
BRANCH   4  16
HETATM   16  N3  UNL     1      -1.799  -1.118   1.376  1.00  0.00    -0.308 N 
HETATM   17  C3  UNL     1      -2.393  -0.938   0.262  1.00  0.00     0.004 C 
HETATM   18  C4  UNL     1      -3.852  -0.777   0.092  1.00  0.00     0.054 C 
HETATM   19  C7  UNL     1      -1.792  -0.849  -1.085  1.00  0.00     0.054 C 
HETATM   20  C5  UNL     1      -4.112  -1.536  -1.193  1.00  0.00     0.006 C 
HETATM   21  C6  UNL     1      -2.942  -1.106  -2.048  1.00  0.00     0.006 C 
ATOM     22  H3  UNL     1      -2.372  -1.154   2.219  1.00  0.00     0.186 HD
ENDBRANCH   4  16
TORSDOF 3
