REMARK  3 active torsions:
REMARK  status: ('A' for Active; 'I' for Inactive)
REMARK    1  A    between atoms: C4_4  and  N1_5 
REMARK    2  A    between atoms: N1_5  and  C5_7 
REMARK    3  A    between atoms: C6_12  and  N4_13 
ROOT
HETATM    1  C5  UNL     1       0.755  -0.400  -0.574  1.00  0.00     0.163 A 
HETATM    2  N2  UNL     1       0.259   0.445   0.336  1.00  0.00    -0.278 N 
ATOM      3  H2  UNL     1       0.881   0.986   0.936  1.00  0.00     0.189 HD
HETATM    4  N3  UNL     1      -1.000   0.560   0.438  1.00  0.00    -0.278 N 
ATOM      5  H3  UNL     1      -1.394   1.200   1.128  1.00  0.00     0.189 HD
HETATM    6  C6  UNL     1      -1.809  -0.141  -0.341  1.00  0.00     0.165 A 
HETATM    7  S1  UNL     1      -0.671  -1.021  -1.278  1.00  0.00    -0.015 SA
ENDROOT
BRANCH   1   8
HETATM    8  N1  UNL     1       1.978  -0.703  -0.880  1.00  0.00    -0.365 N 
ATOM      9  H1  UNL     1       2.115  -1.388  -1.623  1.00  0.00     0.162 HD
BRANCH   8  10
HETATM   10  C4  UNL     1       3.137  -0.168  -0.275  1.00  0.00     0.083 C 
HETATM   11  C3  UNL     1       4.328  -0.055  -1.166  1.00  0.00     0.025 C 
HETATM   12  C2  UNL     1       5.516   0.064  -0.250  1.00  0.00     0.002 C 
HETATM   13  C1  UNL     1       4.993  -0.249   1.158  1.00  0.00     0.002 C 
HETATM   14  C11 UNL     1       3.653  -0.952   0.904  1.00  0.00     0.025 C 
ENDBRANCH   8  10
ENDBRANCH   1   8
BRANCH   6  15
HETATM   15  N4  UNL     1      -3.246  -0.160  -0.389  1.00  0.00    -0.356 N 
HETATM   16  C7  UNL     1      -3.953   0.756  -1.263  1.00  0.00     0.151 C 
HETATM   17  C8  UNL     1      -4.970   1.483  -0.380  1.00  0.00     0.187 C 
HETATM   18  O1  UNL     1      -5.828   0.483   0.109  1.00  0.00    -0.388 OA
HETATM   19  C9  UNL     1      -5.113  -0.209   1.088  1.00  0.00     0.187 C 
HETATM   20  C10 UNL     1      -4.036  -1.066   0.409  1.00  0.00     0.151 C 
ENDBRANCH   6  15
TORSDOF 3
