REMARK  3 active torsions:
REMARK  status: ('A' for Active; 'I' for Inactive)
REMARK    1  A    between atoms: C2_2  and  N1_3 
REMARK    2  A    between atoms: N1_3  and  C3_5 
REMARK    3  A    between atoms: N4_11  and  C5_12 
ROOT
HETATM    1  C3  UNL     1       1.290  -0.781   0.536  1.00  0.00     0.696 A 
HETATM    2  N2  UNL     1       2.311  -1.375  -0.105  1.00  0.00    -0.185 N 
ATOM      3  H2  UNL     1       3.302  -1.306   0.127  1.00  0.00     0.185 HD
HETATM    4  C4  UNL     1       1.768  -2.075  -1.109  1.00  0.00     0.215 A 
HETATM    5  N3  UNL     1       0.445  -1.889  -1.051  1.00  0.00    -0.279 N 
ATOM      6  H3  UNL     1      -0.221  -2.308  -1.700  1.00  0.00     0.188 HD
HETATM    7  N4  UNL     1       0.107  -1.096  -0.050  1.00  0.00    -0.117 N 
ENDROOT
BRANCH   7   8
HETATM    8  C5  UNL     1      -1.211  -0.648   0.355  1.00  0.00     0.142 C 
HETATM    9  C6  UNL     1      -2.216  -1.648  -0.104  1.00  0.00     0.102 C 
HETATM   10  S1  UNL     1      -2.564  -1.054  -1.807  1.00  0.00    -0.161 SA
HETATM   11  C7  UNL     1      -1.569   0.488  -1.708  1.00  0.00     0.063 C 
HETATM   12  C8  UNL     1      -2.235   1.625  -2.387  1.00  0.00     0.089 C 
HETATM   13  C10 UNL     1      -1.569   0.697  -0.232  1.00  0.00     0.036 C 
HETATM   14  S2  UNL     1      -3.579   2.022  -1.201  1.00  0.00    -0.167 SA
HETATM   15  C9  UNL     1      -2.934   1.061   0.226  1.00  0.00     0.082 C 
ENDBRANCH   7   8
BRANCH   1  16
HETATM   16  N1  UNL     1       1.429  -0.012   1.575  1.00  0.00    -0.225 N 
ATOM     17  H1  UNL     1       0.603   0.402   2.007  1.00  0.00     0.177 HD
BRANCH  16  18
HETATM   18  C2  UNL     1       2.721   0.263   2.123  1.00  0.00     0.134 C 
HETATM   19  C1  UNL     1       3.499   1.297   1.339  1.00  0.00     0.027 C 
ENDBRANCH  16  18
ENDBRANCH   1  16
TORSDOF 3
