REMARK  3 active torsions:
REMARK  status: ('A' for Active; 'I' for Inactive)
REMARK    1  A    between atoms: N1_2  and  C1_4 
REMARK    2  A    between atoms: C2_5  and  O3_6 
REMARK    3  A    between atoms: C3_9  and  N2_10 
ROOT
HETATM    1  C1  UNL     1       3.108   0.029   0.188  1.00  0.00     0.186 A 
HETATM    2  C2  UNL     1       2.716   1.322  -0.081  1.00  0.00     0.221 A 
HETATM    3  O4  UNL     1       1.425   1.368  -0.151  1.00  0.00    -0.267 OA
HETATM    4  C3  UNL     1       0.862   0.193   0.050  1.00  0.00     0.173 A 
HETATM    5  C9  UNL     1       1.923  -0.684   0.271  1.00  0.00     0.123 A 
HETATM    6 CL1  UNL     1       1.728  -2.376   0.584  1.00  0.00    -0.077 Cl
ENDROOT
BRANCH   4   7
HETATM    7  N2  UNL     1      -0.527  -0.125   0.048  1.00  0.00    -0.360 N 
HETATM    8  C4  UNL     1      -1.147  -0.407  -1.229  1.00  0.00     0.125 C 
HETATM    9  C5  UNL     1      -2.534  -0.961  -0.917  1.00  0.00     0.020 C 
HETATM   10  C6  UNL     1      -3.253   0.159  -0.178  1.00  0.00     0.003 C 
HETATM   11  C7  UNL     1      -2.649   0.360   1.186  1.00  0.00     0.020 C 
HETATM   12  C8  UNL     1      -1.256  -0.161   1.301  1.00  0.00     0.125 C 
ENDBRANCH   4   7
BRANCH   2  13
HETATM   13  O3  UNL     1       3.644   2.369  -0.240  1.00  0.00    -0.339 OA
ATOM     14  H3  UNL     1       3.374   3.261  -0.425  1.00  0.00     0.220 HD
ENDBRANCH   2  13
BRANCH   1  15
HETATM   15  N1  UNL     1       4.419  -0.494   0.370  1.00  0.00    -0.109 N 
HETATM   16  O1  UNL     1       5.141  -0.729  -0.612  1.00  0.00    -0.532 OA
HETATM   17  O2  UNL     1       4.852  -0.740   1.658  1.00  0.00    -0.532 OA
ENDBRANCH   1  15
TORSDOF 3
