REMARK  3 active torsions:
REMARK  status: ('A' for Active; 'I' for Inactive)
REMARK    1  A    between atoms: C5_6  and  N1_7 
REMARK    2  A    between atoms: N2_9  and  C6_11 
REMARK    3  A    between atoms: C11_17  and  O2_18 
ROOT
HETATM    1  C1  UNL     1       4.710  -1.021  -1.152  1.00  0.00     0.068 C 
HETATM    2  C2  UNL     1       3.438  -0.343  -0.798  1.00  0.00     0.013 A 
HETATM    3  C3  UNL     1       3.304   0.417   0.352  1.00  0.00     0.082 A 
HETATM    4  C4  UNL     1       2.114   1.043   0.655  1.00  0.00     0.206 A 
HETATM    5  O1  UNL     1       1.957   1.733   1.678  1.00  0.00    -0.286 OA
HETATM    6  C5  UNL     1       0.991   0.933  -0.191  1.00  0.00     0.149 A 
HETATM    7  C11 UNL     1       1.192   0.158  -1.324  1.00  0.00     0.175 A 
HETATM    8  N3  UNL     1       2.375  -0.444  -1.593  1.00  0.00    -0.334 N 
HETATM    9  C12 UNL     1       2.483  -1.231  -2.803  1.00  0.00     0.158 C 
ENDROOT
BRANCH   6  10
HETATM   10  N1  UNL     1      -0.188   1.558   0.114  1.00  0.00    -0.297 N 
HETATM   11  N2  UNL     1      -1.262   1.590   0.497  1.00  0.00    -0.328 N 
ATOM     12  H2  UNL     1      -1.678   2.521   0.460  1.00  0.00     0.180 HD
ATOM     13  H1  UNL     1      -0.006   2.529  -0.142  1.00  0.00     0.187 HD
BRANCH  11  14
HETATM   14  C6  UNL     1      -2.137   0.603   1.013  1.00  0.00     0.133 C 
HETATM   15  C7  UNL     1      -2.749   1.023   2.345  1.00  0.00     0.029 C 
HETATM   16  C8  UNL     1      -3.897   0.064   2.489  1.00  0.00     0.005 C 
HETATM   17  C9  UNL     1      -4.370  -0.195   1.100  1.00  0.00     0.039 C 
HETATM   18  C10 UNL     1      -3.367   0.385   0.155  1.00  0.00     0.194 C 
HETATM   19  F1  UNL     1      -3.064  -0.561  -0.837  1.00  0.00    -0.247 F 
ENDBRANCH  11  14
ENDBRANCH   6  10
BRANCH   7  20
HETATM   20  O2  UNL     1       0.110   0.009  -2.207  1.00  0.00    -0.344 OA
ATOM     21  H2  UNL     1       0.248  -0.522  -2.983  1.00  0.00     0.219 HD
ENDBRANCH   7  20
TORSDOF 3
