REMARK  3 active torsions:
REMARK  status: ('A' for Active; 'I' for Inactive)
REMARK    1  A    between atoms: C2_2  and  C4_5 
REMARK    2  A    between atoms: C6_9  and  N2_10 
REMARK    3  A    between atoms: C7_12  and  C8_13 
ROOT
HETATM    1  C4  UNL     1      -2.190  -0.383  -0.533  1.00  0.00     0.095 A 
HETATM    2  C5  UNL     1      -2.289  -1.691  -0.979  1.00  0.00     0.126 A 
HETATM    3  N1  UNL     1      -1.019  -2.074  -1.165  1.00  0.00    -0.330 N 
ATOM      4  H1  UNL     1      -0.723  -2.993  -1.493  1.00  0.00     0.168 HD
HETATM    5  C6  UNL     1      -0.194  -1.058  -0.852  1.00  0.00     0.228 A 
HETATM    6  O1  UNL     1      -0.937  -0.057  -0.476  1.00  0.00    -0.280 OA
ENDROOT
BRANCH   5   7
HETATM    7  N2  UNL     1       1.245  -1.107  -0.931  1.00  0.00    -0.334 N 
HETATM    8  C7  UNL     1       1.984  -0.496  -0.091  1.00  0.00     0.098 C 
ATOM      9  H2  UNL     1       1.683  -1.645  -1.679  1.00  0.00     0.168 HD
BRANCH   8  10
HETATM   10  C8  UNL     1       3.460  -0.581  -0.220  1.00  0.00     0.234 C 
HETATM   11  C9  UNL     1       4.041  -0.644   1.176  1.00  0.00     0.114 C 
HETATM   12  S1  UNL     1       4.084   1.132   1.563  1.00  0.00    -0.140 SA
HETATM   13  C10 UNL     1       3.702   1.753  -0.127  1.00  0.00     0.306 C 
HETATM   14  N3  UNL     1       4.012   0.563  -0.888  1.00  0.00    -0.057 N 
ATOM     15  H32 UNL     1       5.012   0.464  -1.062  1.00  0.00     0.278 HD
ATOM     16  H31 UNL     1       3.703   0.632  -1.858  1.00  0.00     0.278 HD
ENDBRANCH   8  10
ENDBRANCH   5   7
BRANCH   1  17
HETATM   17  C2  UNL     1      -3.389   0.443  -0.196  1.00  0.00     0.080 C 
HETATM   18  C1  UNL     1      -3.129   1.426   0.902  1.00  0.00     0.039 C 
HETATM   19  C3  UNL     1      -4.502  -0.484   0.211  1.00  0.00     0.039 C 
HETATM   20 CL1  UNL     1      -3.852   1.318  -1.659  1.00  0.00    -0.113 Cl
ENDBRANCH   1  17
TORSDOF 3
