REMARK  3 active torsions:
REMARK  status: ('A' for Active; 'I' for Inactive)
REMARK    1  A    between atoms: C2_7  and  N2_8 
REMARK    2  A    between atoms: N2_8  and  N3_10 
REMARK    3  A    between atoms: C3_12  and  C4_13 
ROOT
HETATM    1  N3  UNL     1       1.637   0.432   1.011  1.00  0.00    -0.313 N 
ATOM      2  H3  UNL     1       2.213   1.078   1.550  1.00  0.00     0.185 HD
HETATM    3  C3  UNL     1       0.399   0.705   0.770  1.00  0.00     0.104 C 
ENDROOT
BRANCH   1   4
HETATM    4  N2  UNL     1       2.172  -0.747   0.529  1.00  0.00    -0.291 N 
ATOM      5  H2  UNL     1       1.561  -1.551   0.386  1.00  0.00     0.187 HD
BRANCH   4   6
HETATM    6  C2  UNL     1       3.464  -0.854   0.249  1.00  0.00     0.136 A 
HETATM    7  C1  UNL     1       4.391   0.121   0.387  1.00  0.00     0.146 A 
HETATM    8 CL1  UNL     1       3.924   1.751   1.002  1.00  0.00    -0.061 Cl
HETATM    9  N1  UNL     1       5.646  -0.090   0.081  1.00  0.00    -0.309 N 
HETATM   10  S1  UNL     1       6.093  -1.588  -0.487  1.00  0.00     0.027 SA
ATOM     11  H1  UNL     1       6.338   0.652   0.189  1.00  0.00     0.176 HD
HETATM   12  S2  UNL     1       4.169  -2.288  -0.347  1.00  0.00    -0.013 SA
ENDBRANCH   4   6
ENDBRANCH   1   4
BRANCH   3  13
HETATM   13  C4  UNL     1      -0.449  -0.230  -0.014  1.00  0.00     0.116 C 
HETATM   14  C5  UNL     1      -1.270   0.556  -0.988  1.00  0.00     0.030 C 
HETATM   15  C6  UNL     1      -2.485   1.185  -0.368  1.00  0.00     0.004 C 
HETATM   16  C7  UNL     1      -3.299   0.015   0.198  1.00  0.00     0.019 C 
HETATM   17  C8  UNL     1      -2.451  -0.540   1.306  1.00  0.00     0.114 C 
HETATM   18  N4  UNL     1      -1.205  -1.083   0.853  1.00  0.00    -0.413 N 
ATOM     19  H4  UNL     1      -0.880  -2.010   1.128  1.00  0.00     0.153 HD
ENDBRANCH   3  13
TORSDOF 3
