REMARK  3 active torsions:
REMARK  status: ('A' for Active; 'I' for Inactive)
REMARK    1  A    between atoms: O1_1  and  C1_3 
REMARK    2  A    between atoms: C5_10  and  C6_11 
REMARK    3  A    between atoms: N1_12  and  N2_14 
ROOT
HETATM    1  C1  UNL     1       3.051  -0.740   0.051  1.00  0.00     0.123 A 
HETATM    2  C2  UNL     1       4.342  -0.258   0.196  1.00  0.00     0.152 A 
HETATM    3  F1  UNL     1       5.352  -1.148  -0.082  1.00  0.00    -0.203 F 
HETATM    4  C3  UNL     1       4.710   0.985   0.579  1.00  0.00     0.076 A 
HETATM    5  C4  UNL     1       3.862   2.021   0.902  1.00  0.00     0.075 A 
HETATM    6  S1  UNL     1       4.446   3.475   1.350  1.00  0.00    -0.072 SA
HETATM    7  S2  UNL     1       2.210   1.640   0.789  1.00  0.00    -0.074 SA
HETATM    8  C5  UNL     1       1.919   0.009   0.286  1.00  0.00     0.059 A 
ENDROOT
BRANCH   8   9
HETATM    9  C6  UNL     1       0.572  -0.521   0.126  1.00  0.00     0.128 C 
HETATM   10  N1  UNL     1      -0.395   0.298   0.382  1.00  0.00    -0.313 N 
ATOM     11  H1  UNL     1      -0.150   1.244   0.673  1.00  0.00     0.185 HD
BRANCH  10  12
HETATM   12  N2  UNL     1      -1.737  -0.017   0.289  1.00  0.00    -0.328 N 
HETATM   13  C7  UNL     1      -2.317  -0.973  -0.615  1.00  0.00     0.142 C 
HETATM   14  C8  UNL     1      -3.546  -0.216  -1.108  1.00  0.00     0.023 C 
HETATM   15  C9  UNL     1      -4.033   0.417   0.179  1.00  0.00     0.023 C 
HETATM   16  C10 UNL     1      -2.805   0.541   1.068  1.00  0.00     0.142 C 
ENDBRANCH  10  12
ENDBRANCH   8   9
BRANCH   1  17
HETATM   17  O1  UNL     1       2.884  -2.056  -0.356  1.00  0.00    -0.356 OA
ATOM     18  H1  UNL     1       1.999  -2.386  -0.455  1.00  0.00     0.218 HD
ENDBRANCH   1  17
TORSDOF 3
