REMARK  8 active torsions:
REMARK  status: ('A' for Active; 'I' for Inactive)
REMARK    1  A    between atoms: N1_1  and  C1_5 
REMARK    2  A    between atoms: C1_5  and  C2_6 
REMARK    3  A    between atoms: C2_6  and  N2_7 
REMARK    4  A    between atoms: N2_7  and  C3_9 
REMARK    5  A    between atoms: C6_16  and  N5_17 
REMARK    6  A    between atoms: N5_17  and  C7_19 
REMARK    7  A    between atoms: C7_19  and  C8_20 
REMARK    8  A    between atoms: C8_20  and  N6_21 
ROOT
HETATM    1  C3  UNL     1      -0.878  -0.588  -0.938  1.00  0.00     0.145 A 
HETATM    2  N3  UNL     1      -1.121  -1.427  -1.998  1.00  0.00    -0.348 N 
ATOM      3  H3  UNL     1      -2.071  -1.752  -2.179  1.00  0.00     0.167 HD
HETATM    4  C4  UNL     1      -0.120  -1.822  -2.796  1.00  0.00     0.107 A 
HETATM    5  C5  UNL     1       1.182  -1.420  -2.606  1.00  0.00     0.107 A 
HETATM    6  N4  UNL     1       1.431  -0.601  -1.575  1.00  0.00    -0.348 N 
ATOM      7  H4  UNL     1       2.385  -0.283  -1.403  1.00  0.00     0.167 HD
HETATM    8  C6  UNL     1       0.424  -0.188  -0.752  1.00  0.00     0.145 A 
ENDROOT
BRANCH   1   9
HETATM    9  N2  UNL     1      -1.873  -0.242  -0.209  1.00  0.00    -0.372 N 
ATOM     10  H2  UNL     1      -2.776  -0.627  -0.485  1.00  0.00     0.161 HD
BRANCH   9  11
HETATM   11  C2  UNL     1      -1.890   0.609   0.936  1.00  0.00     0.148 C 
BRANCH  11  12
HETATM   12  C1  UNL     1      -3.345   0.700   1.409  1.00  0.00     0.249 C 
BRANCH  12  13
HETATM   13  N1  UNL     1      -4.092   1.259   0.302  1.00  0.00    -0.078 N 
ATOM     14  H13 UNL     1      -3.718   2.146  -0.034  1.00  0.00     0.274 HD
ATOM     15  H12 UNL     1      -3.979   0.739  -0.568  1.00  0.00     0.274 HD
ATOM     16  H11 UNL     1      -5.060   1.320   0.617  1.00  0.00     0.274 HD
ENDBRANCH  12  13
ENDBRANCH  11  12
ENDBRANCH   9  11
ENDBRANCH   1   9
BRANCH   8  17
HETATM   17  N5  UNL     1       0.712   0.588   0.210  1.00  0.00    -0.372 N 
ATOM     18  H5  UNL     1      -0.065   0.877   0.804  1.00  0.00     0.161 HD
BRANCH  17  19
HETATM   19  C7  UNL     1       1.998   1.104   0.558  1.00  0.00     0.148 C 
BRANCH  19  20
HETATM   20  C8  UNL     1       2.698   0.049   1.421  1.00  0.00     0.249 C 
BRANCH  20  21
HETATM   21  N6  UNL     1       4.007   0.477   1.823  1.00  0.00    -0.078 N 
ATOM     22  H63 UNL     1       4.577   0.737   1.018  1.00  0.00     0.274 HD
ATOM     23  H62 UNL     1       3.975   1.381   2.294  1.00  0.00     0.274 HD
ATOM     24  H61 UNL     1       4.473  -0.225   2.397  1.00  0.00     0.274 HD
ENDBRANCH  20  21
ENDBRANCH  19  20
ENDBRANCH  17  19
ENDBRANCH   8  17
TORSDOF 8
