REMARK  7 active torsions:
REMARK  status: ('A' for Active; 'I' for Inactive)
REMARK    1  A    between atoms: C3_6  and  N3_7 
REMARK    2  A    between atoms: C4_11  and  N4_12 
REMARK    3  A    between atoms: N4_12  and  C5_15 
REMARK    4  A    between atoms: C5_15  and  C6_16 
REMARK    5  A    between atoms: C6_16  and  C7_17 
REMARK    6  A    between atoms: C7_17  and  C8_18 
REMARK    7  A    between atoms: C8_18  and  N5_19 
ROOT
HETATM    1  C1  UNL     1      -3.170   1.865  -0.522  1.00  0.00     0.117 C 
HETATM    2  N1  UNL     1      -3.093   0.535  -1.029  1.00  0.00    -0.282 NA
HETATM    3  C2  UNL     1      -3.740  -0.407  -0.176  1.00  0.00     0.147 C 
HETATM    4  N2  UNL     1      -3.046  -0.971   0.725  1.00  0.00    -0.361 N 
ATOM      5  H2  UNL     1      -3.532  -1.640   1.322  1.00  0.00     0.161 HD
HETATM    6  C3  UNL     1      -1.661  -0.770   0.991  1.00  0.00     0.314 C 
HETATM    7  C4  UNL     1      -0.919  -0.053  -0.104  1.00  0.00     0.248 C 
HETATM    8  C9  UNL     1      -1.762   0.066  -1.328  1.00  0.00     0.132 C 
ENDROOT
BRANCH   7   9
HETATM    9  N4  UNL     1       0.328  -0.729  -0.423  1.00  0.00    -0.066 N 
ATOM     10  H42 UNL     1       0.180  -1.683  -0.751  1.00  0.00     0.277 HD
ATOM     11  H41 UNL     1       0.769  -0.356  -1.264  1.00  0.00     0.277 HD
BRANCH   9  12
HETATM   12  C5  UNL     1       1.193  -0.672   0.718  1.00  0.00     0.233 C 
BRANCH  12  13
HETATM   13  C6  UNL     1       2.500  -1.383   0.512  1.00  0.00     0.029 C 
BRANCH  13  14
HETATM   14  C7  UNL     1       3.307  -0.881  -0.634  1.00  0.00     0.029 C 
BRANCH  14  15
HETATM   15  C8  UNL     1       3.695   0.557  -0.583  1.00  0.00     0.229 C 
BRANCH  15  16
HETATM   16  N5  UNL     1       4.474   0.817   0.588  1.00  0.00    -0.079 N 
ATOM     17  H53 UNL     1       3.994   0.521   1.438  1.00  0.00     0.274 HD
ATOM     18  H52 UNL     1       5.285   0.201   0.651  1.00  0.00     0.274 HD
ATOM     19  H51 UNL     1       4.740   1.801   0.623  1.00  0.00     0.274 HD
ENDBRANCH  15  16
ENDBRANCH  14  15
ENDBRANCH  13  14
ENDBRANCH  12  13
ENDBRANCH   9  12
ENDBRANCH   7   9
BRANCH   6  20
HETATM   20  N3  UNL     1      -1.553   0.012   2.227  1.00  0.00    -0.056 N 
ATOM     21  H33 UNL     1      -2.080   0.884   2.191  1.00  0.00     0.276 HD
ATOM     22  H32 UNL     1      -2.049  -0.414   3.010  1.00  0.00     0.276 HD
ATOM     23  H31 UNL     1      -0.561   0.156   2.417  1.00  0.00     0.276 HD
ENDBRANCH   6  20
TORSDOF 7
