REMARK  6 active torsions:
REMARK  status: ('A' for Active; 'I' for Inactive)
REMARK    1  A    between atoms: N1_1  and  C1_5 
REMARK    2  A    between atoms: C1_5  and  C2_6 
REMARK    3  A    between atoms: C2_6  and  C3_7 
REMARK    4  A    between atoms: C3_7  and  N2_8 
REMARK       I    between atoms: N2_8  and  C4_10 
REMARK    5  A    between atoms: N4_12  and  C5_14 
REMARK    6  A    between atoms: C5_14  and  C6_15 
ROOT
HETATM    1  N2  UNL     1       1.571   1.849   0.151  1.00  0.00    -0.365 N 
ATOM      2  H2  UNL     1       2.071   2.701  -0.105  1.00  0.00     0.162 HD
HETATM    3  C4  UNL     1       0.157   1.872   0.157  1.00  0.00     0.184 C 
HETATM    4  N3  UNL     1      -0.560   2.958  -0.404  1.00  0.00    -0.064 NA
HETATM    5  N4  UNL     1      -0.476   0.858   0.699  1.00  0.00    -0.363 N 
ATOM      6  H4  UNL     1       0.055   0.084   1.099  1.00  0.00     0.162 HD
ENDROOT
BRANCH   1   7
HETATM    7  C3  UNL     1       2.338   0.678   0.490  1.00  0.00     0.124 C 
BRANCH   7   8
HETATM    8  C2  UNL     1       2.157  -0.362  -0.564  1.00  0.00     0.047 C 
BRANCH   8   9
HETATM    9  C1  UNL     1       2.936  -1.626  -0.273  1.00  0.00     0.231 C 
BRANCH   9  10
HETATM   10  N1  UNL     1       4.357  -1.400  -0.177  1.00  0.00    -0.079 N 
ATOM     11  H13 UNL     1       4.710  -0.939  -1.015  1.00  0.00     0.274 HD
ATOM     12  H12 UNL     1       4.566  -0.677   0.511  1.00  0.00     0.274 HD
ATOM     13  H11 UNL     1       4.882  -2.252   0.019  1.00  0.00     0.274 HD
ENDBRANCH   9  10
ENDBRANCH   8   9
ENDBRANCH   7   8
ENDBRANCH   1   7
BRANCH   5  14
HETATM   14  C5  UNL     1      -1.932   0.830   0.733  1.00  0.00     0.149 C 
BRANCH  14  15
HETATM   15  C6  UNL     1      -2.385  -0.262  -0.204  1.00  0.00     0.117 C 
HETATM   16  C7  UNL     1      -3.897  -0.377  -0.245  1.00  0.00     0.147 C 
HETATM   17  N5  UNL     1      -4.073  -1.780  -0.566  1.00  0.00    -0.384 N 
HETATM   18  C8  UNL     1      -3.011  -2.456  -0.276  1.00  0.00     0.171 C 
ATOM     19  H5  UNL     1      -4.921  -2.180  -0.967  1.00  0.00     0.160 HD
HETATM   20  N6  UNL     1      -2.012  -1.574   0.269  1.00  0.00    -0.379 N 
ATOM     21  H6  UNL     1      -1.217  -1.821   0.858  1.00  0.00     0.160 HD
ENDBRANCH  14  15
ENDBRANCH   5  14
TORSDOF 6
