REMARK  6 active torsions:
REMARK  status: ('A' for Active; 'I' for Inactive)
REMARK    1  A    between atoms: C2_3  and  N2_4 
REMARK    2  A    between atoms: C8_10  and  N3_11 
REMARK    3  A    between atoms: N3_11  and  C9_13 
REMARK    4  A    between atoms: C10_18  and  N6_19 
REMARK    5  A    between atoms: C14_27  and  C15_28 
REMARK    6  A    between atoms: C15_28  and  O1_29 
ROOT
HETATM    1  N1  UNL     1       1.365  -1.670   3.591  1.00  0.00    -0.196 NA
HETATM    2  C1  UNL     1       0.565  -0.994   3.093  1.00  0.00     0.087 C 
HETATM    3  C2  UNL     1      -0.458  -0.153   2.486  1.00  0.00     0.363 C 
ENDROOT
BRANCH   3   4
HETATM    4  N2  UNL     1      -0.616  -0.421   1.044  1.00  0.00    -0.028 N 
HETATM    5  C3  UNL     1      -0.456  -1.834   0.895  1.00  0.00     0.242 C 
HETATM    6  C4  UNL     1      -1.367  -2.490  -0.090  1.00  0.00     0.028 C 
HETATM    7  C5  UNL     1      -1.550  -1.818  -1.378  1.00  0.00     0.007 C 
HETATM    8  C6  UNL     1      -1.147  -0.406  -1.489  1.00  0.00     0.002 C 
HETATM    9  C7  UNL     1       0.291  -0.102  -1.152  1.00  0.00     0.068 C 
HETATM   10  C14 UNL     1      -2.045   0.509  -0.724  1.00  0.00     0.009 C 
HETATM   11  C8  UNL     1       0.468   0.218   0.298  1.00  0.00     0.217 C 
HETATM   12  C11 UNL     1       0.498   1.708   0.519  1.00  0.00     0.062 C 
HETATM   13  C12 UNL     1      -0.739   2.447   0.199  1.00  0.00     0.005 C 
HETATM   14  C13 UNL     1      -1.549   1.919  -0.945  1.00  0.00     0.014 C 
HETATM   15  C16 UNL     1      -1.912   0.091   0.727  1.00  0.00     0.253 C 
BRANCH  11  16
HETATM   16  N3  UNL     1       1.680  -0.320   0.785  1.00  0.00    -0.189 N 
ATOM     17  H3  UNL     1       1.580  -0.871   1.637  1.00  0.00     0.180 HD
BRANCH  16  18
HETATM   18  C9  UNL     1       2.867  -0.241   0.354  1.00  0.00     0.709 A 
HETATM   19  N4  UNL     1       3.925  -0.856   0.996  1.00  0.00    -0.117 N 
HETATM   20  N5  UNL     1       5.010  -0.606   0.336  1.00  0.00    -0.118 N 
ATOM     21  H4  UNL     1       3.861  -1.414   1.848  1.00  0.00     0.206 HD
HETATM   22  C10 UNL     1       4.723   0.145  -0.713  1.00  0.00     0.705 A 
ATOM     23  H5  UNL     1       5.942  -0.937   0.587  1.00  0.00     0.206 HD
HETATM   24  N7  UNL     1       3.402   0.374  -0.708  1.00  0.00    -0.020 N 
ATOM     25  H7  UNL     1       2.890   0.924  -1.398  1.00  0.00     0.203 HD
BRANCH  22  26
HETATM   26  N6  UNL     1       5.551   0.606  -1.621  1.00  0.00    -0.233 N 
ATOM     27  H62 UNL     1       6.556   0.432  -1.625  1.00  0.00     0.174 HD
ATOM     28  H61 UNL     1       5.330   1.186  -2.431  1.00  0.00     0.174 HD
ENDBRANCH  22  26
ENDBRANCH  16  18
ENDBRANCH  11  16
BRANCH  10  29
HETATM   29  C15 UNL     1      -3.482   0.453  -1.126  1.00  0.00     0.175 C 
BRANCH  29  30
HETATM   30  O1  UNL     1      -4.180   1.373  -0.308  1.00  0.00    -0.400 OA
ATOM     31  H1  UNL     1      -5.094   1.337  -0.564  1.00  0.00     0.209 HD
ENDBRANCH  29  30
ENDBRANCH  10  29
ENDBRANCH   3   4
TORSDOF 6
