REMARK  3 active torsions:
REMARK  status: ('A' for Active; 'I' for Inactive)
REMARK       I    between atoms: C2_4  and  N2_5 
REMARK       I    between atoms: C2_4  and  N3_13 
REMARK    1  A    between atoms: N2_5  and  C3_7 
REMARK    2  A    between atoms: C3_7  and  C4_8 
REMARK       I    between atoms: N3_13  and  C8_15 
REMARK       I    between atoms: C8_15  and  N4_17 
REMARK    3  A    between atoms: N4_17  and  C9_19 
ROOT
HETATM    1  C1  UNL     1       3.974  -3.485  -0.897  1.00  0.00     0.165 C 
HETATM    2  N1  UNL     1       2.562  -3.287  -1.078  1.00  0.00    -0.231 N 
ATOM      3  H1  UNL     1       2.025  -3.994  -1.580  1.00  0.00     0.177 HD
HETATM    4  C2  UNL     1       1.950  -2.241  -0.625  1.00  0.00     0.677 C 
HETATM    5  N2  UNL     1       2.649  -1.226   0.082  1.00  0.00    -0.224 N 
ATOM      6  H2  UNL     1       2.553  -1.133   1.093  1.00  0.00     0.177 HD
HETATM    7  N3  UNL     1       0.560  -2.145  -0.858  1.00  0.00    -0.142 N 
ATOM      8  H3  UNL     1       0.072  -2.882  -1.368  1.00  0.00     0.189 HD
HETATM    9  C8  UNL     1      -0.149  -1.021  -0.380  1.00  0.00     0.334 C 
HETATM   10  O2  UNL     1       0.455  -0.122   0.243  1.00  0.00    -0.246 OA
HETATM   11  N4  UNL     1      -1.569  -0.895  -0.603  1.00  0.00    -0.336 N 
ATOM     12  H4  UNL     1      -2.064  -1.627  -1.112  1.00  0.00     0.164 HD
ENDROOT
BRANCH   5  13
HETATM   13  C3  UNL     1       3.489  -0.339  -0.658  1.00  0.00     0.170 C 
BRANCH  13  14
HETATM   14  C4  UNL     1       4.171   0.692   0.208  1.00  0.00     0.139 C 
HETATM   15  C5  UNL     1       5.163   0.093   1.161  1.00  0.00     0.035 C 
HETATM   16  C6  UNL     1       6.089   1.256   1.440  1.00  0.00     0.029 C 
HETATM   17  C7  UNL     1       5.768   2.202   0.316  1.00  0.00     0.168 C 
HETATM   18  O1  UNL     1       4.967   1.511  -0.581  1.00  0.00    -0.384 OA
ENDBRANCH  13  14
ENDBRANCH   5  13
BRANCH  11  19
HETATM   19  C9  UNL     1      -2.301   0.254  -0.115  1.00  0.00     0.116 C 
HETATM   20  C10 UNL     1      -3.410  -0.156   0.800  1.00  0.00     0.262 C 
HETATM   21  N5  UNL     1      -4.654   0.450   0.361  1.00  0.00    -0.069 N 
HETATM   22  C11 UNL     1      -5.676   0.200   1.364  1.00  0.00     0.272 C 
HETATM   23  C12 UNL     1      -5.060  -0.037  -0.926  1.00  0.00     0.237 C 
HETATM   24  C16 UNL     1      -4.469   1.886   0.297  1.00  0.00     0.237 C 
HETATM   25  C13 UNL     1      -3.955   0.168  -1.932  1.00  0.00     0.034 C 
HETATM   26  C14 UNL     1      -2.863   0.997  -1.303  1.00  0.00     0.013 C 
HETATM   27  C15 UNL     1      -3.474   2.296  -0.753  1.00  0.00     0.034 C 
ENDBRANCH  11  19
TORSDOF 3
