REMARK  7 active torsions:
REMARK  status: ('A' for Active; 'I' for Inactive)
REMARK    1  A    between atoms: C1_2  and  N1_3 
REMARK    2  A    between atoms: C1_2  and  N4_18 
REMARK    3  A    between atoms: N1_3  and  C2_5 
REMARK    4  A    between atoms: N2_8  and  C5_9 
REMARK    5  A    between atoms: C5_9  and  N3_11 
REMARK    6  A    between atoms: N3_11  and  C6_13 
REMARK    7  A    between atoms: N4_18  and  C11_20 
ROOT
HETATM    1  C2  UNL     1       0.284  -1.967   1.422  1.00  0.00     0.087 C 
HETATM    2  C3  UNL     1      -0.702  -1.643   2.562  1.00  0.00     0.045 C 
HETATM    3  C4  UNL     1      -2.130  -1.775   2.113  1.00  0.00     0.127 C 
HETATM    4  N2  UNL     1      -2.283  -1.086   0.852  1.00  0.00    -0.358 N 
HETATM    5  C9  UNL     1      -1.381  -1.388  -0.245  1.00  0.00     0.127 C 
HETATM    6  C10 UNL     1      -0.527  -2.554   0.257  1.00  0.00     0.045 C 
ENDROOT
BRANCH   1   7
HETATM    7  N1  UNL     1       0.802  -0.694   0.960  1.00  0.00    -0.363 N 
ATOM      8  H1  UNL     1       0.366   0.179   1.256  1.00  0.00     0.162 HD
BRANCH   7   9
HETATM    9  C1  UNL     1       1.920  -0.679   0.093  1.00  0.00     0.168 C 
HETATM   10  S1  UNL     1       2.648  -2.076  -0.352  1.00  0.00    -0.041 SA
BRANCH   9  11
HETATM   11  N4  UNL     1       2.407   0.581  -0.361  1.00  0.00    -0.361 N 
ATOM     12  H4  UNL     1       1.958   1.448  -0.067  1.00  0.00     0.162 HD
BRANCH  11  13
HETATM   13  C11 UNL     1       3.553   0.607  -1.248  1.00  0.00     0.111 C 
HETATM   14  C12 UNL     1       4.718  -0.035  -0.524  1.00  0.00     0.054 C 
HETATM   15  C13 UNL     1       5.802   1.023  -0.558  1.00  0.00     0.234 C 
HETATM   16  N5  UNL     1       5.098   2.262  -0.712  1.00  0.00    -0.073 N 
HETATM   17  C14 UNL     1       3.923   2.036  -1.499  1.00  0.00     0.257 C 
ATOM     18  H52 UNL     1       4.887   2.703   0.183  1.00  0.00     0.277 HD
ATOM     19  H51 UNL     1       5.688   2.999  -1.098  1.00  0.00     0.277 HD
ENDBRANCH  11  13
ENDBRANCH   9  11
ENDBRANCH   7   9
ENDBRANCH   1   7
BRANCH   4  20
HETATM   20  C5  UNL     1      -3.313  -0.098   0.636  1.00  0.00     0.170 C 
HETATM   21  S2  UNL     1      -4.293   0.160   1.903  1.00  0.00    -0.041 SA
BRANCH  20  22
HETATM   22  N3  UNL     1      -3.419   0.539  -0.600  1.00  0.00    -0.362 N 
ATOM     23  H3  UNL     1      -2.736   0.246  -1.299  1.00  0.00     0.162 HD
BRANCH  22  24
HETATM   24  C6  UNL     1      -4.337   1.536  -1.031  1.00  0.00     0.084 A 
HETATM   25  C7  UNL     1      -5.805   1.181  -0.796  1.00  0.00     0.027 A 
HETATM   26  C8  UNL     1      -5.172   2.394  -0.170  1.00  0.00     0.027 A 
ENDBRANCH  22  24
ENDBRANCH  20  22
ENDBRANCH   4  20
TORSDOF 7
