REMARK  4 active torsions:
REMARK  status: ('A' for Active; 'I' for Inactive)
REMARK    1  A    between atoms: C4_4  and  C5_5 
REMARK    2  A    between atoms: C5_5  and  C6_6 
REMARK    3  A    between atoms: C8_8  and  C10_10 
REMARK    4  A    between atoms: C10_10  and  O1_11 
ROOT
HETATM    1  C6  UNL     1       0.173  -1.291  -0.296  1.00  0.00     0.191 C 
HETATM    2  C7  UNL     1      -0.088  -0.042  -1.063  1.00  0.00     0.047 C 
HETATM    3  C8  UNL     1      -1.514   0.351  -0.662  1.00  0.00     0.012 C 
HETATM    4  C9  UNL     1      -2.380   0.242  -1.906  1.00  0.00     0.020 C 
HETATM    5  C11 UNL     1      -1.905  -0.608   0.400  1.00  0.00     0.128 C 
HETATM    6  C12 UNL     1      -2.708  -0.001   1.517  1.00  0.00     0.046 C 
HETATM    7  C13 UNL     1      -2.759  -1.759  -0.151  1.00  0.00     0.046 C 
HETATM    8  N1  UNL     1      -0.676  -1.200   0.863  1.00  0.00    -0.062 N 
ATOM      9  H11 UNL     1      -0.250  -0.700   1.644  1.00  0.00     0.278 HD
ATOM     10  H12 UNL     1      -0.807  -2.089   1.345  1.00  0.00     0.278 HD
ENDROOT
BRANCH   1  11
HETATM   11  C5  UNL     1       1.622  -1.500   0.065  1.00  0.00     0.060 C 
BRANCH  11  12
HETATM   12  C4  UNL     1       2.186  -0.429   0.896  1.00  0.00    -0.023 C 
HETATM   13  C2  UNL     1       3.218   0.314   0.525  1.00  0.00    -0.091 C 
HETATM   14  C1  UNL     1       3.820   0.026  -0.811  1.00  0.00     0.042 C 
HETATM   15  C3  UNL     1       3.780   1.391   1.369  1.00  0.00     0.042 C 
ENDBRANCH  11  12
ENDBRANCH   1  11
BRANCH   3  16
HETATM   16  C10 UNL     1      -1.488   1.781  -0.237  1.00  0.00     0.175 C 
BRANCH  16  17
HETATM   17  O1  UNL     1      -0.664   2.050   0.828  1.00  0.00    -0.400 OA
ATOM     18  H1  UNL     1      -0.647   2.960   1.099  1.00  0.00     0.209 HD
ENDBRANCH  16  17
ENDBRANCH   3  16
TORSDOF 4
