REMARK  4 active torsions:
REMARK  status: ('A' for Active; 'I' for Inactive)
REMARK    1  A    between atoms: C3_3  and  C4_4 
REMARK    2  A    between atoms: C4_4  and  C5_5 
REMARK    3  A    between atoms: C6_6  and  C7_7 
REMARK    4  A    between atoms: C10_10  and  O1_11 
ROOT
HETATM    1  C1  UNL     1       1.508  -0.165  -1.863  1.00  0.00     0.049 C 
HETATM    2  C2  UNL     1       1.902  -0.296  -0.460  1.00  0.00    -0.041 A 
HETATM    3  C3  UNL     1       1.091  -0.946   0.462  1.00  0.00     0.010 A 
HETATM    4  C10 UNL     1       1.571  -1.009   1.771  1.00  0.00     0.192 A 
HETATM    5  O2  UNL     1       2.718  -0.490   2.131  1.00  0.00    -0.270 OA
HETATM    6  C11 UNL     1       3.514   0.137   1.275  1.00  0.00     0.150 A 
HETATM    7  N1  UNL     1       4.631   0.622   1.702  1.00  0.00    -0.379 N 
ATOM      8  H11 UNL     1       5.243   1.104   1.044  1.00  0.00     0.158 HD
ATOM      9  H12 UNL     1       4.942   0.553   2.671  1.00  0.00     0.158 HD
HETATM   10  C12 UNL     1       3.096   0.230  -0.027  1.00  0.00    -0.004 A 
HETATM   11  C13 UNL     1       3.971   0.928  -0.992  1.00  0.00     0.053 C 
ENDROOT
BRANCH   3  12
HETATM   12  C4  UNL     1      -0.206  -1.540   0.084  1.00  0.00     0.071 C 
BRANCH  12  13
HETATM   13  C5  UNL     1      -1.261  -0.500  -0.104  1.00  0.00    -0.026 C 
HETATM   14  C6  UNL     1      -2.361  -0.492   0.630  1.00  0.00    -0.026 C 
BRANCH  14  15
HETATM   15  C7  UNL     1      -3.397   0.530   0.444  1.00  0.00    -0.001 C 
HETATM   16  C8  UNL     1      -2.994   1.486  -0.629  1.00  0.00     0.013 C 
HETATM   17  C9  UNL     1      -4.727  -0.092   0.065  1.00  0.00     0.013 C 
ENDBRANCH  14  15
ENDBRANCH  12  13
ENDBRANCH   3  12
BRANCH   4  18
HETATM   18  O1  UNL     1       0.761  -1.661   2.703  1.00  0.00    -0.340 OA
ATOM     19  H1  UNL     1       1.088  -1.704   3.594  1.00  0.00     0.220 HD
ENDBRANCH   4  18
TORSDOF 4
