REMARK  3 active torsions:
REMARK  status: ('A' for Active; 'I' for Inactive)
REMARK    1  A    between atoms: C2_2  and  C3_3 
REMARK    2  A    between atoms: N1_4  and  C4_6 
REMARK    3  A    between atoms: C7_11  and  C8_12 
ROOT
HETATM    1  C4  UNL     1      -0.441   0.798   0.694  1.00  0.00     0.063 A 
HETATM    2  C5  UNL     1      -0.312   1.324   1.983  1.00  0.00     0.080 A 
HETATM    3  N2  UNL     1      -1.497   1.829   2.634  1.00  0.00    -0.100 NA
HETATM    4  C6  UNL     1       0.833   1.416   2.709  1.00  0.00     0.079 A 
HETATM    5  S1  UNL     1       2.223   0.821   1.940  1.00  0.00    -0.103 SA
HETATM    6  C7  UNL     1       1.913   0.215   0.383  1.00  0.00    -0.006 A 
HETATM    7  C11 UNL     1       0.599   0.284  -0.045  1.00  0.00    -0.020 A 
HETATM    8  C12 UNL     1       0.331  -0.236  -1.444  1.00  0.00     0.052 C 
ENDROOT
BRANCH   1   9
HETATM    9  N1  UNL     1      -1.602   0.823   0.249  1.00  0.00    -0.368 N 
HETATM   10  C3  UNL     1      -2.512   0.579  -0.717  1.00  0.00     0.061 C 
ATOM     11  H1  UNL     1      -2.146   1.245   1.001  1.00  0.00     0.165 HD
BRANCH  10  12
HETATM   12  C2  UNL     1      -3.397  -0.654  -0.513  1.00  0.00     0.040 C 
HETATM   13  C1  UNL     1      -4.345  -0.766  -1.680  1.00  0.00     0.010 C 
ENDBRANCH  10  12
ENDBRANCH   1   9
BRANCH   6  14
HETATM   14  C8  UNL     1       3.025  -0.360  -0.409  1.00  0.00     0.018 C 
HETATM   15  C9  UNL     1       4.323  -0.007   0.333  1.00  0.00     0.015 C 
HETATM   16  C10 UNL     1       3.007  -1.875  -0.432  1.00  0.00     0.015 C 
ENDBRANCH   6  14
TORSDOF 3
