REMARK  3 active torsions:
REMARK  status: ('A' for Active; 'I' for Inactive)
REMARK    1  A    between atoms: C2_2  and  C3_3 
REMARK    2  A    between atoms: C3_3  and  S1_4 
REMARK    3  A    between atoms: S1_4  and  C4_5 
ROOT
HETATM    1  C4  UNL     1       0.597   1.042   0.378  1.00  0.00     0.092 A 
HETATM    2  N1  UNL     1       0.023  -0.172   0.451  1.00  0.00    -0.347 N 
ATOM      3  H1  UNL     1       0.481  -1.010   0.810  1.00  0.00     0.167 HD
HETATM    4  C5  UNL     1      -1.238  -0.130  -0.014  1.00  0.00     0.068 A 
HETATM    5  C6  UNL     1      -2.394  -0.840  -0.268  1.00  0.00     0.033 A 
HETATM    6  C7  UNL     1      -2.610  -2.293  -0.011  1.00  0.00     0.070 C 
HETATM    7  N2  UNL     1      -3.323  -0.033  -0.788  1.00  0.00    -0.367 N 
ATOM      8  H2  UNL     1      -4.264  -0.316  -1.062  1.00  0.00     0.165 HD
HETATM    9  C8  UNL     1      -2.823   1.212  -0.894  1.00  0.00     0.103 A 
HETATM   10  C9  UNL     1      -1.512   1.161  -0.409  1.00  0.00     0.032 A 
HETATM   11  C10 UNL     1      -0.360   1.877  -0.158  1.00  0.00     0.092 A 
HETATM   12  C11 UNL     1      -0.178   3.267  -0.412  1.00  0.00     0.103 C 
HETATM   13  N3  UNL     1      -0.020   4.404  -0.602  1.00  0.00    -0.191 NA
ENDROOT
BRANCH   1  14
HETATM   14  S1  UNL     1       2.264   1.528   0.866  1.00  0.00    -0.107 SA
BRANCH  14  15
HETATM   15  C3  UNL     1       3.205   0.160   1.499  1.00  0.00     0.107 C 
BRANCH  15  16
HETATM   16  C2  UNL     1       3.508  -0.815   0.434  1.00  0.00    -0.026 C 
HETATM   17  C1  UNL     1       3.130  -0.645  -0.822  1.00  0.00     0.007 C 
ENDBRANCH  15  16
ENDBRANCH  14  15
ENDBRANCH   1  14
TORSDOF 3
