REMARK  4 active torsions:
REMARK  status: ('A' for Active; 'I' for Inactive)
REMARK    1  A    between atoms: C2_2  and  C3_3 
REMARK    2  A    between atoms: C3_3  and  C4_4 
REMARK    3  A    between atoms: C6_6  and  N1_7 
REMARK    4  A    between atoms: C8_14  and  C9_15 
ROOT
HETATM    1  C4  UNL     1      -1.043  -1.005  -0.131  1.00  0.00    -0.042 A 
HETATM    2  C5  UNL     1      -1.581  -2.147   0.424  1.00  0.00     0.056 A 
HETATM    3  C6  UNL     1      -0.842  -3.141   1.026  1.00  0.00     0.100 A 
HETATM    4  N2  UNL     1       0.488  -2.936   1.047  1.00  0.00    -0.336 N 
ATOM      5  H2  UNL     1       1.095  -3.633   1.478  1.00  0.00     0.168 HD
HETATM    6  C7  UNL     1       1.038  -1.818   0.505  1.00  0.00     0.086 A 
HETATM    7  S1  UNL     1       2.676  -1.278   0.375  1.00  0.00    -0.076 SA
HETATM    8  C8  UNL     1       2.403   0.198  -0.439  1.00  0.00    -0.015 A 
HETATM    9  C11 UNL     1       1.050   0.224  -0.584  1.00  0.00     0.029 A 
HETATM   10  C12 UNL     1       0.352  -0.816  -0.096  1.00  0.00     0.005 A 
ENDROOT
BRANCH   1  11
HETATM   11  C3  UNL     1      -1.968  -0.029  -0.735  1.00  0.00     0.039 C 
BRANCH  11  12
HETATM   12  C2  UNL     1      -2.170   1.154   0.194  1.00  0.00     0.000 C 
HETATM   13  C1  UNL     1      -3.124   2.162  -0.426  1.00  0.00     0.005 C 
ENDBRANCH  11  12
ENDBRANCH   1  11
BRANCH   3  14
HETATM   14  N1  UNL     1      -1.393  -4.201   1.536  1.00  0.00    -0.385 N 
ATOM     15  H12 UNL     1      -2.401  -4.356   1.520  1.00  0.00     0.157 HD
ATOM     16  H11 UNL     1      -0.846  -4.937   1.982  1.00  0.00     0.157 HD
ENDBRANCH   3  14
BRANCH   8  17
HETATM   17  C9  UNL     1       3.424   1.189  -0.870  1.00  0.00     0.042 C 
HETATM   18  C10 UNL     1       3.711   2.235   0.183  1.00  0.00     0.010 C 
ENDBRANCH   8  17
TORSDOF 4
