REMARK  11 active torsions:
REMARK  status: ('A' for Active; 'I' for Inactive)
REMARK    1  A    between atoms: N1_1  and  C1_4 
REMARK    2  A    between atoms: C2_7  and  N3_8 
REMARK    3  A    between atoms: N3_8  and  C3_10 
REMARK    4  A    between atoms: C3_10  and  C4_11 
REMARK    5  A    between atoms: C6_16  and  N5_17 
REMARK    6  A    between atoms: N5_17  and  O2_19 
REMARK    7  A    between atoms: O2_19  and  N6_20 
REMARK    8  A    between atoms: C7_25  and  N8_26 
REMARK    9  A    between atoms: N8_26  and  C8_28 
REMARK   10  A    between atoms: C8_28  and  C9_29 
REMARK   11  A    between atoms: C9_29  and  O3_30 
ROOT
HETATM    1  C1  UNL     1       0.750   2.482  -0.954  1.00  0.00     0.144 A 
HETATM    2  N2  UNL     1       2.112   2.392  -0.947  1.00  0.00    -0.175 N 
ATOM      3  H2  UNL     1       2.646   3.183  -1.307  1.00  0.00     0.186 HD
HETATM    4  C2  UNL     1       2.780   1.343  -0.503  1.00  0.00     0.680 A 
HETATM    5  N4  UNL     1       2.113   0.283  -0.022  1.00  0.00    -0.186 N 
ATOM      6  H4  UNL     1       2.618  -0.533   0.324  1.00  0.00     0.184 HD
HETATM    7  C5  UNL     1       0.748   0.312  -0.002  1.00  0.00     0.126 A 
HETATM    8  C6  UNL     1       0.082  -0.803   0.504  1.00  0.00     0.172 A 
HETATM    9  N7  UNL     1      -1.260  -0.794   0.532  1.00  0.00    -0.173 N 
ATOM     10  H7  UNL     1      -1.772  -1.597   0.896  1.00  0.00     0.186 HD
HETATM   11  C7  UNL     1      -1.917   0.273   0.080  1.00  0.00     0.680 A 
HETATM   12  N9  UNL     1      -1.297   1.372  -0.417  1.00  0.00    -0.186 N 
ATOM     13  H9  UNL     1      -1.844   2.166  -0.751  1.00  0.00     0.184 HD
HETATM   14  C10 UNL     1       0.046   1.404  -0.464  1.00  0.00     0.124 A 
ENDROOT
BRANCH   8  15
HETATM   15  N5  UNL     1       0.775  -1.785   0.918  1.00  0.00    -0.223 N 
ATOM     16  H5  UNL     1       1.789  -1.695   0.854  1.00  0.00     0.198 HD
BRANCH  15  17
HETATM   17  O2  UNL     1       0.293  -2.938   1.435  1.00  0.00    -0.162 OA
BRANCH  17  18
HETATM   18  N6  UNL     1      -0.237  -3.967   0.709  1.00  0.00    -0.286 N 
ATOM     19  H62 UNL     1      -0.264  -3.839  -0.303  1.00  0.00     0.186 HD
ATOM     20  H61 UNL     1      -0.601  -4.837   1.099  1.00  0.00     0.186 HD
ENDBRANCH  17  18
ENDBRANCH  15  17
ENDBRANCH   8  15
BRANCH  11  21
HETATM   21  N8  UNL     1      -3.195   0.296   0.100  1.00  0.00    -0.224 N 
ATOM     22  H8  UNL     1      -3.648   1.137  -0.259  1.00  0.00     0.177 HD
BRANCH  21  23
HETATM   23  C8  UNL     1      -4.047  -0.744   0.577  1.00  0.00     0.164 C 
BRANCH  23  24
HETATM   24  C9  UNL     1      -5.474  -0.406   0.136  1.00  0.00     0.184 C 
BRANCH  24  25
HETATM   25  O3  UNL     1      -5.778   0.832   0.718  1.00  0.00    -0.399 OA
ATOM     26  H3  UNL     1      -6.663   1.042   0.444  1.00  0.00     0.209 HD
ENDBRANCH  24  25
ENDBRANCH  23  24
ENDBRANCH  21  23
ENDBRANCH  11  21
BRANCH   4  27
HETATM   27  N3  UNL     1       4.056   1.295  -0.512  1.00  0.00    -0.220 N 
ATOM     28  H3  UNL     1       4.574   2.095  -0.874  1.00  0.00     0.178 HD
BRANCH  27  29
HETATM   29  C3  UNL     1       4.796   0.147  -0.027  1.00  0.00     0.207 C 
BRANCH  29  30
HETATM   30  C4  UNL     1       6.245   0.265  -0.368  1.00  0.00     0.251 C 
HETATM   31  O1  UNL     1       7.022  -0.590  -0.049  1.00  0.00    -0.305 OA
ENDBRANCH  29  30
ENDBRANCH  27  29
ENDBRANCH   4  27
BRANCH   1  32
HETATM   32  N1  UNL     1       0.168   3.534  -1.401  1.00  0.00    -0.383 N 
ATOM     33  H12 UNL     1       0.689   4.332  -1.764  1.00  0.00     0.157 HD
ATOM     34  H11 UNL     1      -0.850   3.601  -1.406  1.00  0.00     0.157 HD
ENDBRANCH   1  32
TORSDOF 11
