REMARK  8 active torsions:
REMARK  status: ('A' for Active; 'I' for Inactive)
REMARK    1  A    between atoms: N1_1  and  C1_4 
REMARK    2  A    between atoms: C3_11  and  N5_12 
REMARK    3  A    between atoms: N5_12  and  C4_14 
REMARK    4  A    between atoms: C4_14  and  C5_15 
REMARK    5  A    between atoms: C4_14  and  C9_25 
REMARK    6  A    between atoms: C5_15  and  C6_16 
REMARK    7  A    between atoms: C6_16  and  C7_17 
REMARK       I    between atoms: C9_25  and  N9_27 
REMARK    8  A    between atoms: N9_27  and  N10_29 
ROOT
HETATM    1  C4  UNL     1      -0.186   0.870   0.350  1.00  0.00     0.177 C 
ENDROOT
BRANCH   1   2
HETATM    2  N5  UNL     1       0.553  -0.172  -0.228  1.00  0.00    -0.358 N 
ATOM      3  H5  UNL     1      -0.027  -0.829  -0.749  1.00  0.00     0.162 HD
BRANCH   2   4
HETATM    4  C3  UNL     1       1.778  -0.476  -0.246  1.00  0.00     0.174 C 
HETATM    5  N4  UNL     1       2.129  -1.616  -0.945  1.00  0.00    -0.312 N 
HETATM    6  C2  UNL     1       3.125  -2.496  -0.669  1.00  0.00     0.208 C 
ATOM      7  H4  UNL     1       1.569  -1.822  -1.772  1.00  0.00     0.170 HD
HETATM    8  N2  UNL     1       4.175  -2.253   0.123  1.00  0.00    -0.163 N 
HETATM    9  N3  UNL     1       3.049  -3.784  -1.269  1.00  0.00    -0.063 NA
HETATM   10  C1  UNL     1       4.415  -1.254   0.998  1.00  0.00     0.681 C 
ATOM     11  H2  UNL     1       4.924  -2.942   0.054  1.00  0.00     0.187 HD
HETATM   12  N11 UNL     1       3.748  -0.073   1.137  1.00  0.00    -0.153 N 
HETATM   13  C10 UNL     1       2.665   0.345   0.421  1.00  0.00     0.303 C 
ATOM     14  H11 UNL     1       4.096   0.566   1.852  1.00  0.00     0.187 HD
HETATM   15  O2  UNL     1       2.457   1.576   0.363  1.00  0.00    -0.263 OA
BRANCH  10  16
HETATM   16  N1  UNL     1       5.382  -1.397   1.818  1.00  0.00    -0.234 N 
ATOM     17  H12 UNL     1       5.881  -2.281   1.714  1.00  0.00     0.174 HD
ATOM     18  H11 UNL     1       5.563  -0.642   2.479  1.00  0.00     0.174 HD
ENDBRANCH  10  16
ENDBRANCH   2   4
ENDBRANCH   1   2
BRANCH   1  19
HETATM   19  C5  UNL     1      -1.583   0.401   0.807  1.00  0.00     0.042 C 
BRANCH  19  20
HETATM   20  C6  UNL     1      -2.380  -0.128  -0.366  1.00  0.00     0.080 C 
BRANCH  20  21
HETATM   21  C7  UNL     1      -3.694  -0.552   0.157  1.00  0.00     0.096 A 
HETATM   22  N6  UNL     1      -3.969  -1.783   0.610  1.00  0.00    -0.288 N 
HETATM   23  N7  UNL     1      -5.226  -1.874   1.015  1.00  0.00    -0.295 N 
ATOM     24  H6  UNL     1      -3.297  -2.550   0.639  1.00  0.00     0.188 HD
HETATM   25  C8  UNL     1      -5.750  -0.654   0.805  1.00  0.00     0.198 A 
ATOM     26  H7  UNL     1      -5.695  -2.693   1.402  1.00  0.00     0.187 HD
HETATM   27  N8  UNL     1      -4.813   0.159   0.279  1.00  0.00    -0.340 N 
ATOM     28  H8  UNL     1      -4.938   1.138   0.022  1.00  0.00     0.168 HD
ENDBRANCH  20  21
ENDBRANCH  19  20
ENDBRANCH   1  19
BRANCH   1  29
HETATM   29  C9  UNL     1      -0.465   2.000  -0.568  1.00  0.00     0.258 C 
HETATM   30  O1  UNL     1      -0.127   1.937  -1.767  1.00  0.00    -0.269 OA
HETATM   31  N9  UNL     1      -1.115   3.148  -0.083  1.00  0.00    -0.275 N 
ATOM     32  H9  UNL     1      -1.394   3.205   0.897  1.00  0.00     0.189 HD
BRANCH  31  33
HETATM   33  N10 UNL     1      -1.377   4.212  -0.952  1.00  0.00    -0.343 N 
ATOM     34 2H10 UNL     1      -1.092   4.139  -1.929  1.00  0.00     0.176 HD
ATOM     35 1H10 UNL     1      -1.849   5.045  -0.600  1.00  0.00     0.176 HD
ENDBRANCH  31  33
ENDBRANCH   1  29
TORSDOF 8
