REMARK  9 active torsions:
REMARK  status: ('A' for Active; 'I' for Inactive)
REMARK    1  A    between atoms: O1_2  and  C2_3 
REMARK    2  A    between atoms: C3_6  and  N2_7 
REMARK    3  A    between atoms: C4_12  and  N4_13 
REMARK       I    between atoms: N4_13  and  C5_15 
REMARK       I    between atoms: C5_15  and  N7_20 
REMARK    4  A    between atoms: N7_20  and  C7_22 
REMARK    5  A    between atoms: C7_22  and  N8_23 
REMARK    6  A    between atoms: C7_22  and  C8_27 
REMARK    7  A    between atoms: C7_22  and  C9_30 
REMARK    8  A    between atoms: C8_27  and  O2_28 
REMARK    9  A    between atoms: C9_30  and  O3_31 
ROOT
HETATM    1  N4  UNL     1      -0.108  -0.117   1.016  1.00  0.00    -0.174 N 
ATOM      2  H4  UNL     1      -0.660   0.505   1.606  1.00  0.00     0.186 HD
HETATM    3  C5  UNL     1      -0.951  -1.039   0.497  1.00  0.00     0.691 C 
HETATM    4  N5  UNL     1      -1.209  -2.145   1.094  1.00  0.00    -0.126 N 
ATOM      5  H5  UNL     1      -0.751  -2.314   1.989  1.00  0.00     0.197 HD
HETATM    6  C6  UNL     1      -2.053  -3.119   0.623  1.00  0.00     0.196 C 
HETATM    7  N6  UNL     1      -2.757  -3.932   0.215  1.00  0.00    -0.171 NA
HETATM    8  N7  UNL     1      -1.622  -0.813  -0.734  1.00  0.00    -0.186 N 
ATOM      9  H7  UNL     1      -1.639  -1.560  -1.428  1.00  0.00     0.180 HD
ENDROOT
BRANCH   1  10
HETATM   10  C4  UNL     1       1.057   0.270   1.060  1.00  0.00     0.161 A 
HETATM   11  N3  UNL     1       1.361   1.372   1.831  1.00  0.00    -0.175 N 
HETATM   12  C3  UNL     1       2.573   1.872   1.951  1.00  0.00     0.679 A 
ATOM     13  H3  UNL     1       0.602   1.827   2.338  1.00  0.00     0.186 HD
HETATM   14  N1  UNL     1       3.581   1.309   1.307  1.00  0.00    -0.169 N 
HETATM   15  C2  UNL     1       3.368   0.196   0.507  1.00  0.00     0.181 A 
ATOM     16  H1  UNL     1       4.521   1.695   1.399  1.00  0.00     0.186 HD
HETATM   17  C10 UNL     1       2.092  -0.329   0.382  1.00  0.00     0.141 A 
HETATM   18  C11 UNL     1       1.848  -1.495  -0.461  1.00  0.00     0.108 C 
HETATM   19  N9  UNL     1       1.628  -2.427  -1.135  1.00  0.00    -0.191 NA
BRANCH  12  20
HETATM   20  N2  UNL     1       2.837   2.922   2.690  1.00  0.00    -0.234 N 
ATOM     21  H22 UNL     1       3.776   3.309   2.783  1.00  0.00     0.174 HD
ATOM     22  H21 UNL     1       2.059   3.356   3.187  1.00  0.00     0.174 HD
ENDBRANCH  12  20
BRANCH  15  23
HETATM   23  O1  UNL     1       4.445  -0.321  -0.116  1.00  0.00    -0.339 OA
HETATM   24  C1  UNL     1       4.716  -1.344  -0.945  1.00  0.00     0.211 C 
ENDBRANCH  15  23
ENDBRANCH   1  10
BRANCH   8  25
HETATM   25  C7  UNL     1      -2.282   0.438  -1.041  1.00  0.00     0.251 C 
BRANCH  25  26
HETATM   26  N8  UNL     1      -1.349   1.518  -1.225  1.00  0.00    -0.048 N 
ATOM     27  H83 UNL     1      -0.734   1.615  -0.417  1.00  0.00     0.277 HD
ATOM     28  H82 UNL     1      -0.652   1.286  -1.933  1.00  0.00     0.277 HD
ATOM     29  H81 UNL     1      -1.814   2.400  -1.441  1.00  0.00     0.277 HD
ENDBRANCH  25  26
BRANCH  25  30
HETATM   30  C8  UNL     1      -3.343   0.786  -0.037  1.00  0.00     0.228 C 
BRANCH  30  31
HETATM   31  O2  UNL     1      -4.310  -0.198  -0.013  1.00  0.00    -0.397 OA
ATOM     32  H2  UNL     1      -4.981   0.022   0.622  1.00  0.00     0.209 HD
ENDBRANCH  30  31
ENDBRANCH  25  30
BRANCH  25  33
HETATM   33  C9  UNL     1      -2.993   0.239  -2.383  1.00  0.00     0.228 C 
BRANCH  33  34
HETATM   34  O3  UNL     1      -3.911  -0.799  -2.303  1.00  0.00    -0.397 OA
ATOM     35  H3  UNL     1      -4.352  -0.922  -3.135  1.00  0.00     0.209 HD
ENDBRANCH  33  34
ENDBRANCH  25  33
ENDBRANCH   8  25
TORSDOF 9
