REMARK  13 active torsions:
REMARK  status: ('A' for Active; 'I' for Inactive)
REMARK    1  A    between atoms: C2_2  and  C3_3 
REMARK    2  A    between atoms: C3_3  and  N1_4 
REMARK    3  A    between atoms: C5_7  and  C6_8 
REMARK    4  A    between atoms: N2_9  and  N3_11 
REMARK    5  A    between atoms: N3_11  and  C7_13 
REMARK    6  A    between atoms: N6_22  and  C12_23 
REMARK    7  A    between atoms: C12_23  and  C13_24 
REMARK    8  A    between atoms: C13_24  and  O4_25 
REMARK    9  A    between atoms: C13_24  and  C14_27 
REMARK   10  A    between atoms: C14_27  and  O5_28 
REMARK   11  A    between atoms: C14_27  and  C15_30 
REMARK   12  A    between atoms: C17_33  and  C18_34 
REMARK   13  A    between atoms: N9_46  and  N10_47 
ROOT
HETATM    1  N1  UNL     1      -2.131   3.274  -0.428  1.00  0.00    -0.285 N 
HETATM    2  C4  UNL     1      -1.230   2.280  -0.448  1.00  0.00     0.264 A 
HETATM    3  O1  UNL     1      -0.298   2.395  -1.300  1.00  0.00    -0.267 OA
HETATM    4  C5  UNL     1      -1.284   1.177   0.400  1.00  0.00     0.080 A 
HETATM    5  C17 UNL     1      -2.313   1.112   1.296  1.00  0.00     0.103 A 
HETATM    6  N9  UNL     1      -3.216   2.111   1.314  1.00  0.00    -0.233 N 
HETATM    7  C26 UNL     1      -3.119   3.167   0.464  1.00  0.00     0.203 A 
HETATM    8  S2  UNL     1      -4.261   4.348   0.546  1.00  0.00    -0.038 SA
ENDROOT
BRANCH   4   9
HETATM    9  C6  UNL     1      -0.278   0.133   0.279  1.00  0.00     0.127 C 
HETATM   10  N2  UNL     1       0.647   0.173  -0.571  1.00  0.00    -0.297 N 
ATOM     11  H2  UNL     1       0.555   1.027  -1.121  1.00  0.00     0.186 HD
BRANCH  10  12
HETATM   12  N3  UNL     1       1.671  -0.488  -0.990  1.00  0.00    -0.132 N 
ATOM     13  H3  UNL     1       2.393   0.231  -1.022  1.00  0.00     0.205 HD
BRANCH  12  14
HETATM   14  C7  UNL     1       2.278  -1.482  -1.372  1.00  0.00     0.709 A 
HETATM   15  N4  UNL     1       1.688  -2.691  -1.491  1.00  0.00    -0.135 N 
HETATM   16  C8  UNL     1       0.260  -2.906  -1.209  1.00  0.00     0.180 C 
HETATM   17  C9  UNL     1       2.381  -3.771  -1.899  1.00  0.00     0.346 A 
HETATM   18  O2  UNL     1       1.802  -4.905  -2.003  1.00  0.00    -0.246 OA
HETATM   19  N5  UNL     1       3.664  -3.673  -2.196  1.00  0.00    -0.255 N 
HETATM   20  C10 UNL     1       4.441  -4.811  -2.640  1.00  0.00     0.166 C 
HETATM   21  C11 UNL     1       4.263  -2.463  -2.080  1.00  0.00     0.346 A 
HETATM   22  O3  UNL     1       5.480  -2.412  -2.371  1.00  0.00    -0.246 OA
HETATM   23  N6  UNL     1       3.631  -1.379  -1.685  1.00  0.00    -0.128 N 
BRANCH  23  24
HETATM   24  C12 UNL     1       4.254  -0.108  -1.558  1.00  0.00     0.187 C 
BRANCH  24  25
HETATM   25  C13 UNL     1       4.827   0.155  -0.195  1.00  0.00     0.173 C 
BRANCH  25  26
HETATM   26  O4  UNL     1       5.784  -0.878   0.021  1.00  0.00    -0.391 OA
ATOM     27  H4  UNL     1       6.146  -0.712   0.883  1.00  0.00     0.210 HD
ENDBRANCH  25  26
BRANCH  25  28
HETATM   28  C14 UNL     1       5.665   1.423  -0.161  1.00  0.00     0.217 C 
BRANCH  28  29
HETATM   29  O5  UNL     1       6.292   1.495   1.091  1.00  0.00    -0.385 OA
ATOM     30  H5  UNL     1       6.816   2.287   1.112  1.00  0.00     0.210 HD
ENDBRANCH  28  29
BRANCH  28  31
HETATM   31  C15 UNL     1       4.915   2.656  -0.432  1.00  0.00     0.154 C 
HETATM   32  C16 UNL     1       4.893   3.705   0.656  1.00  0.00     0.093 C 
HETATM   33  O6  UNL     1       4.313   2.896  -1.462  1.00  0.00    -0.295 OA
ENDBRANCH  28  31
ENDBRANCH  25  28
ENDBRANCH  24  25
ENDBRANCH  23  24
ENDBRANCH  12  14
ENDBRANCH  10  12
ENDBRANCH   4   9
BRANCH   5  34
HETATM   34  C18 UNL     1      -2.410  -0.030   2.266  1.00  0.00     0.080 A 
HETATM   35  N7  UNL     1      -1.451  -0.169   3.180  1.00  0.00    -0.323 N 
HETATM   36  S1  UNL     1      -1.887  -1.538   4.036  1.00  0.00    -0.014 SA
ATOM     37  H7  UNL     1      -0.635   0.425   3.325  1.00  0.00     0.174 HD
HETATM   38  C19 UNL     1      -3.322  -1.940   3.207  1.00  0.00     0.035 A 
HETATM   39  C20 UNL     1      -4.280  -2.969   3.312  1.00  0.00     0.029 A 
HETATM   40  C25 UNL     1      -3.407  -0.954   2.261  1.00  0.00     0.014 A 
HETATM   41  C21 UNL     1      -5.351  -3.028   2.458  1.00  0.00    -0.036 A 
HETATM   42  C22 UNL     1      -6.338  -4.102   2.577  1.00  0.00     0.050 C 
HETATM   43  C23 UNL     1      -5.432  -2.043   1.513  1.00  0.00     0.053 A 
HETATM   44  N8  UNL     1      -6.537  -2.065   0.606  1.00  0.00    -0.102 NA
HETATM   45  C24 UNL     1      -4.515  -1.024   1.384  1.00  0.00     0.042 A 
ENDBRANCH   5  34
BRANCH   1  46
HETATM   46  C3  UNL     1      -2.027   4.414  -1.333  1.00  0.00     0.161 C 
BRANCH  46  47
HETATM   47  C2  UNL     1      -1.221   5.470  -0.631  1.00  0.00    -0.017 C 
HETATM   48  C1  UNL     1      -1.777   6.653  -0.407  1.00  0.00     0.008 C 
ENDBRANCH  46  47
ENDBRANCH   1  46
BRANCH   6  49
HETATM   49  N10 UNL     1      -4.277   2.097   2.244  1.00  0.00    -0.336 N 
ATOM     50 2H10 UNL     1      -4.350   1.304   2.882  1.00  0.00     0.177 HD
ATOM     51 1H10 UNL     1      -4.961   2.854   2.258  1.00  0.00     0.177 HD
ENDBRANCH   6  49
TORSDOF 13
