REMARK  12 active torsions:
REMARK  status: ('A' for Active; 'I' for Inactive)
REMARK    1  A    between atoms: C2_2  and  O1_3 
REMARK    2  A    between atoms: C2_2  and  N2_6 
REMARK    3  A    between atoms: C5_12  and  N5_13 
REMARK    4  A    between atoms: N5_13  and  C6_15 
REMARK    5  A    between atoms: C6_15  and  C7_16 
REMARK    6  A    between atoms: C7_16  and  O2_17 
REMARK    7  A    between atoms: C7_16  and  C8_19 
REMARK    8  A    between atoms: C8_19  and  N6_20 
REMARK    9  A    between atoms: C11_25  and  C12_26 
REMARK   10  A    between atoms: C13_29  and  N9_30 
REMARK   11  A    between atoms: C18_38  and  N11_39 
REMARK   12  A    between atoms: C27_57  and  N16_58 
ROOT
HETATM    1  O1  UNL     1      10.920  -0.189  -0.482  1.00  0.00    -0.256 OA
HETATM    2  C3  UNL     1      11.680   0.838  -0.026  1.00  0.00     0.230 C 
HETATM    3  N1  UNL     1      12.323   1.697   0.373  1.00  0.00    -0.164 NA
ENDROOT
BRANCH   1   4
HETATM    4  C2  UNL     1       9.636   0.024  -1.039  1.00  0.00     0.261 C 
HETATM    5  C1  UNL     1       9.670  -0.378  -2.511  1.00  0.00     0.066 C 
BRANCH   4   6
HETATM    6  N2  UNL     1       8.683  -0.778  -0.300  1.00  0.00    -0.242 N 
HETATM    7  N3  UNL     1       8.581  -2.055  -0.692  1.00  0.00    -0.290 N 
HETATM    8  C4  UNL     1       7.745  -2.918  -0.104  1.00  0.00     0.199 A 
ATOM      9  H3  UNL     1       9.161  -2.380  -1.466  1.00  0.00     0.188 HD
HETATM   10  N4  UNL     1       6.955  -2.525   0.932  1.00  0.00    -0.335 N 
HETATM   11  C5  UNL     1       7.052  -1.251   1.329  1.00  0.00     0.148 A 
ATOM     12  H4  UNL     1       6.315  -3.175   1.387  1.00  0.00     0.168 HD
HETATM   13  C27 UNL     1       7.935  -0.345   0.704  1.00  0.00     0.163 A 
BRANCH  11  14
HETATM   14  N5  UNL     1       6.349  -0.822   2.288  1.00  0.00    -0.371 N 
ATOM     15  H5  UNL     1       6.494   0.162   2.515  1.00  0.00     0.161 HD
BRANCH  14  16
HETATM   16  C6  UNL     1       5.391  -1.482   3.102  1.00  0.00     0.154 C 
BRANCH  16  17
HETATM   17  C7  UNL     1       4.022  -0.847   2.797  1.00  0.00     0.155 C 
BRANCH  17  18
HETATM   18  O2  UNL     1       3.141  -1.539   3.669  1.00  0.00    -0.392 OA
ATOM     19  H2  UNL     1       2.296  -1.147   3.481  1.00  0.00     0.210 HD
ENDBRANCH  17  18
BRANCH  17  20
HETATM   20  C8  UNL     1       3.682  -1.265   1.389  1.00  0.00     0.181 C 
BRANCH  20  21
HETATM   21  N6  UNL     1       2.400  -0.728   0.962  1.00  0.00    -0.298 N 
HETATM   22  C9  UNL     1       1.178  -1.269   1.115  1.00  0.00     0.142 A 
HETATM   23  C10 UNL     1       0.224  -0.450   0.558  1.00  0.00     0.081 A 
HETATM   24  N7  UNL     1      -1.111  -0.479   0.417  1.00  0.00    -0.348 N 
HETATM   25  C26 UNL     1       0.908   0.629   0.049  1.00  0.00     0.105 A 
HETATM   26  C11 UNL     1      -1.821   0.493  -0.200  1.00  0.00     0.108 A 
ATOM     27  H7  UNL     1      -1.618  -1.279   0.796  1.00  0.00     0.166 HD
HETATM   28  C23 UNL     1      -1.148   1.564  -0.708  1.00  0.00     0.093 A 
HETATM   29  N13 UNL     1      -1.576   2.676  -1.367  1.00  0.00    -0.348 N 
HETATM   30  C25 UNL     1       0.238   1.646  -0.589  1.00  0.00     0.093 A 
HETATM   31  C24 UNL     1      -0.475   3.433  -1.651  1.00  0.00     0.181 A 
ATOM     32  H13 UNL     1      -2.542   2.902  -1.605  1.00  0.00     0.167 HD
HETATM   33  N14 UNL     1       0.603   2.793  -1.173  1.00  0.00    -0.349 N 
ATOM     34  H14 UNL     1       1.562   3.132  -1.245  1.00  0.00     0.167 HD
HETATM   35  N15 UNL     1       2.215   0.407   0.321  1.00  0.00    -0.294 N 
ATOM     36  H15 UNL     1       2.968   1.044   0.060  1.00  0.00     0.187 HD
BRANCH  26  37
HETATM   37  C12 UNL     1      -3.278   0.394  -0.278  1.00  0.00     0.165 A 
HETATM   38  N8  UNL     1      -4.068   1.243  -0.899  1.00  0.00    -0.173 N 
HETATM   39  C13 UNL     1      -5.408   1.180  -0.954  1.00  0.00     0.696 A 
ATOM     40  H8  UNL     1      -3.621   2.021  -1.384  1.00  0.00     0.186 HD
HETATM   41  N10 UNL     1      -5.978   0.146  -0.307  1.00  0.00    -0.022 N 
HETATM   42  C18 UNL     1      -5.243  -0.763   0.349  1.00  0.00     0.696 A 
ATOM     43  H10 UNL     1      -6.994   0.052  -0.316  1.00  0.00     0.203 HD
HETATM   44  N12 UNL     1      -3.909  -0.643   0.364  1.00  0.00    -0.173 N 
ATOM     45  H12 UNL     1      -3.351  -1.336   0.862  1.00  0.00     0.186 HD
BRANCH  39  46
HETATM   46  N9  UNL     1      -6.210   2.106  -1.644  1.00  0.00    -0.213 N 
HETATM   47  C14 UNL     1      -7.646   2.169  -1.524  1.00  0.00     0.167 C 
HETATM   48  C15 UNL     1      -8.022   3.608  -1.910  1.00  0.00     0.188 C 
HETATM   49  O3  UNL     1      -7.776   3.814  -3.248  1.00  0.00    -0.388 OA
HETATM   50  C16 UNL     1      -6.637   3.184  -3.714  1.00  0.00     0.188 C 
HETATM   51  C17 UNL     1      -5.623   3.090  -2.566  1.00  0.00     0.167 C 
ENDBRANCH  39  46
BRANCH  42  52
HETATM   52  N11 UNL     1      -5.923  -1.809   1.000  1.00  0.00    -0.213 N 
HETATM   53  C19 UNL     1      -5.173  -2.743   1.806  1.00  0.00     0.167 C 
HETATM   54  C20 UNL     1      -6.177  -3.735   2.375  1.00  0.00     0.188 C 
HETATM   55  O4  UNL     1      -6.910  -4.307   1.347  1.00  0.00    -0.388 OA
HETATM   56  C21 UNL     1      -7.729  -3.427   0.678  1.00  0.00     0.188 C 
HETATM   57  C22 UNL     1      -7.336  -1.967   0.873  1.00  0.00     0.167 C 
ENDBRANCH  42  52
ENDBRANCH  26  37
ENDBRANCH  20  21
ENDBRANCH  17  20
ENDBRANCH  16  17
ENDBRANCH  14  16
ENDBRANCH  11  14
BRANCH  13  58
HETATM   58  N16 UNL     1       7.997   0.850   1.123  1.00  0.00    -0.381 N 
ATOM     59 2H16 UNL     1       8.635   1.505   0.671  1.00  0.00     0.157 HD
ATOM     60 1H16 UNL     1       7.421   1.183   1.896  1.00  0.00     0.157 HD
ENDBRANCH  13  58
ENDBRANCH   4   6
ENDBRANCH   1   4
TORSDOF 12
