REMARK  17 active torsions:
REMARK  status: ('A' for Active; 'I' for Inactive)
REMARK    1  A    between atoms: O1_2  and  C2_3 
REMARK    2  A    between atoms: C2_3  and  O2_4 
REMARK    3  A    between atoms: O2_4  and  C3_5 
REMARK    4  A    between atoms: C5_8  and  O4_9 
REMARK    5  A    between atoms: O4_9  and  C6_10 
REMARK    6  A    between atoms: C11_17  and  O7_18 
REMARK    7  A    between atoms: C12_20  and  O8_21 
REMARK    8  A    between atoms: O8_21  and  C13_22 
REMARK    9  A    between atoms: C16_26  and  O10_27 
REMARK   10  A    between atoms: O10_27  and  C17_28 
REMARK   11  A    between atoms: C17_28  and  C18_30 
REMARK   12  A    between atoms: C22_34  and  O12_35 
REMARK   13  A    between atoms: O12_35  and  C23_36 
REMARK   14  A    between atoms: C23_36  and  O14_38 
REMARK   15  A    between atoms: O14_38  and  N1_39 
REMARK   16  A    between atoms: N1_39  and  C24_41 
REMARK   17  A    between atoms: C27_48  and  O16_49 
ROOT
HETATM    1  C2  UNL     1      -1.831  -1.412  -0.370  1.00  0.00     0.232 C 
HETATM    2  C5  UNL     1      -2.565  -0.755   0.777  1.00  0.00     0.204 C 
HETATM    3  C8  UNL     1      -3.507   0.346   0.316  1.00  0.00     0.051 C 
HETATM    4  C9  UNL     1      -4.463   0.629   1.451  1.00  0.00     0.015 C 
HETATM    5  C10 UNL     1      -2.878   1.558  -0.193  1.00  0.00     0.196 A 
HETATM    6  O6  UNL     1      -3.030   2.839   0.357  1.00  0.00    -0.339 OA
HETATM    7  C11 UNL     1      -1.798   2.203   0.519  1.00  0.00     0.217 A 
HETATM    8  C12 UNL     1      -0.686   2.489  -0.460  1.00  0.00     0.199 C 
HETATM    9  C15 UNL     1       0.643   2.023  -0.085  1.00  0.00     0.071 C 
HETATM   10  C16 UNL     1       0.826   0.641   0.471  1.00  0.00     0.144 C 
HETATM   11  C21 UNL     1       0.593  -0.488  -0.489  1.00  0.00     0.093 C 
HETATM   12  C22 UNL     1       1.887  -1.341  -0.395  1.00  0.00     0.213 C 
HETATM   13  C25 UNL     1       1.568  -2.113   0.822  1.00  0.00     0.160 C 
HETATM   14  O15 UNL     1       2.330  -2.795   1.459  1.00  0.00    -0.295 OA
HETATM   15  C26 UNL     1       0.113  -1.955   1.208  1.00  0.00     0.125 C 
HETATM   16  C27 UNL     1      -0.367  -1.543  -0.139  1.00  0.00     0.132 C 
ENDROOT
BRANCH  12  17
HETATM   17  O12 UNL     1       2.121  -2.076  -1.539  1.00  0.00    -0.283 OA
BRANCH  17  18
HETATM   18  C23 UNL     1       3.254  -1.953  -2.274  1.00  0.00     0.429 C 
HETATM   19  O13 UNL     1       4.130  -1.128  -1.891  1.00  0.00    -0.227 OA
BRANCH  18  20
HETATM   20  O14 UNL     1       3.543  -2.667  -3.435  1.00  0.00    -0.174 OA
BRANCH  20  21
HETATM   21  N1  UNL     1       4.743  -2.450  -4.099  1.00  0.00    -0.252 N 
ATOM     22  H1  UNL     1       4.757  -2.511  -5.117  1.00  0.00     0.195 HD
BRANCH  21  23
HETATM   23  C24 UNL     1       5.949  -2.147  -3.418  1.00  0.00     0.198 C 
HETATM   24  N2  UNL     1       6.618  -3.014  -2.728  1.00  0.00    -0.394 N 
ATOM     25  H22 UNL     1       6.244  -3.962  -2.682  1.00  0.00     0.156 HD
ATOM     26  H21 UNL     1       7.486  -2.796  -2.238  1.00  0.00     0.156 HD
ENDBRANCH  21  23
ENDBRANCH  20  21
ENDBRANCH  18  20
ENDBRANCH  17  18
ENDBRANCH  12  17
BRANCH  10  27
HETATM   27  O10 UNL     1       2.203   0.720   0.915  1.00  0.00    -0.315 OA
BRANCH  27  28
HETATM   28  C17 UNL     1       2.574   0.760   2.210  1.00  0.00     0.262 C 
HETATM   29  O11 UNL     1       1.692   0.731   3.103  1.00  0.00    -0.265 OA
BRANCH  28  30
HETATM   30  C18 UNL     1       4.040   0.839   2.529  1.00  0.00     0.077 C 
HETATM   31  C19 UNL     1       4.660   2.077   1.939  1.00  0.00     0.020 C 
HETATM   32  C20 UNL     1       4.176   0.784   4.029  1.00  0.00     0.020 C 
ENDBRANCH  28  30
ENDBRANCH  27  28
ENDBRANCH  10  27
BRANCH  16  33
HETATM   33  O16 UNL     1       0.034  -2.738  -0.819  1.00  0.00    -0.383 OA
ATOM     34  H16 UNL     1       0.969  -2.822  -0.672  1.00  0.00     0.210 HD
ENDBRANCH  16  33
BRANCH   1  35
HETATM   35  O1  UNL     1      -2.304  -2.679  -0.563  1.00  0.00    -0.355 OA
HETATM   36  C1  UNL     1      -3.532  -3.042  -0.799  1.00  0.00     0.205 C 
ENDBRANCH   1  35
BRANCH   1  37
HETATM   37  O2  UNL     1      -2.141  -0.640  -1.498  1.00  0.00    -0.277 OA
BRANCH  37  38
HETATM   38  C3  UNL     1      -1.831  -0.801  -2.798  1.00  0.00     0.257 C 
HETATM   39  C4  UNL     1      -2.234   0.123  -3.898  1.00  0.00     0.126 C 
HETATM   40  O3  UNL     1      -1.165  -1.783  -3.107  1.00  0.00    -0.266 OA
ENDBRANCH  37  38
ENDBRANCH   1  37
BRANCH   8  41
HETATM   41  O8  UNL     1      -0.595   3.879  -0.759  1.00  0.00    -0.311 OA
BRANCH  41  42
HETATM   42  C13 UNL     1      -0.758   4.409  -2.019  1.00  0.00     0.255 C 
HETATM   43  C14 UNL     1      -0.646   5.873  -2.231  1.00  0.00     0.126 C 
HETATM   44  O9  UNL     1      -0.999   3.591  -2.938  1.00  0.00    -0.266 OA
ENDBRANCH  41  42
ENDBRANCH   8  41
BRANCH   2  45
HETATM   45  O4  UNL     1      -3.333  -1.597   1.585  1.00  0.00    -0.310 OA
BRANCH  45  46
HETATM   46  C6  UNL     1      -3.278  -1.762   2.938  1.00  0.00     0.255 C 
HETATM   47  C7  UNL     1      -4.156  -2.704   3.691  1.00  0.00     0.126 C 
HETATM   48  O5  UNL     1      -2.446  -1.088   3.586  1.00  0.00    -0.266 OA
ENDBRANCH  45  46
ENDBRANCH   2  45
BRANCH   7  49
HETATM   49  O7  UNL     1      -1.546   2.107   1.861  1.00  0.00    -0.361 OA
ATOM     50  H7  UNL     1      -0.836   2.531   2.329  1.00  0.00     0.213 HD
ENDBRANCH   7  49
TORSDOF 17
