REMARK  11 active torsions:
REMARK  status: ('A' for Active; 'I' for Inactive)
REMARK    1  A    between atoms: O1_2  and  C2_3 
REMARK    2  A    between atoms: C2_3  and  C3_5 
REMARK    3  A    between atoms: C4_7  and  S2_8 
REMARK    4  A    between atoms: S2_8  and  C5_9 
REMARK    5  A    between atoms: C6_14  and  C7_15 
REMARK    6  A    between atoms: C11_26  and  S3_27 
REMARK    7  A    between atoms: S3_27  and  N7_30 
REMARK    8  A    between atoms: N7_30  and  N8_32 
REMARK    9  A    between atoms: C12_34  and  C13_35 
REMARK   10  A    between atoms: C12_34  and  C19_41 
REMARK   11  A    between atoms: N10_46  and  O6_47 
ROOT
HETATM    1  C3  UNL     1       0.913  -1.769  -2.247  1.00  0.00     0.122 A 
HETATM    2  S1  UNL     1       2.337  -2.588  -1.674  1.00  0.00    -0.056 SA
HETATM    3  C4  UNL     1       2.499  -1.795  -0.173  1.00  0.00     0.121 A 
HETATM    4  N6  UNL     1       1.491  -0.974  -0.191  1.00  0.00    -0.333 N 
ATOM      5  H6  UNL     1       1.339  -0.355   0.605  1.00  0.00     0.168 HD
HETATM    6  C11 UNL     1       0.669  -0.923  -1.204  1.00  0.00     0.175 A 
ENDROOT
BRANCH   6   7
HETATM    7  S3  UNL     1      -0.685   0.241  -1.233  1.00  0.00     0.293 S 
HETATM    8  O3  UNL     1      -0.781   0.941  -2.539  1.00  0.00    -0.197 OA
HETATM    9  O4  UNL     1      -0.430   1.333  -0.203  1.00  0.00    -0.197 OA
BRANCH   7  10
HETATM   10  N7  UNL     1      -2.151  -0.527  -0.762  1.00  0.00    -0.221 N 
ATOM     11  H7  UNL     1      -2.742  -0.962  -1.471  1.00  0.00     0.200 HD
BRANCH  10  12
HETATM   12  N8  UNL     1      -2.537  -0.562   0.558  1.00  0.00    -0.287 N 
HETATM   13  C12 UNL     1      -3.739  -0.105   0.962  1.00  0.00     0.103 C 
ATOM     14  H8  UNL     1      -1.895  -0.945   1.251  1.00  0.00     0.188 HD
BRANCH  13  15
HETATM   15  C13 UNL     1      -3.926  -0.242   2.390  1.00  0.00    -0.004 A 
HETATM   16  C14 UNL     1      -4.810   0.499   3.135  1.00  0.00     0.014 A 
HETATM   17  C15 UNL     1      -4.994   0.294   4.484  1.00  0.00     0.001 A 
HETATM   18  C16 UNL     1      -4.282  -0.683   5.157  1.00  0.00     0.000 A 
HETATM   19  C17 UNL     1      -3.388  -1.437   4.425  1.00  0.00     0.001 A 
HETATM   20  C18 UNL     1      -3.204  -1.236   3.086  1.00  0.00     0.014 A 
ENDBRANCH  13  15
BRANCH  13  21
HETATM   21  C19 UNL     1      -4.585   0.499  -0.023  1.00  0.00     0.144 A 
HETATM   22  N9  UNL     1      -3.973   1.251  -1.019  1.00  0.00    -0.290 N 
HETATM   23  C20 UNL     1      -4.632   1.785  -2.032  1.00  0.00     0.356 A 
ATOM     24  H9  UNL     1      -2.965   1.398  -0.965  1.00  0.00     0.172 HD
HETATM   25  O5  UNL     1      -4.070   2.473  -2.944  1.00  0.00    -0.244 OA
HETATM   26  N10 UNL     1      -5.960   1.626  -2.157  1.00  0.00    -0.118 N 
HETATM   27  C21 UNL     1      -6.573   0.907  -1.216  1.00  0.00     0.358 A 
HETATM   28  O7  UNL     1      -7.822   0.737  -1.303  1.00  0.00    -0.244 OA
HETATM   29  N11 UNL     1      -5.888   0.345  -0.157  1.00  0.00    -0.286 N 
HETATM   30  C22 UNL     1      -6.673  -0.525   0.705  1.00  0.00     0.163 C 
BRANCH  26  31
HETATM   31  O6  UNL     1      -6.657   2.181  -3.209  1.00  0.00    -0.275 OA
ATOM     32  H6  UNL     1      -7.596   2.069  -3.297  1.00  0.00     0.245 HD
ENDBRANCH  26  31
ENDBRANCH  13  21
ENDBRANCH  10  12
ENDBRANCH   7  10
ENDBRANCH   6   7
BRANCH   1  33
HETATM   33  C2  UNL     1       0.246  -2.022  -3.511  1.00  0.00     0.303 C 
HETATM   34  O2  UNL     1       0.765  -2.907  -4.277  1.00  0.00    -0.259 OA
BRANCH  33  35
HETATM   35  O1  UNL     1      -0.875  -1.403  -3.941  1.00  0.00    -0.322 OA
HETATM   36  C1  UNL     1      -1.548  -1.617  -5.146  1.00  0.00     0.213 C 
ENDBRANCH  33  35
ENDBRANCH   1  33
BRANCH   3  37
HETATM   37  S2  UNL     1       3.763  -2.049   1.104  1.00  0.00    -0.027 SA
BRANCH  37  38
HETATM   38  C5  UNL     1       5.107  -0.915   0.692  1.00  0.00     0.167 A 
HETATM   39  N1  UNL     1       5.187  -0.055  -0.330  1.00  0.00    -0.278 N 
HETATM   40  N2  UNL     1       6.346   0.620  -0.305  1.00  0.00    -0.281 N 
ATOM     41  H1  UNL     1       4.462   0.071  -1.036  1.00  0.00     0.189 HD
HETATM   42  C6  UNL     1       7.030   0.195   0.748  1.00  0.00     0.150 A 
ATOM     43  H2  UNL     1       6.646   1.330  -0.973  1.00  0.00     0.188 HD
HETATM   44  N5  UNL     1       6.255  -0.756   1.359  1.00  0.00    -0.319 N 
ATOM     45  H5  UNL     1       6.516  -1.269   2.201  1.00  0.00     0.169 HD
BRANCH  42  46
HETATM   46  C7  UNL     1       8.341   0.634   1.183  1.00  0.00     0.096 A 
HETATM   47  C8  UNL     1       8.943   0.094   2.328  1.00  0.00     0.122 A 
HETATM   48  N3  UNL     1      10.125   0.721   2.426  1.00  0.00    -0.360 N 
HETATM   49  C9  UNL     1      10.255   1.591   1.417  1.00  0.00     0.182 A 
ATOM     50  H3  UNL     1      10.818   0.560   3.157  1.00  0.00     0.166 HD
HETATM   51  N4  UNL     1       9.137   1.544   0.628  1.00  0.00    -0.343 N 
HETATM   52  C10 UNL     1       8.929   2.352  -0.561  1.00  0.00     0.157 C 
ENDBRANCH  42  46
ENDBRANCH  37  38
ENDBRANCH   3  37
TORSDOF 11
