REMARK  7 active torsions:
REMARK  status: ('A' for Active; 'I' for Inactive)
REMARK    1  A    between atoms: O1_2  and  C2_3 
REMARK    2  A    between atoms: C4_5  and  C5_6 
REMARK    3  A    between atoms: C5_6  and  C6_7 
REMARK    4  A    between atoms: C8_11  and  C9_12 
REMARK    5  A    between atoms: C12_24  and  C13_25 
REMARK    6  A    between atoms: C13_25  and  O3_28 
REMARK    7  A    between atoms: C16_30  and  C17_31 
ROOT
HETATM    1  C2  UNL     1      -0.511   1.464   1.109  1.00  0.00     0.076 A 
HETATM    2  C3  UNL     1       0.571   0.758   0.672  1.00  0.00     0.050 A 
HETATM    3  C4  UNL     1       0.499  -0.491   0.052  1.00  0.00     0.017 A 
HETATM    4  C11 UNL     1      -0.757  -1.013  -0.119  1.00  0.00     0.135 A 
HETATM    5  F5  UNL     1      -0.921  -2.219  -0.725  1.00  0.00    -0.205 F 
HETATM    6  C12 UNL     1      -1.904  -0.288   0.326  1.00  0.00     0.024 A 
HETATM    7  C16 UNL     1      -1.801   0.905   0.928  1.00  0.00    -0.008 A 
ENDROOT
BRANCH   3   8
HETATM    8  C5  UNL     1       1.735  -1.204  -0.357  1.00  0.00     0.125 C 
HETATM    9  C7  UNL     1       2.996  -0.510   0.041  1.00  0.00     0.080 C 
HETATM   10  C8  UNL     1       3.585   0.445  -0.922  1.00  0.00     0.199 C 
HETATM   11  O2  UNL     1       3.203   0.296  -2.257  1.00  0.00    -0.311 OA
HETATM   12  C10 UNL     1       2.092  -0.414  -2.666  1.00  0.00     0.214 C 
HETATM   13  N1  UNL     1       1.455  -0.182  -3.789  1.00  0.00    -0.365 N 
HETATM   14  N2  UNL     1       1.644  -1.450  -1.789  1.00  0.00    -0.338 N 
ATOM     15  H12 UNL     1       1.775   0.557  -4.415  1.00  0.00     0.159 HD
ATOM     16  H11 UNL     1       0.634  -0.707  -4.091  1.00  0.00     0.159 HD
ATOM     17  H2  UNL     1       1.275  -2.328  -2.153  1.00  0.00     0.164 HD
BRANCH   8  18
HETATM   18  C6  UNL     1       1.768  -2.600   0.285  1.00  0.00     0.385 C 
HETATM   19  F1  UNL     1       1.728  -2.510   1.669  1.00  0.00    -0.211 F 
HETATM   20  F2  UNL     1       3.025  -3.178   0.025  1.00  0.00    -0.211 F 
ENDBRANCH   8  18
BRANCH  10  21
HETATM   21  C9  UNL     1       5.124   0.402  -0.910  1.00  0.00     0.382 C 
HETATM   22  F3  UNL     1       5.612  -0.840  -1.242  1.00  0.00    -0.212 F 
HETATM   23  F4  UNL     1       5.589   1.414  -1.686  1.00  0.00    -0.212 F 
ENDBRANCH  10  21
ENDBRANCH   3   8
BRANCH   1  24
HETATM   24  O1  UNL     1      -0.370   2.706   1.721  1.00  0.00    -0.355 OA
HETATM   25  C1  UNL     1       0.844   3.338   1.944  1.00  0.00     0.210 C 
ENDBRANCH   1  24
BRANCH   6  26
HETATM   26  C13 UNL     1      -3.152  -0.951  -0.129  1.00  0.00     0.081 C 
HETATM   27  C14 UNL     1      -3.235  -2.380   0.428  1.00  0.00     0.051 C 
HETATM   28  C15 UNL     1      -3.119  -1.117  -1.656  1.00  0.00     0.051 C 
BRANCH  26  29
HETATM   29  O3  UNL     1      -4.344  -0.392   0.155  1.00  0.00    -0.386 OA
ATOM     30  H3  UNL     1      -5.143  -0.816  -0.136  1.00  0.00     0.211 HD
ENDBRANCH  26  29
ENDBRANCH   6  26
BRANCH   7  31
HETATM   31  C17 UNL     1      -2.861   1.760   1.438  1.00  0.00     0.022 A 
HETATM   32  C18 UNL     1      -2.810   1.808   3.003  1.00  0.00     0.010 A 
HETATM   33  C19 UNL     1      -4.011   1.447   2.278  1.00  0.00     0.010 A 
ENDBRANCH   7  31
TORSDOF 7
