REMARK  5 active torsions:
REMARK  status: ('A' for Active; 'I' for Inactive)
REMARK    1  A    between atoms: C1_4  and  C2_6 
REMARK    2  A    between atoms: C6_11  and  C7_12 
REMARK    3  A    between atoms: C7_12  and  N3_13 
REMARK    4  A    between atoms: C10_16  and  C11_17 
REMARK    5  A    between atoms: C13_20  and  C14_21 
ROOT
HETATM    1  N3  UNL     1      -1.447   0.115  -0.858  1.00  0.00    -0.386 N 
HETATM    2  C8  UNL     1      -1.167  -0.148   0.496  1.00  0.00     0.059 C 
HETATM    3  C9  UNL     1       0.296  -0.209   0.850  1.00  0.00     0.058 C 
HETATM    4  C10 UNL     1       0.889  -1.321  -0.025  1.00  0.00     0.078 C 
HETATM    5  C18 UNL     1       0.766  -0.808  -1.443  1.00  0.00     0.198 C 
HETATM    6  F4  UNL     1       1.277  -1.804  -2.269  1.00  0.00    -0.247 F 
HETATM    7  C19 UNL     1      -0.611  -0.449  -1.844  1.00  0.00     0.160 C 
ENDROOT
BRANCH   1   8
HETATM    8  C7  UNL     1      -1.995   1.391  -1.153  1.00  0.00     0.160 C 
BRANCH   8   9
HETATM    9  C6  UNL     1      -3.301   1.619  -0.489  1.00  0.00    -0.036 A 
HETATM   10  C5  UNL     1      -3.808   2.908  -0.356  1.00  0.00     0.051 A 
HETATM   11  C4  UNL     1      -5.019   3.121   0.253  1.00  0.00     0.117 A 
HETATM   12  C3  UNL     1      -5.780   2.080   0.756  1.00  0.00     0.057 A 
HETATM   13  F1  UNL     1      -5.491   4.382   0.371  1.00  0.00    -0.206 F 
HETATM   14  C2  UNL     1      -5.302   0.793   0.637  1.00  0.00     0.008 A 
HETATM   15  C20 UNL     1      -4.066   0.591   0.014  1.00  0.00     0.023 A 
BRANCH  14  16
HETATM   16  C1  UNL     1      -6.063  -0.330   1.148  1.00  0.00     0.120 C 
HETATM   17  N1  UNL     1      -7.191  -0.188   1.722  1.00  0.00    -0.387 N 
ATOM     18  H12 UNL     1      -7.726  -0.978   2.082  1.00  0.00     0.157 HD
ATOM     19  H11 UNL     1      -7.577   0.750   1.827  1.00  0.00     0.157 HD
HETATM   20  N2  UNL     1      -5.525  -1.639   1.001  1.00  0.00    -0.082 NA
ENDBRANCH  14  16
ENDBRANCH   8   9
ENDBRANCH   1   8
BRANCH   4  21
HETATM   21  C11 UNL     1       2.286  -1.582   0.299  1.00  0.00     0.040 A 
HETATM   22  C12 UNL     1       2.789  -2.784   0.747  1.00  0.00     0.169 A 
HETATM   23  O1  UNL     1       4.059  -2.641   0.928  1.00  0.00    -0.307 OA
HETATM   24  C13 UNL     1       4.446  -1.423   0.632  1.00  0.00     0.128 A 
HETATM   25  N4  UNL     1       3.365  -0.761   0.244  1.00  0.00    -0.341 N 
ATOM     26  H4  UNL     1       3.347   0.215  -0.051  1.00  0.00     0.167 HD
BRANCH  24  27
HETATM   27  C14 UNL     1       5.857  -0.976   0.747  1.00  0.00     0.072 C 
HETATM   28  C15 UNL     1       6.080   0.323   1.447  1.00  0.00     0.092 C 
HETATM   29  C16 UNL     1       7.124   0.666   0.378  1.00  0.00     0.245 C 
HETATM   30  F2  UNL     1       8.374   0.144   0.665  1.00  0.00    -0.206 F 
HETATM   31  F3  UNL     1       7.101   1.963  -0.043  1.00  0.00    -0.206 F 
HETATM   32  C17 UNL     1       6.378  -0.313  -0.535  1.00  0.00     0.092 C 
ENDBRANCH  24  27
ENDBRANCH   4  21
TORSDOF 5
