REMARK  5 active torsions:
REMARK  status: ('A' for Active; 'I' for Inactive)
REMARK    1  A    between atoms: O1_2  and  C2_3 
REMARK    2  A    between atoms: N1_6  and  C5_7 
REMARK    3  A    between atoms: C7_9  and  N2_10 
REMARK       I    between atoms: N2_10  and  C8_12 
REMARK       I    between atoms: C8_12  and  N3_14 
REMARK    4  A    between atoms: N3_14  and  C9_16 
REMARK    5  A    between atoms: C13_20  and  N4_21 
ROOT
HETATM    1  C5  UNL     1      -3.296   0.495  -0.306  1.00  0.00     0.108 A 
HETATM    2  C6  UNL     1      -2.268   0.948  -1.100  1.00  0.00     0.097 A 
HETATM    3  C7  UNL     1      -0.940   0.861  -0.671  1.00  0.00     0.113 A 
HETATM    4  N5  UNL     1      -0.717   0.329   0.522  1.00  0.00    -0.332 N 
ATOM      5  H5  UNL     1       0.246   0.257   0.850  1.00  0.00     0.168 HD
HETATM    6  C19 UNL     1      -1.689  -0.115   1.310  1.00  0.00     0.080 A 
HETATM    7  C20 UNL     1      -1.342  -0.702   2.647  1.00  0.00     0.089 C 
HETATM    8  N6  UNL     1      -2.956  -0.026   0.886  1.00  0.00    -0.332 N 
ATOM      9  H6  UNL     1      -3.698  -0.370   1.496  1.00  0.00     0.168 HD
ENDROOT
BRANCH   3  10
HETATM   10  N2  UNL     1      -0.039   1.299  -1.452  1.00  0.00    -0.295 N 
HETATM   11  C8  UNL     1       1.338   1.336  -1.277  1.00  0.00     0.322 C 
HETATM   12  O2  UNL     1       1.951   2.334  -1.788  1.00  0.00    -0.247 OA
HETATM   13  N3  UNL     1       2.139   0.382  -0.591  1.00  0.00    -0.338 N 
ATOM     14  H3  UNL     1       1.690  -0.431  -0.169  1.00  0.00     0.164 HD
ATOM     15  H2  UNL     1      -0.376   1.679  -2.337  1.00  0.00     0.172 HD
BRANCH  13  16
HETATM   16  C9  UNL     1       3.580   0.534  -0.475  1.00  0.00     0.088 C 
HETATM   17  C10 UNL     1       3.944   0.756   0.965  1.00  0.00     0.025 C 
HETATM   18  C11 UNL     1       4.098  -0.492   1.778  1.00  0.00     0.004 C 
HETATM   19  C12 UNL     1       4.782  -1.627   1.099  1.00  0.00     0.036 C 
HETATM   20  C13 UNL     1       5.424  -1.154  -0.165  1.00  0.00     0.225 C 
HETATM   21  C18 UNL     1       4.362  -0.579  -1.080  1.00  0.00     0.061 C 
BRANCH  20  22
HETATM   22  N4  UNL     1       6.489  -0.254   0.118  1.00  0.00     0.093 N 
HETATM   23  C14 UNL     1       7.522  -0.931   0.865  1.00  0.00     0.273 C 
HETATM   24  C15 UNL     1       8.648   0.107   0.849  1.00  0.00     0.032 C 
HETATM   25  C16 UNL     1       8.467   0.756  -0.492  1.00  0.00     0.032 C 
HETATM   26  C17 UNL     1       7.198   0.178  -1.070  1.00  0.00     0.273 C 
ENDBRANCH  20  22
ENDBRANCH  13  16
ENDBRANCH   3  10
BRANCH   1  27
HETATM   27  N1  UNL     1      -4.664   0.585  -0.737  1.00  0.00    -0.367 N 
HETATM   28  C4  UNL     1      -5.149  -0.556  -1.450  1.00  0.00     0.127 C 
HETATM   29  C3  UNL     1      -6.201  -1.341  -0.719  1.00  0.00     0.054 C 
HETATM   30  C2  UNL     1      -7.335  -0.422  -0.312  1.00  0.00     0.156 C 
HETATM   31  C23 UNL     1      -6.861   0.318   0.925  1.00  0.00     0.200 C 
HETATM   32  C22 UNL     1      -6.468   1.703   0.535  1.00  0.00     0.060 C 
HETATM   33  F1  UNL     1      -7.983   0.433   1.753  1.00  0.00    -0.247 F 
HETATM   34  C21 UNL     1      -5.297   1.811  -0.375  1.00  0.00     0.127 C 
BRANCH  30  35
HETATM   35  O1  UNL     1      -8.482  -1.159  -0.038  1.00  0.00    -0.388 OA
HETATM   36  C1  UNL     1      -9.493  -0.793  -0.938  1.00  0.00     0.202 C 
ENDBRANCH  30  35
ENDBRANCH   1  27
TORSDOF 5
