REMARK  6 active torsions:
REMARK  status: ('A' for Active; 'I' for Inactive)
REMARK    1  A    between atoms: C2_2  and  O1_3 
REMARK    2  A    between atoms: C2_2  and  C8_10 
REMARK    3  A    between atoms: O1_3  and  C3_4 
REMARK    4  A    between atoms: C3_4  and  C4_5 
REMARK    5  A    between atoms: C11_13  and  N1_14 
REMARK    6  A    between atoms: N1_14  and  C12_16 
ROOT
HETATM    1  C8  UNL     1      -0.371  -0.042  -0.612  1.00  0.00     0.028 C 
HETATM    2  C9  UNL     1       0.251   0.632  -1.839  1.00  0.00     0.010 C 
HETATM    3  C10 UNL     1       1.729   0.429  -1.769  1.00  0.00     0.027 C 
HETATM    4  C11 UNL     1       1.900   0.235  -0.285  1.00  0.00     0.111 C 
HETATM    5  C16 UNL     1       0.749  -0.703   0.006  1.00  0.00     0.018 C 
HETATM    6  C17 UNL     1       0.987  -2.062  -0.701  1.00  0.00     0.023 C 
HETATM    7  C18 UNL     1      -0.203  -2.865  -0.196  1.00  0.00     0.010 C 
HETATM    8  C19 UNL     1      -0.218  -2.466   1.242  1.00  0.00     0.033 C 
HETATM    9  C20 UNL     1       0.741  -1.310   1.335  1.00  0.00     0.133 C 
HETATM   10  O3  UNL     1       2.032  -1.924   1.318  1.00  0.00    -0.385 OA
HETATM   11  C21 UNL     1       2.122  -2.614   0.132  1.00  0.00     0.173 C 
ENDROOT
BRANCH   4  12
HETATM   12  N1  UNL     1       3.166  -0.133   0.148  1.00  0.00    -0.221 N 
ATOM     13  H1  UNL     1       3.309  -1.124   0.341  1.00  0.00     0.178 HD
BRANCH  12  14
HETATM   14  C12 UNL     1       4.179   0.637   0.333  1.00  0.00     0.678 A 
HETATM   15  N2  UNL     1       5.370   0.151   0.762  1.00  0.00    -0.201 N 
HETATM   16  C13 UNL     1       6.461   0.900   0.972  1.00  0.00     0.126 A 
ATOM     17  H2  UNL     1       5.440  -0.852   0.936  1.00  0.00     0.183 HD
HETATM   18  C14 UNL     1       6.355   2.255   0.733  1.00  0.00     0.042 A 
HETATM   19 BR1  UNL     1       7.867   3.393   1.009  1.00  0.00    -0.048 Br
HETATM   20  C15 UNL     1       5.142   2.743   0.297  1.00  0.00     0.126 A 
HETATM   21  N3  UNL     1       4.061   1.953   0.096  1.00  0.00    -0.201 N 
ATOM     22  H3  UNL     1       3.178   2.348  -0.228  1.00  0.00     0.183 HD
ENDBRANCH  12  14
ENDBRANCH   4  12
BRANCH   1  23
HETATM   23  C2  UNL     1      -1.301   0.877   0.069  1.00  0.00     0.122 C 
HETATM   24  C1  UNL     1      -0.728   2.174   0.599  1.00  0.00     0.040 C 
BRANCH  23  25
HETATM   25  O1  UNL     1      -2.003   0.362   1.101  1.00  0.00    -0.385 OA
BRANCH  25  26
HETATM   26  C3  UNL     1      -3.317   0.264   1.191  1.00  0.00     0.174 C 
BRANCH  26  27
HETATM   27  C4  UNL     1      -4.133  -0.602   0.328  1.00  0.00     0.035 C 
HETATM   28  C5  UNL     1      -4.167  -0.413  -1.137  1.00  0.00     0.035 C 
HETATM   29  C6  UNL     1      -5.076   0.833  -1.224  1.00  0.00     0.168 C 
HETATM   30  O2  UNL     1      -6.080   0.500  -0.353  1.00  0.00    -0.391 OA
HETATM   31  C7  UNL     1      -5.609  -0.297   0.659  1.00  0.00     0.174 C 
ENDBRANCH  26  27
ENDBRANCH  25  26
ENDBRANCH  23  25
ENDBRANCH   1  23
TORSDOF 6
