REMARK  9 active torsions:
REMARK  status: ('A' for Active; 'I' for Inactive)
REMARK    1  A    between atoms: C2_2  and  C3_3 
REMARK    2  A    between atoms: C3_3  and  C4_4 
REMARK    3  A    between atoms: C4_4  and  N1_5 
REMARK    4  A    between atoms: N2_8  and  C7_9 
REMARK    5  A    between atoms: C9_13  and  C10_14 
REMARK    6  A    between atoms: C11_15  and  C12_16 
REMARK    7  A    between atoms: C12_16  and  O1_17 
REMARK    8  A    between atoms: N4_24  and  C18_26 
REMARK    9  A    between atoms: C18_26  and  C20_30 
ROOT
HETATM    1  C7  UNL     1       1.183   0.351   0.071  1.00  0.00     0.681 A 
HETATM    2  N3  UNL     1       0.596   1.495   0.470  1.00  0.00    -0.200 N 
ATOM      3  H3  UNL     1       1.179   2.304   0.684  1.00  0.00     0.183 HD
HETATM    4  C8  UNL     1      -0.729   1.597   0.593  1.00  0.00     0.130 A 
HETATM    5  C9  UNL     1      -1.552   0.501   0.304  1.00  0.00     0.078 A 
HETATM    6  C17 UNL     1      -0.944  -0.660  -0.102  1.00  0.00     0.142 A 
HETATM    7  N4  UNL     1      -1.585  -1.677  -0.380  1.00  0.00    -0.330 N 
ATOM      8  H4  UNL     1      -0.932  -2.411  -0.655  1.00  0.00     0.168 HD
HETATM    9  N6  UNL     1       0.444  -0.699  -0.209  1.00  0.00    -0.175 N 
ATOM     10  H6  UNL     1       0.897  -1.561  -0.511  1.00  0.00     0.186 HD
ENDROOT
BRANCH   1  11
HETATM   11  N2  UNL     1       2.616   0.290  -0.041  1.00  0.00    -0.214 N 
HETATM   12  C6  UNL     1       3.240  -0.909  -0.515  1.00  0.00     0.171 C 
HETATM   13  C5  UNL     1       4.529  -0.540  -1.205  1.00  0.00     0.292 C 
HETATM   14  N1  UNL     1       5.468   0.083  -0.278  1.00  0.00     0.091 N 
HETATM   15  C24 UNL     1       4.797   0.760   0.774  1.00  0.00     0.292 C 
HETATM   16  C23 UNL     1       3.485   1.393   0.316  1.00  0.00     0.171 C 
BRANCH  14  17
HETATM   17  C4  UNL     1       6.348   0.886  -1.063  1.00  0.00     0.272 C 
BRANCH  17  18
HETATM   18  C3  UNL     1       7.420   1.547  -0.257  1.00  0.00     0.030 C 
BRANCH  18  19
HETATM   19  C2  UNL     1       8.257   0.508   0.460  1.00  0.00    -0.003 C 
HETATM   20  C1  UNL     1       8.901  -0.411  -0.559  1.00  0.00     0.005 C 
ENDBRANCH  18  19
ENDBRANCH  17  18
ENDBRANCH  14  17
ENDBRANCH   1  11
BRANCH   5  21
HETATM   21  C10 UNL     1      -2.963   0.672   0.453  1.00  0.00    -0.059 C 
HETATM   22  C11 UNL     1      -4.147   0.849   0.590  1.00  0.00    -0.063 C 
BRANCH  22  23
HETATM   23  C12 UNL     1      -5.581   1.089   0.762  1.00  0.00     0.121 C 
HETATM   24  C13 UNL     1      -5.757   2.539   1.161  1.00  0.00     0.051 C 
HETATM   25  C14 UNL     1      -6.801   3.132   0.273  1.00  0.00     0.004 C 
HETATM   26  C15 UNL     1      -7.241   2.066  -0.698  1.00  0.00     0.004 C 
HETATM   27  C16 UNL     1      -6.234   0.942  -0.588  1.00  0.00     0.051 C 
BRANCH  23  28
HETATM   28  O1  UNL     1      -6.153   0.285   1.728  1.00  0.00    -0.378 OA
ATOM     29  H1  UNL     1      -7.083   0.441   1.840  1.00  0.00     0.211 HD
ENDBRANCH  23  28
ENDBRANCH  22  23
ENDBRANCH   5  21
BRANCH   7  30
HETATM   30  C18 UNL     1      -2.832  -2.163  -0.450  1.00  0.00     0.082 C 
HETATM   31  N5  UNL     1      -3.547  -2.073  -1.558  1.00  0.00    -0.384 N 
HETATM   32  C19 UNL     1      -4.879  -2.577  -1.679  1.00  0.00     0.147 C 
ATOM     33  H5  UNL     1      -3.126  -1.620  -2.369  1.00  0.00     0.160 HD
BRANCH  30  34
HETATM   34  C20 UNL     1      -3.534  -2.887   0.674  1.00  0.00     0.053 A 
HETATM   35  C21 UNL     1      -2.994  -4.157   1.181  1.00  0.00     0.013 A 
HETATM   36  C22 UNL     1      -2.897  -2.900   2.016  1.00  0.00     0.013 A 
ENDBRANCH  30  34
ENDBRANCH   7  30
TORSDOF 9
