REMARK  5 active torsions:
REMARK  status: ('A' for Active; 'I' for Inactive)
REMARK    1  A    between atoms: C1_2  and  C2_3 
REMARK       I    between atoms: C1_2  and  N4_22 
REMARK    2  A    between atoms: C2_3  and  C3_4 
REMARK       I    between atoms: N3_10  and  C5_12 
REMARK    3  A    between atoms: C5_12  and  C6_14 
REMARK    4  A    between atoms: N4_22  and  C11_24 
REMARK    5  A    between atoms: C11_24  and  C12_25 
ROOT
HETATM    1  C3  UNL     1       1.391  -0.494   0.957  1.00  0.00     0.078 A 
HETATM    2  N1  UNL     1       2.286   0.439   1.247  1.00  0.00    -0.295 N 
ATOM      3  H1  UNL     1       2.223   0.946   2.130  1.00  0.00     0.187 HD
HETATM    4  N2  UNL     1       3.220   0.705   0.432  1.00  0.00    -0.279 N 
ATOM      5  H2  UNL     1       3.911   1.422   0.653  1.00  0.00     0.189 HD
HETATM    6  C4  UNL     1       3.285   0.033  -0.719  1.00  0.00     0.167 A 
HETATM    7  N3  UNL     1       4.157   0.150  -1.690  1.00  0.00    -0.304 N 
ATOM      8  H3  UNL     1       4.095  -0.430  -2.527  1.00  0.00     0.171 HD
HETATM    9  C5  UNL     1       5.175   1.097  -1.540  1.00  0.00     0.252 C 
HETATM   10  O2  UNL     1       5.029   2.268  -1.974  1.00  0.00    -0.270 OA
HETATM   11  S1  UNL     1       1.931  -1.012  -0.580  1.00  0.00    -0.037 SA
ENDROOT
BRANCH   1  12
HETATM   12  C2  UNL     1       0.224  -0.949   1.783  1.00  0.00     0.169 C 
BRANCH  12  13
HETATM   13  C1  UNL     1      -0.986  -0.145   1.461  1.00  0.00     0.223 C 
HETATM   14  O1  UNL     1      -0.871   0.744   0.600  1.00  0.00    -0.273 OA
HETATM   15  N4  UNL     1      -2.185  -0.407   2.119  1.00  0.00    -0.360 N 
ATOM     16  H4  UNL     1      -2.123  -1.153   2.812  1.00  0.00     0.162 HD
BRANCH  15  17
HETATM   17  C11 UNL     1      -3.472   0.166   2.007  1.00  0.00     0.132 C 
BRANCH  17  18
HETATM   18  C12 UNL     1      -4.286  -0.004   0.783  1.00  0.00    -0.023 C 
HETATM   19  C13 UNL     1      -3.737   0.481  -0.497  1.00  0.00     0.015 C 
HETATM   20  C14 UNL     1      -4.811   0.348  -1.589  1.00  0.00    -0.013 C 
HETATM   21  C15 UNL     1      -6.023   1.152  -1.285  1.00  0.00     0.009 C 
HETATM   22  C19 UNL     1      -5.103  -1.139  -1.701  1.00  0.00     0.009 C 
HETATM   23  C16 UNL     1      -6.602   0.612   0.009  1.00  0.00    -0.013 C 
HETATM   24  C17 UNL     1      -6.928  -0.856  -0.062  1.00  0.00     0.009 C 
HETATM   25  C21 UNL     1      -5.576   0.809   1.079  1.00  0.00     0.015 C 
HETATM   26  C18 UNL     1      -5.672  -1.636  -0.405  1.00  0.00    -0.013 C 
HETATM   27  C20 UNL     1      -4.667  -1.476   0.686  1.00  0.00     0.015 C 
ENDBRANCH  17  18
ENDBRANCH  15  17
ENDBRANCH  12  13
ENDBRANCH   1  12
BRANCH   9  28
HETATM   28  C6  UNL     1       6.447   0.743  -0.866  1.00  0.00     0.213 C 
HETATM   29  C7  UNL     1       7.078  -0.511  -1.438  1.00  0.00     0.043 C 
HETATM   30  C8  UNL     1       8.248  -0.854  -0.521  1.00  0.00     0.025 C 
HETATM   31  C9  UNL     1       9.197   0.304  -0.538  1.00  0.00     0.106 C 
HETATM   32 CL1  UNL     1      10.640   0.008   0.435  1.00  0.00    -0.123 Cl
HETATM   33  C10 UNL     1       8.455   1.536  -0.064  1.00  0.00     0.189 C 
HETATM   34  O3  UNL     1       7.328   1.793  -0.809  1.00  0.00    -0.375 OA
ENDBRANCH   9  28
TORSDOF 5
