REMARK  7 active torsions:
REMARK  status: ('A' for Active; 'I' for Inactive)
REMARK    1  A    between atoms: O1_2  and  C2_3 
REMARK    2  A    between atoms: C3_4  and  O2_5 
REMARK    3  A    between atoms: O2_5  and  C4_6 
REMARK    4  A    between atoms: C7_11  and  N2_12 
REMARK    5  A    between atoms: C9_18  and  N4_19 
REMARK    6  A    between atoms: C17_28  and  O3_29 
REMARK    7  A    between atoms: O3_29  and  C18_30 
ROOT
HETATM    1  C2  UNL     1       1.142  -2.099   0.373  1.00  0.00     0.136 A 
HETATM    2  C3  UNL     1       1.336  -0.727   0.154  1.00  0.00     0.116 A 
HETATM    3  C8  UNL     1       0.230   0.072   0.244  1.00  0.00     0.069 A 
HETATM    4  C9  UNL     1      -1.031  -0.400   0.534  1.00  0.00     0.036 A 
HETATM    5  C16 UNL     1      -1.177  -1.741   0.742  1.00  0.00     0.069 A 
HETATM    6  C17 UNL     1      -0.080  -2.640   0.668  1.00  0.00     0.113 A 
ENDROOT
BRANCH   2   7
HETATM    7  O2  UNL     1       2.597  -0.329  -0.126  1.00  0.00    -0.290 OA
BRANCH   7   8
HETATM    8  C4  UNL     1       3.097   0.896  -0.378  1.00  0.00     0.164 A 
HETATM    9  C5  UNL     1       3.460   1.725   0.650  1.00  0.00     0.074 A 
HETATM   10  C6  UNL     1       3.972   2.984   0.315  1.00  0.00     0.110 A 
HETATM   11  N1  UNL     1       4.100   3.361  -0.966  1.00  0.00    -0.202 N 
HETATM   12  C7  UNL     1       3.740   2.536  -1.960  1.00  0.00     0.677 A 
ATOM     13  H1  UNL     1       4.475   4.284  -1.186  1.00  0.00     0.183 HD
HETATM   14  N3  UNL     1       3.249   1.330  -1.632  1.00  0.00    -0.170 N 
ATOM     15  H3  UNL     1       2.974   0.705  -2.390  1.00  0.00     0.186 HD
BRANCH  12  16
HETATM   16  N2  UNL     1       3.860   2.892  -3.219  1.00  0.00    -0.234 N 
ATOM     17  H22 UNL     1       4.233   3.808  -3.468  1.00  0.00     0.174 HD
ATOM     18  H21 UNL     1       3.586   2.264  -3.975  1.00  0.00     0.174 HD
ENDBRANCH  12  16
ENDBRANCH   7   8
ENDBRANCH   2   7
BRANCH   1  19
HETATM   19  O1  UNL     1       2.269  -2.941   0.279  1.00  0.00    -0.351 OA
HETATM   20  C1  UNL     1       2.700  -3.396  -1.007  1.00  0.00     0.210 C 
ENDBRANCH   1  19
BRANCH   6  21
HETATM   21  O3  UNL     1      -0.346  -3.948   0.896  1.00  0.00    -0.287 OA
BRANCH  21  22
HETATM   22  C18 UNL     1       0.342  -5.117   0.999  1.00  0.00     0.505 C 
HETATM   23  F1  UNL     1       0.026  -6.018  -0.038  1.00  0.00    -0.184 F 
HETATM   24  F2  UNL     1      -0.087  -5.807   2.160  1.00  0.00    -0.184 F 
ENDBRANCH  21  22
ENDBRANCH   6  21
BRANCH   4  25
HETATM   25  N4  UNL     1      -2.146   0.499   0.610  1.00  0.00    -0.374 N 
HETATM   26  C10 UNL     1      -2.011   1.930   0.378  1.00  0.00     0.130 C 
HETATM   27  C11 UNL     1      -3.449   2.318   0.576  1.00  0.00     0.031 C 
HETATM   28  C12 UNL     1      -3.802   1.507   1.826  1.00  0.00     0.035 C 
HETATM   29  C14 UNL     1      -4.164   1.210  -0.184  1.00  0.00     0.059 C 
HETATM   30  C13 UNL     1      -3.518   0.321   0.891  1.00  0.00     0.108 C 
HETATM   31  C15 UNL     1      -3.609   0.900  -1.546  1.00  0.00     0.035 C 
HETATM   32 CL1  UNL     1      -5.921   1.241  -0.067  1.00  0.00    -0.117 Cl
ENDBRANCH   4  25
TORSDOF 7
