REMARK  8 active torsions:
REMARK  status: ('A' for Active; 'I' for Inactive)
REMARK    1  A    between atoms: N1_1  and  C1_5 
REMARK    2  A    between atoms: N2_8  and  C4_9 
REMARK    3  A    between atoms: C4_9  and  C5_10 
REMARK    4  A    between atoms: C5_10  and  C6_11 
REMARK    5  A    between atoms: C8_14  and  C9_15 
REMARK    6  A    between atoms: C10_18  and  O1_19 
REMARK    7  A    between atoms: N5_26  and  C12_27 
REMARK    8  A    between atoms: C12_27  and  C13_28 
ROOT
HETATM    1  C6  UNL     1      -0.438   1.761  -0.871  1.00  0.00     0.014 A 
HETATM    2  C7  UNL     1      -1.326   2.703  -0.441  1.00  0.00     0.139 A 
HETATM    3  F1  UNL     1      -2.662   2.488  -0.396  1.00  0.00    -0.205 F 
HETATM    4  C8  UNL     1      -0.871   3.967  -0.071  1.00  0.00     0.080 A 
HETATM    5  C10 UNL     1       0.464   4.257  -0.144  1.00  0.00     0.111 A 
HETATM    6  C11 UNL     1       1.351   3.303  -0.580  1.00  0.00     0.112 A 
HETATM    7  N3  UNL     1       2.689   3.341  -0.789  1.00  0.00    -0.281 N 
ATOM      8  H3  UNL     1       3.293   4.143  -0.611  1.00  0.00     0.188 HD
HETATM    9  N4  UNL     1       3.075   2.203  -1.248  1.00  0.00    -0.239 N 
ATOM     10  H4  UNL     1       4.040   1.976  -1.488  1.00  0.00     0.208 HD
HETATM   11  N5  UNL     1       2.032   1.343  -1.371  1.00  0.00    -0.275 N 
HETATM   12  C19 UNL     1       0.963   2.016  -0.963  1.00  0.00     0.092 A 
ENDROOT
BRANCH   1  13
HETATM   13  C5  UNL     1      -0.860   0.446  -1.315  1.00  0.00     0.074 C 
BRANCH  13  14
HETATM   14  C4  UNL     1      -2.260  -0.041  -1.106  1.00  0.00     0.277 C 
BRANCH  14  15
HETATM   15  N2  UNL     1      -2.663  -0.227   0.275  1.00  0.00     0.090 N 
HETATM   16  C3  UNL     1      -1.929  -1.311   0.903  1.00  0.00     0.274 C 
HETATM   17  C2  UNL     1      -2.833  -1.679   2.057  1.00  0.00     0.064 C 
HETATM   18  C1  UNL     1      -4.159  -1.772   1.344  1.00  0.00     0.213 C 
HETATM   19  C20 UNL     1      -4.046  -0.736   0.287  1.00  0.00     0.305 C 
BRANCH  18  20
HETATM   20  N1  UNL     1      -4.233  -3.112   0.738  1.00  0.00    -0.073 N 
ATOM     21  H13 UNL     1      -3.439  -3.322   0.134  1.00  0.00     0.274 HD
ATOM     22  H12 UNL     1      -4.088  -3.864   1.412  1.00  0.00     0.274 HD
ATOM     23  H11 UNL     1      -5.130  -3.175   0.256  1.00  0.00     0.274 HD
ENDBRANCH  18  20
ENDBRANCH  14  15
ENDBRANCH  13  14
ENDBRANCH   1  13
BRANCH   4  24
HETATM   24  C9  UNL     1      -1.882   4.945   0.392  1.00  0.00     0.392 C 
HETATM   25  F2  UNL     1      -1.922   5.978  -0.555  1.00  0.00    -0.209 F 
HETATM   26  F3  UNL     1      -1.592   5.454   1.636  1.00  0.00    -0.209 F 
ENDBRANCH   4  24
BRANCH  11  27
HETATM   27  C12 UNL     1       2.220  -0.016  -1.778  1.00  0.00     0.155 C 
BRANCH  27  28
HETATM   28  C13 UNL     1       2.874  -0.797  -0.676  1.00  0.00     0.005 C 
HETATM   29  C14 UNL     1       2.224  -0.884   0.638  1.00  0.00     0.006 C 
HETATM   30  C15 UNL     1       3.216  -1.565   1.589  1.00  0.00     0.000 C 
HETATM   31  C16 UNL     1       3.344  -2.997   1.084  1.00  0.00     0.000 C 
HETATM   32  C17 UNL     1       4.060  -2.944  -0.233  1.00  0.00     0.000 C 
HETATM   33  C18 UNL     1       3.198  -2.206  -1.218  1.00  0.00     0.006 C 
ENDBRANCH  27  28
ENDBRANCH  11  27
BRANCH   5  34
HETATM   34  O1  UNL     1       0.880   5.511   0.228  1.00  0.00    -0.357 OA
ATOM     35  H1  UNL     1       1.807   5.712   0.177  1.00  0.00     0.217 HD
ENDBRANCH   5  34
TORSDOF 8
