REMARK  8 active torsions:
REMARK  status: ('A' for Active; 'I' for Inactive)
REMARK    1  A    between atoms: C2_2  and  C3_3 
REMARK    2  A    between atoms: C3_3  and  C4_4 
REMARK    3  A    between atoms: C4_4  and  N1_5 
REMARK    4  A    between atoms: C5_7  and  C6_8 
REMARK    5  A    between atoms: C7_9  and  O1_10 
REMARK    6  A    between atoms: N3_14  and  C9_15 
REMARK    7  A    between atoms: N4_25  and  C16_27 
REMARK    8  A    between atoms: C16_27  and  C17_31 
ROOT
HETATM    1  C6  UNL     1       0.023  -0.075  -0.238  1.00  0.00     0.077 A 
HETATM    2  C7  UNL     1       0.040  -1.425  -0.625  1.00  0.00     0.172 A 
HETATM    3  N2  UNL     1      -1.230  -1.826  -0.727  1.00  0.00    -0.266 N 
HETATM    4  C8  UNL     1      -1.591  -3.188  -1.112  1.00  0.00     0.181 C 
HETATM    5  N3  UNL     1      -2.061  -0.851  -0.440  1.00  0.00    -0.232 N 
HETATM    6  C15 UNL     1      -1.313   0.276  -0.125  1.00  0.00     0.145 A 
HETATM    7  N4  UNL     1      -1.877   1.362   0.191  1.00  0.00    -0.324 N 
ATOM      8  H4  UNL     1      -2.896   1.311   0.186  1.00  0.00     0.169 HD
ENDROOT
BRANCH   5   9
HETATM    9  C9  UNL     1      -3.481  -0.942  -0.452  1.00  0.00     0.099 A 
HETATM   10  C10 UNL     1      -4.217  -0.280  -1.415  1.00  0.00     0.060 A 
HETATM   11  C11 UNL     1      -5.593  -0.342  -1.461  1.00  0.00     0.058 A 
HETATM   12 CL1  UNL     1      -6.459   0.529  -2.720  1.00  0.00    -0.082 Cl
HETATM   13  C12 UNL     1      -6.256  -1.095  -0.507  1.00  0.00     0.058 A 
HETATM   14 CL2  UNL     1      -7.999  -1.186  -0.548  1.00  0.00    -0.082 Cl
HETATM   15  C13 UNL     1      -5.521  -1.755   0.455  1.00  0.00     0.070 A 
HETATM   16  C14 UNL     1      -4.158  -1.700   0.509  1.00  0.00     0.146 A 
HETATM   17  F1  UNL     1      -3.413  -2.340   1.444  1.00  0.00    -0.204 F 
ENDBRANCH   5   9
BRANCH   2  18
HETATM   18  O1  UNL     1       1.193  -2.162  -0.847  1.00  0.00    -0.344 OA
ATOM     19  H1  UNL     1       1.204  -3.075  -1.109  1.00  0.00     0.219 HD
ENDBRANCH   2  18
BRANCH   1  20
HETATM   20  C5  UNL     1       1.201   0.739  -0.018  1.00  0.00     0.102 C 
HETATM   21  N1  UNL     1       2.368   0.204  -0.182  1.00  0.00    -0.398 N 
ATOM     22  H1  UNL     1       2.426  -0.775  -0.462  1.00  0.00     0.158 HD
BRANCH  21  23
HETATM   23  C4  UNL     1       3.592   0.947   0.018  1.00  0.00     0.119 C 
BRANCH  23  24
HETATM   24  C3  UNL     1       4.609   0.047   0.707  1.00  0.00     0.019 C 
BRANCH  24  25
HETATM   25  C2  UNL     1       5.912   0.775   0.942  1.00  0.00    -0.003 C 
HETATM   26  C1  UNL     1       6.462   1.210  -0.395  1.00  0.00     0.005 C 
ENDBRANCH  24  25
ENDBRANCH  23  24
ENDBRANCH  21  23
ENDBRANCH   1  20
BRANCH   7  27
HETATM   27  C16 UNL     1      -1.390   2.596   0.539  1.00  0.00     0.138 C 
HETATM   28  N5  UNL     1      -1.157   3.500  -0.372  1.00  0.00    -0.383 N 
ATOM     29  H52 UNL     1      -1.339   3.238  -1.341  1.00  0.00     0.157 HD
ATOM     30  H51 UNL     1      -0.795   4.418  -0.113  1.00  0.00     0.157 HD
BRANCH  27  31
HETATM   31  C17 UNL     1      -1.129   2.972   1.931  1.00  0.00     0.306 C 
HETATM   32  O2  UNL     1      -1.330   2.152   2.862  1.00  0.00    -0.298 OA
ENDBRANCH  27  31
ENDBRANCH   7  27
TORSDOF 8
