REMARK  11 active torsions:
REMARK  status: ('A' for Active; 'I' for Inactive)
REMARK       I    between atoms: C1_2  and  N1_3 
REMARK    1  A    between atoms: C1_2  and  O4_27 
REMARK    2  A    between atoms: N1_3  and  N2_5 
REMARK       I    between atoms: N2_5  and  C2_7 
REMARK    3  A    between atoms: C2_7  and  C3_9 
REMARK    4  A    between atoms: C3_9  and  C4_10 
REMARK    5  A    between atoms: C3_9  and  C12_20 
REMARK    6  A    between atoms: C4_10  and  S1_11 
REMARK    7  A    between atoms: S1_11  and  C5_12 
REMARK    8  A    between atoms: C5_12  and  C6_14 
REMARK    9  A    between atoms: C12_20  and  C13_23 
REMARK   10  A    between atoms: O4_27  and  C14_28 
REMARK   11  A    between atoms: C14_28  and  C15_29 
ROOT
HETATM    1  C3  UNL     1       0.291  -0.343   1.969  1.00  0.00     0.171 C 
ENDROOT
BRANCH   1   2
HETATM    2  C2  UNL     1       1.542   0.215   1.294  1.00  0.00     0.247 C 
HETATM    3  N2  UNL     1       2.686   0.578   2.036  1.00  0.00    -0.265 N 
ATOM      4  H2  UNL     1       2.682   0.472   3.050  1.00  0.00     0.190 HD
HETATM    5  O2  UNL     1       1.567   0.360   0.046  1.00  0.00    -0.271 OA
BRANCH   3   6
HETATM    6  N1  UNL     1       3.840   1.088   1.390  1.00  0.00    -0.243 N 
HETATM    7  C1  UNL     1       4.544   0.257   0.475  1.00  0.00     0.379 C 
HETATM    8  O1  UNL     1       4.156  -0.920   0.234  1.00  0.00    -0.237 OA
ATOM      9  H1  UNL     1       4.161   2.038   1.579  1.00  0.00     0.192 HD
BRANCH   7  10
HETATM   10  O4  UNL     1       5.680   0.679  -0.196  1.00  0.00    -0.294 OA
BRANCH  10  11
HETATM   11  C14 UNL     1       6.378  -0.148  -1.106  1.00  0.00     0.297 C 
BRANCH  11  12
HETATM   12  C15 UNL     1       7.568   0.567  -1.683  1.00  0.00     0.409 C 
HETATM   13  F6  UNL     1       8.458   0.946  -0.689  1.00  0.00    -0.169 F 
HETATM   14  F7  UNL     1       7.084   1.758  -2.237  1.00  0.00    -0.169 F 
HETATM   15  F8  UNL     1       8.161  -0.225  -2.641  1.00  0.00    -0.169 F 
ENDBRANCH  11  12
ENDBRANCH  10  11
ENDBRANCH   7  10
ENDBRANCH   3   6
ENDBRANCH   1   2
BRANCH   1  16
HETATM   16  C4  UNL     1      -0.838  -0.282   0.964  1.00  0.00     0.103 C 
BRANCH  16  17
HETATM   17  S1  UNL     1      -0.559  -1.259  -0.495  1.00  0.00    -0.091 SA
BRANCH  17  18
HETATM   18  C5  UNL     1      -1.955  -1.167  -1.593  1.00  0.00     0.190 C 
HETATM   19  O3  UNL     1      -1.875  -1.876  -2.608  1.00  0.00    -0.285 OA
BRANCH  18  20
HETATM   20  C6  UNL     1      -3.113  -0.316  -1.317  1.00  0.00     0.067 C 
HETATM   21  C7  UNL     1      -2.887   1.158  -1.554  1.00  0.00     0.013 C 
HETATM   22  C8  UNL     1      -4.024   1.913  -0.902  1.00  0.00     0.001 C 
HETATM   23  C9  UNL     1      -5.162   1.026  -0.474  1.00  0.00     0.000 C 
HETATM   24  C10 UNL     1      -5.518   0.053  -1.574  1.00  0.00     0.001 C 
HETATM   25  C11 UNL     1      -4.341  -0.678  -2.149  1.00  0.00     0.013 C 
ENDBRANCH  18  20
ENDBRANCH  17  18
ENDBRANCH  16  17
ENDBRANCH   1  16
BRANCH   1  26
HETATM   26  C12 UNL     1       0.604  -1.726   2.466  1.00  0.00     0.352 C 
HETATM   27  F1  UNL     1       1.664  -1.669   3.387  1.00  0.00    -0.195 F 
HETATM   28  F2  UNL     1       1.107  -2.522   1.437  1.00  0.00    -0.195 F 
BRANCH  26  29
HETATM   29  C13 UNL     1      -0.557  -2.391   3.137  1.00  0.00     0.455 C 
HETATM   30  F3  UNL     1      -0.962  -1.595   4.192  1.00  0.00    -0.165 F 
HETATM   31  F4  UNL     1      -1.578  -2.594   2.262  1.00  0.00    -0.165 F 
HETATM   32  F5  UNL     1      -0.135  -3.639   3.665  1.00  0.00    -0.165 F 
ENDBRANCH  26  29
ENDBRANCH   1  26
TORSDOF 11
