REMARK  9 active torsions:
REMARK  status: ('A' for Active; 'I' for Inactive)
REMARK    1  A    between atoms: C2_2  and  O1_3 
REMARK    2  A    between atoms: O1_3  and  C3_4 
REMARK    3  A    between atoms: C7_12  and  N3_13 
REMARK    4  A    between atoms: N4_16  and  C8_17 
REMARK    5  A    between atoms: C8_17  and  C9_18 
REMARK    6  A    between atoms: C9_18  and  O2_19 
REMARK    7  A    between atoms: O2_19  and  C10_20 
REMARK    8  A    between atoms: C10_20  and  C11_21 
REMARK    9  A    between atoms: C16_29  and  C17_31 
ROOT
HETATM    1  C3  UNL     1      -2.186  -0.344   0.137  1.00  0.00     0.194 C 
HETATM    2  C4  UNL     1      -0.904  -0.978   0.467  1.00  0.00     0.060 A 
HETATM    3  C5  UNL     1       0.435  -0.569   0.386  1.00  0.00     0.117 A 
HETATM    4  N1  UNL     1       1.396  -1.420   0.750  1.00  0.00    -0.338 N 
ATOM      5  H1  UNL     1       2.370  -1.121   0.691  1.00  0.00     0.168 HD
HETATM    6  C6  UNL     1       1.120  -2.659   1.192  1.00  0.00     0.183 A 
HETATM    7  N2  UNL     1      -0.158  -3.037   1.265  1.00  0.00    -0.338 N 
ATOM      8  H2  UNL     1      -0.361  -3.978   1.602  1.00  0.00     0.168 HD
HETATM    9  C7  UNL     1      -1.214  -2.235   0.914  1.00  0.00     0.112 A 
HETATM   10  N4  UNL     1       1.004   0.655  -0.026  1.00  0.00    -0.365 N 
HETATM   11  C12 UNL     1       0.462   1.925  -0.350  1.00  0.00     0.125 C 
HETATM   12  C13 UNL     1      -0.559   2.490   0.534  1.00  0.00     0.026 C 
HETATM   13  C14 UNL     1      -1.309   1.630   1.476  1.00  0.00     0.018 C 
HETATM   14  C15 UNL     1      -1.715   2.603   2.620  1.00  0.00     0.012 C 
HETATM   15  C16 UNL     1      -2.503   0.948   0.896  1.00  0.00     0.168 C 
HETATM   16 CL1  UNL     1      -3.266   2.047  -0.332  1.00  0.00    -0.106 Cl
ENDROOT
BRANCH  10  17
HETATM   17  C8  UNL     1       2.480   0.563  -0.132  1.00  0.00     0.150 C 
BRANCH  17  18
HETATM   18  C9  UNL     1       2.919   0.663  -1.549  1.00  0.00     0.187 C 
BRANCH  18  19
HETATM   19  O2  UNL     1       4.289   0.595  -1.652  1.00  0.00    -0.381 OA
BRANCH  19  20
HETATM   20  C10 UNL     1       4.838  -0.572  -1.179  1.00  0.00     0.285 C 
BRANCH  20  21
HETATM   21  C11 UNL     1       6.350  -0.596  -1.359  1.00  0.00     0.408 C 
HETATM   22  F1  UNL     1       6.716  -0.488  -2.677  1.00  0.00    -0.169 F 
HETATM   23  F2  UNL     1       6.965   0.430  -0.667  1.00  0.00    -0.169 F 
HETATM   24  F3  UNL     1       6.810  -1.782  -0.820  1.00  0.00    -0.169 F 
ENDBRANCH  20  21
ENDBRANCH  19  20
ENDBRANCH  18  19
ENDBRANCH  17  18
ENDBRANCH  10  17
BRANCH   1  25
HETATM   25  O1  UNL     1      -2.056   0.046  -1.209  1.00  0.00    -0.379 OA
BRANCH  25  26
HETATM   26  C2  UNL     1      -2.934  -0.378  -2.120  1.00  0.00     0.164 C 
HETATM   27  C1  UNL     1      -3.039  -1.834  -2.427  1.00  0.00     0.033 C 
ENDBRANCH  25  26
ENDBRANCH   1  25
BRANCH   9  28
HETATM   28  N3  UNL     1      -2.396  -2.713   1.019  1.00  0.00    -0.385 N 
ATOM     29  H32 UNL     1      -3.181  -2.117   0.758  1.00  0.00     0.157 HD
ATOM     30  H31 UNL     1      -2.627  -3.649   1.352  1.00  0.00     0.157 HD
ENDBRANCH   9  28
BRANCH  15  31
HETATM   31  C17 UNL     1      -3.619   0.704   1.847  1.00  0.00     0.411 C 
HETATM   32  F4  UNL     1      -4.707   0.229   1.107  1.00  0.00    -0.169 F 
HETATM   33  F5  UNL     1      -4.174   1.932   2.296  1.00  0.00    -0.169 F 
HETATM   34  F6  UNL     1      -3.417  -0.127   2.888  1.00  0.00    -0.169 F 
ENDBRANCH  15  31
TORSDOF 9
