REMARK  9 active torsions:
REMARK  status: ('A' for Active; 'I' for Inactive)
REMARK    1  A    between atoms: N1_1  and  C1_5 
REMARK    2  A    between atoms: C4_8  and  C5_9 
REMARK    3  A    between atoms: C5_9  and  N2_10 
REMARK    4  A    between atoms: N2_10  and  C6_11 
REMARK    5  A    between atoms: N2_10  and  C16_33 
REMARK    6  A    between atoms: C7_14  and  C8_15 
REMARK    7  A    between atoms: C8_15  and  C9_16 
REMARK    8  A    between atoms: C9_16  and  C10_17 
REMARK    9  A    between atoms: C14_26  and  C15_27 
ROOT
HETATM    1  C6  UNL     1      -0.853   0.555  -0.905  1.00  0.00     0.681 A 
HETATM    2  N3  UNL     1      -1.514   0.420   0.249  1.00  0.00    -0.195 N 
ATOM      3  H3  UNL     1      -1.127  -0.245   0.919  1.00  0.00     0.184 HD
HETATM    4  C7  UNL     1      -2.615   1.054   0.617  1.00  0.00     0.030 A 
HETATM    5  C13 UNL     1      -3.126   1.961  -0.311  1.00  0.00     0.060 A 
HETATM    6  C14 UNL     1      -2.482   2.138  -1.508  1.00  0.00     0.134 A 
HETATM    7  N4  UNL     1      -1.342   1.422  -1.787  1.00  0.00    -0.186 N 
ATOM      8  H4  UNL     1      -0.867   1.557  -2.679  1.00  0.00     0.184 HD
ENDROOT
BRANCH   1   9
HETATM    9  N2  UNL     1       0.288  -0.280  -1.092  1.00  0.00    -0.209 N 
BRANCH   9  10
HETATM   10  C5  UNL     1       1.057  -0.579   0.088  1.00  0.00     0.146 C 
BRANCH  10  11
HETATM   11  C4  UNL     1       2.465  -0.139   0.098  1.00  0.00     0.004 C 
HETATM   12  C3  UNL     1       3.067  -0.541   1.450  1.00  0.00     0.008 C 
HETATM   13  C2  UNL     1       4.562  -0.731   1.239  1.00  0.00     0.033 C 
HETATM   14  C1  UNL     1       5.011   0.345   0.275  1.00  0.00     0.183 C 
HETATM   15  C20 UNL     1       4.172   1.590   0.355  1.00  0.00     0.033 C 
HETATM   16  C19 UNL     1       2.723   1.325  -0.034  1.00  0.00     0.008 C 
BRANCH  14  17
HETATM   17  N1  UNL     1       6.354   0.730   0.717  1.00  0.00    -0.075 N 
ATOM     18  H13 UNL     1       6.398   1.012   1.696  1.00  0.00     0.274 HD
ATOM     19  H12 UNL     1       7.003  -0.054   0.788  1.00  0.00     0.274 HD
ATOM     20  H11 UNL     1       6.657   1.455   0.067  1.00  0.00     0.274 HD
ENDBRANCH  14  17
ENDBRANCH  10  11
ENDBRANCH   9  10
BRANCH   9  21
HETATM   21  C16 UNL     1       0.450  -0.805  -2.396  1.00  0.00     0.153 C 
HETATM   22  C17 UNL     1       1.718  -1.025  -3.078  1.00  0.00     0.259 C 
HETATM   23  N5  UNL     1       1.723  -2.445  -2.700  1.00  0.00    -0.071 N 
HETATM   24  C18 UNL     1       0.312  -2.338  -2.450  1.00  0.00     0.259 C 
ATOM     25  H52 UNL     1       2.088  -3.153  -3.337  1.00  0.00     0.277 HD
ATOM     26  H51 UNL     1       2.356  -2.791  -1.979  1.00  0.00     0.277 HD
ENDBRANCH   9  21
ENDBRANCH   1   9
BRANCH   4  27
HETATM   27  C8  UNL     1      -3.326   0.893   1.883  1.00  0.00     0.082 C 
BRANCH  27  28
HETATM   28  C9  UNL     1      -4.398  -0.144   1.966  1.00  0.00     0.133 A 
HETATM   29  C11 UNL     1      -5.183  -0.629   0.827  1.00  0.00     0.105 A 
HETATM   30  C12 UNL     1      -4.119  -1.509   1.416  1.00  0.00     0.261 A 
HETATM   31  F4  UNL     1      -3.048  -1.860   0.690  1.00  0.00    -0.205 F 
HETATM   32  F5  UNL     1      -4.671  -2.615   2.102  1.00  0.00    -0.205 F 
BRANCH  28  33
HETATM   33  C10 UNL     1      -5.087  -0.185   3.356  1.00  0.00     0.401 C 
HETATM   34  F1  UNL     1      -6.057  -1.127   3.412  1.00  0.00    -0.170 F 
HETATM   35  F2  UNL     1      -4.098  -0.530   4.284  1.00  0.00    -0.170 F 
HETATM   36  F3  UNL     1      -5.600   1.044   3.668  1.00  0.00    -0.170 F 
ENDBRANCH  28  33
ENDBRANCH  27  28
ENDBRANCH   4  27
BRANCH   6  37
HETATM   37  C15 UNL     1      -3.015   3.110  -2.483  1.00  0.00     0.433 C 
HETATM   38  F6  UNL     1      -2.171   3.227  -3.573  1.00  0.00    -0.165 F 
HETATM   39  F7  UNL     1      -4.263   2.822  -2.954  1.00  0.00    -0.165 F 
HETATM   40  F8  UNL     1      -3.043   4.349  -1.875  1.00  0.00    -0.165 F 
ENDBRANCH   6  37
TORSDOF 9
