REMARK  10 active torsions:
REMARK  status: ('A' for Active; 'I' for Inactive)
REMARK    1  A    between atoms: C2_2  and  O1_4 
REMARK    2  A    between atoms: C2_2  and  C17_31 
REMARK    3  A    between atoms: O1_4  and  C4_5 
REMARK    4  A    between atoms: C4_5  and  C5_6 
REMARK    5  A    between atoms: C5_6  and  N1_7 
REMARK    6  A    between atoms: C7_13  and  C8_14 
REMARK    7  A    between atoms: C10_19  and  O3_20 
REMARK    8  A    between atoms: C10_19  and  C16_27 
REMARK    9  A    between atoms: O3_20  and  C11_21 
REMARK   10  A    between atoms: C11_21  and  C12_22 
ROOT
HETATM    1  N1  UNL     1       0.310  -0.707  -0.541  1.00  0.00    -0.306 N 
HETATM    2  C6  UNL     1       1.023  -1.909  -0.777  1.00  0.00     0.218 C 
HETATM    3  N2  UNL     1       1.752  -2.478   0.140  1.00  0.00    -0.365 N 
ATOM      4  H21 UNL     1       2.265  -3.343  -0.030  1.00  0.00     0.159 HD
ATOM      5  H22 UNL     1       1.817  -2.050   1.064  1.00  0.00     0.159 HD
HETATM    6  O2  UNL     1       0.933  -2.500  -2.052  1.00  0.00    -0.308 OA
HETATM    7  C7  UNL     1      -0.380  -2.474  -2.610  1.00  0.00     0.244 C 
HETATM    8  C9  UNL     1      -1.419  -1.916  -1.701  1.00  0.00     0.113 C 
HETATM    9  C10 UNL     1      -1.093  -0.607  -1.038  1.00  0.00     0.241 C 
ENDROOT
BRANCH   9  10
HETATM   10  O3  UNL     1      -1.805  -0.442   0.128  1.00  0.00    -0.350 OA
BRANCH  10  11
HETATM   11  C11 UNL     1      -3.140  -0.224   0.048  1.00  0.00     0.203 C 
BRANCH  11  12
HETATM   12  C12 UNL     1      -3.721  -0.124   1.479  1.00  0.00     0.145 C 
HETATM   13  C13 UNL     1      -5.155   0.303   1.322  1.00  0.00     0.036 C 
HETATM   14  C14 UNL     1      -5.065   1.792   1.631  1.00  0.00     0.029 C 
HETATM   15  C15 UNL     1      -3.933   1.768   2.660  1.00  0.00     0.168 C 
HETATM   16  O4  UNL     1      -3.048   0.880   2.132  1.00  0.00    -0.384 OA
ENDBRANCH  11  12
ENDBRANCH  10  11
ENDBRANCH   9  10
BRANCH   9  17
HETATM   17  C16 UNL     1      -1.295   0.474  -2.037  1.00  0.00     0.438 C 
HETATM   18  F4  UNL     1      -0.468   0.330  -3.148  1.00  0.00    -0.166 F 
HETATM   19  F5  UNL     1      -2.594   0.318  -2.620  1.00  0.00    -0.166 F 
HETATM   20  F6  UNL     1      -1.244   1.753  -1.610  1.00  0.00    -0.166 F 
ENDBRANCH   9  17
BRANCH   1  21
HETATM   21  C5  UNL     1       0.878   0.364   0.213  1.00  0.00     0.156 C 
BRANCH  21  22
HETATM   22  C4  UNL     1       2.392   0.338   0.301  1.00  0.00     0.189 C 
BRANCH  22  23
HETATM   23  O1  UNL     1       2.846   1.428   1.051  1.00  0.00    -0.370 OA
BRANCH  23  24
HETATM   24  C2  UNL     1       4.210   1.507   1.035  1.00  0.00     0.151 C 
HETATM   25  C1  UNL     1       4.606   2.698   1.947  1.00  0.00     0.055 C 
HETATM   26  C3  UNL     1       4.728   1.919  -0.339  1.00  0.00     0.055 C 
BRANCH  24  27
HETATM   27  C17 UNL     1       5.009   0.357   1.522  1.00  0.00     0.417 C 
HETATM   28  F7  UNL     1       6.383   0.737   1.416  1.00  0.00    -0.168 F 
HETATM   29  F8  UNL     1       4.981  -0.759   0.659  1.00  0.00    -0.168 F 
HETATM   30  F9  UNL     1       4.804   0.032   2.824  1.00  0.00    -0.168 F 
ENDBRANCH  24  27
ENDBRANCH  23  24
ENDBRANCH  22  23
ENDBRANCH  21  22
ENDBRANCH   1  21
BRANCH   7  31
HETATM   31  C8  UNL     1      -0.753  -3.962  -2.790  1.00  0.00     0.414 C 
HETATM   32  F1  UNL     1      -0.735  -4.567  -1.546  1.00  0.00    -0.168 F 
HETATM   33  F2  UNL     1       0.260  -4.527  -3.548  1.00  0.00    -0.168 F 
HETATM   34  F3  UNL     1      -1.995  -4.055  -3.373  1.00  0.00    -0.168 F 
ENDBRANCH   7  31
TORSDOF 10
