REMARK  7 active torsions:
REMARK  status: ('A' for Active; 'I' for Inactive)
REMARK    1  A    between atoms: C4_5  and  O1_6 
REMARK    2  A    between atoms: C4_5  and  C6_10 
REMARK    3  A    between atoms: O1_6  and  C5_7 
REMARK    4  A    between atoms: C9_15  and  N1_16 
REMARK    5  A    between atoms: C9_15  and  C15_29 
REMARK       I    between atoms: N1_16  and  C10_18 
REMARK    6  A    between atoms: C10_18  and  C11_20 
REMARK    7  A    between atoms: C13_25  and  C14_26 
ROOT
HETATM    1  C1  UNL     1       0.069  -0.169  -2.531  1.00  0.00     0.036 C 
HETATM    2  C2  UNL     1      -0.793   0.319  -1.402  1.00  0.00     0.070 C 
HETATM    3 CL1  UNL     1      -2.227   1.043  -2.093  1.00  0.00    -0.117 Cl
HETATM    4  C3  UNL     1      -1.227  -0.931  -0.626  1.00  0.00     0.078 C 
HETATM    5  C4  UNL     1      -2.343  -0.638   0.359  1.00  0.00     0.156 C 
HETATM    6  C7  UNL     1      -2.154   0.739   0.940  1.00  0.00     0.052 C 
HETATM    7  C8  UNL     1      -0.708   1.156   0.935  1.00  0.00     0.046 C 
HETATM    8  C9  UNL     1      -0.058   1.185  -0.397  1.00  0.00     0.152 C 
ENDROOT
BRANCH   8   9
HETATM    9  N1  UNL     1       1.284   0.631  -0.298  1.00  0.00    -0.337 N 
HETATM   10  C10 UNL     1       2.276   0.951   0.629  1.00  0.00     0.256 C 
HETATM   11  O4  UNL     1       2.107   1.795   1.526  1.00  0.00    -0.267 OA
ATOM     12  H1  UNL     1       1.529  -0.077  -0.990  1.00  0.00     0.164 HD
BRANCH  10  13
HETATM   13  C11 UNL     1       3.586   0.316   0.601  1.00  0.00     0.086 A 
HETATM   14  C12 UNL     1       4.794   0.948   0.924  1.00  0.00     0.134 A 
HETATM   15  N2  UNL     1       5.764   0.078   0.708  1.00  0.00    -0.271 N 
HETATM   16  O5  UNL     1       5.252  -1.007   0.289  1.00  0.00    -0.236 OA
ATOM     17  H2  UNL     1       6.759   0.249   0.853  1.00  0.00     0.194 HD
HETATM   18  C13 UNL     1       3.914  -0.930   0.202  1.00  0.00     0.157 A 
BRANCH  18  19
HETATM   19  C14 UNL     1       3.165  -2.109  -0.255  1.00  0.00     0.413 C 
HETATM   20  F3  UNL     1       3.522  -3.246   0.471  1.00  0.00    -0.207 F 
HETATM   21  F4  UNL     1       3.575  -2.391  -1.567  1.00  0.00    -0.207 F 
ENDBRANCH  18  19
ENDBRANCH  10  13
ENDBRANCH   8   9
BRANCH   8  22
HETATM   22  C15 UNL     1       0.021   2.607  -0.878  1.00  0.00     0.414 C 
HETATM   23  F5  UNL     1       0.689   2.783  -2.058  1.00  0.00    -0.168 F 
HETATM   24  F6  UNL     1      -1.271   3.135  -1.060  1.00  0.00    -0.168 F 
HETATM   25  F7  UNL     1       0.578   3.405   0.074  1.00  0.00    -0.168 F 
ENDBRANCH   8  22
BRANCH   5  26
HETATM   26  O1  UNL     1      -3.533  -0.745  -0.352  1.00  0.00    -0.310 OA
BRANCH  26  27
HETATM   27  C5  UNL     1      -4.676  -0.509   0.355  1.00  0.00     0.501 C 
HETATM   28  F1  UNL     1      -5.568  -1.561   0.403  1.00  0.00    -0.184 F 
HETATM   29  F2  UNL     1      -5.302   0.639  -0.136  1.00  0.00    -0.184 F 
ENDBRANCH  26  27
ENDBRANCH   5  26
BRANCH   5  30
HETATM   30  C6  UNL     1      -2.216  -1.700   1.407  1.00  0.00     0.209 C 
HETATM   31  O2  UNL     1      -3.121  -2.535   1.541  1.00  0.00    -0.646 OA
HETATM   32  O3  UNL     1      -1.091  -1.735   2.209  1.00  0.00    -0.646 OA
ENDBRANCH   5  30
TORSDOF 7
