REMARK  11 active torsions:
REMARK  status: ('A' for Active; 'I' for Inactive)
REMARK    1  A    between atoms: C2_2  and  C3_3 
REMARK    2  A    between atoms: C3_3  and  C4_4 
REMARK    3  A    between atoms: C4_4  and  C5_5 
REMARK    4  A    between atoms: C5_5  and  C6_6 
REMARK    5  A    between atoms: C6_6  and  N1_7 
REMARK    6  A    between atoms: N1_7  and  C7_9 
REMARK    7  A    between atoms: C8_12  and  N3_13 
REMARK    8  A    between atoms: C11_16  and  O1_17 
REMARK    9  A    between atoms: C15_22  and  N4_23 
REMARK   10  A    between atoms: C17_25  and  C19_27 
REMARK   11  A    between atoms: C21_32  and  N5_33 
ROOT
HETATM    1  C7  UNL     1       0.833  -0.191  -0.619  1.00  0.00     0.681 A 
HETATM    2  N2  UNL     1       0.422   1.080  -0.753  1.00  0.00    -0.177 N 
ATOM      3  H2  UNL     1       1.129   1.803  -0.888  1.00  0.00     0.185 HD
HETATM    4  C8  UNL     1      -0.869   1.453  -0.719  1.00  0.00     0.122 A 
HETATM    5  C14 UNL     1      -1.807   0.491  -0.540  1.00  0.00     0.097 A 
HETATM    6  C15 UNL     1      -1.440  -0.846  -0.395  1.00  0.00     0.124 A 
HETATM    7  N6  UNL     1      -0.128  -1.112  -0.444  1.00  0.00    -0.177 N 
ATOM      8  H6  UNL     1       0.162  -2.085  -0.341  1.00  0.00     0.185 HD
ENDROOT
BRANCH   6   9
HETATM    9  N4  UNL     1      -2.413  -1.863  -0.207  1.00  0.00    -0.338 N 
HETATM   10  C16 UNL     1      -3.839  -1.663  -0.150  1.00  0.00     0.145 C 
HETATM   11  C17 UNL     1      -4.372  -2.909   0.474  1.00  0.00     0.074 C 
HETATM   12  C18 UNL     1      -4.251  -2.822   1.980  1.00  0.00     0.026 C 
HETATM   13  C20 UNL     1      -3.446  -3.981  -0.035  1.00  0.00     0.074 C 
HETATM   14  C21 UNL     1      -2.113  -3.266  -0.043  1.00  0.00     0.286 C 
BRANCH  11  15
HETATM   15  C19 UNL     1      -5.794  -3.198   0.048  1.00  0.00     0.396 C 
HETATM   16  F1  UNL     1      -6.177  -4.375   0.689  1.00  0.00    -0.170 F 
HETATM   17  F2  UNL     1      -6.572  -2.135   0.462  1.00  0.00    -0.170 F 
HETATM   18  F3  UNL     1      -5.803  -3.381  -1.304  1.00  0.00    -0.170 F 
ENDBRANCH  11  15
BRANCH  14  19
HETATM   19  N5  UNL     1      -1.345  -3.543   1.154  1.00  0.00    -0.058 N 
ATOM     20  H53 UNL     1      -0.493  -2.983   1.178  1.00  0.00     0.276 HD
ATOM     21  H52 UNL     1      -1.812  -3.171   1.981  1.00  0.00     0.276 HD
ATOM     22  H51 UNL     1      -1.133  -4.534   1.270  1.00  0.00     0.276 HD
ENDBRANCH  14  19
ENDBRANCH   6   9
BRANCH   4  23
HETATM   23  N3  UNL     1      -1.190   2.817  -0.870  1.00  0.00    -0.367 N 
HETATM   24  C9  UNL     1      -2.518   3.366  -0.865  1.00  0.00     0.127 C 
HETATM   25  C10 UNL     1      -2.608   4.301   0.329  1.00  0.00     0.051 C 
HETATM   26  C11 UNL     1      -1.507   5.334   0.318  1.00  0.00     0.121 C 
HETATM   27  C12 UNL     1      -0.148   4.729   0.116  1.00  0.00     0.051 C 
HETATM   28  C13 UNL     1      -0.103   3.776  -1.049  1.00  0.00     0.127 C 
BRANCH  26  29
HETATM   29  O1  UNL     1      -1.505   5.927   1.600  1.00  0.00    -0.395 OA
ATOM     30  H1  UNL     1      -0.812   6.577   1.593  1.00  0.00     0.210 HD
ENDBRANCH  26  29
ENDBRANCH   4  23
BRANCH   1  31
HETATM   31  N1  UNL     1       2.081  -0.427  -0.668  1.00  0.00    -0.226 N 
ATOM     32  H1  UNL     1       2.688   0.381  -0.808  1.00  0.00     0.177 HD
BRANCH  31  33
HETATM   33  C6  UNL     1       2.728  -1.687  -0.550  1.00  0.00     0.138 C 
BRANCH  33  34
HETATM   34  C5  UNL     1       4.176  -1.415  -0.118  1.00  0.00     0.020 C 
BRANCH  34  35
HETATM   35  C4  UNL     1       4.789  -0.567  -1.195  1.00  0.00     0.002 C 
BRANCH  35  36
HETATM   36  C3  UNL     1       6.210  -0.254  -0.850  1.00  0.00    -0.000 C 
BRANCH  36  37
HETATM   37  C2  UNL     1       6.360   0.491   0.439  1.00  0.00    -0.005 C 
HETATM   38  C1  UNL     1       7.837   0.751   0.682  1.00  0.00     0.005 C 
ENDBRANCH  36  37
ENDBRANCH  35  36
ENDBRANCH  34  35
ENDBRANCH  33  34
ENDBRANCH  31  33
ENDBRANCH   1  31
TORSDOF 11
