REMARK  0 active torsions:
REMARK  status: ('A' for Active; 'I' for Inactive)
ROOT
HETATM    1  C1  UNL     1       3.027   0.567  -0.044  1.00  0.00     0.003 C 
HETATM    2  C2  UNL     1       2.806  -0.857   0.352  1.00  0.00     0.032 C 
HETATM    3  C3  UNL     1       1.317  -1.041   0.319  1.00  0.00     0.129 C 
HETATM    4  O1  UNL     1       0.604  -0.245   1.221  1.00  0.00    -0.374 OA
HETATM    5  C4  UNL     1      -0.352  -0.093   0.183  1.00  0.00     0.070 C 
HETATM    6  C5  UNL     1      -1.011   1.222   0.194  1.00  0.00     0.066 C 
HETATM    7  C6  UNL     1      -2.470   1.241  -0.071  1.00  0.00     0.235 C 
HETATM    8  N1  UNL     1      -3.187   0.107   0.469  1.00  0.00    -0.075 N 
ATOM      9  H11 UNL     1      -4.200   0.188   0.382  1.00  0.00     0.277 HD
ATOM     10  H12 UNL     1      -3.154   0.053   1.487  1.00  0.00     0.277 HD
HETATM   11  C7  UNL     1      -2.644  -1.063  -0.188  1.00  0.00     0.235 C 
HETATM   12  C8  UNL     1      -1.211  -1.291   0.117  1.00  0.00     0.066 C 
HETATM   13  C9  UNL     1       0.858  -0.094  -0.752  1.00  0.00     0.049 C 
HETATM   14  C10 UNL     1       1.696   1.111  -0.533  1.00  0.00     0.010 C 
ENDROOT
TORSDOF 0
