REMARK  0 active torsions:
REMARK  status: ('A' for Active; 'I' for Inactive)
ROOT
HETATM    1  C1  UNL     1      -1.944   0.441   0.702  1.00  0.00     0.013 C 
HETATM    2  C2  UNL     1      -2.678   0.519  -0.606  1.00  0.00     0.074 C 
HETATM    3  S1  UNL     1      -1.914  -0.713  -1.730  1.00  0.00    -0.166 SA
HETATM    4  C3  UNL     1      -0.677  -1.574  -0.718  1.00  0.00     0.124 C 
HETATM    5  C4  UNL     1       0.220  -0.537  -0.121  1.00  0.00     0.181 C 
HETATM    6  C5  UNL     1      -0.460   0.581   0.558  1.00  0.00     0.052 C 
HETATM    7  N1  UNL     1       1.083  -0.042  -1.202  1.00  0.00    -0.056 N 
ATOM      8  H11 UNL     1       0.589   0.537  -1.881  1.00  0.00     0.279 HD
ATOM      9  H12 UNL     1       1.378  -0.772  -1.850  1.00  0.00     0.279 HD
HETATM   10  C6  UNL     1       2.190   0.640  -0.561  1.00  0.00     0.244 C 
HETATM   11  C7  UNL     1       2.946  -0.435   0.228  1.00  0.00     0.104 C 
HETATM   12  S2  UNL     1       1.495  -1.301   0.958  1.00  0.00    -0.128 SA
ENDROOT
TORSDOF 0
