REMARK  0 active torsions:
REMARK  status: ('A' for Active; 'I' for Inactive)
ROOT
HETATM    1  C1  UNL     1       2.584  -0.177  -0.529  1.00  0.00     0.016 C 
HETATM    2  C2  UNL     1       3.142   0.475   0.704  1.00  0.00     0.079 C 
HETATM    3  S1  UNL     1       1.621   0.961   1.609  1.00  0.00    -0.102 SA
HETATM    4  C3  UNL     1       0.414   0.091   0.531  1.00  0.00     0.277 C 
HETATM    5  C4  UNL     1       1.317  -0.883  -0.152  1.00  0.00     0.082 C 
HETATM    6  N1  UNL     1      -0.219   1.033  -0.325  1.00  0.00    -0.026 N 
ATOM      7  H11 UNL     1       0.013   0.885  -1.307  1.00  0.00     0.282 HD
ATOM      8  H12 UNL     1       0.170   1.971  -0.228  1.00  0.00     0.282 HD
HETATM    9  C5  UNL     1      -1.630   0.998  -0.084  1.00  0.00     0.219 C 
HETATM   10  C6  UNL     1      -2.313   0.013  -0.999  1.00  0.00     0.038 C 
HETATM   11  C7  UNL     1      -2.728  -0.774   0.216  1.00  0.00     0.036 C 
HETATM   12  C8  UNL     1      -1.760   0.023   1.052  1.00  0.00     0.156 C 
HETATM   13  O1  UNL     1      -0.542  -0.557   1.272  1.00  0.00    -0.339 OA
ENDROOT
TORSDOF 0
