REMARK  12 active torsions:
REMARK  status: ('A' for Active; 'I' for Inactive)
REMARK    1  A    between atoms: N1_1  and  C1_5 
REMARK    2  A    between atoms: C1_5  and  C2_6 
REMARK    3  A    between atoms: C2_6  and  C3_7 
REMARK    4  A    between atoms: C3_7  and  C4_8 
REMARK    5  A    between atoms: C4_8  and  C5_9 
REMARK    6  A    between atoms: C5_9  and  N2_10 
REMARK    7  A    between atoms: C5_9  and  C11_20 
REMARK    8  A    between atoms: N2_10  and  C6_12 
REMARK    9  A    between atoms: C6_12  and  N3_14 
REMARK   10  A    between atoms: N3_14  and  C7_16 
REMARK   11  A    between atoms: C7_16  and  C8_17 
REMARK       I    between atoms: C11_20  and  N4_22 
REMARK   12  A    between atoms: N4_22  and  C12_24 
ROOT
HETATM    1  C5  UNL     1      -2.076   1.028   0.285  1.00  0.00     0.176 C 
ENDROOT
BRANCH   1   2
HETATM    2  C4  UNL     1      -2.726   1.737  -0.854  1.00  0.00     0.035 C 
BRANCH   2   3
HETATM    3  C3  UNL     1      -2.110   3.028  -1.266  1.00  0.00     0.004 C 
BRANCH   3   4
HETATM    4  C2  UNL     1      -2.113   4.096  -0.204  1.00  0.00     0.027 C 
BRANCH   4   5
HETATM    5  C1  UNL     1      -3.510   4.466   0.256  1.00  0.00     0.229 C 
BRANCH   5   6
HETATM    6  N1  UNL     1      -3.447   5.508   1.283  1.00  0.00    -0.079 N 
ATOM      7  H13 UNL     1      -2.849   5.237   2.063  1.00  0.00     0.274 HD
ATOM      8  H12 UNL     1      -2.922   6.323   0.966  1.00  0.00     0.274 HD
ATOM      9  H11 UNL     1      -4.387   5.757   1.592  1.00  0.00     0.274 HD
ENDBRANCH   5   6
ENDBRANCH   4   5
ENDBRANCH   3   4
ENDBRANCH   2   3
ENDBRANCH   1   2
BRANCH   1  10
HETATM   10  N2  UNL     1      -2.865  -0.177   0.575  1.00  0.00    -0.354 N 
ATOM     11  H2  UNL     1      -3.255  -0.235   1.516  1.00  0.00     0.162 HD
BRANCH  10  12
HETATM   12  C6  UNL     1      -3.150  -1.249  -0.263  1.00  0.00     0.168 C 
HETATM   13  S1  UNL     1      -2.673  -1.441  -1.798  1.00  0.00    -0.041 SA
BRANCH  12  14
HETATM   14  N3  UNL     1      -3.961  -2.305   0.306  1.00  0.00    -0.367 N 
ATOM     15  H3  UNL     1      -4.296  -2.249   1.268  1.00  0.00     0.161 HD
BRANCH  14  16
HETATM   16  C7  UNL     1      -4.280  -3.432  -0.522  1.00  0.00     0.126 C 
BRANCH  16  17
HETATM   17  C8  UNL     1      -5.125  -4.447   0.198  1.00  0.00     0.003 A 
HETATM   18  C9  UNL     1      -5.509  -5.665  -0.594  1.00  0.00     0.007 A 
HETATM   19  C10 UNL     1      -4.534  -5.744   0.557  1.00  0.00     0.007 A 
ENDBRANCH  16  17
ENDBRANCH  14  16
ENDBRANCH  12  14
ENDBRANCH  10  12
ENDBRANCH   1  10
BRANCH   1  20
HETATM   20  C11 UNL     1      -0.698   0.577   0.124  1.00  0.00     0.241 C 
HETATM   21  O1  UNL     1      -0.463  -0.687   0.120  1.00  0.00    -0.271 OA
HETATM   22  N4  UNL     1       0.420   1.394  -0.024  1.00  0.00    -0.346 N 
ATOM     23  H4  UNL     1       0.296   2.406  -0.017  1.00  0.00     0.163 HD
BRANCH  22  24
HETATM   24  C12 UNL     1       1.785   0.839  -0.192  1.00  0.00     0.176 C 
HETATM   25  C13 UNL     1       2.565   1.308   0.995  1.00  0.00     0.035 C 
HETATM   26  C14 UNL     1       2.715   0.102   1.932  1.00  0.00     0.002 C 
HETATM   27  C15 UNL     1       4.144  -0.393   1.967  1.00  0.00     0.000 C 
HETATM   28  C16 UNL     1       4.311  -1.729   1.284  1.00  0.00     0.000 C 
HETATM   29  C17 UNL     1       5.620  -1.882   0.577  1.00  0.00     0.000 C 
HETATM   30  C18 UNL     1       5.942  -0.813  -0.398  1.00  0.00     0.002 C 
HETATM   31  C19 UNL     1       4.811  -0.435  -1.319  1.00  0.00     0.020 C 
HETATM   32  C20 UNL     1       4.893   1.060  -1.515  1.00  0.00     0.122 C 
HETATM   33  N5  UNL     1       3.626   1.690  -1.798  1.00  0.00    -0.359 N 
HETATM   34  C21 UNL     1       2.341   1.254  -1.504  1.00  0.00     0.240 C 
ATOM     35  H5  UNL     1       3.683   2.585  -2.284  1.00  0.00     0.162 HD
HETATM   36  O2  UNL     1       1.492   1.188  -2.467  1.00  0.00    -0.271 OA
ENDBRANCH  22  24
ENDBRANCH   1  20
TORSDOF 12
