REMARK  13 active torsions:
REMARK  status: ('A' for Active; 'I' for Inactive)
REMARK    1  A    between atoms: C2_2  and  N1_3 
REMARK    2  A    between atoms: N1_3  and  C3_4 
REMARK    3  A    between atoms: N1_3  and  C5_10 
REMARK    4  A    between atoms: C3_4  and  C4_5 
REMARK    5  A    between atoms: C4_5  and  N2_6 
REMARK    6  A    between atoms: C5_10  and  C6_14 
REMARK    7  A    between atoms: C14_22  and  O1_23 
REMARK    8  A    between atoms: C15_27  and  C16_28 
REMARK    9  A    between atoms: C16_28  and  C17_29 
REMARK   10  A    between atoms: C17_29  and  N5_30 
REMARK   11  A    between atoms: N5_30  and  C20_33 
REMARK   12  A    between atoms: C20_33  and  C21_34 
REMARK   13  A    between atoms: C21_34  and  O2_35 
ROOT
HETATM    1  C6  UNL     1      -3.244  -0.728   0.210  1.00  0.00     0.009 A 
HETATM    2  C7  UNL     1      -2.962   0.564   0.536  1.00  0.00     0.024 A 
HETATM    3  C8  UNL     1      -1.685   1.095   0.729  1.00  0.00    -0.033 A 
HETATM    4  C9  UNL     1      -1.485   2.505   1.071  1.00  0.00     0.050 C 
HETATM    5  C10 UNL     1      -0.613   0.241   0.579  1.00  0.00     0.052 A 
HETATM    6  C11 UNL     1      -0.854  -1.098   0.244  1.00  0.00     0.009 A 
HETATM    7  C12 UNL     1      -2.129  -1.579   0.063  1.00  0.00     0.030 A 
HETATM    8  C13 UNL     1       0.372  -1.730   0.150  1.00  0.00     0.056 A 
HETATM    9  C14 UNL     1       0.959  -2.924  -0.114  1.00  0.00     0.154 A 
HETATM   10  N4  UNL     1       2.283  -2.754  -0.013  1.00  0.00    -0.338 N 
ATOM     11  H4  UNL     1       2.979  -3.485  -0.159  1.00  0.00     0.168 HD
HETATM   12  C15 UNL     1       2.562  -1.468   0.312  1.00  0.00     0.041 A 
HETATM   13  C22 UNL     1       1.356  -0.811   0.418  1.00  0.00     0.073 A 
HETATM   14  N6  UNL     1       0.721   0.351   0.669  1.00  0.00    -0.348 N 
HETATM   15  C23 UNL     1       1.371   1.621   1.015  1.00  0.00     0.156 C 
ENDROOT
BRANCH   1  16
HETATM   16  C5  UNL     1      -4.569  -1.269  -0.014  1.00  0.00     0.107 C 
HETATM   17  N3  UNL     1      -4.586  -2.592  -0.226  1.00  0.00    -0.385 N 
ATOM     18  H32 UNL     1      -5.519  -2.973  -0.384  1.00  0.00     0.157 HD
ATOM     19  H31 UNL     1      -3.663  -3.025  -0.195  1.00  0.00     0.157 HD
BRANCH  16  20
HETATM   20  N1  UNL     1      -5.825  -0.679  -0.056  1.00  0.00    -0.366 N 
BRANCH  20  21
HETATM   21  C2  UNL     1      -6.789  -1.248  -1.054  1.00  0.00     0.120 C 
HETATM   22  C1  UNL     1      -7.820  -2.015  -0.299  1.00  0.00     0.026 C 
ENDBRANCH  20  21
BRANCH  20  23
HETATM   23  C3  UNL     1      -6.418   0.342   0.763  1.00  0.00     0.151 C 
BRANCH  23  24
HETATM   24  C4  UNL     1      -6.906   1.550   0.044  1.00  0.00     0.249 C 
BRANCH  24  25
HETATM   25  N2  UNL     1      -6.006   2.304  -0.735  1.00  0.00    -0.078 N 
ATOM     26  H23 UNL     1      -5.214   2.571  -0.150  1.00  0.00     0.274 HD
ATOM     27  H22 UNL     1      -5.559   1.682  -1.409  1.00  0.00     0.274 HD
ATOM     28  H21 UNL     1      -6.340   3.132  -1.228  1.00  0.00     0.274 HD
ENDBRANCH  24  25
ENDBRANCH  23  24
ENDBRANCH  20  23
ENDBRANCH  16  20
ENDBRANCH   1  16
BRANCH   9  29
HETATM   29  O1  UNL     1       0.261  -4.101  -0.431  1.00  0.00    -0.345 OA
ATOM     30  H1  UNL     1       0.672  -4.937  -0.616  1.00  0.00     0.219 HD
ENDBRANCH   9  29
BRANCH  12  31
HETATM   31  C16 UNL     1       3.908  -0.878   0.501  1.00  0.00     0.087 C 
BRANCH  31  32
HETATM   32  C17 UNL     1       4.353  -0.054  -0.651  1.00  0.00     0.242 C 
BRANCH  32  33
HETATM   33  N5  UNL     1       5.703   0.471  -0.354  1.00  0.00    -0.072 N 
HETATM   34  C18 UNL     1       6.516  -0.653  -0.037  1.00  0.00     0.272 C 
HETATM   35  C19 UNL     1       5.585   1.289   0.859  1.00  0.00     0.272 C 
BRANCH  33  36
HETATM   36  C20 UNL     1       6.144   1.316  -1.413  1.00  0.00     0.262 C 
BRANCH  36  37
HETATM   37  C21 UNL     1       7.613   1.293  -1.609  1.00  0.00     0.192 C 
BRANCH  37  38
HETATM   38  O2  UNL     1       8.367   1.701  -0.517  1.00  0.00    -0.399 OA
ATOM     39  H2  UNL     1       9.309   1.686  -0.643  1.00  0.00     0.209 HD
ENDBRANCH  37  38
ENDBRANCH  36  37
ENDBRANCH  33  36
ENDBRANCH  32  33
ENDBRANCH  31  32
ENDBRANCH  12  31
TORSDOF 13
