REMARK  11 active torsions:
REMARK  status: ('A' for Active; 'I' for Inactive)
REMARK    1  A    between atoms: C4_11  and  C5_12 
REMARK    2  A    between atoms: C5_12  and  C6_13 
REMARK    3  A    between atoms: C6_13  and  N4_14 
REMARK    4  A    between atoms: C9_17  and  C10_18 
REMARK    5  A    between atoms: C10_18  and  N5_19 
REMARK    6  A    between atoms: N5_19  and  C11_21 
REMARK    7  A    between atoms: C11_21  and  N6_23 
REMARK    8  A    between atoms: N6_23  and  C12_25 
REMARK    9  A    between atoms: C12_25  and  C13_26 
REMARK   10  A    between atoms: C13_26  and  C14_27 
REMARK   11  A    between atoms: C14_27  and  N7_28 
ROOT
HETATM    1  N4  UNL     1      -3.750  -0.362  -1.097  1.00  0.00    -0.374 N 
HETATM    2  C7  UNL     1      -3.121   0.737  -1.809  1.00  0.00     0.127 C 
HETATM    3  C8  UNL     1      -2.417   1.633  -0.804  1.00  0.00     0.027 C 
HETATM    4  C9  UNL     1      -1.287   0.899  -0.156  1.00  0.00     0.010 C 
HETATM    5  C20 UNL     1      -1.584  -0.512   0.119  1.00  0.00     0.051 C 
HETATM    6  C21 UNL     1      -2.866  -1.099  -0.306  1.00  0.00     0.063 C 
ENDROOT
BRANCH   4   7
HETATM    7  C10 UNL     1      -0.026   1.068  -0.999  1.00  0.00     0.127 C 
BRANCH   7   8
HETATM    8  N5  UNL     1       1.110   0.386  -0.463  1.00  0.00    -0.367 N 
ATOM      9  H5  UNL     1       1.432  -0.431  -0.982  1.00  0.00     0.161 HD
BRANCH   8  10
HETATM   10  C11 UNL     1       1.835   0.713   0.699  1.00  0.00     0.167 C 
HETATM   11  S1  UNL     1       1.374   2.038   1.554  1.00  0.00    -0.041 SA
BRANCH  10  12
HETATM   12  N6  UNL     1       2.945  -0.052   1.125  1.00  0.00    -0.367 N 
ATOM     13  H6  UNL     1       3.453   0.202   1.972  1.00  0.00     0.161 HD
BRANCH  12  14
HETATM   14  C12 UNL     1       3.350  -1.200   0.344  1.00  0.00     0.123 C 
BRANCH  14  15
HETATM   15  C13 UNL     1       4.546  -1.885   0.864  1.00  0.00     0.050 C 
BRANCH  15  16
HETATM   16  C14 UNL     1       5.820  -1.179   1.007  1.00  0.00     0.274 C 
BRANCH  16  17
HETATM   17  N7  UNL     1       6.476  -0.631  -0.149  1.00  0.00     0.088 N 
HETATM   18  C15 UNL     1       7.817  -0.226   0.401  1.00  0.00     0.272 C 
HETATM   19  C16 UNL     1       8.666   0.108  -0.790  1.00  0.00     0.030 C 
HETATM   20  C17 UNL     1       8.151   1.417  -1.348  1.00  0.00     0.003 C 
HETATM   21  C18 UNL     1       6.678   1.458  -1.487  1.00  0.00     0.030 C 
HETATM   22  C19 UNL     1       5.883   0.602  -0.539  1.00  0.00     0.272 C 
ENDBRANCH  16  17
ENDBRANCH  15  16
ENDBRANCH  14  15
ENDBRANCH  12  14
ENDBRANCH  10  12
ENDBRANCH   8  10
ENDBRANCH   7   8
ENDBRANCH   4   7
BRANCH   1  23
HETATM   23  C6  UNL     1      -5.060  -0.083  -0.672  1.00  0.00     0.068 C 
BRANCH  23  24
HETATM   24  C5  UNL     1      -5.740  -1.190   0.089  1.00  0.00     0.089 C 
BRANCH  24  25
HETATM   25  C4  UNL     1      -7.151  -0.782   0.440  1.00  0.00     0.015 A 
HETATM   26  C2  UNL     1      -7.536   0.101   1.420  1.00  0.00     0.032 A 
HETATM   27  C1  UNL     1      -6.624   0.840   2.338  1.00  0.00     0.070 C 
HETATM   28  N1  UNL     1      -8.887   0.168   1.389  1.00  0.00    -0.303 N 
HETATM   29  N2  UNL     1      -9.359  -0.628   0.441  1.00  0.00    -0.285 N 
ATOM     30  H1  UNL     1      -9.458   0.746   2.005  1.00  0.00     0.186 HD
HETATM   31  C3  UNL     1      -8.301  -1.233  -0.168  1.00  0.00     0.122 A 
ATOM     32  H2  UNL     1     -10.343  -0.764   0.208  1.00  0.00     0.188 HD
HETATM   33  N3  UNL     1      -8.373  -2.079  -1.136  1.00  0.00    -0.384 N 
ATOM     34  H32 UNL     1      -9.225  -2.413  -1.586  1.00  0.00     0.157 HD
ATOM     35  H31 UNL     1      -7.581  -2.532  -1.592  1.00  0.00     0.157 HD
ENDBRANCH  24  25
ENDBRANCH  23  24
ENDBRANCH   1  23
TORSDOF 11
