REMARK  10 active torsions:
REMARK  status: ('A' for Active; 'I' for Inactive)
REMARK       I    between atoms: C1_4  and  N3_6 
REMARK    1  A    between atoms: C5_10  and  C6_11 
REMARK       I    between atoms: C6_11  and  N4_13 
REMARK    2  A    between atoms: N4_13  and  C7_15 
REMARK    3  A    between atoms: C7_15  and  C8_16 
REMARK    4  A    between atoms: C7_15  and  C11_21 
REMARK    5  A    between atoms: C8_16  and  C9_17 
REMARK    6  A    between atoms: C9_17  and  C10_18 
REMARK    7  A    between atoms: C11_21  and  C12_22 
REMARK    8  A    between atoms: C15_25  and  N5_26 
REMARK    9  A    between atoms: C17_31  and  C18_32 
REMARK   10  A    between atoms: C18_32  and  C19_33 
ROOT
HETATM    1  C7  UNL     1       0.713   1.378   0.354  1.00  0.00     0.085 C 
ENDROOT
BRANCH   1   2
HETATM    2  N4  UNL     1       1.649   0.376   0.686  1.00  0.00    -0.355 N 
HETATM    3  C6  UNL     1       2.770   0.107  -0.172  1.00  0.00     0.241 C 
HETATM    4  O1  UNL     1       2.956   0.743  -1.235  1.00  0.00    -0.271 OA
ATOM      5  H4  UNL     1       1.529  -0.163   1.544  1.00  0.00     0.162 HD
BRANCH   3   6
HETATM    6  C5  UNL     1       3.704  -0.945   0.230  1.00  0.00     0.179 C 
HETATM    7  N3  UNL     1       4.789  -1.145  -0.676  1.00  0.00    -0.342 N 
HETATM    8  C1  UNL     1       4.882  -0.901  -2.066  1.00  0.00     0.184 C 
HETATM    9  C2  UNL     1       5.907  -1.690   0.094  1.00  0.00     0.126 C 
HETATM   10  N1  UNL     1       5.595   0.067  -2.532  1.00  0.00    -0.374 N 
HETATM   11  N2  UNL     1       4.192  -1.718  -2.991  1.00  0.00    -0.064 NA
ATOM     12  H12 UNL     1       5.662   0.243  -3.534  1.00  0.00     0.158 HD
ATOM     13  H11 UNL     1       6.093   0.656  -1.865  1.00  0.00     0.158 HD
HETATM   14  C3  UNL     1       5.575  -1.486   1.539  1.00  0.00     0.022 C 
HETATM   15  C4  UNL     1       4.438  -0.465   1.488  1.00  0.00     0.037 C 
ENDBRANCH   3   6
ENDBRANCH   1   2
BRANCH   1  16
HETATM   16  C8  UNL     1       0.433   2.321   1.536  1.00  0.00     0.035 C 
BRANCH  16  17
HETATM   17  C9  UNL     1       1.743   2.975   1.922  1.00  0.00     0.115 C 
BRANCH  17  18
HETATM   18  C10 UNL     1       1.579   3.898   3.048  1.00  0.00     0.172 C 
HETATM   19  O2  UNL     1       2.568   4.516   3.487  1.00  0.00    -0.648 OA
HETATM   20  O3  UNL     1       0.331   4.096   3.634  1.00  0.00    -0.648 OA
ENDBRANCH  17  18
ENDBRANCH  16  17
ENDBRANCH   1  16
BRANCH   1  21
HETATM   21  C11 UNL     1      -0.577   0.991  -0.288  1.00  0.00     0.030 C 
BRANCH  21  22
HETATM   22  C12 UNL     1      -1.498   0.086   0.400  1.00  0.00    -0.008 C 
HETATM   23  C13 UNL     1      -1.068  -1.311   0.700  1.00  0.00     0.007 C 
HETATM   24  C14 UNL     1      -1.771  -1.721   1.996  1.00  0.00     0.033 C 
HETATM   25  C15 UNL     1      -3.231  -1.332   1.881  1.00  0.00     0.183 C 
HETATM   26  C16 UNL     1      -3.667  -1.088   0.457  1.00  0.00     0.037 C 
HETATM   27  C17 UNL     1      -2.868  -0.011  -0.245  1.00  0.00    -0.008 C 
BRANCH  25  28
HETATM   28  N5  UNL     1      -4.006  -2.459   2.370  1.00  0.00    -0.075 N 
ATOM     29  H53 UNL     1      -3.785  -3.335   1.896  1.00  0.00     0.274 HD
ATOM     30  H52 UNL     1      -3.741  -2.751   3.311  1.00  0.00     0.274 HD
ATOM     31  H51 UNL     1      -4.989  -2.197   2.293  1.00  0.00     0.274 HD
ENDBRANCH  25  28
BRANCH  27  32
HETATM   32  C18 UNL     1      -2.817  -0.369  -1.693  1.00  0.00     0.010 C 
BRANCH  32  33
HETATM   33  C19 UNL     1      -4.257  -0.426  -2.191  1.00  0.00    -0.014 C 
HETATM   34  C20 UNL     1      -4.913   0.916  -2.001  1.00  0.00     0.005 C 
HETATM   35  C21 UNL     1      -5.373   0.896  -3.459  1.00  0.00     0.001 C 
HETATM   36  C22 UNL     1      -4.349  -0.221  -3.682  1.00  0.00     0.005 C 
ENDBRANCH  32  33
ENDBRANCH  27  32
ENDBRANCH  21  22
ENDBRANCH   1  21
TORSDOF 10
