REMARK  10 active torsions:
REMARK  status: ('A' for Active; 'I' for Inactive)
REMARK    1  A    between atoms: C1_2  and  C2_3 
REMARK       I    between atoms: C1_2  and  N1_11 
REMARK    2  A    between atoms: C2_3  and  C3_4 
REMARK    3  A    between atoms: C3_4  and  C4_5 
REMARK    4  A    between atoms: C4_5  and  C5_6 
REMARK    5  A    between atoms: C5_6  and  C6_7 
REMARK    6  A    between atoms: C6_7  and  C7_8 
REMARK    7  A    between atoms: C7_8  and  C8_9 
REMARK    8  A    between atoms: N1_11  and  C9_12 
REMARK    9  A    between atoms: C9_12  and  C10_13 
REMARK   10  A    between atoms: C20_31  and  O4_32 
ROOT
HETATM    1  C10 UNL     1      -1.635   0.142  -1.870  1.00  0.00     0.019 C 
HETATM    2  C11 UNL     1      -2.952   0.605  -2.298  1.00  0.00    -0.013 C 
HETATM    3  C12 UNL     1      -4.129   0.732  -1.466  1.00  0.00     0.028 C 
HETATM    4  C13 UNL     1      -3.981   1.541  -0.221  1.00  0.00     0.005 C 
HETATM    5  C14 UNL     1      -5.347   1.993   0.311  1.00  0.00     0.020 C 
HETATM    6  C15 UNL     1      -5.453   1.571   1.741  1.00  0.00     0.122 C 
HETATM    7  N2  UNL     1      -6.657   0.821   2.021  1.00  0.00    -0.360 N 
ATOM      8  H2  UNL     1      -7.339   1.280   2.625  1.00  0.00     0.162 HD
HETATM    9  C16 UNL     1      -6.999  -0.444   1.570  1.00  0.00     0.235 C 
HETATM   10  O2  UNL     1      -8.250  -0.684   1.406  1.00  0.00    -0.272 OA
HETATM   11  C17 UNL     1      -6.105  -1.579   1.245  1.00  0.00     0.225 C 
HETATM   12  N3  UNL     1      -4.905  -1.604   2.041  1.00  0.00    -0.351 N 
ATOM     13  H3  UNL     1      -4.998  -1.330   3.019  1.00  0.00     0.163 HD
HETATM   14  C18 UNL     1      -3.628  -1.965   1.610  1.00  0.00     0.235 C 
HETATM   15  O3  UNL     1      -2.686  -1.953   2.463  1.00  0.00    -0.272 OA
HETATM   16  C19 UNL     1      -3.234  -2.371   0.233  1.00  0.00     0.224 C 
HETATM   17  N4  UNL     1      -1.957  -1.830  -0.150  1.00  0.00    -0.362 N 
ATOM     18  H4  UNL     1      -1.248  -1.950   0.573  1.00  0.00     0.162 HD
HETATM   19  C20 UNL     1      -1.468  -1.184  -1.273  1.00  0.00     0.144 C 
ENDROOT
BRANCH   1  20
HETATM   20  C9  UNL     1      -0.742   1.222  -1.215  1.00  0.00     0.264 C 
BRANCH  20  21
HETATM   21  N1  UNL     1       0.503   0.753  -0.853  1.00  0.00    -0.411 NA
HETATM   22  C1  UNL     1       1.733   0.287  -0.494  1.00  0.00     0.286 C 
HETATM   23  O1  UNL     1       2.005  -0.614   0.308  1.00  0.00    -0.258 OA
BRANCH  22  24
HETATM   24  C2  UNL     1       2.956   0.938  -1.136  1.00  0.00     0.119 C 
BRANCH  24  25
HETATM   25  C3  UNL     1       4.193   0.464  -0.391  1.00  0.00     0.010 C 
BRANCH  25  26
HETATM   26  C4  UNL     1       5.448   1.070  -0.934  1.00  0.00     0.001 C 
BRANCH  26  27
HETATM   27  C5  UNL     1       6.606   0.611  -0.045  1.00  0.00     0.000 C 
BRANCH  27  28
HETATM   28  C6  UNL     1       6.710  -0.869  -0.081  1.00  0.00     0.001 C 
BRANCH  28  29
HETATM   29  C7  UNL     1       7.741  -1.417   0.822  1.00  0.00     0.011 C 
BRANCH  29  30
HETATM   30  C8  UNL     1       9.156  -1.039   0.682  1.00  0.00     0.086 C 
HETATM   31  S1  UNL     1       9.511   0.687   0.991  1.00  0.00    -0.098 SA
ENDBRANCH  29  30
ENDBRANCH  28  29
ENDBRANCH  27  28
ENDBRANCH  26  27
ENDBRANCH  25  26
ENDBRANCH  24  25
ENDBRANCH  22  24
ENDBRANCH  20  21
ENDBRANCH   1  20
BRANCH  19  32
HETATM   32  O4  UNL     1      -0.641  -1.941  -1.985  1.00  0.00    -0.346 OA
ATOM     33  H4  UNL     1      -0.533  -2.802  -1.598  1.00  0.00     0.219 HD
ENDBRANCH  19  32
TORSDOF 10
