REMARK  9 active torsions:
REMARK  status: ('A' for Active; 'I' for Inactive)
REMARK    1  A    between atoms: C2_7  and  N3_8 
REMARK    2  A    between atoms: N3_8  and  C3_10 
REMARK    3  A    between atoms: N4_13  and  C6_14 
REMARK    4  A    between atoms: C6_14  and  C7_15 
REMARK    5  A    between atoms: C7_15  and  C8_16 
REMARK    6  A    between atoms: C8_16  and  C9_17 
REMARK    7  A    between atoms: C9_17  and  C10_18 
REMARK    8  A    between atoms: C10_18  and  C11_19 
REMARK    9  A    between atoms: C11_19  and  O2_20 
ROOT
HETATM    1  C3  UNL     1      -2.755  -0.618  -0.268  1.00  0.00     0.102 C 
HETATM    2  C4  UNL     1      -1.939   0.651  -0.286  1.00  0.00     0.045 C 
HETATM    3  C5  UNL     1      -0.488   0.354   0.122  1.00  0.00     0.119 C 
HETATM    4  N4  UNL     1      -0.025  -0.694  -0.720  1.00  0.00    -0.412 N 
HETATM    5  C12 UNL     1      -0.664  -1.954  -0.581  1.00  0.00     0.119 C 
HETATM    6  C13 UNL     1      -1.938  -1.786   0.224  1.00  0.00     0.045 C 
ENDROOT
BRANCH   1   7
HETATM    7  N3  UNL     1      -3.935  -0.534   0.545  1.00  0.00    -0.220 N 
ATOM      8  H3  UNL     1      -4.051  -1.246   1.267  1.00  0.00     0.178 HD
BRANCH   7   9
HETATM    9  C2  UNL     1      -4.856   0.351   0.449  1.00  0.00     0.697 A 
HETATM   10  N2  UNL     1      -5.936   0.361   1.251  1.00  0.00    -0.128 N 
HETATM   11  N1  UNL     1      -6.690   1.409   0.886  1.00  0.00    -0.237 N 
ATOM     12  H2  UNL     1      -6.143  -0.304   1.997  1.00  0.00     0.205 HD
HETATM   13  C1  UNL     1      -6.089   2.039  -0.127  1.00  0.00     0.353 A 
ATOM     14  H1  UNL     1      -7.576   1.680   1.312  1.00  0.00     0.192 HD
HETATM   15  O1  UNL     1      -6.513   3.075  -0.730  1.00  0.00    -0.245 OA
HETATM   16  N5  UNL     1      -4.943   1.376  -0.399  1.00  0.00    -0.139 N 
ATOM     17  H5  UNL     1      -4.266   1.617  -1.123  1.00  0.00     0.189 HD
ENDBRANCH   7   9
ENDBRANCH   1   7
BRANCH   4  18
HETATM   18  C6  UNL     1       1.438  -0.774  -0.816  1.00  0.00     0.117 C 
BRANCH  18  19
HETATM   19  C7  UNL     1       2.049  -1.192   0.462  1.00  0.00     0.019 C 
BRANCH  19  20
HETATM   20  C8  UNL     1       3.505  -1.365   0.526  1.00  0.00     0.002 C 
BRANCH  20  21
HETATM   21  C9  UNL     1       4.452  -0.278   0.306  1.00  0.00     0.002 C 
BRANCH  21  22
HETATM   22  C10 UNL     1       4.534   0.438  -0.980  1.00  0.00     0.026 C 
BRANCH  22  23
HETATM   23  C11 UNL     1       5.699   1.472  -0.821  1.00  0.00     0.164 C 
BRANCH  23  24
HETATM   24  O2  UNL     1       5.423   2.348   0.214  1.00  0.00    -0.401 OA
ATOM     25  H2  UNL     1       6.130   2.975   0.310  1.00  0.00     0.209 HD
ENDBRANCH  23  24
ENDBRANCH  22  23
ENDBRANCH  21  22
ENDBRANCH  20  21
ENDBRANCH  19  20
ENDBRANCH  18  19
ENDBRANCH   4  18
TORSDOF 9
