REMARK  8 active torsions:
REMARK  status: ('A' for Active; 'I' for Inactive)
REMARK    1  A    between atoms: C2_2  and  N1_3 
REMARK    2  A    between atoms: C3_5  and  C4_7 
REMARK    3  A    between atoms: C4_7  and  N3_8 
REMARK    4  A    between atoms: C7_11  and  C8_12 
REMARK    5  A    between atoms: C8_12  and  N4_13 
REMARK    6  A    between atoms: N4_13  and  C9_16 
REMARK    7  A    between atoms: C9_16  and  C10_17 
REMARK    8  A    between atoms: C14_21  and  N5_22 
ROOT
HETATM    1  N4  UNL     1      -1.412  -0.552  -0.696  1.00  0.00    -0.074 N 
ATOM      2  H41 UNL     1      -1.899  -0.399  -1.579  1.00  0.00     0.277 HD
ATOM      3  H42 UNL     1      -1.108   0.407  -0.530  1.00  0.00     0.277 HD
ENDROOT
BRANCH   1   4
HETATM    4  C8  UNL     1      -0.316  -1.449  -0.833  1.00  0.00     0.238 C 
BRANCH   4   5
HETATM    5  C7  UNL     1       0.655  -1.512   0.291  1.00  0.00     0.041 C 
HETATM    6  C6  UNL     1       1.701  -2.563  -0.100  1.00  0.00     0.038 C 
HETATM    7  C5  UNL     1       2.839  -2.104   0.806  1.00  0.00     0.273 C 
HETATM    8  N3  UNL     1       2.877  -0.683   0.655  1.00  0.00     0.095 N 
HETATM    9  C16 UNL     1       1.477  -0.259   0.497  1.00  0.00     0.279 C 
BRANCH   8  10
HETATM   10  C4  UNL     1       3.686  -0.181  -0.402  1.00  0.00     0.345 C 
BRANCH  10  11
HETATM   11  C3  UNL     1       5.127  -0.386  -0.211  1.00  0.00     0.121 C 
HETATM   12  N1  UNL     1       5.894   0.488   0.233  1.00  0.00    -0.360 N 
ATOM     13  H1  UNL     1       6.844   0.119   0.272  1.00  0.00     0.165 HD
HETATM   14  N2  UNL     1       5.739  -1.647  -0.544  1.00  0.00    -0.086 NA
BRANCH  12  15
HETATM   15  C2  UNL     1       5.888   1.790   0.690  1.00  0.00     0.057 C 
HETATM   16  C1  UNL     1       5.255   2.797  -0.255  1.00  0.00     0.054 C 
ENDBRANCH  12  15
ENDBRANCH  10  11
ENDBRANCH   8  10
ENDBRANCH   4   5
ENDBRANCH   1   4
BRANCH   1  17
HETATM   17  C9  UNL     1      -2.294  -1.031   0.337  1.00  0.00     0.237 C 
BRANCH  17  18
HETATM   18  C10 UNL     1      -3.583  -0.322   0.478  1.00  0.00     0.013 C 
HETATM   19  C11 UNL     1      -4.397  -0.406  -0.826  1.00  0.00     0.006 C 
HETATM   20  C12 UNL     1      -5.830  -0.161  -0.398  1.00  0.00     0.002 C 
HETATM   21  C13 UNL     1      -5.965   1.207   0.163  1.00  0.00     0.033 C 
HETATM   22  C14 UNL     1      -4.721   1.915   0.544  1.00  0.00     0.183 C 
HETATM   23  C15 UNL     1      -3.583   1.053   1.014  1.00  0.00     0.039 C 
BRANCH  22  24
HETATM   24  N5  UNL     1      -4.322   2.841  -0.497  1.00  0.00    -0.075 N 
ATOM     25  H53 UNL     1      -4.232   2.378  -1.401  1.00  0.00     0.274 HD
ATOM     26  H52 UNL     1      -5.071   3.492  -0.732  1.00  0.00     0.274 HD
ATOM     27  H51 UNL     1      -3.465   3.329  -0.235  1.00  0.00     0.274 HD
ENDBRANCH  22  24
ENDBRANCH  17  18
ENDBRANCH   1  17
TORSDOF 8
