REMARK  9 active torsions:
REMARK  status: ('A' for Active; 'I' for Inactive)
REMARK    1  A    between atoms: N1_1  and  C1_4 
REMARK    2  A    between atoms: C3_11  and  N4_12 
REMARK    3  A    between atoms: N4_12  and  C4_14 
REMARK    4  A    between atoms: C4_14  and  C5_15 
REMARK    5  A    between atoms: C5_15  and  C6_16 
REMARK    6  A    between atoms: C6_16  and  C7_17 
REMARK    7  A    between atoms: C7_17  and  C8_18 
REMARK    8  A    between atoms: C8_18  and  C9_19 
REMARK    9  A    between atoms: C9_19  and  N5_20 
ROOT
HETATM    1  N4  UNL     1       2.958   0.013   0.924  1.00  0.00    -0.225 N 
ATOM      2  H4  UNL     1       2.540   0.918   1.138  1.00  0.00     0.177 HD
ENDROOT
BRANCH   1   3
HETATM    3  C3  UNL     1       4.223  -0.036   0.687  1.00  0.00     0.696 A 
HETATM    4  N3  UNL     1       4.835  -1.195   0.399  1.00  0.00    -0.140 N 
HETATM    5  C2  UNL     1       6.166  -1.251   0.146  1.00  0.00     0.352 A 
ATOM      6  H3  UNL     1       4.286  -2.054   0.370  1.00  0.00     0.189 HD
HETATM    7  N2  UNL     1       6.924  -0.136   0.175  1.00  0.00    -0.141 N 
HETATM    8  O1  UNL     1       6.711  -2.354  -0.120  1.00  0.00    -0.246 OA
HETATM    9  C1  UNL     1       6.314   1.030   0.464  1.00  0.00     0.694 A 
ATOM     10  H2  UNL     1       7.925  -0.174  -0.015  1.00  0.00     0.189 HD
HETATM   11  N6  UNL     1       4.994   1.068   0.713  1.00  0.00    -0.022 N 
ATOM     12  H6  UNL     1       4.560   1.965   0.930  1.00  0.00     0.203 HD
BRANCH   9  13
HETATM   13  N1  UNL     1       7.031   2.104   0.496  1.00  0.00    -0.234 N 
ATOM     14  H12 UNL     1       8.033   2.075   0.307  1.00  0.00     0.174 HD
ATOM     15  H11 UNL     1       6.569   2.987   0.715  1.00  0.00     0.174 HD
ENDBRANCH   9  13
ENDBRANCH   1   3
BRANCH   1  16
HETATM   16  C4  UNL     1       2.100  -1.152   0.902  1.00  0.00     0.138 C 
BRANCH  16  17
HETATM   17  C5  UNL     1       1.652  -1.516  -0.469  1.00  0.00     0.020 C 
BRANCH  17  18
HETATM   18  C6  UNL     1       0.894  -0.391  -1.101  1.00  0.00     0.002 C 
BRANCH  18  19
HETATM   19  C7  UNL     1      -0.324  -0.062  -0.308  1.00  0.00     0.002 C 
BRANCH  19  20
HETATM   20  C8  UNL     1      -1.127   1.062  -0.947  1.00  0.00     0.019 C 
BRANCH  20  21
HETATM   21  C9  UNL     1      -2.332   1.321  -0.080  1.00  0.00     0.117 C 
BRANCH  21  22
HETATM   22  N5  UNL     1      -3.117   0.140   0.012  1.00  0.00    -0.412 N 
HETATM   23  C10 UNL     1      -3.779  -0.300  -1.158  1.00  0.00     0.117 C 
HETATM   24  C11 UNL     1      -5.110   0.423  -1.252  1.00  0.00     0.019 C 
HETATM   25  C12 UNL     1      -5.955  -0.125  -0.129  1.00  0.00     0.003 C 
HETATM   26  C13 UNL     1      -5.288  -0.160   1.192  1.00  0.00     0.019 C 
HETATM   27  C14 UNL     1      -3.821  -0.031   1.236  1.00  0.00     0.117 C 
ENDBRANCH  21  22
ENDBRANCH  20  21
ENDBRANCH  19  20
ENDBRANCH  18  19
ENDBRANCH  17  18
ENDBRANCH  16  17
ENDBRANCH   1  16
TORSDOF 9
