REMARK  9 active torsions:
REMARK  status: ('A' for Active; 'I' for Inactive)
REMARK    1  A    between atoms: N2_3  and  C2_5 
REMARK    2  A    between atoms: N3_11  and  C8_12 
REMARK    3  A    between atoms: C8_12  and  C9_13 
REMARK    4  A    between atoms: C9_13  and  C10_14 
REMARK    5  A    between atoms: C10_14  and  C11_15 
REMARK    6  A    between atoms: C11_15  and  C12_16 
REMARK    7  A    between atoms: C12_16  and  C13_17 
REMARK    8  A    between atoms: C13_17  and  C14_18 
REMARK    9  A    between atoms: C14_18  and  O1_19 
ROOT
HETATM    1  N1  UNL     1      -3.326  -3.679  -2.165  1.00  0.00    -0.172 NA
HETATM    2  C1  UNL     1      -3.538  -2.530  -2.158  1.00  0.00     0.179 C 
HETATM    3  N2  UNL     1      -3.816  -1.151  -2.154  1.00  0.00    -0.293 N 
ATOM      4  H2  UNL     1      -4.368  -0.734  -2.903  1.00  0.00     0.174 HD
ENDROOT
BRANCH   3   5
HETATM    5  C2  UNL     1      -3.310  -0.332  -1.075  1.00  0.00     0.230 C 
HETATM    6  C3  UNL     1      -3.756   1.100  -1.326  1.00  0.00     0.070 C 
HETATM    7  C4  UNL     1      -3.060   1.947  -0.301  1.00  0.00     0.018 C 
HETATM    8  C5  UNL     1      -3.579   1.503   1.067  1.00  0.00     0.041 C 
HETATM    9  C15 UNL     1      -1.554   1.829  -0.381  1.00  0.00     0.242 C 
HETATM   10  C6  UNL     1      -3.178   0.053   1.230  1.00  0.00     0.215 C 
HETATM   11  C7  UNL     1      -1.653   0.017   1.172  1.00  0.00     0.270 C 
HETATM   12  N4  UNL     1      -3.783  -0.747   0.213  1.00  0.00    -0.040 N 
HETATM   13  N3  UNL     1      -1.182   0.460  -0.128  1.00  0.00    -0.061 N 
HETATM   14  C16 UNL     1      -1.808  -0.401  -1.118  1.00  0.00     0.299 C 
ATOM     15  H42 UNL     1      -4.801  -0.735   0.270  1.00  0.00     0.280 HD
ATOM     16  H41 UNL     1      -3.638  -1.744   0.372  1.00  0.00     0.280 HD
BRANCH  13  17
HETATM   17  C8  UNL     1       0.228   0.217  -0.231  1.00  0.00     0.237 C 
BRANCH  17  18
HETATM   18  C9  UNL     1       1.072   0.707   0.857  1.00  0.00     0.028 C 
BRANCH  18  19
HETATM   19  C10 UNL     1       2.573   0.394   0.613  1.00  0.00     0.002 C 
BRANCH  19  20
HETATM   20  C11 UNL     1       2.795  -1.066   0.508  1.00  0.00     0.000 C 
BRANCH  20  21
HETATM   21  C12 UNL     1       4.160  -1.600   0.363  1.00  0.00     0.002 C 
BRANCH  21  22
HETATM   22  C13 UNL     1       5.019  -1.269  -0.789  1.00  0.00     0.026 C 
BRANCH  22  23
HETATM   23  C14 UNL     1       5.419   0.157  -0.979  1.00  0.00     0.164 C 
BRANCH  23  24
HETATM   24  O1  UNL     1       6.082   0.621   0.181  1.00  0.00    -0.401 OA
ATOM     25  H1  UNL     1       6.336   1.528   0.060  1.00  0.00     0.209 HD
ENDBRANCH  23  24
ENDBRANCH  22  23
ENDBRANCH  21  22
ENDBRANCH  20  21
ENDBRANCH  19  20
ENDBRANCH  18  19
ENDBRANCH  17  18
ENDBRANCH  13  17
ENDBRANCH   3   5
TORSDOF 9
