REMARK  9 active torsions:
REMARK  status: ('A' for Active; 'I' for Inactive)
REMARK    1  A    between atoms: C2_2  and  N1_3 
REMARK    2  A    between atoms: N1_3  and  C3_5 
REMARK    3  A    between atoms: C6_13  and  N4_14 
REMARK    4  A    between atoms: N4_14  and  C7_16 
REMARK    5  A    between atoms: C7_16  and  C8_17 
REMARK    6  A    between atoms: C8_17  and  C9_18 
REMARK    7  A    between atoms: C9_18  and  C10_19 
REMARK    8  A    between atoms: C10_19  and  C11_20 
REMARK    9  A    between atoms: C11_20  and  O2_21 
ROOT
HETATM    1  C3  UNL     1       4.432   0.985  -0.368  1.00  0.00     0.682 A 
HETATM    2  N2  UNL     1       3.715   2.060  -0.729  1.00  0.00    -0.154 N 
ATOM      3  H2  UNL     1       4.177   2.886  -1.110  1.00  0.00     0.187 HD
HETATM    4  C4  UNL     1       2.380   2.033  -0.581  1.00  0.00     0.290 A 
HETATM    5  O1  UNL     1       1.705   3.031  -0.915  1.00  0.00    -0.265 OA
HETATM    6  C5  UNL     1       1.789   0.898  -0.062  1.00  0.00     0.162 A 
HETATM    7  N3  UNL     1       0.523   0.548   0.209  1.00  0.00    -0.182 N 
ATOM      8  H3  UNL     1      -0.288   1.146   0.050  1.00  0.00     0.184 HD
HETATM    9  C6  UNL     1       0.464  -0.686   0.714  1.00  0.00     0.680 A 
HETATM   10  N5  UNL     1       1.728  -1.138   0.766  1.00  0.00    -0.174 N 
ATOM     11  H5  UNL     1       2.014  -2.056   1.106  1.00  0.00     0.186 HD
HETATM   12  C13 UNL     1       2.553  -0.191   0.300  1.00  0.00     0.169 A 
HETATM   13  N6  UNL     1       3.884  -0.141   0.143  1.00  0.00    -0.174 N 
ATOM     14  H6  UNL     1       4.470  -0.934   0.403  1.00  0.00     0.186 HD
ENDROOT
BRANCH   9  15
HETATM   15  N4  UNL     1      -0.560  -1.354   1.089  1.00  0.00    -0.226 N 
ATOM     16  H4  UNL     1      -0.419  -2.295   1.456  1.00  0.00     0.177 HD
BRANCH  15  17
HETATM   17  C7  UNL     1      -1.915  -0.834   1.017  1.00  0.00     0.138 C 
BRANCH  17  18
HETATM   18  C8  UNL     1      -2.434  -1.031  -0.368  1.00  0.00     0.020 C 
BRANCH  18  19
HETATM   19  C9  UNL     1      -3.861  -0.512  -0.556  1.00  0.00     0.004 C 
BRANCH  19  20
HETATM   20  C10 UNL     1      -4.819  -1.188   0.340  1.00  0.00     0.026 C 
BRANCH  20  21
HETATM   21  C11 UNL     1      -6.249  -0.835   0.254  1.00  0.00     0.167 C 
BRANCH  21  22
HETATM   22  O2  UNL     1      -6.739   0.361   0.502  1.00  0.00    -0.396 OA
HETATM   23  C12 UNL     1      -6.502   1.505  -0.121  1.00  0.00     0.201 C 
ENDBRANCH  21  22
ENDBRANCH  20  21
ENDBRANCH  19  20
ENDBRANCH  18  19
ENDBRANCH  17  18
ENDBRANCH  15  17
ENDBRANCH   9  15
BRANCH   1  24
HETATM   24  N1  UNL     1       5.724   1.038  -0.522  1.00  0.00    -0.226 N 
ATOM     25  H1  UNL     1       6.156   1.878  -0.905  1.00  0.00     0.177 HD
BRANCH  24  26
HETATM   26  C2  UNL     1       6.547  -0.091  -0.151  1.00  0.00     0.133 C 
HETATM   27  C1  UNL     1       7.993   0.232  -0.433  1.00  0.00     0.027 C 
ENDBRANCH  24  26
ENDBRANCH   1  24
TORSDOF 9
