REMARK  7 active torsions:
REMARK  status: ('A' for Active; 'I' for Inactive)
REMARK    1  A    between atoms: C2_2  and  O1_3 
REMARK    2  A    between atoms: O1_3  and  C3_4 
REMARK    3  A    between atoms: C3_4  and  C4_6 
REMARK    4  A    between atoms: C4_6  and  C5_7 
REMARK    5  A    between atoms: C5_7  and  N1_8 
REMARK    6  A    between atoms: N1_8  and  C6_11 
REMARK    7  A    between atoms: N2_18  and  C13_19 
ROOT
HETATM    1  C4  UNL     1       0.181   0.207   0.106  1.00  0.00     0.076 C 
HETATM    2  C10 UNL     1       0.758   0.523  -1.231  1.00  0.00     0.027 C 
HETATM    3  C11 UNL     1       1.496  -0.642  -1.851  1.00  0.00     0.046 C 
HETATM    4  C12 UNL     1       2.950  -0.511  -1.448  1.00  0.00     0.068 C 
HETATM    5  N2  UNL     1       3.176  -0.998  -0.167  1.00  0.00    -0.355 N 
HETATM    6  C15 UNL     1       2.447  -0.519   0.917  1.00  0.00     0.069 C 
HETATM    7  C16 UNL     1       0.975  -0.781   0.902  1.00  0.00     0.066 C 
ENDROOT
BRANCH   1   8
HETATM    8  C3  UNL     1      -0.110   1.459   0.825  1.00  0.00     0.269 C 
HETATM    9  O2  UNL     1       0.457   1.801   1.894  1.00  0.00    -0.264 OA
BRANCH   8  10
HETATM   10  O1  UNL     1      -1.061   2.322   0.310  1.00  0.00    -0.321 OA
BRANCH  10  11
HETATM   11  C2  UNL     1      -1.417   3.550   0.914  1.00  0.00     0.174 C 
HETATM   12  C1  UNL     1      -2.505   4.256   0.146  1.00  0.00     0.034 C 
ENDBRANCH  10  11
ENDBRANCH   8  10
ENDBRANCH   1   8
BRANCH   1  13
HETATM   13  C5  UNL     1      -1.184  -0.469  -0.130  1.00  0.00     0.252 C 
BRANCH  13  14
HETATM   14  N1  UNL     1      -1.794  -0.714   1.157  1.00  0.00    -0.070 N 
ATOM     15  H12 UNL     1      -1.198  -1.306   1.736  1.00  0.00     0.277 HD
ATOM     16  H11 UNL     1      -1.793   0.132   1.727  1.00  0.00     0.277 HD
BRANCH  14  17
HETATM   17  C6  UNL     1      -3.115  -1.262   1.057  1.00  0.00     0.186 C 
HETATM   18  C7  UNL     1      -4.108  -0.349   0.365  1.00  0.00     0.033 C 
HETATM   19  C8  UNL     1      -4.234  -1.346  -0.736  1.00  0.00     0.004 C 
HETATM   20  C9  UNL     1      -3.361  -2.299   0.020  1.00  0.00     0.033 C 
ENDBRANCH  14  17
ENDBRANCH  13  14
ENDBRANCH   1  13
BRANCH   5  21
HETATM   21  C13 UNL     1       4.243  -1.889   0.056  1.00  0.00     0.064 C 
HETATM   22  C14 UNL     1       5.552  -1.153  -0.132  1.00  0.00     0.055 C 
ENDBRANCH   5  21
TORSDOF 7
