REMARK  6 active torsions:
REMARK  status: ('A' for Active; 'I' for Inactive)
REMARK    1  A    between atoms: C2_2  and  N1_3 
REMARK    2  A    between atoms: N1_3  and  C3_4 
REMARK    3  A    between atoms: N1_3  and  C5_6 
REMARK    4  A    between atoms: C5_6  and  C6_7 
REMARK    5  A    between atoms: C6_7  and  N2_9 
REMARK       I    between atoms: N2_9  and  C8_11 
REMARK    6  A    between atoms: C8_11  and  C9_13 
ROOT
HETATM    1  N2  UNL     1      -0.447  -0.537  -1.340  1.00  0.00    -0.353 N 
ATOM      2  H2  UNL     1      -0.093   0.267  -1.859  1.00  0.00     0.163 HD
HETATM    3  C8  UNL     1       0.415  -1.579  -0.945  1.00  0.00     0.250 C 
HETATM    4  O1  UNL     1      -0.014  -2.583  -0.299  1.00  0.00    -0.271 OA
ENDROOT
BRANCH   3   5
HETATM    5  C9  UNL     1       1.837  -1.555  -1.258  1.00  0.00     0.255 C 
HETATM    6  C10 UNL     1       2.663  -1.532   0.008  1.00  0.00     0.086 C 
HETATM    7  C11 UNL     1       3.672  -0.454  -0.313  1.00  0.00     0.099 C 
HETATM    8  C12 UNL     1       5.029  -0.985   0.100  1.00  0.00     0.041 C 
HETATM    9  C15 UNL     1       3.434   0.832   0.411  1.00  0.00     0.041 C 
HETATM   10  O2  UNL     1       3.559  -0.332  -1.686  1.00  0.00    -0.229 OA
HETATM   11  C13 UNL     1       5.562   0.056   1.040  1.00  0.00     0.003 C 
HETATM   12  C14 UNL     1       4.311   0.713   1.632  1.00  0.00     0.003 C 
HETATM   13  O3  UNL     1       2.275  -0.435  -1.957  1.00  0.00    -0.225 OA
ENDBRANCH   3   5
BRANCH   1  14
HETATM   14  C6  UNL     1      -1.865  -0.638  -0.986  1.00  0.00     0.108 C 
HETATM   15  C7  UNL     1      -2.594  -0.850  -2.303  1.00  0.00     0.034 C 
BRANCH  14  16
HETATM   16  C5  UNL     1      -2.231   0.631  -0.321  1.00  0.00     0.296 C 
BRANCH  16  17
HETATM   17  N1  UNL     1      -3.569   0.856   0.073  1.00  0.00     0.089 N 
BRANCH  17  18
HETATM   18  C2  UNL     1      -4.038   0.099   1.196  1.00  0.00     0.268 C 
HETATM   19  C1  UNL     1      -4.204  -1.359   1.042  1.00  0.00     0.037 C 
ENDBRANCH  17  18
BRANCH  17  20
HETATM   20  C3  UNL     1      -3.614   2.269   0.537  1.00  0.00     0.268 C 
HETATM   21  C4  UNL     1      -3.172   3.224  -0.519  1.00  0.00     0.037 C 
ENDBRANCH  17  20
ENDBRANCH  16  17
ENDBRANCH  14  16
ENDBRANCH   1  14
TORSDOF 6
