REMARK  7 active torsions:
REMARK  status: ('A' for Active; 'I' for Inactive)
REMARK    1  A    between atoms: C4_4  and  C5_5 
REMARK    2  A    between atoms: C5_5  and  N1_6 
REMARK    3  A    between atoms: N1_6  and  C6_7 
REMARK    4  A    between atoms: N1_6  and  C9_12 
REMARK    5  A    between atoms: C6_7  and  C7_8 
REMARK    6  A    between atoms: C7_8  and  O1_10 
REMARK    7  A    between atoms: C9_12  and  C10_13 
ROOT
HETATM    1  N1  UNL     1      -1.087   0.997   0.362  1.00  0.00    -0.367 N 
ENDROOT
BRANCH   1   2
HETATM    2  C5  UNL     1      -2.084   0.285  -0.313  1.00  0.00     0.090 C 
BRANCH   2   3
HETATM    3  C4  UNL     1      -2.818  -0.674   0.519  1.00  0.00     0.019 C 
HETATM    4  C2  UNL     1      -2.863  -1.952   0.254  1.00  0.00    -0.086 C 
HETATM    5  C1  UNL     1      -3.620  -2.918   1.121  1.00  0.00     0.043 C 
HETATM    6  C3  UNL     1      -2.164  -2.482  -0.941  1.00  0.00     0.043 C 
ENDBRANCH   2   3
ENDBRANCH   1   2
BRANCH   1   7
HETATM    7  C6  UNL     1      -1.331   1.915   1.376  1.00  0.00     0.094 C 
BRANCH   7   8
HETATM    8  C7  UNL     1      -1.956   3.193   0.939  1.00  0.00     0.152 C 
HETATM    9  C8  UNL     1      -3.355   3.139   0.457  1.00  0.00     0.045 C 
BRANCH   8  10
HETATM   10  O1  UNL     1      -1.143   3.783  -0.057  1.00  0.00    -0.391 OA
ATOM     11  H1  UNL     1      -1.542   4.599  -0.336  1.00  0.00     0.210 HD
ENDBRANCH   8  10
ENDBRANCH   7   8
ENDBRANCH   1   7
BRANCH   1  12
HETATM   12  C9  UNL     1       0.096   1.279  -0.419  1.00  0.00     0.132 C 
BRANCH  12  13
HETATM   13  C10 UNL     1       0.936   0.118  -0.787  1.00  0.00     0.009 C 
HETATM   14  C11 UNL     1       2.119   0.680  -1.592  1.00  0.00     0.011 C 
HETATM   15  C12 UNL     1       3.298  -0.179  -1.261  1.00  0.00     0.069 C 
HETATM   16  C13 UNL     1       2.993  -0.905   0.013  1.00  0.00     0.164 C 
HETATM   17  C14 UNL     1       1.611  -0.480   0.399  1.00  0.00     0.074 C 
HETATM   18  O2  UNL     1       3.142  -2.276  -0.083  1.00  0.00    -0.353 OA
HETATM   19  O3  UNL     1       3.934  -0.596   1.013  1.00  0.00    -0.353 OA
HETATM   20  C15 UNL     1       4.531  -2.409  -0.221  1.00  0.00     0.197 C 
HETATM   21  C16 UNL     1       5.079  -1.253   0.572  1.00  0.00     0.197 C 
ENDBRANCH  12  13
ENDBRANCH   1  12
TORSDOF 7
