REMARK  8 active torsions:
REMARK  status: ('A' for Active; 'I' for Inactive)
REMARK    1  A    between atoms: C2_2  and  C3_3 
REMARK    2  A    between atoms: C3_3  and  N1_4 
REMARK    3  A    between atoms: N1_4  and  N2_5 
REMARK    4  A    between atoms: N1_4  and  C4_9 
REMARK    5  A    between atoms: N2_5  and  O1_7 
REMARK    6  A    between atoms: C4_9  and  C5_10 
REMARK    7  A    between atoms: C4_9  and  C12_18 
REMARK    8  A    between atoms: C5_10  and  N3_11 
ROOT
HETATM    1  C4  UNL     1      -0.977  -0.320   0.416  1.00  0.00     0.051 C 
ENDROOT
BRANCH   1   2
HETATM    2  N1  UNL     1      -1.654   0.856   0.001  1.00  0.00    -0.276 N 
BRANCH   2   3
HETATM    3  C3  UNL     1      -1.761   2.086   0.725  1.00  0.00     0.150 C 
BRANCH   3   4
HETATM    4  C2  UNL     1      -2.871   2.932   0.088  1.00  0.00     0.017 C 
HETATM    5  C1  UNL     1      -3.080   4.251   0.749  1.00  0.00     0.007 C 
ENDBRANCH   3   4
ENDBRANCH   2   3
BRANCH   2   6
HETATM    6  N2  UNL     1      -2.316   0.827  -1.266  1.00  0.00    -0.208 N 
ATOM      7  H2  UNL     1      -3.332   0.739  -1.294  1.00  0.00     0.216 HD
BRANCH   6   8
HETATM    8  O1  UNL     1      -1.684   0.906  -2.337  1.00  0.00    -0.274 OA
ATOM      9  H1  UNL     1      -2.124   0.887  -3.179  1.00  0.00     0.246 HD
ENDBRANCH   6   8
ENDBRANCH   2   6
ENDBRANCH   1   2
BRANCH   1  10
HETATM   10  C5  UNL     1       0.459  -0.356   0.682  1.00  0.00     0.117 C 
BRANCH  10  11
HETATM   11  N3  UNL     1       1.442  -0.030  -0.224  1.00  0.00    -0.368 N 
HETATM   12  C6  UNL     1       1.720   1.313  -0.588  1.00  0.00     0.127 C 
HETATM   13  C7  UNL     1       3.234   1.566  -0.605  1.00  0.00     0.020 C 
HETATM   14  C8  UNL     1       3.924   0.712   0.433  1.00  0.00     0.002 C 
HETATM   15  C9  UNL     1       4.490  -0.563  -0.092  1.00  0.00     0.005 C 
HETATM   16  C10 UNL     1       3.358  -1.605  -0.071  1.00  0.00     0.044 C 
HETATM   17  C11 UNL     1       2.242  -0.991  -0.870  1.00  0.00     0.063 C 
ENDBRANCH  10  11
ENDBRANCH   1  10
BRANCH   1  18
HETATM   18  C12 UNL     1      -1.521  -1.533  -0.345  1.00  0.00     0.066 C 
HETATM   19  C13 UNL     1      -0.908  -2.824   0.038  1.00  0.00     0.040 C 
HETATM   20  C14 UNL     1      -2.015  -3.828  -0.275  1.00  0.00     0.233 C 
HETATM   21  N4  UNL     1      -3.199  -3.156   0.145  1.00  0.00    -0.074 N 
HETATM   22  C15 UNL     1      -2.989  -1.746  -0.021  1.00  0.00     0.243 C 
ATOM     23  H42 UNL     1      -4.034  -3.490  -0.335  1.00  0.00     0.277 HD
ATOM     24  H41 UNL     1      -3.479  -3.405   1.094  1.00  0.00     0.277 HD
ENDBRANCH   1  18
TORSDOF 8
