REMARK  11 active torsions:
REMARK  status: ('A' for Active; 'I' for Inactive)
REMARK    1  A    between atoms: C2_2  and  C8_16 
REMARK       I    between atoms: N1_3  and  C3_5 
REMARK    2  A    between atoms: C3_5  and  C4_7 
REMARK    3  A    between atoms: C8_16  and  C11_26 
REMARK    4  A    between atoms: N5_17  and  O2_19 
REMARK    5  A    between atoms: O2_19  and  C9_20 
REMARK    6  A    between atoms: C9_20  and  O3_21 
REMARK    7  A    between atoms: C9_20  and  C10_23 
REMARK    8  A    between atoms: C11_26  and  N8_30 
REMARK    9  A    between atoms: N9_32  and  C12_34 
REMARK   10  A    between atoms: C13_35  and  O5_36 
REMARK   11  A    between atoms: C14_40  and  N11_41 
ROOT
HETATM    1  C8  UNL     1       0.014  -0.823   0.224  1.00  0.00     0.121 C 
HETATM    2  N5  UNL     1       0.659  -1.859  -0.156  1.00  0.00    -0.258 N 
ATOM      3  H5  UNL     1       0.234  -2.770   0.015  1.00  0.00     0.194 HD
ENDROOT
BRANCH   1   4
HETATM    4  C2  UNL     1      -1.278  -0.993   0.872  1.00  0.00     0.040 C 
HETATM    5  C1  UNL     1      -1.844  -2.374   1.091  1.00  0.00     0.071 C 
HETATM    6  N1  UNL     1      -1.985  -0.007   1.281  1.00  0.00    -0.327 N 
HETATM    7  C3  UNL     1      -3.229  -0.228   1.902  1.00  0.00     0.244 C 
ATOM      8  H1  UNL     1      -1.644   0.946   1.156  1.00  0.00     0.168 HD
HETATM    9  O1  UNL     1      -3.297  -1.005   2.883  1.00  0.00    -0.271 OA
BRANCH   7  10
HETATM   10  C4  UNL     1      -4.426   0.451   1.399  1.00  0.00     0.178 C 
HETATM   11  C5  UNL     1      -4.287   1.954   1.425  1.00  0.00     0.054 C 
HETATM   12  C6  UNL     1      -5.455   2.532   0.650  1.00  0.00     0.125 C 
HETATM   13  N2  UNL     1      -6.657   1.726   0.847  1.00  0.00    -0.365 N 
HETATM   14  C7  UNL     1      -6.699   0.730   1.888  1.00  0.00     0.184 C 
ATOM     15  H2  UNL     1      -7.469   1.868   0.246  1.00  0.00     0.162 HD
HETATM   16  N3  UNL     1      -7.914   0.472   2.569  1.00  0.00    -0.064 NA
HETATM   17  N4  UNL     1      -5.605   0.097   2.167  1.00  0.00    -0.351 N 
ATOM     18  H4  UNL     1      -5.573  -0.618   2.894  1.00  0.00     0.163 HD
ENDBRANCH   7  10
ENDBRANCH   1   4
BRANCH   1  19
HETATM   19  C11 UNL     1       0.553   0.493   0.016  1.00  0.00     0.144 C 
HETATM   20  N7  UNL     1      -0.095   1.523   0.397  1.00  0.00    -0.382 N 
ATOM     21  H72 UNL     1      -1.001   1.414   0.853  1.00  0.00     0.157 HD
ATOM     22  H71 UNL     1       0.288   2.457   0.249  1.00  0.00     0.157 HD
BRANCH  19  23
HETATM   23  N8  UNL     1       1.810   0.644  -0.616  1.00  0.00    -0.283 N 
HETATM   24  N9  UNL     1       2.634   1.544  -0.237  1.00  0.00    -0.290 N 
ATOM     25  H9  UNL     1       2.415   2.181   0.529  1.00  0.00     0.187 HD
ATOM     26  H8  UNL     1       2.062   0.025  -1.386  1.00  0.00     0.188 HD
BRANCH  24  27
HETATM   27  C12 UNL     1       3.874   1.615  -0.936  1.00  0.00     0.168 A 
HETATM   28  C13 UNL     1       5.067   1.394  -0.301  1.00  0.00     0.189 A 
HETATM   29  N10 UNL     1       6.203   1.469  -0.986  1.00  0.00    -0.168 N 
HETATM   30  C14 UNL     1       6.197   1.759  -2.299  1.00  0.00     0.680 A 
ATOM     31  H10 UNL     1       7.090   1.305  -0.510  1.00  0.00     0.186 HD
HETATM   32  N12 UNL     1       5.029   1.985  -2.967  1.00  0.00    -0.154 N 
HETATM   33  C15 UNL     1       3.890   1.910  -2.277  1.00  0.00     0.292 A 
ATOM     34  H12 UNL     1       5.027   2.204  -3.963  1.00  0.00     0.187 HD
HETATM   35  O6  UNL     1       2.795   2.115  -2.872  1.00  0.00    -0.265 OA
BRANCH  28  36
HETATM   36  O5  UNL     1       5.124   1.091   1.057  1.00  0.00    -0.344 OA
ATOM     37  H5  UNL     1       5.952   0.938   1.498  1.00  0.00     0.219 HD
ENDBRANCH  28  36
BRANCH  30  38
HETATM   38  N11 UNL     1       7.290   1.834  -2.973  1.00  0.00    -0.234 N 
ATOM     39 2H11 UNL     1       8.163   1.665  -2.474  1.00  0.00     0.174 HD
ATOM     40 1H11 UNL     1       7.285   2.054  -3.969  1.00  0.00     0.174 HD
ENDBRANCH  30  38
ENDBRANCH  24  27
ENDBRANCH  19  23
ENDBRANCH   1  19
BRANCH   2  41
HETATM   41  O2  UNL     1       1.876  -1.834  -0.774  1.00  0.00    -0.238 OA
BRANCH  41  42
HETATM   42  C9  UNL     1       2.849  -2.805  -0.392  1.00  0.00     0.376 C 
BRANCH  42  43
HETATM   43  O3  UNL     1       3.988  -2.182   0.083  1.00  0.00    -0.362 OA
ATOM     44  H3  UNL     1       4.636  -2.829   0.337  1.00  0.00     0.213 HD
ENDBRANCH  42  43
BRANCH  42  45
HETATM   45  C10 UNL     1       3.173  -3.607  -1.592  1.00  0.00     0.288 C 
HETATM   46  N6  UNL     1       2.199  -4.356  -2.292  1.00  0.00    -0.057 NA
HETATM   47  O4  UNL     1       4.362  -3.643  -2.032  1.00  0.00    -0.271 OA
ENDBRANCH  42  45
ENDBRANCH  41  42
ENDBRANCH   2  41
TORSDOF 11
