REMARK  14 active torsions:
REMARK  status: ('A' for Active; 'I' for Inactive)
REMARK    1  A    between atoms: N1_1  and  C1_4 
REMARK    2  A    between atoms: C6_19  and  C7_20 
REMARK    3  A    between atoms: C7_20  and  N7_21 
REMARK    4  A    between atoms: N7_21  and  C8_22 
REMARK    5  A    between atoms: C9_25  and  N9_26 
REMARK    6  A    between atoms: N9_26  and  C10_28 
REMARK    7  A    between atoms: C10_28  and  C11_29 
REMARK    8  A    between atoms: C11_29  and  O1_30 
REMARK    9  A    between atoms: C12_34  and  C13_35 
REMARK   10  A    between atoms: C13_35  and  O2_36 
REMARK   11  A    between atoms: C13_35  and  O3_38 
REMARK   12  A    between atoms: C14_40  and  C15_41 
REMARK   13  A    between atoms: C15_41  and  O4_42 
REMARK   14  A    between atoms: C15_41  and  O5_44 
ROOT
HETATM    1  C8  UNL     1      -1.286  -0.996  -0.482  1.00  0.00     0.206 A 
HETATM    2  N8  UNL     1      -1.714  -0.117  -1.460  1.00  0.00    -0.164 N 
ATOM      3  H8  UNL     1      -1.032   0.193  -2.152  1.00  0.00     0.187 HD
HETATM    4  C9  UNL     1      -2.948   0.349  -1.559  1.00  0.00     0.680 A 
HETATM    5  N10 UNL     1      -3.845  -0.054  -0.657  1.00  0.00    -0.190 N 
ATOM      6  H10 UNL     1      -4.800   0.297  -0.722  1.00  0.00     0.184 HD
HETATM    7  C12 UNL     1      -3.526  -0.929   0.361  1.00  0.00     0.097 A 
HETATM    8  C14 UNL     1      -2.256  -1.400   0.457  1.00  0.00     0.083 A 
ENDROOT
BRANCH   1   9
HETATM    9  N7  UNL     1      -0.182  -1.389  -0.476  1.00  0.00    -0.395 NA
BRANCH   9  10
HETATM   10  C7  UNL     1       1.068  -1.839  -0.462  1.00  0.00     0.235 C 
BRANCH  10  11
HETATM   11  C6  UNL     1       2.130  -0.802  -0.117  1.00  0.00     0.165 A 
HETATM   12  N6  UNL     1       1.959   0.488   0.094  1.00  0.00    -0.170 N 
HETATM   13  C5  UNL     1       3.183   1.018   0.371  1.00  0.00     0.721 A 
ATOM     14  H6  UNL     1       1.075   0.995   0.057  1.00  0.00     0.186 HD
HETATM   15  N5  UNL     1       3.565   2.272   0.656  1.00  0.00    -0.129 N 
HETATM   16  N12 UNL     1       4.069   0.019   0.318  1.00  0.00    -0.064 N 
HETATM   17  N4  UNL     1       4.843   2.526   0.889  1.00  0.00    -0.280 N 
ATOM     18  H5  UNL     1       2.876   3.024   0.693  1.00  0.00     0.205 HD
HETATM   19  C4  UNL     1       5.761   1.555   0.847  1.00  0.00     0.139 A 
ATOM     20  H4  UNL     1       5.133   3.480   1.105  1.00  0.00     0.188 HD
HETATM   21  C1  UNL     1       7.112   1.763   1.082  1.00  0.00     0.132 A 
HETATM   22  C3  UNL     1       5.372   0.264   0.554  1.00  0.00     0.178 A 
HETATM   23  N2  UNL     1       7.938   0.726   1.014  1.00  0.00    -0.337 N 
HETATM   24  C2  UNL     1       7.543  -0.525   0.728  1.00  0.00     0.183 A 
ATOM     25  H2  UNL     1       8.930   0.889   1.189  1.00  0.00     0.168 HD
HETATM   26  N3  UNL     1       6.242  -0.768   0.494  1.00  0.00    -0.335 N 
ATOM     27  H3  UNL     1       5.919  -1.711   0.276  1.00  0.00     0.168 HD
HETATM   28  N11 UNL     1       3.417  -1.097   0.019  1.00  0.00    -0.260 N 
ATOM     29  H11 UNL     1       3.833  -2.022  -0.088  1.00  0.00     0.190 HD
BRANCH  21  30
HETATM   30  N1  UNL     1       7.522   2.948   1.358  1.00  0.00    -0.383 N 
ATOM     31  H12 UNL     1       8.516   3.101   1.531  1.00  0.00     0.157 HD
ATOM     32  H11 UNL     1       6.887   3.745   1.410  1.00  0.00     0.157 HD
ENDBRANCH  21  30
ENDBRANCH  10  11
ENDBRANCH   9  10
ENDBRANCH   1   9
BRANCH   8  33
HETATM   33  C15 UNL     1      -1.808  -2.268   1.539  1.00  0.00     0.295 C 
BRANCH  33  34
HETATM   34  O4  UNL     1      -0.570  -1.790   2.093  1.00  0.00    -0.367 OA
ATOM     35  H4  UNL     1      -0.278  -2.356   2.798  1.00  0.00     0.213 HD
ENDBRANCH  33  34
BRANCH  33  36
HETATM   36  O5  UNL     1      -1.544  -3.582   1.179  1.00  0.00    -0.367 OA
ATOM     37  H5  UNL     1      -1.252  -4.148   1.884  1.00  0.00     0.213 HD
ENDBRANCH  33  36
ENDBRANCH   8  33
BRANCH   4  38
HETATM   38  N9  UNL     1      -3.273   1.179  -2.510  1.00  0.00    -0.224 N 
ATOM     39  H9  UNL     1      -2.535   1.444  -3.162  1.00  0.00     0.177 HD
BRANCH  38  40
HETATM   40  C10 UNL     1      -4.555   1.750  -2.726  1.00  0.00     0.164 C 
BRANCH  40  41
HETATM   41  C11 UNL     1      -4.330   3.173  -3.256  1.00  0.00     0.184 C 
BRANCH  41  42
HETATM   42  O1  UNL     1      -3.616   3.925  -2.325  1.00  0.00    -0.399 OA
ATOM     43  H1  UNL     1      -3.477   4.806  -2.653  1.00  0.00     0.209 HD
ENDBRANCH  41  42
ENDBRANCH  40  41
ENDBRANCH  38  40
ENDBRANCH   4  38
BRANCH   7  44
HETATM   44  C13 UNL     1      -4.605  -1.377   1.258  1.00  0.00     0.306 C 
BRANCH  44  45
HETATM   45  O2  UNL     1      -5.738  -1.505   0.373  1.00  0.00    -0.366 OA
ATOM     46  H2  UNL     1      -6.434  -1.794   0.952  1.00  0.00     0.213 HD
ENDBRANCH  44  45
BRANCH  44  47
HETATM   47  O3  UNL     1      -4.479  -2.703   1.698  1.00  0.00    -0.366 OA
ATOM     48  H3  UNL     1      -5.175  -2.992   2.277  1.00  0.00     0.213 HD
ENDBRANCH  44  47
ENDBRANCH   7  44
TORSDOF 14
