REMARK  4 active torsions:
REMARK  status: ('A' for Active; 'I' for Inactive)
REMARK    1  A    between atoms: C2_2  and  C3_3 
REMARK    2  A    between atoms: C3_3  and  C4_5 
REMARK    3  A    between atoms: C10_11  and  O2_12 
REMARK    4  A    between atoms: C15_20  and  O4_21 
ROOT
HETATM    1  C4  UNL     1       2.062  -0.028   0.163  1.00  0.00     0.050 A 
HETATM    2  C5  UNL     1       1.791  -1.142   0.893  1.00  0.00    -0.044 A 
HETATM    3  C6  UNL     1       2.924  -1.924   1.509  1.00  0.00     0.049 C 
HETATM    4  C7  UNL     1       0.485  -1.600   1.100  1.00  0.00     0.021 A 
HETATM    5  C8  UNL     1      -0.603  -0.958   0.582  1.00  0.00    -0.007 A 
HETATM    6  C9  UNL     1      -0.358   0.159  -0.152  1.00  0.00     0.060 A 
HETATM    7  C10 UNL     1       0.950   0.647  -0.379  1.00  0.00     0.095 A 
HETATM    8  C11 UNL     1      -1.471   0.889  -0.729  1.00  0.00     0.198 A 
HETATM    9  O3  UNL     1      -1.175   1.922  -1.402  1.00  0.00    -0.286 OA
HETATM   10  C12 UNL     1      -2.877   0.458  -0.547  1.00  0.00     0.042 A 
HETATM   11  C13 UNL     1      -3.935   1.141  -1.088  1.00  0.00    -0.004 A 
HETATM   12  C14 UNL     1      -3.913   2.400  -1.936  1.00  0.00     0.057 C 
HETATM   13  S1  UNL     1      -5.286   0.254  -0.594  1.00  0.00    -0.069 SA
HETATM   14  C15 UNL     1      -4.462  -0.977   0.299  1.00  0.00     0.119 A 
HETATM   15  C16 UNL     1      -3.140  -0.641   0.174  1.00  0.00     0.031 A 
HETATM   16  C17 UNL     1      -1.971  -1.420   0.788  1.00  0.00    -0.000 A 
HETATM   17  C18 UNL     1      -2.261  -2.476   1.470  1.00  0.00     0.106 C 
HETATM   18  C19 UNL     1      -1.545  -3.444   2.168  1.00  0.00     0.088 C 
HETATM   19  N1  UNL     1      -1.007  -4.276   2.762  1.00  0.00    -0.192 NA
ENDROOT
BRANCH  14  20
HETATM   20  O4  UNL     1      -5.151  -2.013   0.944  1.00  0.00    -0.353 OA
ATOM     21  H4  UNL     1      -4.698  -2.689   1.434  1.00  0.00     0.218 HD
ENDBRANCH  14  20
BRANCH   7  22
HETATM   22  O2  UNL     1       1.096   1.724  -1.093  1.00  0.00    -0.359 OA
ATOM     23  H2  UNL     1       0.346   2.179  -1.458  1.00  0.00     0.217 HD
ENDBRANCH   7  22
BRANCH   1  24
HETATM   24  C3  UNL     1       3.379   0.495  -0.089  1.00  0.00     0.162 C 
HETATM   25  O1  UNL     1       4.384  -0.113   0.399  1.00  0.00    -0.292 OA
BRANCH  24  26
HETATM   26  C2  UNL     1       3.701   1.702  -0.880  1.00  0.00     0.079 C 
HETATM   27  C1  UNL     1       5.217   1.931  -0.930  1.00  0.00     0.013 C 
ENDBRANCH  24  26
ENDBRANCH   1  24
TORSDOF 4
