REMARK  6 active torsions:
REMARK  status: ('A' for Active; 'I' for Inactive)
REMARK    1  A    between atoms: O1_2  and  C2_3 
REMARK    2  A    between atoms: C2_3  and  C3_5 
REMARK    3  A    between atoms: C9_12  and  O4_13 
REMARK    4  A    between atoms: C11_15  and  O5_16 
REMARK    5  A    between atoms: C16_22  and  O6_23 
REMARK    6  A    between atoms: C19_27  and  O7_29 
ROOT
HETATM    1  C3  UNL     1      -2.751  -0.309   0.730  1.00  0.00     0.082 A 
HETATM    2  C4  UNL     1      -2.218  -1.086   1.684  1.00  0.00     0.067 A 
HETATM    3  C5  UNL     1      -3.120  -1.722   2.715  1.00  0.00     0.078 C 
HETATM    4  O3  UNL     1      -0.877  -1.319   1.800  1.00  0.00    -0.313 OA
HETATM    5  C6  UNL     1       0.034  -0.762   0.947  1.00  0.00     0.090 A 
HETATM    6  C7  UNL     1       1.370  -1.013   1.132  1.00  0.00     0.053 A 
HETATM    7  C8  UNL     1       2.311  -0.457   0.314  1.00  0.00     0.016 A 
HETATM    8  C9  UNL     1       3.665  -0.717   0.504  1.00  0.00     0.113 A 
HETATM    9  C11 UNL     1       4.606  -0.154  -0.323  1.00  0.00     0.105 A 
HETATM   10  C12 UNL     1       4.236   0.678  -1.357  1.00  0.00    -0.025 A 
HETATM   11  C13 UNL     1       5.238   1.294  -2.259  1.00  0.00     0.051 C 
HETATM   12  C14 UNL     1       2.857   0.945  -1.553  1.00  0.00     0.025 A 
HETATM   13  C15 UNL     1       1.935   0.369  -0.711  1.00  0.00     0.012 A 
HETATM   14  C16 UNL     1       0.556   0.630  -0.909  1.00  0.00     0.090 A 
HETATM   15  C17 UNL     1      -0.386   0.063  -0.093  1.00  0.00     0.046 A 
HETATM   16  C18 UNL     1      -1.854   0.321  -0.264  1.00  0.00     0.027 A 
HETATM   17  C19 UNL     1      -2.284   0.583  -1.498  1.00  0.00     0.051 C 
HETATM   18  C20 UNL     1      -3.651   0.259  -2.075  1.00  0.00     0.077 C 
ENDROOT
BRANCH   1  19
HETATM   19  C2  UNL     1      -4.171  -0.118   0.787  1.00  0.00     0.296 C 
HETATM   20  O2  UNL     1      -4.866  -0.852   1.599  1.00  0.00    -0.259 OA
BRANCH  19  21
HETATM   21  O1  UNL     1      -5.027   0.750   0.153  1.00  0.00    -0.322 OA
HETATM   22  C1  UNL     1      -6.434   0.806   0.388  1.00  0.00     0.213 C 
ENDBRANCH  19  21
ENDBRANCH   1  19
BRANCH  17  23
HETATM   23  O7  UNL     1      -1.559   1.208  -2.467  1.00  0.00    -0.364 OA
ATOM     24  H7  UNL     1      -1.866   1.395  -3.347  1.00  0.00     0.217 HD
ENDBRANCH  17  23
BRANCH  14  25
HETATM   25  O6  UNL     1       0.254   1.474  -1.926  1.00  0.00    -0.359 OA
ATOM     26  H6  UNL     1      -0.670   1.649  -2.059  1.00  0.00     0.217 HD
ENDBRANCH  14  25
BRANCH   8  27
HETATM   27  O4  UNL     1       4.059  -1.548   1.533  1.00  0.00    -0.352 OA
HETATM   28  C10 UNL     1       4.356  -1.075   2.828  1.00  0.00     0.210 C 
ENDBRANCH   8  27
BRANCH   9  29
HETATM   29  O5  UNL     1       5.954  -0.416  -0.130  1.00  0.00    -0.357 OA
ATOM     30  H5  UNL     1       6.605  -0.027  -0.702  1.00  0.00     0.217 HD
ENDBRANCH   9  29
TORSDOF 6
