REMARK  5 active torsions:
REMARK  status: ('A' for Active; 'I' for Inactive)
REMARK    1  A    between atoms: C4_4  and  C5_5 
REMARK    2  A    between atoms: C5_5  and  C6_6 
REMARK    3  A    between atoms: C16_19  and  O4_20 
REMARK    4  A    between atoms: C17_22  and  O5_23 
REMARK    5  A    between atoms: C18_25  and  O6_26 
ROOT
HETATM    1  C6  UNL     1      -1.351  -0.221  -0.091  1.00  0.00    -0.008 A 
HETATM    2  C7  UNL     1      -1.408  -1.276  -0.978  1.00  0.00     0.057 A 
HETATM    3  C8  UNL     1      -2.640  -1.872  -1.508  1.00  0.00     0.077 C 
HETATM    4  O1  UNL     1      -0.186  -1.652  -1.267  1.00  0.00    -0.310 OA
HETATM    5  C9  UNL     1       0.708  -0.949  -0.656  1.00  0.00     0.141 A 
HETATM    6  C10 UNL     1      -0.003  -0.021   0.108  1.00  0.00     0.065 A 
HETATM    7  C11 UNL     1       0.636   0.973   0.971  1.00  0.00     0.236 C 
HETATM    8  O2  UNL     1      -0.119   1.406   1.872  1.00  0.00    -0.283 OA
HETATM    9  C12 UNL     1       1.987   1.503   0.920  1.00  0.00     0.236 C 
HETATM   10  O3  UNL     1       2.140   2.639   1.397  1.00  0.00    -0.283 OA
HETATM   11  C13 UNL     1       3.156   0.820   0.363  1.00  0.00     0.069 A 
HETATM   12  C14 UNL     1       3.238  -0.341  -0.388  1.00  0.00     0.037 A 
HETATM   13  C15 UNL     1       4.469  -0.824  -0.819  1.00  0.00     0.056 A 
HETATM   14  C16 UNL     1       5.629  -0.163  -0.510  1.00  0.00     0.102 A 
HETATM   15  C17 UNL     1       5.558   1.006   0.245  1.00  0.00     0.133 A 
HETATM   16  C18 UNL     1       4.333   1.473   0.664  1.00  0.00     0.117 A 
HETATM   17  C19 UNL     1       2.131  -1.173  -0.811  1.00  0.00     0.217 C 
HETATM   18  O7  UNL     1       2.468  -2.235  -1.394  1.00  0.00    -0.284 OA
ENDROOT
BRANCH   1  19
HETATM   19  C5  UNL     1      -2.401   0.565   0.565  1.00  0.00     0.069 C 
BRANCH  19  20
HETATM   20  C4  UNL     1      -3.717   0.532  -0.140  1.00  0.00    -0.020 C 
HETATM   21  C2  UNL     1      -4.817   0.085   0.450  1.00  0.00    -0.091 C 
HETATM   22  C1  UNL     1      -4.785  -0.410   1.861  1.00  0.00     0.042 C 
HETATM   23  C3  UNL     1      -6.115   0.058  -0.272  1.00  0.00     0.042 C 
ENDBRANCH  19  20
ENDBRANCH   1  19
BRANCH  16  24
HETATM   24  O6  UNL     1       4.283   2.643   1.418  1.00  0.00    -0.357 OA
ATOM     25  H6  UNL     1       5.094   3.093   1.625  1.00  0.00     0.217 HD
ENDBRANCH  16  24
BRANCH  14  26
HETATM   26  O4  UNL     1       6.869  -0.613  -0.922  1.00  0.00    -0.358 OA
ATOM     27  H4  UNL     1       7.673  -0.155  -0.708  1.00  0.00     0.217 HD
ENDBRANCH  14  26
BRANCH  15  28
HETATM   28  O5  UNL     1       6.709   1.675   0.560  1.00  0.00    -0.356 OA
ATOM     29  H5  UNL     1       6.661   2.472   1.075  1.00  0.00     0.218 HD
ENDBRANCH  15  28
TORSDOF 5
