REMARK  6 active torsions:
REMARK  status: ('A' for Active; 'I' for Inactive)
REMARK    1  A    between atoms: C4_4  and  C5_5 
REMARK    2  A    between atoms: C5_5  and  C6_6 
REMARK    3  A    between atoms: C8_9  and  O2_10 
REMARK    4  A    between atoms: C11_14  and  O3_15 
REMARK    5  A    between atoms: C16_23  and  C17_24 
REMARK    6  A    between atoms: C17_24  and  O6_26 
ROOT
HETATM    1  C6  UNL     1      -2.583  -0.579   1.146  1.00  0.00     0.064 A 
HETATM    2  O1  UNL     1      -1.648   0.137   1.759  1.00  0.00    -0.310 OA
HETATM    3  C7  UNL     1      -0.468  -0.071   1.241  1.00  0.00     0.123 A 
HETATM    4  C8  UNL     1       0.775   0.453   1.558  1.00  0.00     0.117 A 
HETATM    5  C9  UNL     1       1.863   0.035   0.817  1.00  0.00     0.084 A 
HETATM    6  C10 UNL     1       1.716  -0.886  -0.218  1.00  0.00     0.130 A 
HETATM    7  C11 UNL     1       0.462  -1.395  -0.516  1.00  0.00     0.114 A 
HETATM    8  C12 UNL     1      -0.627  -0.981   0.220  1.00  0.00     0.045 A 
HETATM    9  C13 UNL     1      -1.959  -1.317   0.143  1.00  0.00    -0.016 A 
HETATM   10  C14 UNL     1      -2.583  -2.282  -0.807  1.00  0.00     0.052 C 
HETATM   11  O4  UNL     1       2.810  -1.310  -0.968  1.00  0.00    -0.274 OA
HETATM   12  C15 UNL     1       4.101  -0.829  -0.712  1.00  0.00     0.278 C 
HETATM   13  O5  UNL     1       4.995  -1.020  -1.575  1.00  0.00    -0.264 OA
HETATM   14  C16 UNL     1       4.426  -0.108   0.541  1.00  0.00     0.189 C 
HETATM   15  C19 UNL     1       3.200   0.531   1.079  1.00  0.00     0.181 C 
HETATM   16  O7  UNL     1       3.325   1.553   1.798  1.00  0.00    -0.291 OA
ENDROOT
BRANCH   1  17
HETATM   17  C5  UNL     1      -4.009  -0.614   1.442  1.00  0.00     0.093 C 
BRANCH  17  18
HETATM   18  C4  UNL     1      -4.951   0.130   0.621  1.00  0.00    -0.018 C 
HETATM   19  C2  UNL     1      -4.814   0.955  -0.358  1.00  0.00    -0.091 C 
HETATM   20  C1  UNL     1      -3.559   1.423  -0.978  1.00  0.00     0.042 C 
HETATM   21  C3  UNL     1      -6.083   1.548  -0.988  1.00  0.00     0.042 C 
ENDBRANCH  17  18
ENDBRANCH   1  17
BRANCH   4  22
HETATM   22  O2  UNL     1       0.969   1.372   2.580  1.00  0.00    -0.357 OA
ATOM     23  H2  UNL     1       1.821   1.731   2.797  1.00  0.00     0.217 HD
ENDBRANCH   4  22
BRANCH   7  24
HETATM   24  O3  UNL     1       0.274  -2.318  -1.543  1.00  0.00    -0.357 OA
ATOM     25  H3  UNL     1      -0.586  -2.667  -1.747  1.00  0.00     0.217 HD
ENDBRANCH   7  24
BRANCH  14  26
HETATM   26  C17 UNL     1       5.497   0.946   0.338  1.00  0.00     0.135 C 
HETATM   27  C18 UNL     1       6.783   0.370  -0.159  1.00  0.00     0.040 C 
BRANCH  26  28
HETATM   28  O6  UNL     1       5.027   1.890  -0.565  1.00  0.00    -0.395 OA
ATOM     29  H6  UNL     1       5.698   2.550  -0.692  1.00  0.00     0.210 HD
ENDBRANCH  26  28
ENDBRANCH  14  26
TORSDOF 6
