REMARK  11 active torsions:
REMARK  status: ('A' for Active; 'I' for Inactive)
REMARK    1  A    between atoms: S1_2  and  C2_3 
REMARK    2  A    between atoms: S1_2  and  C6_12 
REMARK    3  A    between atoms: C2_3  and  C3_4 
REMARK    4  A    between atoms: C3_4  and  C4_6 
REMARK    5  A    between atoms: C4_6  and  C5_8 
REMARK    6  A    between atoms: C5_8  and  N1_9 
REMARK    7  A    between atoms: C7_15  and  C8_16 
REMARK    8  A    between atoms: C9_19  and  C10_20 
REMARK    9  A    between atoms: C10_20  and  N4_21 
REMARK   10  A    between atoms: C10_20  and  N5_25 
REMARK   11  A    between atoms: C13_36  and  N8_37 
ROOT
HETATM    1  C6  UNL     1       1.253  -1.175  -0.512  1.00  0.00     0.081 A 
HETATM    2  N2  UNL     1       0.396  -0.193  -0.148  1.00  0.00    -0.334 N 
ATOM      3  H2  UNL     1       0.781   0.680   0.212  1.00  0.00     0.168 HD
HETATM    4  C7  UNL     1      -0.922  -0.314  -0.238  1.00  0.00     0.142 A 
HETATM    5  N6  UNL     1      -1.459  -1.446  -0.707  1.00  0.00    -0.325 N 
ATOM      6  H6  UNL     1      -2.474  -1.524  -0.771  1.00  0.00     0.169 HD
HETATM    7  C12 UNL     1      -0.689  -2.496  -1.101  1.00  0.00     0.141 A 
HETATM    8  N7  UNL     1      -1.233  -3.630  -1.571  1.00  0.00    -0.176 N 
ATOM      9  H7  UNL     1      -2.248  -3.707  -1.635  1.00  0.00     0.186 HD
HETATM   10  C13 UNL     1      -0.471  -4.664  -1.959  1.00  0.00     0.680 A 
HETATM   11  N9  UNL     1       0.862  -4.522  -1.860  1.00  0.00    -0.155 N 
ATOM     12  H9  UNL     1       1.452  -5.301  -2.153  1.00  0.00     0.187 HD
HETATM   13  C14 UNL     1       1.461  -3.411  -1.397  1.00  0.00     0.276 A 
HETATM   14  O3  UNL     1       2.712  -3.307  -1.315  1.00  0.00    -0.267 OA
HETATM   15  C15 UNL     1       0.674  -2.331  -0.991  1.00  0.00     0.110 A 
ENDROOT
BRANCH   4  16
HETATM   16  C8  UNL     1      -1.791   0.811   0.183  1.00  0.00     0.119 A 
HETATM   17  N3  UNL     1      -3.107   0.887   0.171  1.00  0.00    -0.347 N 
HETATM   18  C9  UNL     1      -3.700   1.960   0.581  1.00  0.00     0.074 A 
ATOM     19  H3  UNL     1      -3.659   0.097  -0.163  1.00  0.00     0.166 HD
HETATM   20  C11 UNL     1      -2.910   2.995   1.021  1.00  0.00     0.081 A 
HETATM   21  S2  UNL     1      -1.341   2.336   0.808  1.00  0.00    -0.078 SA
BRANCH  18  22
HETATM   22  C10 UNL     1      -5.212   2.126   0.597  1.00  0.00     0.427 C 
BRANCH  22  23
HETATM   23  N4  UNL     1      -5.637   2.701   1.861  1.00  0.00    -0.045 N 
ATOM     24  H43 UNL     1      -5.304   2.159   2.658  1.00  0.00     0.277 HD
ATOM     25  H42 UNL     1      -5.155   3.577   2.064  1.00  0.00     0.277 HD
ATOM     26  H41 UNL     1      -6.651   2.812   1.872  1.00  0.00     0.277 HD
ENDBRANCH  22  23
BRANCH  22  27
HETATM   27  N5  UNL     1      -5.622   2.985  -0.497  1.00  0.00    -0.045 N 
ATOM     28  H53 UNL     1      -5.137   3.882  -0.483  1.00  0.00     0.277 HD
ATOM     29  H52 UNL     1      -5.282   2.648  -1.398  1.00  0.00     0.277 HD
ATOM     30  H51 UNL     1      -6.636   3.096  -0.486  1.00  0.00     0.277 HD
ENDBRANCH  22  27
ENDBRANCH  18  22
ENDBRANCH   4  16
BRANCH   1  31
HETATM   31  S1  UNL     1       2.974  -1.076  -0.418  1.00  0.00    -0.165 SA
HETATM   32  C1  UNL     1       3.648  -1.611   1.109  1.00  0.00     0.086 C 
BRANCH  31  33
HETATM   33  C2  UNL     1       3.643   0.423  -1.023  1.00  0.00     0.157 C 
BRANCH  33  34
HETATM   34  C3  UNL     1       3.462   1.578  -0.134  1.00  0.00     0.209 C 
HETATM   35  O1  UNL     1       2.425   2.275  -0.241  1.00  0.00    -0.288 OA
BRANCH  34  36
HETATM   36  C4  UNL     1       4.459   1.932   0.869  1.00  0.00     0.232 C 
HETATM   37  O2  UNL     1       5.496   1.223   0.962  1.00  0.00    -0.283 OA
BRANCH  36  38
HETATM   38  C5  UNL     1       4.300   3.070   1.763  1.00  0.00     0.139 C 
BRANCH  38  39
HETATM   39  N1  UNL     1       3.210   3.775   1.630  1.00  0.00    -0.405 N 
ATOM     40  H12 UNL     1       2.512   3.527   0.928  1.00  0.00     0.155 HD
ATOM     41  H11 UNL     1       3.099   4.572   2.256  1.00  0.00     0.155 HD
ENDBRANCH  38  39
ENDBRANCH  36  38
ENDBRANCH  34  36
ENDBRANCH  33  34
ENDBRANCH  31  33
ENDBRANCH   1  31
BRANCH  10  42
HETATM   42  N8  UNL     1      -0.993  -5.769  -2.418  1.00  0.00    -0.234 N 
ATOM     43  H82 UNL     1      -2.005  -5.877  -2.493  1.00  0.00     0.174 HD
ATOM     44  H81 UNL     1      -0.414  -6.555  -2.713  1.00  0.00     0.174 HD
ENDBRANCH  10  42
TORSDOF 11
