REMARK  10 active torsions:
REMARK  status: ('A' for Active; 'I' for Inactive)
REMARK    1  A    between atoms: C2_2  and  C4_4 
REMARK    2  A    between atoms: C4_4  and  O1_20 
REMARK    3  A    between atoms: N1_5  and  C5_7 
REMARK    4  A    between atoms: N4_12  and  N5_13 
REMARK    5  A    between atoms: C6_16  and  N6_17 
REMARK    6  A    between atoms: O1_20  and  C7_21 
REMARK    7  A    between atoms: C7_21  and  N7_22 
REMARK    8  A    between atoms: C10_27  and  N9_28 
REMARK       I    between atoms: C11_30  and  N10_31 
REMARK       I    between atoms: C11_30  and  N12_35 
REMARK    9  A    between atoms: N12_35  and  N13_37 
REMARK   10  A    between atoms: C13_39  and  C15_41 
ROOT
HETATM    1  N9  UNL     1      -2.363  -1.554  -0.521  1.00  0.00    -0.021 N 
ATOM      2  H9  UNL     1      -1.916  -1.773  -1.411  1.00  0.00     0.203 HD
HETATM    3  C11 UNL     1      -3.627  -1.344  -0.546  1.00  0.00     0.720 C 
HETATM    4  N10 UNL     1      -4.345  -1.034   0.622  1.00  0.00    -0.124 N 
ATOM      5  H10 UNL     1      -5.161  -1.587   0.885  1.00  0.00     0.197 HD
HETATM    6  C12 UNL     1      -3.934   0.040   1.424  1.00  0.00     0.196 C 
HETATM    7  N11 UNL     1      -3.608   0.946   2.100  1.00  0.00    -0.171 NA
HETATM    8  N12 UNL     1      -4.360  -1.434  -1.785  1.00  0.00    -0.131 N 
ATOM      9  H12 UNL     1      -4.206  -2.249  -2.378  1.00  0.00     0.205 HD
ENDROOT
BRANCH   1  10
HETATM   10  C10 UNL     1      -1.530  -1.512   0.613  1.00  0.00     0.692 C 
HETATM   11  N7  UNL     1      -0.361  -0.665   0.645  1.00  0.00    -0.194 N 
HETATM   12  C8  UNL     1       0.359  -1.043   1.816  1.00  0.00     0.163 C 
HETATM   13  C9  UNL     1      -0.617  -1.880   2.633  1.00  0.00     0.158 C 
HETATM   14  N8  UNL     1      -1.655  -2.164   1.698  1.00  0.00    -0.224 N 
ATOM     15  H8  UNL     1      -2.416  -2.819   1.879  1.00  0.00     0.177 HD
BRANCH  11  16
HETATM   16  C7  UNL     1       0.002   0.341  -0.319  1.00  0.00     0.321 C 
BRANCH  16  17
HETATM   17  O1  UNL     1       1.128   0.033  -1.065  1.00  0.00    -0.315 OA
BRANCH  17  18
HETATM   18  C4  UNL     1       2.442  -0.162  -0.564  1.00  0.00     0.150 C 
HETATM   19  N1  UNL     1       2.752   0.580   0.387  1.00  0.00    -0.318 N 
ATOM     20  H1  UNL     1       1.974   1.195   0.624  1.00  0.00     0.169 HD
BRANCH  18  21
HETATM   21  C2  UNL     1       3.222  -1.190  -1.231  1.00  0.00    -0.020 C 
HETATM   22  C1  UNL     1       4.451  -1.547  -0.942  1.00  0.00     0.023 C 
HETATM   23  C3  UNL     1       2.622  -1.958  -2.396  1.00  0.00     0.052 C 
ENDBRANCH  18  21
BRANCH  19  24
HETATM   24  C5  UNL     1       3.824   0.825   1.218  1.00  0.00     0.171 A 
HETATM   25  N2  UNL     1       4.164   0.246   2.406  1.00  0.00    -0.266 N 
HETATM   26  N3  UNL     1       5.261   0.792   2.876  1.00  0.00    -0.218 N 
ATOM     27  H2  UNL     1       3.642  -0.502   2.862  1.00  0.00     0.190 HD
HETATM   28  N4  UNL     1       5.676   1.734   2.029  1.00  0.00    -0.168 N 
ATOM     29  H3  UNL     1       5.722   0.537   3.749  1.00  0.00     0.210 HD
HETATM   30  C6  UNL     1       4.823   1.785   1.001  1.00  0.00     0.185 A 
BRANCH  28  31
HETATM   31  N5  UNL     1       6.814   2.547   2.169  1.00  0.00    -0.321 N 
ATOM     32  H52 UNL     1       7.465   2.508   2.953  1.00  0.00     0.179 HD
ATOM     33  H51 UNL     1       7.132   3.268   1.521  1.00  0.00     0.179 HD
ENDBRANCH  28  31
BRANCH  30  34
HETATM   34  N6  UNL     1       4.891   2.583  -0.036  1.00  0.00    -0.380 N 
ATOM     35  H62 UNL     1       4.240   2.622  -0.820  1.00  0.00     0.158 HD
ATOM     36  H61 UNL     1       5.618   3.281  -0.194  1.00  0.00     0.158 HD
ENDBRANCH  30  34
ENDBRANCH  19  24
ENDBRANCH  17  18
ENDBRANCH  16  17
ENDBRANCH  11  16
ENDBRANCH   1  10
BRANCH   8  37
HETATM   37  N13 UNL     1      -5.220  -0.519  -2.194  1.00  0.00    -0.284 N 
HETATM   38  C13 UNL     1      -5.541   0.636  -2.362  1.00  0.00     0.098 C 
HETATM   39  C14 UNL     1      -4.644   1.780  -1.974  1.00  0.00     0.077 C 
ATOM     40  H13 UNL     1      -6.013  -1.056  -2.545  1.00  0.00     0.187 HD
BRANCH  38  41
HETATM   41  C15 UNL     1      -6.852   0.963  -2.965  1.00  0.00     0.223 C 
HETATM   42  O2  UNL     1      -7.646   0.063  -3.310  1.00  0.00    -0.643 OA
HETATM   43  O3  UNL     1      -7.192   2.283  -3.144  1.00  0.00    -0.643 OA
ENDBRANCH  38  41
ENDBRANCH   8  37
TORSDOF 10
