REMARK  9 active torsions:
REMARK  status: ('A' for Active; 'I' for Inactive)
REMARK    1  A    between atoms: N1_1  and  C1_4 
REMARK    2  A    between atoms: C2_9  and  S1_10 
REMARK    3  A    between atoms: S1_10  and  S2_11 
REMARK    4  A    between atoms: S2_11  and  N4_12 
REMARK    5  A    between atoms: N5_15  and  S3_16 
REMARK    6  A    between atoms: S3_16  and  O3_19 
REMARK    7  A    between atoms: O3_19  and  N6_20 
REMARK       I    between atoms: N6_20  and  C5_22 
REMARK    8  A    between atoms: N8_24  and  O4_26 
REMARK    9  A    between atoms: C8_31  and  N9_32 
ROOT
HETATM    1  N4  UNL     1       0.778   0.523   0.079  1.00  0.00    -0.247 NA
HETATM    2  C3  UNL     1       0.087  -0.412   0.904  1.00  0.00     0.119 C 
HETATM    3  C4  UNL     1      -0.810  -1.349   0.123  1.00  0.00     0.125 C 
HETATM    4  N5  UNL     1      -1.543  -0.597  -0.846  1.00  0.00    -0.184 NA
HETATM    5  C6  UNL     1      -1.499   0.831  -0.597  1.00  0.00     0.125 C 
HETATM    6  C7  UNL     1      -0.072   1.304  -0.752  1.00  0.00     0.119 C 
ENDROOT
BRANCH   1   7
HETATM    7  S2  UNL     1       1.831   1.496   1.101  1.00  0.00    -0.001 SA
BRANCH   7   8
HETATM    8  S1  UNL     1       3.385   2.411  -0.020  1.00  0.00    -0.014 SA
BRANCH   8   9
HETATM    9  C2  UNL     1       4.830   1.367  -0.104  1.00  0.00     0.140 A 
HETATM   10  N3  UNL     1       5.051   0.451  -1.057  1.00  0.00    -0.286 N 
HETATM   11  N2  UNL     1       6.077  -0.337  -1.175  1.00  0.00    -0.282 N 
ATOM     12  H3  UNL     1       4.330   0.362  -1.773  1.00  0.00     0.188 HD
HETATM   13  C1  UNL     1       7.148  -0.420  -0.378  1.00  0.00     0.147 A 
ATOM     14  H2  UNL     1       6.064  -0.971  -1.974  1.00  0.00     0.188 HD
HETATM   15  C8  UNL     1       7.341   0.363   0.758  1.00  0.00     0.115 A 
HETATM   16  S4  UNL     1       6.071   1.461   1.056  1.00  0.00    -0.042 SA
BRANCH  13  17
HETATM   17  N1  UNL     1       8.118  -1.271  -0.620  1.00  0.00    -0.382 N 
ATOM     18  H12 UNL     1       7.977  -1.844  -1.452  1.00  0.00     0.157 HD
ATOM     19  H11 UNL     1       8.935  -1.334  -0.012  1.00  0.00     0.157 HD
ENDBRANCH  13  17
BRANCH  15  20
HETATM   20  N9  UNL     1       8.401   0.247   1.505  1.00  0.00    -0.390 N 
ATOM     21  H92 UNL     1       9.161  -0.410   1.327  1.00  0.00     0.157 HD
ATOM     22  H91 UNL     1       8.542   0.820   2.337  1.00  0.00     0.157 HD
ENDBRANCH  15  20
ENDBRANCH   8   9
ENDBRANCH   7   8
ENDBRANCH   1   7
BRANCH   4  23
HETATM   23  S3  UNL     1      -3.233  -1.032  -0.848  1.00  0.00     0.360 S 
HETATM   24  O1  UNL     1      -3.350  -2.508  -1.125  1.00  0.00    -0.179 OA
HETATM   25  O2  UNL     1      -3.945  -0.259  -1.910  1.00  0.00    -0.179 OA
BRANCH  23  26
HETATM   26  O3  UNL     1      -3.810  -0.653   0.696  1.00  0.00    -0.136 OA
BRANCH  26  27
HETATM   27  N6  UNL     1      -4.712   0.362   0.635  1.00  0.00    -0.218 N 
HETATM   28  C5  UNL     1      -6.023   0.105   1.084  1.00  0.00     0.233 C 
HETATM   29  N7  UNL     1      -6.552  -1.197   1.015  1.00  0.00    -0.060 NA
HETATM   30  N8  UNL     1      -6.729   1.060   1.554  1.00  0.00    -0.239 N 
ATOM     31  H8  UNL     1      -6.308   1.988   1.587  1.00  0.00     0.197 HD
ATOM     32  H6  UNL     1      -4.449   1.280   0.276  1.00  0.00     0.198 HD
BRANCH  30  33
HETATM   33  O4  UNL     1      -7.999   0.928   2.013  1.00  0.00    -0.287 OA
ATOM     34  H4  UNL     1      -8.524   1.638   2.363  1.00  0.00     0.244 HD
ENDBRANCH  30  33
ENDBRANCH  26  27
ENDBRANCH  23  26
ENDBRANCH   4  23
TORSDOF 9
