REMARK  9 active torsions:
REMARK  status: ('A' for Active; 'I' for Inactive)
REMARK    1  A    between atoms: C2_2  and  C3_3 
REMARK    2  A    between atoms: C3_3  and  S1_4 
REMARK    3  A    between atoms: S1_4  and  C4_5 
REMARK    4  A    between atoms: C5_8  and  N2_9 
REMARK    5  A    between atoms: N2_9  and  N3_11 
REMARK       I    between atoms: N3_11  and  C6_13 
REMARK    6  A    between atoms: C6_13  and  C7_15 
REMARK    7  A    between atoms: C8_18  and  N5_19 
REMARK    8  A    between atoms: C9_24  and  N7_25 
REMARK    9  A    between atoms: C10_32  and  N10_33 
ROOT
HETATM    1  N10 UNL     1      -2.936   3.440   1.388  1.00  0.00    -0.071 N 
HETATM    2  N11 UNL     1      -3.741   3.409   2.462  1.00  0.00     0.001 NA
HETATM    3  N12 UNL     1      -4.417   4.552   2.527  1.00  0.00    -0.272 N 
ATOM      4  H12 UNL     1      -5.102   4.809   3.238  1.00  0.00     0.185 HD
HETATM    5  C11 UNL     1      -4.026   5.319   1.467  1.00  0.00     0.151 A 
HETATM    6  C12 UNL     1      -4.523   6.638   1.172  1.00  0.00     0.120 C 
HETATM    7  N13 UNL     1      -4.937   7.710   0.941  1.00  0.00    -0.190 NA
HETATM    8  C13 UNL     1      -3.095   4.613   0.755  1.00  0.00     0.085 A 
HETATM    9  C14 UNL     1      -2.397   5.048  -0.467  1.00  0.00     0.074 C 
ENDROOT
BRANCH   1  10
HETATM   10  C10 UNL     1      -2.051   2.409   0.969  1.00  0.00     0.719 A 
HETATM   11  N9  UNL     1      -0.747   2.635   0.712  1.00  0.00    -0.019 N 
HETATM   12  C5  UNL     1       0.083   1.640   0.313  1.00  0.00     0.713 A 
ATOM     13  H9  UNL     1      -0.375   3.579   0.821  1.00  0.00     0.203 HD
HETATM   14  N1  UNL     1      -0.374   0.386   0.162  1.00  0.00    -0.168 N 
HETATM   15  C4  UNL     1      -1.677   0.149   0.417  1.00  0.00     0.174 A 
ATOM     16  H1  UNL     1       0.247  -0.366  -0.137  1.00  0.00     0.186 HD
HETATM   17  N14 UNL     1      -2.489   1.142   0.811  1.00  0.00    -0.168 N 
ATOM     18  H14 UNL     1      -3.470   0.932   0.997  1.00  0.00     0.186 HD
BRANCH  12  19
HETATM   19  N2  UNL     1       1.311   1.953   0.091  1.00  0.00    -0.128 N 
ATOM     20  H2  UNL     1       1.640   2.911   0.211  1.00  0.00     0.205 HD
BRANCH  19  21
HETATM   21  N3  UNL     1       2.179   0.940  -0.320  1.00  0.00    -0.249 N 
HETATM   22  C6  UNL     1       2.562  -0.047   0.614  1.00  0.00     0.305 C 
HETATM   23  O1  UNL     1       2.145  -0.034   1.789  1.00  0.00    -0.263 OA
ATOM     24  H3  UNL     1       2.530   0.913  -1.277  1.00  0.00     0.191 HD
BRANCH  22  25
HETATM   25  C7  UNL     1       3.477  -1.103   0.156  1.00  0.00     0.205 A 
HETATM   26  N4  UNL     1       3.936  -1.135  -1.101  1.00  0.00    -0.170 N 
HETATM   27  C8  UNL     1       4.781  -2.128  -1.488  1.00  0.00     0.692 A 
ATOM     28  H4  UNL     1       3.653  -0.416  -1.767  1.00  0.00     0.186 HD
HETATM   29  N6  UNL     1       5.171  -3.086  -0.633  1.00  0.00    -0.023 N 
HETATM   30  C9  UNL     1       4.716  -3.061   0.629  1.00  0.00     0.692 A 
ATOM     31  H6  UNL     1       5.805  -3.824  -0.939  1.00  0.00     0.203 HD
HETATM   32  N8  UNL     1       3.883  -2.080   1.003  1.00  0.00    -0.170 N 
ATOM     33  H8  UNL     1       3.541  -2.068   1.964  1.00  0.00     0.186 HD
BRANCH  27  34
HETATM   34  N5  UNL     1       5.212  -2.141  -2.703  1.00  0.00    -0.234 N 
ATOM     35  H52 UNL     1       4.916  -1.413  -3.353  1.00  0.00     0.174 HD
ATOM     36  H51 UNL     1       5.846  -2.886  -2.993  1.00  0.00     0.174 HD
ENDBRANCH  27  34
BRANCH  30  37
HETATM   37  N7  UNL     1       5.093  -3.992   1.461  1.00  0.00    -0.234 N 
ATOM     38  H72 UNL     1       5.727  -4.739   1.176  1.00  0.00     0.174 HD
ATOM     39  H71 UNL     1       4.747  -3.973   2.420  1.00  0.00     0.174 HD
ENDBRANCH  30  37
ENDBRANCH  22  25
ENDBRANCH  19  21
ENDBRANCH  12  19
BRANCH  15  40
HETATM   40  S1  UNL     1      -2.285  -1.499   0.220  1.00  0.00    -0.093 SA
BRANCH  40  41
HETATM   41  C3  UNL     1      -0.988  -2.628  -0.315  1.00  0.00     0.082 C 
BRANCH  41  42
HETATM   42  C2  UNL     1      -1.512  -4.030  -0.481  1.00  0.00     0.006 C 
HETATM   43  C1  UNL     1      -2.610  -3.972  -1.534  1.00  0.00     0.006 C 
ENDBRANCH  41  42
ENDBRANCH  40  41
ENDBRANCH  15  40
ENDBRANCH   1  10
TORSDOF 9
