REMARK  5 active torsions:
REMARK  status: ('A' for Active; 'I' for Inactive)
REMARK    1  A    between atoms: C2_2  and  N1_3 
REMARK    2  A    between atoms: N2_6  and  C5_7 
REMARK    3  A    between atoms: C5_7  and  C6_8 
REMARK    4  A    between atoms: C6_8  and  N4_12 
REMARK    5  A    between atoms: N4_12  and  N5_14 
ROOT
HETATM    1  C5  UNL     1      -1.525  -0.376  -0.921  1.00  0.00     0.349 C 
ENDROOT
BRANCH   1   2
HETATM    2  N2  UNL     1      -0.336   0.423  -0.825  1.00  0.00     0.098 N 
HETATM    3  C4  UNL     1       0.760  -0.048  -1.599  1.00  0.00     0.292 C 
HETATM    4  C3  UNL     1       1.587  -1.108  -0.986  1.00  0.00     0.147 C 
HETATM    5  N1  UNL     1       1.873  -0.949   0.392  1.00  0.00    -0.409 N 
HETATM    6  C8  UNL     1       0.809  -0.394   1.170  1.00  0.00     0.147 C 
HETATM    7  C7  UNL     1       0.069   0.734   0.534  1.00  0.00     0.292 C 
BRANCH   5   8
HETATM    8  C2  UNL     1       3.171  -0.469   0.710  1.00  0.00     0.112 C 
HETATM    9  C1  UNL     1       3.484   0.947   0.388  1.00  0.00     0.026 C 
ENDBRANCH   5   8
ENDBRANCH   1   2
BRANCH   1  10
HETATM   10  C6  UNL     1      -2.739   0.290  -0.398  1.00  0.00     0.117 C 
HETATM   11  N3  UNL     1      -3.233   1.230  -1.189  1.00  0.00    -0.386 N 
ATOM     12  H32 UNL     1      -2.747   1.408  -2.068  1.00  0.00     0.157 HD
ATOM     13  H31 UNL     1      -4.070   1.689  -0.829  1.00  0.00     0.157 HD
BRANCH  10  14
HETATM   14  N4  UNL     1      -3.406   0.046   0.809  1.00  0.00    -0.294 N 
ATOM     15  H4  UNL     1      -2.913   0.052   1.702  1.00  0.00     0.187 HD
BRANCH  14  16
HETATM   16  N5  UNL     1      -4.787  -0.207   0.731  1.00  0.00    -0.344 N 
ATOM     17  H52 UNL     1      -5.265  -0.209  -0.170  1.00  0.00     0.176 HD
ATOM     18  H51 UNL     1      -5.273  -0.385   1.610  1.00  0.00     0.176 HD
ENDBRANCH  14  16
ENDBRANCH  10  14
ENDBRANCH   1  10
TORSDOF 5
