REMARK  6 active torsions:
REMARK  status: ('A' for Active; 'I' for Inactive)
REMARK    1  A    between atoms: N1_2  and  C3_4 
REMARK    2  A    between atoms: N2_6  and  C5_7 
REMARK    3  A    between atoms: C5_7  and  C6_8 
REMARK    4  A    between atoms: C6_8  and  N3_9 
REMARK    5  A    between atoms: C8_14  and  O1_15 
REMARK    6  A    between atoms: C9_17  and  O2_18 
ROOT
HETATM    1  C3  UNL     1       1.197   0.012   0.510  1.00  0.00     0.281 C 
HETATM    2  C4  UNL     1       0.233   0.675  -0.438  1.00  0.00     0.311 C 
HETATM    3  N2  UNL     1      -1.051   0.056  -0.524  1.00  0.00     0.094 N 
HETATM    4  C7  UNL     1      -1.141  -1.262  -0.011  1.00  0.00     0.306 C 
HETATM    5  C8  UNL     1       0.120  -2.010  -0.445  1.00  0.00     0.177 C 
HETATM    6  C9  UNL     1       1.236  -1.476   0.422  1.00  0.00     0.183 C 
ENDROOT
BRANCH   3   7
HETATM    7  C5  UNL     1      -2.136   0.922  -0.139  1.00  0.00     0.299 C 
BRANCH   7   8
HETATM    8  C6  UNL     1      -3.467   0.213  -0.252  1.00  0.00     0.259 C 
BRANCH   8   9
HETATM    9  N3  UNL     1      -4.513   1.163   0.158  1.00  0.00    -0.078 N 
ATOM     10  H33 UNL     1      -4.350   1.557   1.085  1.00  0.00     0.274 HD
ATOM     11  H32 UNL     1      -4.483   2.037  -0.366  1.00  0.00     0.274 HD
ATOM     12  H31 UNL     1      -5.411   0.685   0.082  1.00  0.00     0.274 HD
ENDBRANCH   8   9
ENDBRANCH   7   8
ENDBRANCH   3   7
BRANCH   1  13
HETATM   13  N1  UNL     1       2.479   0.635   0.423  1.00  0.00     0.088 N 
HETATM   14  C1  UNL     1       3.070   0.501  -0.890  1.00  0.00     0.310 C 
HETATM   15  C2  UNL     1       2.460   2.028   0.777  1.00  0.00     0.310 C 
ENDBRANCH   1  13
BRANCH   5  16
HETATM   16  O1  UNL     1      -0.030  -3.388  -0.162  1.00  0.00    -0.391 OA
ATOM     17  H1  UNL     1       0.753  -3.853  -0.432  1.00  0.00     0.210 HD
ENDBRANCH   5  16
BRANCH   6  18
HETATM   18  O2  UNL     1       1.069  -2.085   1.684  1.00  0.00    -0.391 OA
ATOM     19  H2  UNL     1       1.094  -3.033   1.628  1.00  0.00     0.210 HD
ENDBRANCH   6  18
TORSDOF 6
