REMARK  6 active torsions:
REMARK  status: ('A' for Active; 'I' for Inactive)
REMARK    1  A    between atoms: N1_1  and  S1_4 
REMARK    2  A    between atoms: S1_4  and  C1_6 
REMARK    3  A    between atoms: C1_6  and  C2_7 
REMARK    4  A    between atoms: C3_9  and  C4_10 
REMARK    5  A    between atoms: C4_10  and  O3_11 
REMARK    6  A    between atoms: C6_14  and  O4_15 
ROOT
HETATM    1  C2  UNL     1      -0.212   0.577  -0.970  1.00  0.00     0.164 C 
HETATM    2  O2  UNL     1       0.337   0.721   0.325  1.00  0.00    -0.375 OA
HETATM    3  C3  UNL     1       1.516  -0.018   0.155  1.00  0.00     0.148 C 
HETATM    4  C5  UNL     1       1.043  -1.331  -0.435  1.00  0.00     0.068 C 
HETATM    5  C6  UNL     1      -0.280  -0.917  -1.090  1.00  0.00     0.150 C 
ENDROOT
BRANCH   1   6
HETATM    6  C1  UNL     1      -1.570   1.230  -1.031  1.00  0.00     0.166 C 
BRANCH   6   7
HETATM    7  S1  UNL     1      -2.618   0.434   0.160  1.00  0.00     0.110 S 
HETATM    8  O1  UNL     1      -4.171   1.064   0.063  1.00  0.00    -0.236 OA
BRANCH   7   9
HETATM    9  N1  UNL     1      -1.962   0.603   1.747  1.00  0.00    -0.350 NA
ATOM     10  H12 UNL     1      -2.564   0.146   2.431  1.00  0.00     0.166 HD
ATOM     11  H11 UNL     1      -1.018   0.220   1.806  1.00  0.00     0.166 HD
ENDBRANCH   7   9
ENDBRANCH   6   7
ENDBRANCH   1   6
BRANCH   5  12
HETATM   12  O4  UNL     1      -0.302  -1.273  -2.437  1.00  0.00    -0.393 OA
ATOM     13  H4  UNL     1      -0.345  -2.219  -2.513  1.00  0.00     0.210 HD
ENDBRANCH   5  12
BRANCH   3  14
HETATM   14  C4  UNL     1       2.233  -0.226   1.468  1.00  0.00     0.196 C 
BRANCH  14  15
HETATM   15  O3  UNL     1       2.537   1.048   1.970  1.00  0.00    -0.398 OA
ATOM     16  H3  UNL     1       2.988   0.917   2.796  1.00  0.00     0.209 HD
ENDBRANCH  14  15
ENDBRANCH   3  14
TORSDOF 6
