REMARK  5 active torsions:
REMARK  status: ('A' for Active; 'I' for Inactive)
REMARK    1  A    between atoms: N1_2  and  C2_5 
REMARK    2  A    between atoms: C3_7  and  C4_8 
REMARK    3  A    between atoms: C4_8  and  S1_9 
REMARK    4  A    between atoms: S1_9  and  N2_10 
REMARK    5  A    between atoms: C6_15  and  N3_16 
ROOT
HETATM    1  C2  UNL     1      -0.724   0.729  -0.040  1.00  0.00     0.351 C 
HETATM    2  O1  UNL     1       0.384   0.518   0.761  1.00  0.00    -0.351 OA
HETATM    3  C3  UNL     1       0.679  -0.812   0.822  1.00  0.00     0.139 C 
HETATM    4  C5  UNL     1       0.016  -1.417  -0.403  1.00  0.00     0.070 C 
HETATM    5  C6  UNL     1      -1.320  -0.661  -0.305  1.00  0.00     0.242 C 
ENDROOT
BRANCH   3   6
HETATM    6  C4  UNL     1       2.133  -1.132   0.939  1.00  0.00     0.163 C 
BRANCH   6   7
HETATM    7  S1  UNL     1       3.114  -0.545  -0.397  1.00  0.00     0.110 S 
HETATM    8  O2  UNL     1       4.720  -0.995  -0.065  1.00  0.00    -0.236 OA
BRANCH   7   9
HETATM    9  N2  UNL     1       3.008   1.177  -0.532  1.00  0.00    -0.350 NA
ATOM     10  H22 UNL     1       2.045   1.447  -0.731  1.00  0.00     0.166 HD
ATOM     11  H21 UNL     1       3.577   1.518  -1.307  1.00  0.00     0.166 HD
ENDBRANCH   7   9
ENDBRANCH   6   7
ENDBRANCH   3   6
BRANCH   1  12
HETATM   12  N1  UNL     1      -1.725   1.527   0.592  1.00  0.00    -0.051 N 
HETATM   13  C1  UNL     1      -2.866   1.718  -0.257  1.00  0.00     0.270 C 
ATOM     14  H12 UNL     1      -1.344   2.418   0.909  1.00  0.00     0.279 HD
ATOM     15  H11 UNL     1      -1.995   1.138   1.496  1.00  0.00     0.279 HD
ENDBRANCH   1  12
BRANCH   5  16
HETATM   16  N3  UNL     1      -2.039  -1.013   0.884  1.00  0.00    -0.071 N 
ATOM     17  H33 UNL     1      -1.473  -0.967   1.731  1.00  0.00     0.274 HD
ATOM     18  H32 UNL     1      -2.732  -0.318   1.162  1.00  0.00     0.274 HD
ATOM     19  H31 UNL     1      -2.435  -1.936   0.708  1.00  0.00     0.274 HD
ENDBRANCH   5  16
TORSDOF 5
