REMARK  6 active torsions:
REMARK  status: ('A' for Active; 'I' for Inactive)
REMARK    1  A    between atoms: N1_1  and  S1_4 
REMARK    2  A    between atoms: S1_4  and  C1_6 
REMARK    3  A    between atoms: C1_6  and  C2_7 
REMARK    4  A    between atoms: C2_7  and  C3_8 
REMARK    5  A    between atoms: C6_11  and  O2_12 
REMARK    6  A    between atoms: C7_14  and  O3_15 
ROOT
HETATM    1  C3  UNL     1       0.614  -0.313   0.762  1.00  0.00     0.040 C 
HETATM    2  C4  UNL     1       0.826  -1.523  -0.072  1.00  0.00    -0.021 C 
HETATM    3  C5  UNL     1       1.813  -1.341  -0.928  1.00  0.00     0.003 C 
HETATM    4  C6  UNL     1       2.351   0.022  -0.739  1.00  0.00     0.170 C 
HETATM    5  C7  UNL     1       2.013   0.323   0.700  1.00  0.00     0.158 C 
ENDROOT
BRANCH   1   6
HETATM    6  C2  UNL     1      -0.431   0.596   0.152  1.00  0.00     0.025 C 
BRANCH   6   7
HETATM    7  C1  UNL     1      -1.712  -0.206   0.068  1.00  0.00     0.132 C 
BRANCH   7   8
HETATM    8  S1  UNL     1      -3.038   0.732  -0.632  1.00  0.00     0.107 S 
HETATM    9  O1  UNL     1      -3.354   2.119   0.264  1.00  0.00    -0.236 OA
BRANCH   8  10
HETATM   10  N1  UNL     1      -4.434  -0.304  -0.667  1.00  0.00    -0.350 NA
ATOM     11  H12 UNL     1      -5.199   0.237  -1.071  1.00  0.00     0.166 HD
ATOM     12  H11 UNL     1      -4.242  -1.146  -1.211  1.00  0.00     0.166 HD
ENDBRANCH   8  10
ENDBRANCH   7   8
ENDBRANCH   6   7
ENDBRANCH   1   6
BRANCH   5  13
HETATM   13  O3  UNL     1       1.957   1.684   0.968  1.00  0.00    -0.392 OA
ATOM     14  H3  UNL     1       2.821   2.077   0.930  1.00  0.00     0.210 HD
ENDBRANCH   5  13
BRANCH   4  15
HETATM   15  O2  UNL     1       3.723   0.076  -0.976  1.00  0.00    -0.389 OA
ATOM     16  H2  UNL     1       4.069   0.952  -0.854  1.00  0.00     0.210 HD
ENDBRANCH   4  15
TORSDOF 6
