REMARK  15 active torsions:
REMARK  status: ('A' for Active; 'I' for Inactive)
REMARK    1  A    between atoms: C2_2  and  C3_3 
REMARK    2  A    between atoms: C3_3  and  C4_4 
REMARK    3  A    between atoms: C4_4  and  C5_5 
REMARK    4  A    between atoms: C5_5  and  C6_6 
REMARK    5  A    between atoms: C6_6  and  O1_7 
REMARK    6  A    between atoms: O1_7  and  C7_8 
REMARK       I    between atoms: C7_8  and  N1_10 
REMARK       I    between atoms: N2_13  and  C10_14 
REMARK    7  A    between atoms: C10_14  and  C11_16 
REMARK    8  A    between atoms: C11_16  and  C12_17 
REMARK    9  A    between atoms: C11_16  and  N6_25 
REMARK   10  A    between atoms: C12_17  and  C13_18 
REMARK   11  A    between atoms: C13_18  and  C14_19 
REMARK   12  A    between atoms: C14_19  and  N3_20 
REMARK       I    between atoms: N6_25  and  C16_27 
REMARK   13  A    between atoms: C16_27  and  C17_29 
REMARK   14  A    between atoms: N7_32  and  C20_33 
REMARK   15  A    between atoms: C20_33  and  C21_34 
ROOT
HETATM    1  C11 UNL     1      -1.600   0.432  -1.245  1.00  0.00     0.176 C 
ENDROOT
BRANCH   1   2
HETATM    2  C10 UNL     1      -0.580   0.156  -0.233  1.00  0.00     0.242 C 
HETATM    3  N2  UNL     1       0.814   0.218  -0.362  1.00  0.00    -0.347 N 
HETATM    4  C9  UNL     1       1.446   0.637  -1.582  1.00  0.00     0.146 C 
HETATM    5  C26 UNL     1       1.662  -0.156   0.763  1.00  0.00     0.146 C 
HETATM    6  C8  UNL     1       2.827   1.214  -1.350  1.00  0.00     0.148 C 
HETATM    7  N1  UNL     1       3.599   0.385  -0.470  1.00  0.00    -0.325 N 
HETATM    8  C7  UNL     1       4.975   0.690  -0.260  1.00  0.00     0.362 C 
HETATM    9  C27 UNL     1       2.956  -0.755   0.203  1.00  0.00     0.148 C 
HETATM   10  O2  UNL     1       5.455   1.681  -0.856  1.00  0.00    -0.238 OA
HETATM   11  O3  UNL     1      -1.010  -0.187   0.939  1.00  0.00    -0.271 OA
BRANCH   8  12
HETATM   12  O1  UNL     1       5.797  -0.030   0.550  1.00  0.00    -0.304 OA
BRANCH  12  13
HETATM   13  C6  UNL     1       7.156   0.176   0.827  1.00  0.00     0.180 C 
BRANCH  13  14
HETATM   14  C5  UNL     1       7.952   0.032  -0.441  1.00  0.00     0.027 C 
BRANCH  14  15
HETATM   15  C4  UNL     1       9.433   0.255  -0.211  1.00  0.00     0.002 C 
BRANCH  15  16
HETATM   16  C3  UNL     1       9.950  -0.750   0.758  1.00  0.00    -0.000 C 
BRANCH  16  17
HETATM   17  C2  UNL     1      11.454  -0.481   0.939  1.00  0.00    -0.005 C 
HETATM   18  C1  UNL     1      11.556   0.933   1.472  1.00  0.00     0.005 C 
ENDBRANCH  16  17
ENDBRANCH  15  16
ENDBRANCH  14  15
ENDBRANCH  13  14
ENDBRANCH  12  13
ENDBRANCH   8  12
ENDBRANCH   1   2
BRANCH   1  19
HETATM   19  C12 UNL     1      -1.575  -0.347  -2.493  1.00  0.00     0.036 C 
BRANCH  19  20
HETATM   20  C13 UNL     1      -1.732  -1.805  -2.497  1.00  0.00     0.022 C 
BRANCH  20  21
HETATM   21  C14 UNL     1      -0.689  -2.578  -1.774  1.00  0.00     0.122 C 
BRANCH  21  22
HETATM   22  N3  UNL     1      -0.998  -4.016  -1.931  1.00  0.00    -0.367 N 
HETATM   23  C15 UNL     1      -0.992  -4.843  -0.969  1.00  0.00     0.196 C 
HETATM   24  N4  UNL     1      -1.310  -6.195  -1.268  1.00  0.00    -0.067 NA
HETATM   25  N5  UNL     1      -0.690  -4.505   0.377  1.00  0.00    -0.067 NA
ATOM     26  H3  UNL     1      -1.228  -4.361  -2.863  1.00  0.00     0.161 HD
ENDBRANCH  21  22
ENDBRANCH  20  21
ENDBRANCH  19  20
ENDBRANCH   1  19
BRANCH   1  27
HETATM   27  N6  UNL     1      -2.942   0.381  -0.629  1.00  0.00    -0.347 N 
HETATM   28  C16 UNL     1      -3.686   1.566  -0.493  1.00  0.00     0.222 C 
HETATM   29  O4  UNL     1      -3.201   2.679  -0.902  1.00  0.00    -0.273 OA
ATOM     30  H6  UNL     1      -3.326  -0.507  -0.305  1.00  0.00     0.163 HD
BRANCH  28  31
HETATM   31  C17 UNL     1      -5.023   1.548   0.117  1.00  0.00     0.081 C 
HETATM   32  C18 UNL     1      -4.947   1.004   1.540  1.00  0.00     0.033 C 
HETATM   33  C19 UNL     1      -6.283   0.527   2.031  1.00  0.00     0.117 C 
HETATM   34  N7  UNL     1      -7.406   1.032   1.294  1.00  0.00    -0.412 N 
HETATM   35  C24 UNL     1      -7.347   0.867  -0.108  1.00  0.00     0.117 C 
HETATM   36  C25 UNL     1      -5.943   0.649  -0.642  1.00  0.00     0.033 C 
BRANCH  34  37
HETATM   37  C20 UNL     1      -7.897   2.253   1.810  1.00  0.00     0.121 C 
BRANCH  37  38
HETATM   38  C21 UNL     1      -9.055   2.847   1.108  1.00  0.00     0.003 A 
HETATM   39  C22 UNL     1     -10.358   2.168   0.963  1.00  0.00     0.007 A 
HETATM   40  C23 UNL     1     -10.239   3.212   2.011  1.00  0.00     0.007 A 
ENDBRANCH  37  38
ENDBRANCH  34  37
ENDBRANCH  28  31
ENDBRANCH   1  27
TORSDOF 15
