REMARK  14 active torsions:
REMARK  status: ('A' for Active; 'I' for Inactive)
REMARK    1  A    between atoms: C2_2  and  C3_3 
REMARK    2  A    between atoms: C3_3  and  N1_4 
REMARK       I    between atoms: N1_4  and  C4_6 
REMARK    3  A    between atoms: C4_6  and  C5_8 
REMARK    4  A    between atoms: C5_8  and  N2_9 
REMARK       I    between atoms: N2_9  and  C6_11 
REMARK    5  A    between atoms: C6_11  and  C7_13 
REMARK    6  A    between atoms: C7_13  and  C8_15 
REMARK    7  A    between atoms: C8_15  and  C9_16 
REMARK    8  A    between atoms: C8_15  and  N3_20 
REMARK    9  A    between atoms: C9_16  and  C10_17 
REMARK   10  A    between atoms: C10_17  and  C11_18 
REMARK       I    between atoms: N3_20  and  C13_22 
REMARK   11  A    between atoms: C13_22  and  C14_24 
REMARK       I    between atoms: N4_28  and  C18_29 
REMARK   12  A    between atoms: C18_29  and  C19_31 
REMARK   13  A    between atoms: C19_31  and  C20_32 
REMARK   14  A    between atoms: C20_32  and  C21_33 
REMARK       I    between atoms: N5_39  and  C27_41 
ROOT
HETATM    1  N3  UNL     1       1.700  -0.834   1.511  1.00  0.00    -0.347 N 
ATOM      2  H3  UNL     1       2.056  -1.346   2.318  1.00  0.00     0.163 HD
HETATM    3  C13 UNL     1       0.460  -0.140   1.578  1.00  0.00     0.241 C 
HETATM    4  O4  UNL     1       0.091   0.467   0.525  1.00  0.00    -0.271 OA
ENDROOT
BRANCH   3   5
HETATM    5  C14 UNL     1      -0.429  -0.069   2.757  1.00  0.00     0.179 C 
HETATM    6  C15 UNL     1      -0.075   1.108   3.643  1.00  0.00     0.037 C 
HETATM    7  C16 UNL     1      -0.482   2.301   2.786  1.00  0.00     0.022 C 
HETATM    8  C17 UNL     1      -1.793   1.801   2.204  1.00  0.00     0.127 C 
HETATM    9  N4  UNL     1      -1.735   0.384   2.192  1.00  0.00    -0.334 N 
HETATM   10  C18 UNL     1      -2.696  -0.587   1.764  1.00  0.00     0.267 C 
HETATM   11  O5  UNL     1      -2.429  -1.820   1.998  1.00  0.00    -0.266 OA
BRANCH  10  12
HETATM   12  C19 UNL     1      -3.911  -0.296   1.101  1.00  0.00     0.080 C 
HETATM   13  N5  UNL     1      -4.701  -1.280   0.795  1.00  0.00    -0.326 N 
HETATM   14  C27 UNL     1      -4.578  -2.632   1.004  1.00  0.00     0.218 C 
ATOM     15  H5  UNL     1      -5.559  -1.002   0.318  1.00  0.00     0.168 HD
HETATM   16  C28 UNL     1      -4.007  -3.537  -0.018  1.00  0.00     0.117 C 
HETATM   17  O6  UNL     1      -4.956  -3.150   2.093  1.00  0.00    -0.274 OA
BRANCH  12  18
HETATM   18  C20 UNL     1      -4.297   1.063   0.667  1.00  0.00     0.067 C 
BRANCH  18  19
HETATM   19  C21 UNL     1      -5.666   1.008   0.039  1.00  0.00    -0.009 C 
HETATM   20  C22 UNL     1      -6.787   0.581   0.909  1.00  0.00     0.005 C 
HETATM   21  C23 UNL     1      -7.860   0.014  -0.044  1.00  0.00     0.000 C 
HETATM   22  C24 UNL     1      -8.311   1.120  -0.970  1.00  0.00     0.000 C 
HETATM   23  C25 UNL     1      -7.190   1.829  -1.657  1.00  0.00     0.000 C 
HETATM   24  C26 UNL     1      -6.063   2.244  -0.713  1.00  0.00     0.005 C 
ENDBRANCH  18  19
ENDBRANCH  12  18
ENDBRANCH  10  12
ENDBRANCH   3   5
BRANCH   1  25
HETATM   25  C8  UNL     1       2.443  -0.795   0.271  1.00  0.00     0.164 C 
BRANCH  25  26
HETATM   26  C7  UNL     1       3.858  -0.383   0.446  1.00  0.00     0.238 C 
HETATM   27  O3  UNL     1       4.489  -0.776   1.438  1.00  0.00    -0.285 OA
BRANCH  26  28
HETATM   28  C6  UNL     1       4.503   0.475  -0.540  1.00  0.00     0.289 C 
HETATM   29  N2  UNL     1       5.880   0.810  -0.528  1.00  0.00    -0.346 N 
ATOM     30  H2  UNL     1       6.510   0.446   0.187  1.00  0.00     0.163 HD
HETATM   31  O2  UNL     1       3.747   0.939  -1.463  1.00  0.00    -0.264 OA
BRANCH  29  32
HETATM   32  C5  UNL     1       6.354   1.691  -1.575  1.00  0.00     0.225 C 
BRANCH  32  33
HETATM   33  C4  UNL     1       7.805   1.875  -1.473  1.00  0.00     0.235 C 
HETATM   34  N1  UNL     1       8.429   2.752  -2.400  1.00  0.00    -0.356 N 
ATOM     35  H1  UNL     1       7.841   3.238  -3.077  1.00  0.00     0.162 HD
HETATM   36  O1  UNL     1       8.441   1.259  -0.585  1.00  0.00    -0.272 OA
BRANCH  34  37
HETATM   37  C3  UNL     1       9.840   2.990  -2.434  1.00  0.00     0.149 C 
BRANCH  37  38
HETATM   38  C2  UNL     1      10.678   1.833  -2.786  1.00  0.00    -0.018 C 
HETATM   39  C1  UNL     1      10.203   0.665  -3.120  1.00  0.00     0.008 C 
ENDBRANCH  37  38
ENDBRANCH  34  37
ENDBRANCH  32  33
ENDBRANCH  29  32
ENDBRANCH  26  28
ENDBRANCH  25  26
BRANCH  25  40
HETATM   40  C9  UNL     1       2.381  -2.134  -0.451  1.00  0.00     0.033 C 
BRANCH  40  41
HETATM   41  C10 UNL     1       0.968  -2.607  -0.666  1.00  0.00     0.002 C 
BRANCH  41  42
HETATM   42  C11 UNL     1       0.948  -3.940  -1.393  1.00  0.00    -0.004 C 
HETATM   43  C12 UNL     1      -0.499  -4.338  -1.569  1.00  0.00     0.005 C 
ENDBRANCH  41  42
ENDBRANCH  40  41
ENDBRANCH  25  40
ENDBRANCH   1  25
TORSDOF 14
