REMARK  20 active torsions:
REMARK  status: ('A' for Active; 'I' for Inactive)
REMARK    1  A    between atoms: C2_2  and  N1_3 
REMARK       I    between atoms: N1_3  and  C3_5 
REMARK    2  A    between atoms: C3_5  and  C4_7 
REMARK    3  A    between atoms: C4_7  and  C5_8 
REMARK    4  A    between atoms: C5_8  and  C6_9 
REMARK    5  A    between atoms: C6_9  and  C7_10 
REMARK    6  A    between atoms: C8_11  and  C9_12 
REMARK    7  A    between atoms: C9_12  and  C10_13 
REMARK    8  A    between atoms: C11_14  and  C12_15 
REMARK    9  A    between atoms: C12_15  and  C13_16 
REMARK   10  A    between atoms: C13_16  and  C14_17 
REMARK   11  A    between atoms: C14_17  and  C15_18 
REMARK   12  A    between atoms: C15_18  and  O2_19 
REMARK   13  A    between atoms: C15_18  and  N2_21 
REMARK   14  A    between atoms: C16_22  and  C17_23 
REMARK   15  A    between atoms: C17_23  and  C18_24 
REMARK   16  A    between atoms: C18_24  and  C19_25 
REMARK   17  A    between atoms: C19_25  and  N3_26 
REMARK   18  A    between atoms: C27_36  and  C28_37 
REMARK   19  A    between atoms: C28_37  and  O5_38 
REMARK   20  A    between atoms: C29_40  and  O6_41 
ROOT
HETATM    1  C10 UNL     1       1.400   0.455   0.419  1.00  0.00     0.050 C 
HETATM    2  C11 UNL     1       1.171  -0.993   0.665  1.00  0.00     0.132 C 
HETATM    3  O4  UNL     1       0.837  -1.534  -0.556  1.00  0.00    -0.375 OA
HETATM    4  C27 UNL     1       1.139  -0.687  -1.585  1.00  0.00     0.174 C 
HETATM    5  C29 UNL     1       1.370   0.697  -1.028  1.00  0.00     0.156 C 
ENDROOT
BRANCH   2   6
HETATM    6  C12 UNL     1       0.002  -1.164   1.640  1.00  0.00     0.059 C 
BRANCH   6   7
HETATM    7  C13 UNL     1      -1.210  -0.581   1.007  1.00  0.00    -0.020 C 
BRANCH   7   8
HETATM    8  C14 UNL     1      -1.891   0.409   1.526  1.00  0.00     0.052 C 
BRANCH   8   9
HETATM    9  C15 UNL     1      -3.068   1.070   1.043  1.00  0.00     0.138 C 
BRANCH   9  10
HETATM   10  O2  UNL     1      -3.497   2.056   1.780  1.00  0.00    -0.346 OA
ATOM     11  H2  UNL     1      -4.277   2.494   1.460  1.00  0.00     0.219 HD
ENDBRANCH   9  10
BRANCH   9  12
HETATM   12  N2  UNL     1      -3.816   0.787  -0.124  1.00  0.00    -0.345 N 
HETATM   13  C16 UNL     1      -4.982   1.609  -0.476  1.00  0.00     0.088 C 
HETATM   14  C23 UNL     1      -5.193   1.392  -1.925  1.00  0.00     0.040 C 
HETATM   15  C24 UNL     1      -4.624   0.039  -2.195  1.00  0.00     0.090 A 
HETATM   16  C25 UNL     1      -3.173  -0.020  -2.439  1.00  0.00     0.157 A 
HETATM   17  C26 UNL     1      -3.646  -0.253  -1.088  1.00  0.00     0.168 A 
HETATM   18  O3  UNL     1      -2.314   0.087  -3.301  1.00  0.00    -0.295 OA
BRANCH  13  19
HETATM   19  C17 UNL     1      -6.163   1.352   0.390  1.00  0.00     0.027 C 
BRANCH  19  20
HETATM   20  C18 UNL     1      -6.663  -0.078   0.351  1.00  0.00     0.032 C 
BRANCH  20  21
HETATM   21  C19 UNL     1      -7.879  -0.218   1.280  1.00  0.00     0.272 C 
BRANCH  21  22
HETATM   22  N3  UNL     1      -8.944   0.666   0.833  1.00  0.00     0.088 N 
HETATM   23  C20 UNL     1     -10.078   0.571   1.742  1.00  0.00     0.274 C 
HETATM   24  C21 UNL     1     -10.965   0.751   0.524  1.00  0.00     0.060 C 
HETATM   25  C22 UNL     1      -9.793   0.071  -0.193  1.00  0.00     0.274 C 
ENDBRANCH  21  22
ENDBRANCH  20  21
ENDBRANCH  19  20
ENDBRANCH  13  19
ENDBRANCH   9  12
ENDBRANCH   8   9
ENDBRANCH   7   8
ENDBRANCH   6   7
ENDBRANCH   2   6
BRANCH   1  26
HETATM   26  C9  UNL     1       2.584   0.998   1.179  1.00  0.00     0.036 C 
BRANCH  26  27
HETATM   27  C8  UNL     1       3.872   0.376   0.892  1.00  0.00    -0.030 C 
HETATM   28  C7  UNL     1       4.632  -0.245   1.768  1.00  0.00    -0.031 C 
BRANCH  28  29
HETATM   29  C6  UNL     1       5.949  -0.855   1.359  1.00  0.00     0.027 C 
BRANCH  29  30
HETATM   30  C5  UNL     1       7.077  -0.247   2.118  1.00  0.00     0.013 C 
BRANCH  30  31
HETATM   31  C4  UNL     1       8.437  -0.782   1.814  1.00  0.00     0.103 C 
BRANCH  31  32
HETATM   32  C3  UNL     1       8.890  -0.601   0.422  1.00  0.00     0.217 C 
HETATM   33  N1  UNL     1      10.157  -1.151   0.069  1.00  0.00    -0.361 N 
ATOM     34  H1  UNL     1      10.700  -1.643   0.778  1.00  0.00     0.162 HD
HETATM   35  O1  UNL     1       8.243  -0.007  -0.451  1.00  0.00    -0.274 OA
BRANCH  33  36
HETATM   36  C2  UNL     1      10.693  -1.028  -1.273  1.00  0.00     0.118 C 
HETATM   37  C1  UNL     1      10.868   0.420  -1.697  1.00  0.00     0.026 C 
ENDBRANCH  33  36
ENDBRANCH  31  32
ENDBRANCH  30  31
ENDBRANCH  29  30
ENDBRANCH  28  29
ENDBRANCH  26  27
ENDBRANCH   1  26
BRANCH   5  38
HETATM   38  O6  UNL     1       2.483   1.243  -1.617  1.00  0.00    -0.392 OA
ATOM     39  H6  UNL     1       2.464   1.400  -2.554  1.00  0.00     0.210 HD
ENDBRANCH   5  38
BRANCH   4  40
HETATM   40  C28 UNL     1       2.360  -1.216  -2.314  1.00  0.00     0.198 C 
BRANCH  40  41
HETATM   41  O5  UNL     1       2.140  -2.479  -2.832  1.00  0.00    -0.398 OA
ATOM     42  H5  UNL     1       2.904  -2.810  -3.288  1.00  0.00     0.209 HD
ENDBRANCH  40  41
ENDBRANCH   4  40
TORSDOF 20
