REMARK  14 active torsions:
REMARK  status: ('A' for Active; 'I' for Inactive)
REMARK    1  A    between atoms: C3_3  and  N1_4 
REMARK       I    between atoms: N1_4  and  C4_6 
REMARK    2  A    between atoms: C4_6  and  C5_8 
REMARK    3  A    between atoms: C5_8  and  C6_9 
REMARK    4  A    between atoms: C5_8  and  N2_11 
REMARK    5  A    between atoms: N2_11  and  C8_12 
REMARK       I    between atoms: N2_11  and  C12_16 
REMARK    6  A    between atoms: C8_12  and  C9_13 
REMARK    7  A    between atoms: C12_16  and  C13_18 
REMARK       I    between atoms: N3_22  and  C17_23 
REMARK    8  A    between atoms: C17_23  and  C18_25 
REMARK    9  A    between atoms: C18_25  and  C19_26 
REMARK   10  A    between atoms: C18_25  and  N4_30 
REMARK   11  A    between atoms: C19_26  and  C20_27 
REMARK   12  A    between atoms: C20_27  and  C21_28 
REMARK       I    between atoms: N4_30  and  C23_32 
REMARK   13  A    between atoms: C23_32  and  C24_34 
REMARK   14  A    between atoms: C24_34  and  C25_35 
ROOT
HETATM    1  C1  UNL     1       7.218  -2.741  -0.371  1.00  0.00     0.014 C 
HETATM    2  C2  UNL     1       6.901  -2.031   0.534  1.00  0.00    -0.098 C 
HETATM    3  C3  UNL     1       6.487  -1.163   1.637  1.00  0.00     0.216 C 
ENDROOT
BRANCH   3   4
HETATM    4  N1  UNL     1       5.161  -0.634   1.309  1.00  0.00    -0.349 N 
HETATM    5  C4  UNL     1       4.951   0.137   0.152  1.00  0.00     0.241 C 
HETATM    6  O1  UNL     1       5.902   0.376  -0.613  1.00  0.00    -0.271 OA
ATOM      7  H1  UNL     1       4.376  -0.828   1.931  1.00  0.00     0.163 HD
BRANCH   5   8
HETATM    8  C5  UNL     1       3.590   0.676  -0.179  1.00  0.00     0.179 C 
BRANCH   8   9
HETATM    9  C6  UNL     1       3.726   1.986  -0.837  1.00  0.00     0.030 C 
HETATM   10  C7  UNL     1       4.508   1.865  -2.127  1.00  0.00     0.007 C 
ENDBRANCH   8   9
BRANCH   8  11
HETATM   11  N2  UNL     1       2.693   0.539   0.922  1.00  0.00    -0.337 N 
HETATM   12  C12 UNL     1       1.594  -0.416   0.745  1.00  0.00     0.243 C 
HETATM   13  O2  UNL     1       1.515  -0.978  -0.369  1.00  0.00    -0.271 OA
BRANCH  11  14
HETATM   14  C8  UNL     1       2.728   1.165   2.199  1.00  0.00     0.131 C 
BRANCH  14  15
HETATM   15  C9  UNL     1       1.982   2.396   2.480  1.00  0.00     0.004 A 
HETATM   16  C10 UNL     1       2.112   3.746   1.894  1.00  0.00     0.007 A 
HETATM   17  C11 UNL     1       0.959   2.902   1.505  1.00  0.00     0.007 A 
ENDBRANCH  14  15
ENDBRANCH  11  14
BRANCH  12  18
HETATM   18  C13 UNL     1       0.622  -0.722   1.794  1.00  0.00     0.179 C 
HETATM   19  C14 UNL     1       1.179  -1.972   2.502  1.00  0.00     0.037 C 
HETATM   20  C15 UNL     1       0.068  -2.955   2.618  1.00  0.00     0.022 C 
HETATM   21  C16 UNL     1      -1.153  -2.224   2.147  1.00  0.00     0.127 C 
HETATM   22  N3  UNL     1      -0.688  -1.167   1.277  1.00  0.00    -0.337 N 
HETATM   23  C17 UNL     1      -1.378  -0.626   0.186  1.00  0.00     0.243 C 
HETATM   24  O3  UNL     1      -0.827   0.392  -0.396  1.00  0.00    -0.271 OA
BRANCH  23  25
HETATM   25  C18 UNL     1      -2.656  -1.039  -0.417  1.00  0.00     0.176 C 
BRANCH  25  26
HETATM   26  C19 UNL     1      -2.762  -2.447  -0.873  1.00  0.00     0.035 C 
BRANCH  26  27
HETATM   27  C20 UNL     1      -1.686  -2.765  -1.884  1.00  0.00     0.002 C 
BRANCH  27  28
HETATM   28  C21 UNL     1      -1.761  -4.202  -2.363  1.00  0.00    -0.004 C 
HETATM   29  C22 UNL     1      -1.594  -5.212  -1.271  1.00  0.00     0.005 C 
ENDBRANCH  27  28
ENDBRANCH  26  27
ENDBRANCH  25  26
BRANCH  25  30
HETATM   30  N4  UNL     1      -3.007  -0.152  -1.520  1.00  0.00    -0.348 N 
HETATM   31  C23 UNL     1      -3.914   0.919  -1.445  1.00  0.00     0.221 C 
HETATM   32  O4  UNL     1      -4.477   1.168  -0.365  1.00  0.00    -0.274 OA
ATOM     33  H4  UNL     1      -2.557  -0.323  -2.420  1.00  0.00     0.163 HD
BRANCH  31  34
HETATM   34  C24 UNL     1      -4.196   1.743  -2.633  1.00  0.00     0.146 C 
BRANCH  34  35
HETATM   35  C25 UNL     1      -5.025   2.936  -2.244  1.00  0.00     0.255 C 
HETATM   36  N5  UNL     1      -6.280   2.621  -1.648  1.00  0.00    -0.061 N 
HETATM   37  C26 UNL     1      -6.723   3.785  -0.907  1.00  0.00     0.243 C 
ATOM     38  H52 UNL     1      -6.970   2.297  -2.326  1.00  0.00     0.278 HD
ATOM     39  H51 UNL     1      -6.246   1.777  -1.076  1.00  0.00     0.278 HD
HETATM   40  C27 UNL     1      -5.684   4.079   0.156  1.00  0.00     0.103 C 
HETATM   41  S1  UNL     1      -4.168   3.717  -0.815  1.00  0.00    -0.134 SA
ENDBRANCH  34  35
ENDBRANCH  31  34
ENDBRANCH  25  30
ENDBRANCH  23  25
ENDBRANCH  12  18
ENDBRANCH   8  11
ENDBRANCH   5   8
ENDBRANCH   3   4
TORSDOF 14
