REMARK  17 active torsions:
REMARK  status: ('A' for Active; 'I' for Inactive)
REMARK    1  A    between atoms: C2_2  and  C4_4 
REMARK    2  A    between atoms: C4_4  and  C5_5 
REMARK    3  A    between atoms: C5_5  and  N1_6 
REMARK    4  A    between atoms: C5_5  and  C31_44 
REMARK       I    between atoms: N1_6  and  C6_8 
REMARK    5  A    between atoms: C6_8  and  C7_10 
REMARK    6  A    between atoms: C7_10  and  C8_11 
REMARK    7  A    between atoms: C7_10  and  N2_15 
REMARK    8  A    between atoms: C8_11  and  C9_12 
REMARK       I    between atoms: N2_15  and  C12_17 
REMARK    9  A    between atoms: C12_17  and  C13_19 
REMARK   10  A    between atoms: N3_23  and  C17_24 
REMARK   11  A    between atoms: C17_24  and  O3_25 
REMARK   12  A    between atoms: C17_24  and  C18_27 
REMARK   13  A    between atoms: C18_27  and  N4_28 
REMARK   14  A    between atoms: C18_27  and  C28_41 
REMARK       I    between atoms: N4_28  and  C19_30 
REMARK   15  A    between atoms: C19_30  and  C20_32 
REMARK   16  A    between atoms: C20_32  and  C21_33 
REMARK   17  A    between atoms: C20_32  and  N5_36 
ROOT
HETATM    1  C13 UNL     1       0.187   0.343   2.395  1.00  0.00     0.178 C 
HETATM    2  C14 UNL     1      -0.347   0.128   3.780  1.00  0.00     0.037 C 
HETATM    3  C15 UNL     1      -0.466  -1.407   3.739  1.00  0.00     0.022 C 
HETATM    4  C16 UNL     1       0.793  -1.828   2.980  1.00  0.00     0.126 C 
HETATM    5  N3  UNL     1       1.304  -0.657   2.368  1.00  0.00    -0.347 N 
ENDROOT
BRANCH   1   6
HETATM    6  C12 UNL     1      -0.769  -0.030   1.346  1.00  0.00     0.241 C 
HETATM    7  N2  UNL     1      -1.868   0.755   0.956  1.00  0.00    -0.346 N 
ATOM      8  H2  UNL     1      -2.019   1.652   1.417  1.00  0.00     0.163 HD
HETATM    9  O2  UNL     1      -0.602  -1.143   0.739  1.00  0.00    -0.271 OA
BRANCH   7  10
HETATM   10  C7  UNL     1      -2.813   0.327  -0.099  1.00  0.00     0.177 C 
BRANCH  10  11
HETATM   11  C6  UNL     1      -4.183   0.576   0.298  1.00  0.00     0.241 C 
HETATM   12  N1  UNL     1      -5.319   0.006  -0.286  1.00  0.00    -0.346 N 
ATOM     13  H1  UNL     1      -5.224  -0.656  -1.056  1.00  0.00     0.163 HD
HETATM   14  O1  UNL     1      -4.336   1.402   1.288  1.00  0.00    -0.271 OA
BRANCH  12  15
HETATM   15  C5  UNL     1      -6.677   0.377   0.229  1.00  0.00     0.174 C 
BRANCH  15  16
HETATM   16  C4  UNL     1      -7.443   0.975  -0.881  1.00  0.00     0.038 C 
BRANCH  16  17
HETATM   17  C2  UNL     1      -8.819   1.424  -0.593  1.00  0.00    -0.020 C 
HETATM   18  C1  UNL     1      -9.831   0.421  -0.175  1.00  0.00     0.009 C 
HETATM   19  C3  UNL     1      -9.398   2.176  -1.821  1.00  0.00     0.009 C 
ENDBRANCH  16  17
ENDBRANCH  15  16
BRANCH  15  20
HETATM   20  C31 UNL     1      -7.243  -0.793   0.915  1.00  0.00     0.254 C 
HETATM   21  N6  UNL     1      -7.937  -0.713   2.177  1.00  0.00    -0.060 NA
HETATM   22  O5  UNL     1      -7.149  -1.976   0.438  1.00  0.00    -0.275 OA
ENDBRANCH  15  20
ENDBRANCH  12  15
ENDBRANCH  10  11
BRANCH  10  23
HETATM   23  C8  UNL     1      -2.442   0.999  -1.375  1.00  0.00     0.038 C 
BRANCH  23  24
HETATM   24  C9  UNL     1      -3.186   0.583  -2.583  1.00  0.00    -0.020 C 
HETATM   25  C10 UNL     1      -3.003  -0.896  -2.908  1.00  0.00     0.009 C 
HETATM   26  C11 UNL     1      -2.659   1.393  -3.774  1.00  0.00     0.009 C 
ENDBRANCH  23  24
ENDBRANCH  10  23
ENDBRANCH   7  10
ENDBRANCH   1   6
BRANCH   5  27
HETATM   27  C17 UNL     1       2.580  -0.316   1.865  1.00  0.00     0.162 C 
BRANCH  27  28
HETATM   28  O3  UNL     1       2.667   0.968   1.558  1.00  0.00    -0.345 OA
ATOM     29  H3  UNL     1       3.525   1.197   1.220  1.00  0.00     0.219 HD
ENDBRANCH  27  28
BRANCH  27  30
HETATM   30  C18 UNL     1       3.792  -1.068   1.622  1.00  0.00     0.066 C 
BRANCH  30  31
HETATM   31  N4  UNL     1       4.787  -0.454   1.224  1.00  0.00    -0.325 N 
HETATM   32  C19 UNL     1       6.040  -0.308   0.824  1.00  0.00     0.256 C 
HETATM   33  O4  UNL     1       7.017  -0.621   1.607  1.00  0.00    -0.271 OA
ATOM     34  H4  UNL     1       4.438   0.503   1.175  1.00  0.00     0.169 HD
BRANCH  32  35
HETATM   35  C20 UNL     1       6.464   0.224  -0.555  1.00  0.00     0.317 C 
BRANCH  35  36
HETATM   36  C21 UNL     1       6.883  -0.957  -1.332  1.00  0.00     0.020 C 
HETATM   37  C22 UNL     1       8.091  -1.616  -0.627  1.00  0.00     0.012 C 
HETATM   38  C23 UNL     1       7.178  -0.802  -2.785  1.00  0.00     0.012 C 
ENDBRANCH  35  36
BRANCH  35  39
HETATM   39  N5  UNL     1       5.477   1.095  -1.020  1.00  0.00     0.102 N 
HETATM   40  C24 UNL     1       5.447   2.248  -0.065  1.00  0.00     0.273 C 
HETATM   41  C25 UNL     1       6.617   3.072  -0.538  1.00  0.00     0.032 C 
HETATM   42  C26 UNL     1       6.725   2.828  -2.023  1.00  0.00     0.032 C 
HETATM   43  C27 UNL     1       5.614   1.809  -2.229  1.00  0.00     0.273 C 
ENDBRANCH  35  39
ENDBRANCH  32  35
ENDBRANCH  30  31
BRANCH  30  44
HETATM   44  C28 UNL     1       3.785  -2.537   1.768  1.00  0.00     0.032 C 
HETATM   45  C29 UNL     1       2.952  -3.180   0.635  1.00  0.00     0.016 C 
HETATM   46  C30 UNL     1       5.155  -3.179   1.688  1.00  0.00     0.016 C 
ENDBRANCH  30  44
ENDBRANCH  27  30
ENDBRANCH   5  27
TORSDOF 17
