REMARK  18 active torsions:
REMARK  status: ('A' for Active; 'I' for Inactive)
REMARK    1  A    between atoms: C2_2  and  C3_3 
REMARK    2  A    between atoms: C6_7  and  C8_9 
REMARK    3  A    between atoms: C8_9  and  C9_10 
REMARK    4  A    between atoms: C8_9  and  C29_43 
REMARK    5  A    between atoms: C9_10  and  O1_11 
REMARK    6  A    between atoms: C9_10  and  N2_13 
REMARK    7  A    between atoms: N3_16  and  C12_17 
REMARK    8  A    between atoms: C12_17  and  O2_18 
REMARK    9  A    between atoms: C12_17  and  C13_20 
REMARK   10  A    between atoms: C13_20  and  C14_21 
REMARK   11  A    between atoms: C13_20  and  N4_25 
REMARK   12  A    between atoms: C14_21  and  C15_22 
REMARK   13  A    between atoms: C20_29  and  C21_30 
REMARK       I    between atoms: C21_30  and  N5_32 
REMARK   14  A    between atoms: N5_32  and  C22_34 
REMARK   15  A    between atoms: C22_34  and  C23_35 
REMARK   16  A    between atoms: C22_34  and  C26_40 
REMARK   17  A    between atoms: C23_35  and  C24_36 
REMARK   18  A    between atoms: C24_36  and  C25_37 
ROOT
HETATM    1  N2  UNL     1       0.764  -0.748   1.908  1.00  0.00    -0.345 N 
HETATM    2  C10 UNL     1       0.016  -1.745   2.722  1.00  0.00     0.146 C 
HETATM    3  C11 UNL     1      -1.222  -2.096   1.922  1.00  0.00     0.144 C 
HETATM    4  N3  UNL     1      -2.061  -0.938   1.947  1.00  0.00    -0.360 N 
HETATM    5  C19 UNL     1      -1.413   0.340   2.235  1.00  0.00     0.159 C 
HETATM    6  C20 UNL     1      -0.022   0.380   1.570  1.00  0.00     0.196 C 
ENDROOT
BRANCH   1   7
HETATM    7  C9  UNL     1       2.089  -1.067   1.671  1.00  0.00     0.147 C 
BRANCH   7   8
HETATM    8  C8  UNL     1       3.258  -0.547   0.983  1.00  0.00     0.022 C 
BRANCH   8   9
HETATM    9  C6  UNL     1       3.382  -0.609  -0.463  1.00  0.00     0.015 C 
HETATM   10  N1  UNL     1       4.499  -0.157  -1.078  1.00  0.00    -0.379 N 
HETATM   11  C3  UNL     1       5.747  -0.607  -1.356  1.00  0.00     0.085 C 
HETATM   12  C5  UNL     1       4.512   0.809  -2.125  1.00  0.00     0.125 C 
HETATM   13  C4  UNL     1       5.465  -0.154  -2.822  1.00  0.00     0.045 C 
HETATM   14  C7  UNL     1       2.877  -1.879  -1.126  1.00  0.00     0.068 C 
BRANCH  11  15
HETATM   15  C2  UNL     1       6.198  -2.016  -1.431  1.00  0.00     0.021 C 
HETATM   16  C1  UNL     1       6.527  -2.634  -0.091  1.00  0.00     0.007 C 
ENDBRANCH  11  15
ENDBRANCH   8   9
BRANCH   8  17
HETATM   17  C29 UNL     1       3.711   0.749   1.625  1.00  0.00    -0.018 C 
HETATM   18  C30 UNL     1       3.463   0.703   3.135  1.00  0.00     0.019 C 
HETATM   19  C31 UNL     1       5.255   0.897   1.579  1.00  0.00     0.019 C 
HETATM   20  C32 UNL     1       3.207   2.011   1.075  1.00  0.00     0.019 C 
ENDBRANCH   8  17
ENDBRANCH   7   8
BRANCH   7  21
HETATM   21  O1  UNL     1       2.398  -2.226   2.260  1.00  0.00    -0.346 OA
ATOM     22  H1  UNL     1       1.634  -2.566   2.710  1.00  0.00     0.219 HD
ENDBRANCH   7  21
ENDBRANCH   1   7
BRANCH   6  23
HETATM   23  C21 UNL     1      -0.297   0.702   0.181  1.00  0.00     0.242 C 
HETATM   24  O3  UNL     1      -0.266  -0.121  -0.723  1.00  0.00    -0.271 OA
HETATM   25  N5  UNL     1      -0.628   2.057  -0.222  1.00  0.00    -0.354 N 
ATOM     26  H5  UNL     1      -0.667   2.776   0.500  1.00  0.00     0.162 HD
BRANCH  25  27
HETATM   27  C22 UNL     1      -0.902   2.442  -1.565  1.00  0.00     0.088 C 
BRANCH  27  28
HETATM   28  C23 UNL     1      -2.081   3.362  -1.632  1.00  0.00     0.034 C 
BRANCH  28  29
HETATM   29  C24 UNL     1      -3.339   2.751  -1.087  1.00  0.00     0.101 C 
BRANCH  29  30
HETATM   30  C25 UNL     1      -4.475   3.691  -1.166  1.00  0.00     0.231 C 
HETATM   31  N6  UNL     1      -5.747   3.342  -0.662  1.00  0.00    -0.062 NA
HETATM   32  O4  UNL     1      -4.314   4.814  -1.685  1.00  0.00    -0.277 OA
ENDBRANCH  29  30
ENDBRANCH  28  29
ENDBRANCH  27  28
BRANCH  27  33
HETATM   33  C26 UNL     1       0.257   3.228  -2.182  1.00  0.00     0.000 C 
HETATM   34  C27 UNL     1      -0.193   3.558  -3.613  1.00  0.00     0.011 C 
HETATM   35  C28 UNL     1       0.396   4.498  -1.379  1.00  0.00     0.011 C 
ENDBRANCH  27  33
ENDBRANCH  25  27
ENDBRANCH   6  23
BRANCH   4  36
HETATM   36  C12 UNL     1      -3.422  -0.959   1.719  1.00  0.00     0.136 C 
BRANCH  36  37
HETATM   37  O2  UNL     1      -4.002   0.212   1.817  1.00  0.00    -0.348 OA
ATOM     38  H2  UNL     1      -4.939   0.198   1.660  1.00  0.00     0.219 HD
ENDBRANCH  36  37
BRANCH  36  39
HETATM   39  C13 UNL     1      -4.371  -2.022   1.390  1.00  0.00     0.151 C 
BRANCH  39  40
HETATM   40  C14 UNL     1      -3.942  -2.834   0.235  1.00  0.00     0.037 C 
BRANCH  40  41
HETATM   41  C15 UNL     1      -4.867  -3.963  -0.164  1.00  0.00    -0.020 C 
HETATM   42  C16 UNL     1      -5.099  -4.962   0.950  1.00  0.00     0.009 C 
HETATM   43  C17 UNL     1      -6.085  -3.584  -0.915  1.00  0.00     0.009 C 
ENDBRANCH  40  41
ENDBRANCH  39  40
BRANCH  39  44
HETATM   44  N4  UNL     1      -5.739  -1.565   1.368  1.00  0.00    -0.414 N 
HETATM   45  C18 UNL     1      -6.065  -0.538   0.450  1.00  0.00     0.140 C 
ATOM     46  H4  UNL     1      -6.443  -1.965   1.988  1.00  0.00     0.153 HD
ENDBRANCH  39  44
ENDBRANCH  36  39
ENDBRANCH   4  36
TORSDOF 18
