REMARK  14 active torsions:
REMARK  status: ('A' for Active; 'I' for Inactive)
REMARK    1  A    between atoms: C2_2  and  N1_3 
REMARK    2  A    between atoms: N2_6  and  C5_7 
REMARK    3  A    between atoms: C5_7  and  C6_8 
REMARK    4  A    between atoms: C6_8  and  C7_9 
REMARK    5  A    between atoms: C7_9  and  N3_10 
REMARK       I    between atoms: N3_10  and  C8_12 
REMARK    6  A    between atoms: C8_12  and  C9_14 
REMARK    7  A    between atoms: C9_14  and  C10_15 
REMARK    8  A    between atoms: C10_15  and  N4_16 
REMARK    9  A    between atoms: C10_15  and  C25_35 
REMARK       I    between atoms: N4_16  and  C11_18 
REMARK   10  A    between atoms: C11_18  and  C12_20 
REMARK       I    between atoms: N5_24  and  C16_25 
REMARK   11  A    between atoms: C16_25  and  C17_27 
REMARK   12  A    between atoms: C17_27  and  C18_28 
REMARK   13  A    between atoms: C18_28  and  C19_29 
REMARK       I    between atoms: C25_35  and  N6_37 
REMARK   14  A    between atoms: N6_37  and  C26_39 
ROOT
HETATM    1  C10 UNL     1      -0.149   2.885  -0.822  1.00  0.00     0.185 C 
ENDROOT
BRANCH   1   2
HETATM    2  C9  UNL     1       0.985   2.743   0.111  1.00  0.00     0.137 C 
BRANCH   2   3
HETATM    3  C8  UNL     1       2.005   1.733  -0.242  1.00  0.00     0.220 C 
HETATM    4  N3  UNL     1       3.305   1.762   0.342  1.00  0.00    -0.361 N 
ATOM      5  H3  UNL     1       3.505   2.509   1.007  1.00  0.00     0.162 HD
HETATM    6  O1  UNL     1       1.710   0.842  -1.076  1.00  0.00    -0.274 OA
BRANCH   4   7
HETATM    7  C7  UNL     1       4.344   0.832   0.071  1.00  0.00     0.124 C 
BRANCH   7   8
HETATM    8  C6  UNL     1       4.027  -0.607   0.485  1.00  0.00     0.050 C 
BRANCH   8   9
HETATM    9  C5  UNL     1       5.195  -1.506   0.157  1.00  0.00     0.274 C 
BRANCH   9  10
HETATM   10  N2  UNL     1       5.403  -1.491  -1.282  1.00  0.00     0.094 N 
HETATM   11  C4  UNL     1       6.611  -2.228  -1.631  1.00  0.00     0.293 C 
HETATM   12  C3  UNL     1       6.328  -3.465  -2.423  1.00  0.00     0.157 C 
HETATM   13  N1  UNL     1       5.292  -4.288  -1.852  1.00  0.00    -0.371 N 
HETATM   14  C33 UNL     1       4.123  -3.542  -1.661  1.00  0.00     0.093 C 
HETATM   15  C32 UNL     1       4.259  -2.065  -1.977  1.00  0.00     0.317 C 
BRANCH  13  16
HETATM   16  C2  UNL     1       5.768  -5.181  -0.891  1.00  0.00     0.059 C 
HETATM   17  C1  UNL     1       4.821  -6.082  -0.210  1.00  0.00     0.055 C 
ENDBRANCH  13  16
ENDBRANCH   9  10
ENDBRANCH   8   9
ENDBRANCH   7   8
ENDBRANCH   4   7
ENDBRANCH   2   3
ENDBRANCH   1   2
BRANCH   1  18
HETATM   18  N4  UNL     1      -0.971   1.723  -1.046  1.00  0.00    -0.346 N 
HETATM   19  C11 UNL     1      -1.226   1.213  -2.338  1.00  0.00     0.241 C 
HETATM   20  O2  UNL     1      -0.696   1.792  -3.370  1.00  0.00    -0.271 OA
ATOM     21  H4  UNL     1      -1.384   1.251  -0.242  1.00  0.00     0.163 HD
BRANCH  19  22
HETATM   22  C12 UNL     1      -2.055   0.065  -2.625  1.00  0.00     0.179 C 
HETATM   23  C13 UNL     1      -3.163   0.393  -3.630  1.00  0.00     0.037 C 
HETATM   24  C14 UNL     1      -4.197   1.048  -2.703  1.00  0.00     0.022 C 
HETATM   25  C15 UNL     1      -3.912   0.456  -1.333  1.00  0.00     0.127 C 
HETATM   26  N5  UNL     1      -2.832  -0.482  -1.554  1.00  0.00    -0.339 N 
HETATM   27  C16 UNL     1      -2.631  -1.688  -0.874  1.00  0.00     0.220 C 
HETATM   28  O3  UNL     1      -1.664  -2.426  -1.202  1.00  0.00    -0.273 OA
BRANCH  27  29
HETATM   29  C17 UNL     1      -3.492  -2.173   0.233  1.00  0.00     0.103 C 
BRANCH  29  30
HETATM   30  C18 UNL     1      -3.241  -3.656   0.512  1.00  0.00     0.014 C 
BRANCH  30  31
HETATM   31  C19 UNL     1      -4.123  -4.137   1.647  1.00  0.00    -0.014 C 
HETATM   32  C20 UNL     1      -3.922  -5.588   1.945  1.00  0.00     0.004 C 
HETATM   33  C21 UNL     1      -4.648  -6.114   3.125  1.00  0.00     0.000 C 
HETATM   34  C22 UNL     1      -5.425  -4.974   3.766  1.00  0.00     0.000 C 
HETATM   35  C23 UNL     1      -4.386  -3.924   4.131  1.00  0.00     0.000 C 
HETATM   36  C24 UNL     1      -3.977  -3.246   2.848  1.00  0.00     0.004 C 
ENDBRANCH  30  31
ENDBRANCH  29  30
ENDBRANCH  27  29
ENDBRANCH  19  22
ENDBRANCH   1  18
BRANCH   1  37
HETATM   37  C25 UNL     1      -1.049   4.008  -0.343  1.00  0.00     0.241 C 
HETATM   38  O4  UNL     1      -2.269   3.808  -0.238  1.00  0.00    -0.271 OA
HETATM   39  N6  UNL     1      -0.449   5.260  -0.030  1.00  0.00    -0.355 N 
ATOM     40  H6  UNL     1       0.559   5.382  -0.130  1.00  0.00     0.162 HD
BRANCH  39  41
HETATM   41  C26 UNL     1      -1.271   6.362   0.431  1.00  0.00     0.084 C 
HETATM   42  C27 UNL     1      -0.946   6.803   1.837  1.00  0.00     0.025 C 
HETATM   43  C28 UNL     1       0.030   7.974   1.768  1.00  0.00     0.002 C 
HETATM   44  C29 UNL     1      -0.691   9.214   1.238  1.00  0.00     0.000 C 
HETATM   45  C30 UNL     1      -1.788   8.745   0.284  1.00  0.00     0.002 C 
HETATM   46  C31 UNL     1      -1.232   7.553  -0.496  1.00  0.00     0.025 C 
ENDBRANCH  39  41
ENDBRANCH   1  37
TORSDOF 14
