REMARK  4 active torsions:
REMARK  status: ('A' for Active; 'I' for Inactive)
REMARK    1  A    between atoms: C2_2  and  C4_5 
REMARK    2  A    between atoms: C4_5  and  C5_6 
REMARK    3  A    between atoms: C5_6  and  C6_7 
REMARK       I    between atoms: N1_8  and  C7_10 
REMARK    4  A    between atoms: C7_10  and  C8_12 
ROOT
HETATM    1  C8  UNL     1       2.743  -0.679   0.049  1.00  0.00     0.142 A 
HETATM    2  C9  UNL     1       2.619  -2.074  -0.092  1.00  0.00     0.127 A 
HETATM    3  N2  UNL     1       3.851  -2.561  -0.001  1.00  0.00    -0.343 N 
ATOM      4  H2  UNL     1       4.084  -3.552  -0.066  1.00  0.00     0.167 HD
HETATM    5  C10 UNL     1       4.745  -1.587   0.186  1.00  0.00     0.172 A 
HETATM    6  N3  UNL     1       4.074  -0.436   0.217  1.00  0.00    -0.226 N 
HETATM    7  N4  UNL     1       4.689   0.797   0.396  1.00  0.00    -0.279 N 
ATOM      8  H4  UNL     1       4.084   1.619   0.404  1.00  0.00     0.188 HD
HETATM    9  C11 UNL     1       6.055   1.016   0.566  1.00  0.00     0.147 A 
HETATM   10 CL2  UNL     1       6.642   2.682   0.781  1.00  0.00    -0.061 Cl
HETATM   11  C12 UNL     1       7.010   0.102   0.587  1.00  0.00     0.117 A 
HETATM   12 CL3  UNL     1       8.677   0.498   0.806  1.00  0.00    -0.073 Cl
HETATM   13  S1  UNL     1       6.513  -1.601   0.378  1.00  0.00    -0.037 SA
ENDROOT
BRANCH   1  14
HETATM   14  C7  UNL     1       1.629   0.248   0.011  1.00  0.00     0.275 C 
HETATM   15  N1  UNL     1       0.318  -0.247  -0.178  1.00  0.00    -0.335 N 
HETATM   16  C6  UNL     1      -0.680   0.448  -0.542  1.00  0.00     0.064 C 
ATOM     17  H1  UNL     1       0.162  -1.241  -0.009  1.00  0.00     0.168 HD
HETATM   18  O1  UNL     1       1.770   1.471   0.137  1.00  0.00    -0.266 OA
BRANCH  16  19
HETATM   19  C5  UNL     1      -1.999  -0.178  -0.705  1.00  0.00     0.046 C 
BRANCH  19  20
HETATM   20  C4  UNL     1      -3.107   0.764  -0.295  1.00  0.00     0.030 C 
BRANCH  20  21
HETATM   21  C2  UNL     1      -4.448   0.087  -0.476  1.00  0.00     0.030 C 
HETATM   22  C1  UNL     1      -5.506   1.084  -0.049  1.00  0.00     0.032 C 
HETATM   23  C3  UNL     1      -4.576  -1.124   0.400  1.00  0.00     0.032 C 
HETATM   24 CL1  UNL     1      -4.710  -0.356  -2.177  1.00  0.00    -0.120 Cl
ENDBRANCH  20  21
ENDBRANCH  19  20
ENDBRANCH  16  19
ENDBRANCH   1  14
TORSDOF 4
