REMARK  3 active torsions:
REMARK  status: ('A' for Active; 'I' for Inactive)
REMARK    1  A    between atoms: C5_10  and  O2_11 
REMARK    2  A    between atoms: O2_11  and  C6_12 
REMARK    3  A    between atoms: C13_22  and  C14_23 
ROOT
HETATM    1  C1  UNL     1      -4.811  -0.280   0.116  1.00  0.00     0.078 C 
HETATM    2  C2  UNL     1      -3.517   0.474   0.042  1.00  0.00     0.069 A 
HETATM    3  O1  UNL     1      -3.348   1.764  -0.078  1.00  0.00    -0.296 OA
HETATM    4  C3  UNL     1      -2.077   2.095  -0.112  1.00  0.00     0.164 A 
HETATM    5  N1  UNL     1      -1.422   3.271  -0.223  1.00  0.00    -0.332 N 
ATOM      6  H1  UNL     1      -1.952   4.139  -0.302  1.00  0.00     0.168 HD
HETATM    7  C4  UNL     1      -0.079   3.310  -0.230  1.00  0.00     0.184 A 
HETATM    8  N2  UNL     1       0.673   2.201  -0.129  1.00  0.00    -0.332 N 
ATOM      9  H2  UNL     1       1.691   2.265  -0.138  1.00  0.00     0.168 HD
HETATM   10  C5  UNL     1       0.064   1.002  -0.016  1.00  0.00     0.165 A 
HETATM   11  C12 UNL     1      -1.338   0.950  -0.008  1.00  0.00     0.086 A 
HETATM   12  C13 UNL     1      -2.253  -0.077   0.090  1.00  0.00     0.088 A 
ENDROOT
BRANCH  10  13
HETATM   13  O2  UNL     1       0.692  -0.204   0.094  1.00  0.00    -0.291 OA
BRANCH  13  14
HETATM   14  C6  UNL     1       2.036  -0.467   0.104  1.00  0.00     0.104 A 
HETATM   15  C7  UNL     1       2.593  -1.055   1.212  1.00  0.00     0.081 A 
HETATM   16  C8  UNL     1       3.923  -1.342   1.282  1.00  0.00     0.120 A 
HETATM   17  F1  UNL     1       4.409  -1.927   2.414  1.00  0.00    -0.206 F 
HETATM   18  C9  UNL     1       4.717  -1.031   0.210  1.00  0.00     0.068 A 
HETATM   19  C10 UNL     1       4.218  -0.436  -0.938  1.00  0.00     0.061 A 
HETATM   20 CL1  UNL     1       5.236  -0.043  -2.298  1.00  0.00    -0.082 Cl
HETATM   21  C11 UNL     1       2.845  -0.162  -0.959  1.00  0.00     0.089 A 
HETATM   22 CL2  UNL     1       2.227   0.578  -2.425  1.00  0.00    -0.080 Cl
ENDBRANCH  13  14
ENDBRANCH  10  13
BRANCH  12  23
HETATM   23  C14 UNL     1      -1.895  -1.484   0.219  1.00  0.00     0.213 C 
HETATM   24  O3  UNL     1      -1.746  -1.953   1.375  1.00  0.00    -0.644 OA
HETATM   25  O4  UNL     1      -1.714  -2.310  -0.859  1.00  0.00    -0.644 OA
ENDBRANCH  12  23
TORSDOF 3
