REMARK  4 active torsions:
REMARK  status: ('A' for Active; 'I' for Inactive)
REMARK    1  A    between atoms: C3_3  and  O1_4 
REMARK    2  A    between atoms: C5_9  and  C6_10 
REMARK    3  A    between atoms: N1_11  and  N2_13 
REMARK    4  A    between atoms: C7_15  and  C8_16 
ROOT
HETATM    1  C6  UNL     1       0.780  -0.997  -0.509  1.00  0.00     0.126 C 
HETATM    2  N1  UNL     1       0.076  -0.367   0.339  1.00  0.00    -0.311 N 
ATOM      3  H1  UNL     1       0.536   0.243   1.015  1.00  0.00     0.186 HD
ENDROOT
BRANCH   2   4
HETATM    4  N2  UNL     1      -1.312  -0.491   0.365  1.00  0.00    -0.311 N 
HETATM    5  C7  UNL     1      -2.057   0.572   0.299  1.00  0.00     0.120 C 
ATOM      6  H2  UNL     1      -1.742  -1.413   0.436  1.00  0.00     0.186 HD
BRANCH   5   7
HETATM    7  C8  UNL     1      -3.505   0.507   0.322  1.00  0.00     0.003 A 
HETATM    8  C9  UNL     1      -4.093  -0.751   0.419  1.00  0.00     0.016 A 
HETATM    9  C10 UNL     1      -5.472  -0.794   0.439  1.00  0.00     0.025 A 
HETATM   10  C11 UNL     1      -6.228   0.360   0.366  1.00  0.00     0.035 A 
HETATM   11 CL1  UNL     1      -7.972   0.225   0.398  1.00  0.00    -0.084 Cl
HETATM   12  C12 UNL     1      -5.619   1.590   0.271  1.00  0.00     0.048 A 
HETATM   13  C13 UNL     1      -4.239   1.648   0.250  1.00  0.00     0.047 A 
HETATM   14 CL2  UNL     1      -3.431   3.213   0.128  1.00  0.00    -0.083 Cl
ENDBRANCH   5   7
ENDBRANCH   2   4
BRANCH   1  15
HETATM   15  C5  UNL     1       2.232  -0.891  -0.564  1.00  0.00     0.079 A 
HETATM   16  C4  UNL     1       2.963  -1.575  -1.480  1.00  0.00     0.303 A 
HETATM   17  O2  UNL     1       4.274  -1.516  -1.574  1.00  0.00    -0.251 OA
HETATM   18  O3  UNL     1       2.329  -2.319  -2.298  1.00  0.00    -0.259 OA
HETATM   19  C3  UNL     1       4.965  -0.762  -0.752  1.00  0.00     0.194 A 
HETATM   20  C2  UNL     1       4.281  -0.037   0.208  1.00  0.00     0.019 A 
HETATM   21  C1  UNL     1       5.051   0.820   1.144  1.00  0.00     0.055 C 
HETATM   22  C14 UNL     1       2.906  -0.078   0.332  1.00  0.00     0.062 A 
HETATM   23 CL3  UNL     1       2.033   0.828   1.534  1.00  0.00    -0.082 Cl
BRANCH  19  24
HETATM   24  O1  UNL     1       6.348  -0.664  -0.808  1.00  0.00    -0.340 OA
ATOM     25  H1  UNL     1       6.818  -1.162  -1.467  1.00  0.00     0.220 HD
ENDBRANCH  19  24
ENDBRANCH   1  15
TORSDOF 4
