REMARK  5 active torsions:
REMARK  status: ('A' for Active; 'I' for Inactive)
REMARK    1  A    between atoms: O1_2  and  N1_3 
REMARK    2  A    between atoms: N1_3  and  O2_4 
REMARK    3  A    between atoms: N1_3  and  C2_6 
REMARK    4  A    between atoms: C4_9  and  N2_10 
REMARK       I    between atoms: N2_10  and  C5_12 
REMARK    5  A    between atoms: C5_12  and  C6_14 
ROOT
HETATM    1  N2  UNL     1      -0.449  -0.275  -1.077  1.00  0.00    -0.317 N 
ATOM      2  H2  UNL     1      -0.869  -0.780  -1.857  1.00  0.00     0.169 HD
HETATM    3  C5  UNL     1      -1.276   0.083  -0.012  1.00  0.00     0.260 C 
HETATM    4  O3  UNL     1      -0.814   0.736   0.998  1.00  0.00    -0.267 OA
ENDROOT
BRANCH   1   5
HETATM    5  C4  UNL     1       0.939   0.017  -1.147  1.00  0.00     0.079 A 
HETATM    6  S1  UNL     1       2.035  -0.385  -2.434  1.00  0.00    -0.082 SA
HETATM    7  C3  UNL     1       3.465   0.273  -1.800  1.00  0.00     0.086 A 
HETATM    8  C2  UNL     1       3.066   0.792  -0.601  1.00  0.00     0.097 A 
HETATM    9  C12 UNL     1       1.751   0.652  -0.273  1.00  0.00     0.072 A 
BRANCH   8  10
HETATM   10  N1  UNL     1       4.031   1.462   0.273  1.00  0.00    -0.127 N 
BRANCH  10  11
HETATM   11  O1  UNL     1       4.753   0.772   1.212  1.00  0.00    -0.258 OA
HETATM   12  C1  UNL     1       5.145  -0.544   0.846  1.00  0.00     0.240 C 
ENDBRANCH  10  11
BRANCH  10  13
HETATM   13  O2  UNL     1       4.222   2.685   0.184  1.00  0.00    -0.263 OA
ATOM     14  H2  UNL     1       3.722   3.163  -0.467  1.00  0.00     0.247 HD
ENDBRANCH  10  13
ENDBRANCH   8  10
ENDBRANCH   1   5
BRANCH   3  15
HETATM   15  C6  UNL     1      -2.712  -0.202   0.119  1.00  0.00     0.075 A 
HETATM   16  C7  UNL     1      -3.376  -1.229  -0.495  1.00  0.00     0.053 A 
HETATM   17 CL1  UNL     1      -2.548  -2.443  -1.436  1.00  0.00    -0.083 Cl
HETATM   18  C8  UNL     1      -4.762  -1.394  -0.363  1.00  0.00     0.048 A 
HETATM   19  C9  UNL     1      -5.462  -0.501   0.403  1.00  0.00     0.037 A 
HETATM   20 CL2  UNL     1      -7.192  -0.710   0.566  1.00  0.00    -0.084 Cl
HETATM   21  C10 UNL     1      -4.852   0.551   1.047  1.00  0.00     0.048 A 
HETATM   22  C11 UNL     1      -3.493   0.672   0.888  1.00  0.00     0.053 A 
HETATM   23 CL3  UNL     1      -2.688   2.015   1.700  1.00  0.00    -0.083 Cl
ENDBRANCH   3  15
TORSDOF 5
