REMARK  4 active torsions:
REMARK  status: ('A' for Active; 'I' for Inactive)
REMARK    1  A    between atoms: C2_2  and  N2_6 
REMARK    2  A    between atoms: C5_9  and  N3_10 
REMARK       I    between atoms: N3_10  and  C6_12 
REMARK    3  A    between atoms: C6_12  and  C7_14 
REMARK       I    between atoms: C7_14  and  N4_16 
REMARK    4  A    between atoms: N4_16  and  N5_18 
ROOT
HETATM    1  N3  UNL     1      -0.544  -0.434  -0.269  1.00  0.00    -0.348 N 
ATOM      2  H3  UNL     1      -0.739  -0.685  -1.238  1.00  0.00     0.163 HD
HETATM    3  C6  UNL     1      -1.584  -0.596   0.670  1.00  0.00     0.311 C 
HETATM    4  O1  UNL     1      -1.375  -0.296   1.871  1.00  0.00    -0.262 OA
ENDROOT
BRANCH   1   5
HETATM    5  C5  UNL     1       0.764   0.057   0.038  1.00  0.00     0.087 C 
HETATM    6  C4  UNL     1       1.816  -0.973  -0.208  1.00  0.00     0.045 C 
HETATM    7  C3  UNL     1       3.105  -0.345  -0.702  1.00  0.00     0.126 C 
HETATM    8  N2  UNL     1       3.324   0.844   0.094  1.00  0.00    -0.371 N 
HETATM    9  C10 UNL     1       2.350   1.909  -0.015  1.00  0.00     0.126 C 
HETATM   10  C9  UNL     1       1.069   1.376  -0.634  1.00  0.00     0.045 C 
BRANCH   8  11
HETATM   11  C2  UNL     1       4.466   0.913   0.932  1.00  0.00     0.068 C 
HETATM   12  C1  UNL     1       5.793   0.521   0.434  1.00  0.00     0.088 C 
HETATM   13  N1  UNL     1       4.319   1.323   2.127  1.00  0.00    -0.389 N 
ATOM     14  H12 UNL     1       5.140   1.373   2.730  1.00  0.00     0.157 HD
ATOM     15  H11 UNL     1       3.399   1.595   2.472  1.00  0.00     0.157 HD
ENDBRANCH   8  11
ENDBRANCH   1   5
BRANCH   3  16
HETATM   16  C7  UNL     1      -2.886  -1.099   0.293  1.00  0.00     0.327 C 
HETATM   17  O2  UNL     1      -3.089  -1.397  -0.907  1.00  0.00    -0.261 OA
HETATM   18  N4  UNL     1      -3.919  -1.257   1.246  1.00  0.00    -0.260 N 
ATOM     19  H4  UNL     1      -3.725  -1.007   2.216  1.00  0.00     0.190 HD
BRANCH  18  20
HETATM   20  N5  UNL     1      -5.187  -1.737   0.928  1.00  0.00    -0.273 N 
HETATM   21  C8  UNL     1      -5.979  -1.030   0.207  1.00  0.00     0.215 C 
HETATM   22  N6  UNL     1      -5.540   0.237  -0.252  1.00  0.00    -0.065 NA
HETATM   23  N7  UNL     1      -7.282  -1.473  -0.146  1.00  0.00    -0.065 NA
ATOM     24  H5  UNL     1      -5.486  -2.651   1.268  1.00  0.00     0.189 HD
ENDBRANCH  18  20
ENDBRANCH   3  16
TORSDOF 4
