REMARK  3 active torsions:
REMARK  status: ('A' for Active; 'I' for Inactive)
REMARK    1  A    between atoms: C4_4  and  C5_5 
REMARK    2  A    between atoms: C5_5  and  C6_6 
REMARK    3  A    between atoms: C6_6  and  C7_7 
ROOT
HETATM    1  C7  UNL     1       0.985  -0.198  -0.802  1.00  0.00     0.127 C 
HETATM    2  C8  UNL     1       1.439  -1.481  -1.438  1.00  0.00     0.046 C 
HETATM    3  N1  UNL     1       0.324   0.586  -1.827  1.00  0.00    -0.066 N 
ATOM      4  H11 UNL     1      -0.032   0.011  -2.591  1.00  0.00     0.278 HD
ATOM      5  H12 UNL     1       0.977   1.151  -2.370  1.00  0.00     0.278 HD
HETATM    6  C9  UNL     1      -0.697   1.370  -1.210  1.00  0.00     0.243 C 
HETATM    7  C10 UNL     1      -0.928   0.856   0.178  1.00  0.00    -0.010 C 
HETATM    8  C11 UNL     1      -0.353   1.898   1.152  1.00  0.00     0.018 C 
HETATM    9  C12 UNL     1      -0.066  -0.360   0.237  1.00  0.00     0.031 C 
HETATM   10  C13 UNL     1      -0.757  -1.660   0.065  1.00  0.00     0.009 C 
HETATM   11  C14 UNL     1      -2.135  -1.743   0.651  1.00  0.00     0.010 C 
HETATM   12  C15 UNL     1      -2.953  -0.641   0.089  1.00  0.00    -0.036 C 
HETATM   13  C16 UNL     1      -3.193  -0.709  -1.376  1.00  0.00     0.016 C 
HETATM   14  C17 UNL     1      -4.322  -0.491   0.748  1.00  0.00    -0.010 C 
HETATM   15  C18 UNL     1      -5.349  -1.387   0.107  1.00  0.00     0.011 C 
HETATM   16  C19 UNL     1      -4.651   0.967   0.450  1.00  0.00     0.005 C 
HETATM   17  C20 UNL     1      -3.316   1.650   0.138  1.00  0.00     0.006 C 
HETATM   18  C21 UNL     1      -2.332   0.647   0.560  1.00  0.00     0.004 C 
ENDROOT
BRANCH   1  19
HETATM   19  C6  UNL     1       2.198   0.562  -0.379  1.00  0.00     0.042 C 
BRANCH  19  20
HETATM   20  C5  UNL     1       3.061  -0.175   0.616  1.00  0.00     0.030 C 
BRANCH  20  21
HETATM   21  C4  UNL     1       4.223   0.698   0.943  1.00  0.00    -0.025 C 
HETATM   22  C2  UNL     1       5.474   0.318   0.713  1.00  0.00    -0.091 C 
HETATM   23  C1  UNL     1       6.631   1.194   1.041  1.00  0.00     0.042 C 
HETATM   24  C3  UNL     1       5.790  -1.018   0.108  1.00  0.00     0.042 C 
ENDBRANCH  20  21
ENDBRANCH  19  20
ENDBRANCH   1  19
TORSDOF 3
