REMARK  3 active torsions:
REMARK  status: ('A' for Active; 'I' for Inactive)
REMARK    1  A    between atoms: C2_2  and  C3_3 
REMARK    2  A    between atoms: C3_3  and  C4_4 
REMARK    3  A    between atoms: C9_9  and  N1_10 
ROOT
HETATM    1  C4  UNL     1      -2.496  -0.149  -0.189  1.00  0.00    -0.038 C 
HETATM    2  C5  UNL     1      -3.348   0.131   0.979  1.00  0.00     0.015 C 
HETATM    3  C6  UNL     1      -2.928  -1.504  -0.747  1.00  0.00     0.010 C 
HETATM    4  C7  UNL     1      -2.809  -2.555   0.300  1.00  0.00     0.003 C 
HETATM    5  C8  UNL     1      -1.605  -2.460   1.152  1.00  0.00     0.039 C 
HETATM    6  C9  UNL     1      -0.514  -1.579   0.521  1.00  0.00     0.128 C 
HETATM    7  C10 UNL     1       0.602  -1.592   1.519  1.00  0.00     0.039 C 
HETATM    8  C11 UNL     1       1.922  -1.119   1.188  1.00  0.00     0.008 C 
HETATM    9  C12 UNL     1       2.204  -0.224   0.049  1.00  0.00    -0.006 C 
HETATM   10  C13 UNL     1       1.585   1.130   0.051  1.00  0.00    -0.010 C 
HETATM   11  C14 UNL     1       2.609   2.278   0.127  1.00  0.00     0.005 C 
HETATM   12  C15 UNL     1       3.702   2.193  -0.882  1.00  0.00     0.006 C 
HETATM   13  C16 UNL     1       3.827   0.798  -1.339  1.00  0.00    -0.006 A 
HETATM   14  C17 UNL     1       4.661  -0.281  -0.967  1.00  0.00    -0.009 A 
HETATM   15  C18 UNL     1       6.118   0.033  -0.618  1.00  0.00     0.011 C 
HETATM   16  C19 UNL     1       3.683   0.007  -0.003  1.00  0.00    -0.002 A 
HETATM   17  C20 UNL     1       0.665   1.396   1.197  1.00  0.00     0.005 C 
HETATM   18  C21 UNL     1      -0.695   0.856   1.138  1.00  0.00     0.008 C 
HETATM   19  C22 UNL     1      -0.996  -0.222   0.146  1.00  0.00     0.029 C 
ENDROOT
BRANCH   1  20
HETATM   20  C3  UNL     1      -2.671   0.897  -1.248  1.00  0.00     0.009 C 
BRANCH  20  21
HETATM   21  C2  UNL     1      -3.985   1.093  -1.874  1.00  0.00    -0.004 C 
HETATM   22  C1  UNL     1      -5.135   1.528  -1.023  1.00  0.00     0.005 C 
ENDBRANCH  20  21
ENDBRANCH   1  20
BRANCH   6  23
HETATM   23  N1  UNL     1      -0.193  -2.306  -0.693  1.00  0.00    -0.070 N 
ATOM     24  H13 UNL     1       0.070  -3.282  -0.553  1.00  0.00     0.275 HD
ATOM     25  H12 UNL     1      -0.989  -2.504  -1.299  1.00  0.00     0.275 HD
ATOM     26  H11 UNL     1       0.531  -1.722  -1.112  1.00  0.00     0.275 HD
ENDBRANCH   6  23
TORSDOF 3
