REMARK  4 active torsions:
REMARK  status: ('A' for Active; 'I' for Inactive)
REMARK    1  A    between atoms: C7_7  and  C8_8 
REMARK    2  A    between atoms: C8_8  and  O1_9 
REMARK    3  A    between atoms: C8_8  and  C9_11 
REMARK    4  A    between atoms: C9_11  and  C10_12 
ROOT
HETATM    1  C1  UNL     1      -4.408   0.298   1.429  1.00  0.00     0.015 C 
HETATM    2  C2  UNL     1      -3.519   0.977   0.418  1.00  0.00    -0.040 A 
HETATM    3  C3  UNL     1      -3.215   2.387   0.877  1.00  0.00     0.010 A 
HETATM    4  C4  UNL     1      -1.754   2.064   0.861  1.00  0.00     0.006 A 
HETATM    5  C5  UNL     1      -2.040   0.608   0.525  1.00  0.00    -0.001 A 
HETATM    6  C6  UNL     1      -1.556   0.267  -0.817  1.00  0.00     0.011 C 
HETATM    7  C7  UNL     1      -0.143   0.043  -1.069  1.00  0.00     0.025 C 
HETATM    8  C16 UNL     1      -0.127  -1.058  -2.140  1.00  0.00     0.060 C 
HETATM    9  C17 UNL     1      -1.534  -1.249  -2.549  1.00  0.00    -0.011 C 
HETATM   10  N1  UNL     1      -1.943  -1.609  -3.673  1.00  0.00    -0.405 N 
ATOM     11  H11 UNL     1      -2.914  -1.741  -3.955  1.00  0.00     0.155 HD
ATOM     12  H12 UNL     1      -1.381  -1.831  -4.495  1.00  0.00     0.155 HD
HETATM   13  C18 UNL     1      -2.348  -0.928  -1.358  1.00  0.00    -0.001 C 
HETATM   14  C19 UNL     1      -2.344  -2.113  -0.459  1.00  0.00     0.022 C 
HETATM   15  C20 UNL     1      -3.731  -0.429  -1.671  1.00  0.00     0.016 C 
HETATM   16  C21 UNL     1      -4.057   0.850  -0.961  1.00  0.00     0.010 C 
ENDROOT
BRANCH   7  17
HETATM   17  C8  UNL     1       0.765  -0.326   0.021  1.00  0.00     0.123 C 
BRANCH  17  18
HETATM   18  O1  UNL     1       0.529  -1.467   0.711  1.00  0.00    -0.395 OA
ATOM     19  H1  UNL     1       1.117  -1.706   1.417  1.00  0.00     0.210 HD
ENDBRANCH  17  18
BRANCH  17  20
HETATM   20  C9  UNL     1       2.177  -0.463  -0.567  1.00  0.00     0.036 C 
BRANCH  20  21
HETATM   21  C10 UNL     1       3.155  -0.849   0.544  1.00  0.00    -0.012 C 
HETATM   22  C11 UNL     1       4.529  -0.983  -0.025  1.00  0.00     0.005 C 
HETATM   23  C12 UNL     1       5.240   0.352  -0.174  1.00  0.00     0.000 C 
HETATM   24  C13 UNL     1       5.368   1.080   1.137  1.00  0.00     0.000 C 
HETATM   25  C14 UNL     1       4.492   0.458   2.210  1.00  0.00     0.000 C 
HETATM   26  C15 UNL     1       3.125   0.250   1.587  1.00  0.00     0.005 C 
ENDBRANCH  20  21
ENDBRANCH  17  20
ENDBRANCH   7  17
TORSDOF 4
