REMARK  9 active torsions:
REMARK  status: ('A' for Active; 'I' for Inactive)
REMARK    1  A    between atoms: C3_3  and  C4_4 
REMARK    2  A    between atoms: C4_4  and  C5_5 
REMARK    3  A    between atoms: C4_4  and  C7_9 
REMARK    4  A    between atoms: C5_5  and  O2_7 
REMARK    5  A    between atoms: C7_9  and  O3_10 
REMARK    6  A    between atoms: C7_9  and  O4_12 
REMARK    7  A    between atoms: O4_12  and  C8_13 
REMARK    8  A    between atoms: C10_15  and  C11_16 
REMARK    9  A    between atoms: C19_27  and  N1_28 
ROOT
HETATM    1  C8  UNL     1      -0.039  -0.281  -1.127  1.00  0.00     0.174 C 
HETATM    2  C9  UNL     1       1.198   0.055  -0.356  1.00  0.00     0.044 C 
HETATM    3  C10 UNL     1       2.358  -0.048  -0.997  1.00  0.00     0.077 C 
HETATM    4  O7  UNL     1       2.278  -0.459  -2.315  1.00  0.00    -0.348 OA
HETATM    5  C18 UNL     1       1.442  -1.537  -2.689  1.00  0.00     0.203 C 
HETATM    6  C19 UNL     1       0.157  -1.563  -1.900  1.00  0.00     0.135 C 
ENDROOT
BRANCH   1   7
HETATM    7  O4  UNL     1      -1.103  -0.264  -0.274  1.00  0.00    -0.349 OA
BRANCH   7   8
HETATM    8  C7  UNL     1      -1.943   0.783  -0.575  1.00  0.00     0.274 C 
BRANCH   8   9
HETATM    9  C4  UNL     1      -3.387   0.349  -0.803  1.00  0.00     0.163 C 
BRANCH   9  10
HETATM   10  C3  UNL     1      -4.146   1.578  -1.131  1.00  0.00    -0.012 C 
HETATM   11  C2  UNL     1      -5.171   2.062  -0.469  1.00  0.00    -0.034 C 
HETATM   12  C1  UNL     1      -5.826   3.332  -0.947  1.00  0.00     0.036 C 
ENDBRANCH   9  10
BRANCH   9  13
HETATM   13  C5  UNL     1      -3.906  -0.240   0.474  1.00  0.00     0.271 C 
HETATM   14  O1  UNL     1      -4.439  -1.361   0.415  1.00  0.00    -0.264 OA
BRANCH  13  15
HETATM   15  O2  UNL     1      -3.823   0.389   1.688  1.00  0.00    -0.326 OA
HETATM   16  C6  UNL     1      -4.328  -0.196   2.894  1.00  0.00     0.213 C 
ENDBRANCH  13  15
ENDBRANCH   9  13
ENDBRANCH   8   9
BRANCH   8  17
HETATM   17  O3  UNL     1      -2.008   1.697   0.505  1.00  0.00    -0.370 OA
ATOM     18  H3  UNL     1      -1.108   1.967   0.647  1.00  0.00     0.212 HD
ENDBRANCH   8  17
ENDBRANCH   7   8
ENDBRANCH   1   7
BRANCH   6  19
HETATM   19  N1  UNL     1      -0.039  -2.725  -1.137  1.00  0.00    -0.412 N 
HETATM   20  C20 UNL     1      -1.328  -2.975  -0.600  1.00  0.00     0.143 C 
HETATM   21  C21 UNL     1       0.997  -3.179  -0.286  1.00  0.00     0.143 C 
ENDBRANCH   6  19
BRANCH   3  22
HETATM   22  C11 UNL     1       3.644   0.260  -0.335  1.00  0.00    -0.000 A 
HETATM   23  C12 UNL     1       4.791   0.133  -1.105  1.00  0.00     0.017 A 
HETATM   24  C13 UNL     1       6.030   0.405  -0.561  1.00  0.00     0.040 A 
HETATM   25  C14 UNL     1       6.152   0.806   0.752  1.00  0.00     0.105 A 
HETATM   26  C15 UNL     1       5.011   0.932   1.518  1.00  0.00     0.105 A 
HETATM   27  O6  UNL     1       7.288   1.132   1.512  1.00  0.00    -0.323 OA
HETATM   28  C16 UNL     1       3.753   0.656   0.965  1.00  0.00     0.054 A 
HETATM   29  O5  UNL     1       5.431   1.343   2.777  1.00  0.00    -0.323 OA
HETATM   30  C17 UNL     1       6.801   1.746   2.703  1.00  0.00     0.352 C 
ENDBRANCH   3  22
TORSDOF 9
