REMARK  9 active torsions:
REMARK  status: ('A' for Active; 'I' for Inactive)
REMARK    1  A    between atoms: C2_2  and  O2_4 
REMARK    2  A    between atoms: O2_4  and  C3_5 
REMARK    3  A    between atoms: C6_8  and  O3_9 
REMARK    4  A    between atoms: O3_9  and  C7_10 
REMARK    5  A    between atoms: C7_10  and  C8_11 
REMARK    6  A    between atoms: C14_17  and  C15_18 
REMARK    7  A    between atoms: C15_18  and  O4_20 
REMARK    8  A    between atoms: C17_22  and  O5_24 
REMARK    9  A    between atoms: O5_24  and  C19_25 
ROOT
HETATM    1  C3  UNL     1      -1.820   2.563   0.013  1.00  0.00     0.270 C 
HETATM    2  C4  UNL     1      -0.435   2.226   0.461  1.00  0.00     0.071 C 
HETATM    3  C5  UNL     1      -0.189   0.963  -0.349  1.00  0.00     0.052 C 
HETATM    4  C6  UNL     1       0.348  -0.175   0.483  1.00  0.00     0.138 C 
HETATM    5  C14 UNL     1      -0.552  -1.348   0.266  1.00  0.00     0.081 C 
HETATM    6  C17 UNL     1      -1.693  -0.924  -0.554  1.00  0.00     0.102 C 
HETATM    7  C18 UNL     1      -3.058  -1.185   0.071  1.00  0.00     0.050 C 
HETATM    8  C21 UNL     1      -1.568   0.567  -0.718  1.00  0.00     0.166 C 
HETATM    9  O7  UNL     1      -2.446   1.309   0.078  1.00  0.00    -0.352 OA
ENDROOT
BRANCH   4  10
HETATM   10  O3  UNL     1       1.650  -0.455   0.063  1.00  0.00    -0.380 OA
BRANCH  10  11
HETATM   11  C7  UNL     1       2.624  -0.149   0.972  1.00  0.00     0.206 C 
BRANCH  11  12
HETATM   12  C8  UNL     1       3.945  -0.513   0.356  1.00  0.00    -0.035 A 
HETATM   13  C9  UNL     1       4.673   0.386  -0.398  1.00  0.00     0.009 A 
HETATM   14  C10 UNL     1       5.882   0.019  -0.949  1.00  0.00     0.001 A 
HETATM   15  C11 UNL     1       6.411  -1.241  -0.777  1.00  0.00     0.000 A 
HETATM   16  C12 UNL     1       5.685  -2.138  -0.025  1.00  0.00     0.001 A 
HETATM   17  C13 UNL     1       4.486  -1.774   0.522  1.00  0.00     0.009 A 
ENDBRANCH  11  12
ENDBRANCH  10  11
ENDBRANCH   4  10
BRANCH   5  18
HETATM   18  C15 UNL     1      -0.871  -1.982   1.582  1.00  0.00     0.123 C 
HETATM   19  C16 UNL     1      -1.561  -1.097   2.579  1.00  0.00     0.040 C 
BRANCH  18  20
HETATM   20  O4  UNL     1       0.318  -2.424   2.156  1.00  0.00    -0.395 OA
ATOM     21  H4  UNL     1       0.115  -2.827   2.992  1.00  0.00     0.210 HD
ENDBRANCH  18  20
ENDBRANCH   5  18
BRANCH   6  22
HETATM   22  O5  UNL     1      -1.747  -1.439  -1.862  1.00  0.00    -0.307 OA
BRANCH  22  23
HETATM   23  C19 UNL     1      -1.815  -2.747  -2.231  1.00  0.00     0.255 C 
HETATM   24  C20 UNL     1      -1.867  -3.163  -3.652  1.00  0.00     0.126 C 
HETATM   25  O6  UNL     1      -1.831  -3.554  -1.294  1.00  0.00    -0.266 OA
ENDBRANCH  22  23
ENDBRANCH   6  22
BRANCH   1  26
HETATM   26  O2  UNL     1      -2.473   3.571   0.662  1.00  0.00    -0.290 OA
BRANCH  26  27
HETATM   27  C2  UNL     1      -2.962   4.686   0.041  1.00  0.00     0.257 C 
HETATM   28  C1  UNL     1      -3.672   5.798   0.702  1.00  0.00     0.126 C 
HETATM   29  O1  UNL     1      -2.778   4.741  -1.195  1.00  0.00    -0.266 OA
ENDBRANCH  26  27
ENDBRANCH   1  26
TORSDOF 9
