REMARK  9 active torsions:
REMARK  status: ('A' for Active; 'I' for Inactive)
REMARK    1  A    between atoms: C6_7  and  O2_8 
REMARK    2  A    between atoms: C7_10  and  O3_11 
REMARK    3  A    between atoms: O3_11  and  C8_12 
REMARK    4  A    between atoms: C8_12  and  C9_14 
REMARK    5  A    between atoms: C10_15  and  C11_16 
REMARK    6  A    between atoms: C18_24  and  C19_25 
REMARK    7  A    between atoms: C19_25  and  C20_26 
REMARK    8  A    between atoms: C20_26  and  O7_28 
REMARK    9  A    between atoms: O7_28  and  O8_29 
ROOT
HETATM    1  C1  UNL     1      -1.419   2.160  -0.666  1.00  0.00     0.078 C 
HETATM    2  C2  UNL     1      -2.478   1.380   0.126  1.00  0.00     0.158 C 
HETATM    3  C3  UNL     1      -3.481   2.469   0.567  1.00  0.00     0.078 C 
HETATM    4  O1  UNL     1      -1.956   0.897   1.309  1.00  0.00    -0.355 OA
HETATM    5  C4  UNL     1      -1.236  -0.254   1.186  1.00  0.00     0.182 C 
HETATM    6  C5  UNL     1      -1.860  -1.283   0.290  1.00  0.00     0.080 C 
HETATM    7  C6  UNL     1      -0.677  -2.105  -0.242  1.00  0.00     0.183 C 
HETATM    8  C7  UNL     1       0.010  -1.468  -1.387  1.00  0.00     0.298 C 
HETATM    9  O5  UNL     1      -0.735  -0.563  -2.102  1.00  0.00    -0.355 OA
HETATM   10  C17 UNL     1      -2.086  -0.851  -2.150  1.00  0.00     0.210 C 
HETATM   11  C18 UNL     1      -2.755  -0.778  -0.767  1.00  0.00     0.103 C 
HETATM   12  O9  UNL     1      -3.197   0.514  -0.623  1.00  0.00    -0.342 OA
ENDROOT
BRANCH   8  13
HETATM   13  O3  UNL     1       1.206  -0.866  -0.928  1.00  0.00    -0.284 OA
BRANCH  13  14
HETATM   14  C8  UNL     1       2.471  -1.261  -1.351  1.00  0.00     0.285 C 
HETATM   15  O4  UNL     1       2.532  -2.191  -2.172  1.00  0.00    -0.260 OA
BRANCH  14  16
HETATM   16  C9  UNL     1       3.681  -0.605  -0.848  1.00  0.00     0.083 C 
HETATM   17  C10 UNL     1       3.608   0.372   0.015  1.00  0.00     0.017 C 
BRANCH  17  18
HETATM   18  C11 UNL     1       4.789   1.033   0.524  1.00  0.00    -0.036 A 
HETATM   19  C12 UNL     1       6.071   0.701   0.159  1.00  0.00     0.011 A 
HETATM   20  C13 UNL     1       7.166   1.389   0.695  1.00  0.00     0.001 A 
HETATM   21  C14 UNL     1       6.931   2.402   1.595  1.00  0.00     0.000 A 
HETATM   22  C15 UNL     1       5.669   2.766   1.987  1.00  0.00     0.001 A 
HETATM   23  C16 UNL     1       4.611   2.075   1.446  1.00  0.00     0.011 A 
ENDBRANCH  17  18
ENDBRANCH  14  16
ENDBRANCH  13  14
ENDBRANCH   8  13
BRANCH   7  24
HETATM   24  O2  UNL     1       0.182  -2.442   0.808  1.00  0.00    -0.390 OA
ATOM     25  H2  UNL     1       0.914  -2.951   0.479  1.00  0.00     0.210 HD
ENDBRANCH   7  24
BRANCH  11  26
HETATM   26  C19 UNL     1      -4.003  -1.619  -0.918  1.00  0.00     0.154 C 
BRANCH  26  27
HETATM   27  C20 UNL     1      -4.864  -1.698   0.250  1.00  0.00     0.291 C 
HETATM   28  O6  UNL     1      -4.669  -1.100   1.306  1.00  0.00    -0.263 OA
BRANCH  27  29
HETATM   29  O7  UNL     1      -6.000  -2.528   0.142  1.00  0.00    -0.161 OA
BRANCH  29  30
HETATM   30  O8  UNL     1      -6.826  -2.631   1.201  1.00  0.00    -0.242 OA
ATOM     31  H8  UNL     1      -7.591  -3.190   1.128  1.00  0.00     0.254 HD
ENDBRANCH  29  30
ENDBRANCH  27  29
ENDBRANCH  26  27
ENDBRANCH  11  26
TORSDOF 9
