REMARK  13 active torsions:
REMARK  status: ('A' for Active; 'I' for Inactive)
REMARK    1  A    between atoms: N1_1  and  C1_5 
REMARK    2  A    between atoms: C1_5  and  C2_6 
REMARK    3  A    between atoms: C2_6  and  C3_7 
REMARK    4  A    between atoms: C3_7  and  C4_8 
REMARK    5  A    between atoms: N2_9  and  C5_11 
REMARK    6  A    between atoms: C5_11  and  C6_12 
REMARK    7  A    between atoms: C5_11  and  N5_32 
REMARK    8  A    between atoms: C6_12  and  N3_13 
REMARK    9  A    between atoms: C10_17  and  N4_18 
REMARK       I    between atoms: N4_18  and  C11_20 
REMARK   10  A    between atoms: C11_20  and  C12_22 
REMARK   11  A    between atoms: C12_22  and  C13_23 
REMARK   12  A    between atoms: N5_32  and  C20_34 
REMARK   13  A    between atoms: C20_34  and  C21_35 
ROOT
HETATM    1  C5  UNL     1      -2.769   1.289  -0.180  1.00  0.00     0.220 C 
ENDROOT
BRANCH   1   2
HETATM    2  N2  UNL     1      -3.582   2.107   0.644  1.00  0.00    -0.378 N 
HETATM    3  C4  UNL     1      -4.086   3.347   0.387  1.00  0.00     0.058 C 
ATOM      4  H2  UNL     1      -3.823   1.714   1.554  1.00  0.00     0.161 HD
BRANCH   3   5
HETATM    5  C3  UNL     1      -3.176   4.513   0.464  1.00  0.00     0.046 C 
BRANCH   5   6
HETATM    6  C2  UNL     1      -3.892   5.836   0.140  1.00  0.00     0.032 C 
BRANCH   6   7
HETATM    7  C1  UNL     1      -4.995   6.045   1.125  1.00  0.00     0.230 C 
BRANCH   7   8
HETATM    8  N1  UNL     1      -5.643   7.320   0.801  1.00  0.00    -0.079 N 
ATOM      9  H13 UNL     1      -4.988   8.101   0.767  1.00  0.00     0.274 HD
ATOM     10  H12 UNL     1      -5.961   7.369  -0.167  1.00  0.00     0.274 HD
ATOM     11  H11 UNL     1      -6.396   7.463   1.474  1.00  0.00     0.274 HD
ENDBRANCH   7   8
ENDBRANCH   6   7
ENDBRANCH   5   6
ENDBRANCH   3   5
ENDBRANCH   1   2
BRANCH   1  12
HETATM   12  C6  UNL     1      -1.495   1.869  -0.536  1.00  0.00     0.113 C 
BRANCH  12  13
HETATM   13  N3  UNL     1      -0.470   1.235  -1.274  1.00  0.00    -0.326 N 
HETATM   14  C7  UNL     1      -0.359   1.225  -2.718  1.00  0.00     0.131 C 
HETATM   15  C8  UNL     1       0.288  -0.002  -3.248  1.00  0.00     0.023 C 
HETATM   16  C9  UNL     1       1.431  -0.551  -2.491  1.00  0.00     0.036 C 
HETATM   17  C10 UNL     1       1.834   0.254  -1.284  1.00  0.00     0.177 C 
HETATM   18  C19 UNL     1       0.584   0.566  -0.544  1.00  0.00     0.246 C 
HETATM   19  O2  UNL     1       0.418   0.276   0.667  1.00  0.00    -0.271 OA
BRANCH  17  20
HETATM   20  N4  UNL     1       2.737  -0.585  -0.507  1.00  0.00    -0.347 N 
HETATM   21  C11 UNL     1       4.101  -0.257  -0.311  1.00  0.00     0.228 C 
HETATM   22  O1  UNL     1       4.520   0.801  -0.839  1.00  0.00    -0.273 OA
ATOM     23  H4  UNL     1       2.373  -1.441  -0.088  1.00  0.00     0.163 HD
BRANCH  21  24
HETATM   24  C12 UNL     1       5.034  -1.093   0.473  1.00  0.00     0.050 C 
HETATM   25  C14 UNL     1       5.077  -2.513  -0.048  1.00  0.00     0.020 C 
HETATM   26  C15 UNL     1       6.191  -2.734  -1.041  1.00  0.00     0.001 C 
HETATM   27  C16 UNL     1       7.552  -2.530  -0.412  1.00  0.00     0.000 C 
HETATM   28  C17 UNL     1       7.417  -1.605   0.791  1.00  0.00     0.001 C 
HETATM   29  C18 UNL     1       6.429  -0.533   0.439  1.00  0.00     0.020 C 
BRANCH  24  30
HETATM   30  C13 UNL     1       4.559  -1.208   1.929  1.00  0.00     0.105 C 
HETATM   31  S1  UNL     1       4.472   0.423   2.696  1.00  0.00    -0.096 SA
ENDBRANCH  24  30
ENDBRANCH  21  24
ENDBRANCH  17  20
ENDBRANCH  12  13
ENDBRANCH   1  12
BRANCH   1  32
HETATM   32  N5  UNL     1      -2.879  -0.051   0.310  1.00  0.00    -0.377 N 
ATOM     33  H5  UNL     1      -3.096  -0.237   1.289  1.00  0.00     0.161 HD
BRANCH  32  34
HETATM   34  C20 UNL     1      -2.682  -1.084  -0.586  1.00  0.00     0.062 C 
BRANCH  34  35
HETATM   35  C21 UNL     1      -2.817  -2.478   0.016  1.00  0.00     0.024 C 
HETATM   36  C22 UNL     1      -1.842  -2.725   1.115  1.00  0.00     0.010 C 
HETATM   37  C23 UNL     1      -1.962  -4.157   1.585  1.00  0.00     0.001 C 
HETATM   38  C24 UNL     1      -3.320  -4.761   1.322  1.00  0.00     0.000 C 
HETATM   39  C25 UNL     1      -4.403  -3.747   1.500  1.00  0.00     0.001 C 
HETATM   40  C26 UNL     1      -4.212  -2.626   0.525  1.00  0.00     0.010 C 
ENDBRANCH  34  35
ENDBRANCH  32  34
ENDBRANCH   1  32
TORSDOF 13
