REMARK  12 active torsions:
REMARK  status: ('A' for Active; 'I' for Inactive)
REMARK       I    between atoms: N1_2  and  C2_4 
REMARK    1  A    between atoms: C2_4  and  C3_6 
REMARK    2  A    between atoms: C3_6  and  C4_7 
REMARK    3  A    between atoms: C3_6  and  C9_14 
REMARK    4  A    between atoms: C4_7  and  C5_8 
REMARK       I    between atoms: C5_8  and  N2_10 
REMARK    5  A    between atoms: N2_10  and  C6_11 
REMARK    6  A    between atoms: C9_14  and  C10_15 
REMARK    7  A    between atoms: C14_19  and  C15_20 
REMARK    8  A    between atoms: C15_20  and  C16_21 
REMARK    9  A    between atoms: C16_21  and  N3_22 
REMARK   10  A    between atoms: N3_22  and  C17_25 
REMARK   11  A    between atoms: C17_25  and  C18_26 
REMARK   12  A    between atoms: C23_34  and  N5_35 
ROOT
HETATM    1  C10 UNL     1      -2.163  -0.465  -0.535  1.00  0.00    -0.013 C 
HETATM    2  C11 UNL     1      -1.408   0.767  -0.989  1.00  0.00     0.009 C 
HETATM    3  C12 UNL     1       0.009   0.521  -1.395  1.00  0.00    -0.012 C 
HETATM    4  C13 UNL     1       1.083   1.074  -0.512  1.00  0.00     0.018 C 
HETATM    5  C14 UNL     1       1.834   0.129   0.331  1.00  0.00    -0.018 C 
HETATM    6  C22 UNL     1       2.557  -0.996  -0.222  1.00  0.00     0.007 C 
HETATM    7  C23 UNL     1       2.155  -2.261  -0.342  1.00  0.00     0.002 C 
HETATM    8  C25 UNL     1       0.740  -2.701   0.076  1.00  0.00     0.066 C 
HETATM    9  C26 UNL     1       0.020  -1.392   0.023  1.00  0.00    -0.034 C 
HETATM   10  C27 UNL     1      -1.443  -1.391   0.335  1.00  0.00     0.014 C 
HETATM   11  C28 UNL     1       0.151  -0.957  -1.398  1.00  0.00     0.014 C 
HETATM   12  C29 UNL     1       0.664  -0.590   1.089  1.00  0.00     0.023 C 
ENDROOT
BRANCH   1  13
HETATM   13  C9  UNL     1      -3.511   0.022  -0.072  1.00  0.00     0.019 C 
BRANCH  13  14
HETATM   14  C3  UNL     1      -4.456  -0.988   0.454  1.00  0.00     0.088 C 
BRANCH  14  15
HETATM   15  C2  UNL     1      -4.831  -2.100  -0.412  1.00  0.00     0.222 C 
HETATM   16  N1  UNL     1      -5.728  -2.032  -1.500  1.00  0.00    -0.365 N 
HETATM   17  C1  UNL     1      -6.086  -3.168  -2.368  1.00  0.00     0.149 C 
ATOM     18  H1  UNL     1      -6.160  -1.130  -1.700  1.00  0.00     0.161 HD
HETATM   19  O1  UNL     1      -4.336  -3.259  -0.231  1.00  0.00    -0.273 OA
ENDBRANCH  14  15
BRANCH  14  20
HETATM   20  C4  UNL     1      -5.752  -0.346   0.831  1.00  0.00     0.133 C 
BRANCH  20  21
HETATM   21  C5  UNL     1      -5.681   0.843   1.785  1.00  0.00     0.287 C 
HETATM   22  O2  UNL     1      -4.615   0.734   2.519  1.00  0.00    -0.258 OA
HETATM   23  N2  UNL     1      -6.551   1.816   1.864  1.00  0.00    -0.410 NA
BRANCH  23  24
HETATM   24  C6  UNL     1      -7.497   2.873   1.950  1.00  0.00     0.167 A 
HETATM   25  C7  UNL     1      -8.723   2.478   1.063  1.00  0.00     0.042 A 
HETATM   26  C8  UNL     1      -7.949   3.767   0.861  1.00  0.00     0.042 A 
ENDBRANCH  23  24
ENDBRANCH  20  21
ENDBRANCH  14  20
ENDBRANCH  13  14
ENDBRANCH   1  13
BRANCH   5  27
HETATM   27  C15 UNL     1       2.613   0.788   1.427  1.00  0.00     0.041 C 
BRANCH  27  28
HETATM   28  C16 UNL     1       3.645   1.778   1.011  1.00  0.00     0.233 C 
BRANCH  28  29
HETATM   29  N3  UNL     1       4.626   1.249   0.107  1.00  0.00    -0.073 N 
ATOM     30  H32 UNL     1       4.867   0.289   0.352  1.00  0.00     0.277 HD
ATOM     31  H31 UNL     1       4.223   1.089  -0.816  1.00  0.00     0.277 HD
BRANCH  29  32
HETATM   32  C17 UNL     1       5.823   2.082   0.017  1.00  0.00     0.265 C 
BRANCH  32  33
HETATM   33  C18 UNL     1       6.733   1.417  -1.014  1.00  0.00     0.211 C 
HETATM   34  C19 UNL     1       7.112   0.023  -0.606  1.00  0.00     0.036 C 
HETATM   35  C20 UNL     1       8.270   0.281   0.341  1.00  0.00     0.029 C 
HETATM   36  C21 UNL     1       8.948   1.509  -0.262  1.00  0.00     0.233 C 
HETATM   37  N4  UNL     1       7.990   2.138  -1.143  1.00  0.00    -0.069 N 
ATOM     38  H42 UNL     1       8.317   2.197  -2.107  1.00  0.00     0.277 HD
ATOM     39  H41 UNL     1       7.892   3.139  -0.973  1.00  0.00     0.277 HD
ENDBRANCH  32  33
ENDBRANCH  29  32
ENDBRANCH  28  29
ENDBRANCH  27  28
ENDBRANCH   5  27
BRANCH   7  40
HETATM   40  N5  UNL     1       2.972  -3.260  -0.896  1.00  0.00    -0.398 N 
HETATM   41  C24 UNL     1       3.534  -4.255  -0.006  1.00  0.00     0.146 C 
ATOM     42  H5  UNL     1       3.164  -3.284  -1.897  1.00  0.00     0.158 HD
ENDBRANCH   7  40
TORSDOF 12
