REMARK  13 active torsions:
REMARK  status: ('A' for Active; 'I' for Inactive)
REMARK    1  A    between atoms: C2_2  and  C3_3 
REMARK    2  A    between atoms: C3_3  and  S1_4 
REMARK    3  A    between atoms: S1_4  and  C4_5 
REMARK       I    between atoms: N1_15  and  C14_16 
REMARK    4  A    between atoms: C14_16  and  C15_18 
REMARK    5  A    between atoms: C15_18  and  N2_19 
REMARK    6  A    between atoms: C15_18  and  C16_23 
REMARK    7  A    between atoms: C16_23  and  C17_24 
REMARK    8  A    between atoms: C16_23  and  N6_35 
REMARK    9  A    between atoms: C17_24  and  C18_25 
REMARK   10  A    between atoms: C18_25  and  C19_26 
REMARK   11  A    between atoms: C19_26  and  C20_27 
REMARK   12  A    between atoms: C20_27  and  N3_28 
REMARK       I    between atoms: N3_28  and  C21_30 
REMARK   13  A    between atoms: N6_35  and  C22_37 
ROOT
HETATM    1  C15 UNL     1       0.520  -0.829  -1.300  1.00  0.00     0.297 C 
ENDROOT
BRANCH   1   2
HETATM    2  C14 UNL     1      -0.237   0.373  -0.877  1.00  0.00     0.257 C 
HETATM    3  N1  UNL     1      -1.471   0.324  -0.157  1.00  0.00    -0.309 N 
HETATM    4  C4  UNL     1      -1.958   1.652   0.192  1.00  0.00     0.082 C 
HETATM    5  C13 UNL     1      -1.952  -1.026   0.016  1.00  0.00     0.137 C 
HETATM    6  C5  UNL     1      -3.404   1.778   0.207  1.00  0.00    -0.016 A 
HETATM    7  C6  UNL     1      -4.028   2.836  -0.321  1.00  0.00     0.010 A 
HETATM    8  C9  UNL     1      -4.498   0.913   0.721  1.00  0.00     0.048 A 
HETATM    9  C7  UNL     1      -5.449   2.733  -0.191  1.00  0.00    -0.003 A 
HETATM   10  C8  UNL     1      -5.742   1.603   0.421  1.00  0.00    -0.017 A 
HETATM   11  C10 UNL     1      -4.287  -0.405   0.044  1.00  0.00     0.004 A 
HETATM   12  C11 UNL     1      -4.405  -1.709   0.631  1.00  0.00     0.012 A 
HETATM   13  C12 UNL     1      -3.141  -1.021   0.889  1.00  0.00     0.009 A 
HETATM   14  O1  UNL     1       0.240   1.512  -1.177  1.00  0.00    -0.271 OA
BRANCH   4  15
HETATM   15  S1  UNL     1      -1.051   2.383   1.537  1.00  0.00    -0.108 SA
BRANCH  15  16
HETATM   16  C3  UNL     1      -1.272   1.768   3.159  1.00  0.00     0.107 C 
BRANCH  16  17
HETATM   17  C2  UNL     1      -2.456   2.289   3.875  1.00  0.00    -0.026 C 
HETATM   18  C1  UNL     1      -3.276   3.222   3.463  1.00  0.00     0.007 C 
ENDBRANCH  16  17
ENDBRANCH  15  16
ENDBRANCH   4  15
ENDBRANCH   1   2
BRANCH   1  19
HETATM   19  N2  UNL     1       1.055  -0.652  -2.654  1.00  0.00    -0.064 N 
ATOM     20  H23 UNL     1       0.323  -0.411  -3.322  1.00  0.00     0.275 HD
ATOM     21  H22 UNL     1       1.617   0.196  -2.731  1.00  0.00     0.275 HD
ATOM     22  H21 UNL     1       1.576  -1.479  -2.945  1.00  0.00     0.275 HD
ENDBRANCH   1  19
BRANCH   1  23
HETATM   23  C16 UNL     1       1.635  -1.170  -0.349  1.00  0.00     0.116 C 
BRANCH  23  24
HETATM   24  C17 UNL     1       2.685  -0.156  -0.122  1.00  0.00     0.027 C 
BRANCH  24  25
HETATM   25  C18 UNL     1       3.513   0.305  -1.253  1.00  0.00     0.004 C 
BRANCH  25  26
HETATM   26  C19 UNL     1       4.584   1.296  -0.838  1.00  0.00     0.020 C 
BRANCH  26  27
HETATM   27  C20 UNL     1       4.096   2.550  -0.225  1.00  0.00     0.122 C 
BRANCH  27  28
HETATM   28  N3  UNL     1       3.254   3.378  -1.037  1.00  0.00    -0.365 N 
HETATM   29  C21 UNL     1       3.710   4.067  -2.188  1.00  0.00     0.181 C 
HETATM   30  N4  UNL     1       3.197   3.928  -3.358  1.00  0.00    -0.374 N 
HETATM   31  N5  UNL     1       4.799   4.959  -2.031  1.00  0.00    -0.064 NA
ATOM     32  H42 UNL     1       2.413   3.286  -3.471  1.00  0.00     0.158 HD
ATOM     33  H41 UNL     1       3.525   4.424  -4.187  1.00  0.00     0.158 HD
ATOM     34  H3  UNL     1       2.274   3.477  -0.772  1.00  0.00     0.162 HD
ENDBRANCH  27  28
ENDBRANCH  26  27
ENDBRANCH  25  26
ENDBRANCH  24  25
ENDBRANCH  23  24
BRANCH  23  35
HETATM   35  N6  UNL     1       2.186  -2.476  -0.661  1.00  0.00    -0.410 N 
ATOM     36  H6  UNL     1       3.134  -2.586  -1.022  1.00  0.00     0.154 HD
BRANCH  35  37
HETATM   37  C22 UNL     1       1.340  -3.590  -0.438  1.00  0.00     0.077 C 
HETATM   38  C23 UNL     1       1.018  -3.808   1.029  1.00  0.00     0.024 C 
HETATM   39  C24 UNL     1       0.355  -5.166   1.007  1.00  0.00     0.002 C 
HETATM   40  C25 UNL     1       0.952  -5.879  -0.209  1.00  0.00     0.002 C 
HETATM   41  C26 UNL     1       1.992  -4.914  -0.781  1.00  0.00     0.024 C 
ENDBRANCH  35  37
ENDBRANCH  23  35
ENDBRANCH   1  23
TORSDOF 13
