REMARK  14 active torsions:
REMARK  status: ('A' for Active; 'I' for Inactive)
REMARK    1  A    between atoms: C2_2  and  C3_3 
REMARK    2  A    between atoms: C3_3  and  C5_5 
REMARK    3  A    between atoms: C5_5  and  N1_6 
REMARK    4  A    between atoms: C5_5  and  C16_24 
REMARK       I    between atoms: N1_6  and  C6_8 
REMARK    5  A    between atoms: C6_8  and  C7_10 
REMARK    6  A    between atoms: C7_10  and  C8_11 
REMARK    7  A    between atoms: C7_10  and  N2_15 
REMARK    8  A    between atoms: C8_11  and  C9_12 
REMARK       I    between atoms: N2_15  and  C12_17 
REMARK       I    between atoms: C12_17  and  N3_19 
REMARK    9  A    between atoms: N3_19  and  C13_21 
REMARK       I    between atoms: C16_24  and  N4_26 
REMARK   10  A    between atoms: N4_26  and  C17_28 
REMARK   11  A    between atoms: C17_28  and  C18_29 
REMARK   12  A    between atoms: C17_28  and  C19_32 
REMARK   13  A    between atoms: C19_32  and  O6_33 
REMARK   14  A    between atoms: C19_32  and  C20_35 
ROOT
HETATM    1  C5  UNL     1      -0.251  -2.050   0.413  1.00  0.00     0.180 C 
ENDROOT
BRANCH   1   2
HETATM    2  C3  UNL     1       0.456  -3.163  -0.269  1.00  0.00     0.013 C 
HETATM    3  C4  UNL     1       0.808  -2.814  -1.707  1.00  0.00     0.012 C 
BRANCH   2   4
HETATM    4  C2  UNL     1      -0.292  -4.463  -0.273  1.00  0.00     0.002 C 
HETATM    5  C1  UNL     1      -0.724  -4.959   1.063  1.00  0.00     0.005 C 
ENDBRANCH   2   4
ENDBRANCH   1   2
BRANCH   1   6
HETATM    6  N1  UNL     1      -1.531  -1.753  -0.188  1.00  0.00    -0.346 N 
HETATM    7  C6  UNL     1      -2.654  -1.276   0.534  1.00  0.00     0.241 C 
HETATM    8  O1  UNL     1      -2.588  -1.081   1.768  1.00  0.00    -0.271 OA
ATOM      9  H1  UNL     1      -1.633  -1.895  -1.193  1.00  0.00     0.163 HD
BRANCH   7  10
HETATM   10  C7  UNL     1      -3.963  -0.990  -0.190  1.00  0.00     0.178 C 
BRANCH  10  11
HETATM   11  C8  UNL     1      -4.446  -2.230  -0.861  1.00  0.00     0.038 C 
BRANCH  11  12
HETATM   12  C9  UNL     1      -5.703  -2.144  -1.640  1.00  0.00    -0.020 C 
HETATM   13  C10 UNL     1      -6.933  -1.742  -0.907  1.00  0.00     0.009 C 
HETATM   14  C11 UNL     1      -5.582  -1.315  -2.903  1.00  0.00     0.009 C 
ENDBRANCH  11  12
ENDBRANCH  10  11
BRANCH  10  15
HETATM   15  N2  UNL     1      -4.880  -0.440   0.789  1.00  0.00    -0.330 N 
HETATM   16  C12 UNL     1      -5.207   0.939   0.847  1.00  0.00     0.317 C 
HETATM   17  O2  UNL     1      -4.673   1.694  -0.007  1.00  0.00    -0.247 OA
HETATM   18  N3  UNL     1      -6.102   1.454   1.833  1.00  0.00    -0.339 N 
ATOM     19  H3  UNL     1      -6.523   0.826   2.518  1.00  0.00     0.164 HD
ATOM     20  H2  UNL     1      -5.309  -1.072   1.465  1.00  0.00     0.165 HD
BRANCH  18  21
HETATM   21  C13 UNL     1      -6.411   2.863   1.859  1.00  0.00     0.078 C 
HETATM   22  C14 UNL     1      -7.884   3.152   1.940  1.00  0.00     0.032 C 
HETATM   23  C15 UNL     1      -5.672   3.476   3.058  1.00  0.00     0.032 C 
ENDBRANCH  18  21
ENDBRANCH  10  15
ENDBRANCH   7  10
ENDBRANCH   1   6
BRANCH   1  24
HETATM   24  C16 UNL     1       0.611  -0.811   0.305  1.00  0.00     0.241 C 
HETATM   25  O3  UNL     1       0.170   0.235  -0.214  1.00  0.00    -0.271 OA
HETATM   26  N4  UNL     1       1.929  -0.860   0.808  1.00  0.00    -0.343 N 
ATOM     27  H4  UNL     1       2.263  -1.731   1.219  1.00  0.00     0.163 HD
BRANCH  26  28
HETATM   28  C17 UNL     1       2.847   0.302   0.763  1.00  0.00     0.214 C 
BRANCH  28  29
HETATM   29  C18 UNL     1       3.216   0.572   2.171  1.00  0.00     0.199 C 
HETATM   30  O4  UNL     1       2.813  -0.148   3.137  1.00  0.00    -0.646 OA
HETATM   31  O5  UNL     1       4.028   1.639   2.500  1.00  0.00    -0.646 OA
ENDBRANCH  28  29
BRANCH  28  32
HETATM   32  C19 UNL     1       3.984  -0.102  -0.121  1.00  0.00     0.155 C 
BRANCH  32  33
HETATM   33  O6  UNL     1       4.579  -1.222   0.456  1.00  0.00    -0.393 OA
ATOM     34  H6  UNL     1       5.301  -1.479  -0.105  1.00  0.00     0.210 HD
ENDBRANCH  32  33
BRANCH  32  35
HETATM   35  C20 UNL     1       5.042   0.932  -0.297  1.00  0.00     0.017 C 
HETATM   36  C21 UNL     1       6.109   0.351  -1.232  1.00  0.00     0.008 C 
HETATM   37  C22 UNL     1       7.190   1.325  -1.525  1.00  0.00     0.009 C 
HETATM   38  C23 UNL     1       7.040   2.683  -0.942  1.00  0.00    -0.048 C 
HETATM   39  C24 UNL     1       7.679   2.732   0.432  1.00  0.00     0.015 C 
HETATM   40  C25 UNL     1       7.861   3.639  -1.806  1.00  0.00     0.015 C 
HETATM   41  C26 UNL     1       5.655   3.215  -0.848  1.00  0.00     0.009 C 
HETATM   42  C27 UNL     1       4.573   2.178  -1.017  1.00  0.00     0.008 C 
ENDBRANCH  32  35
ENDBRANCH  28  32
ENDBRANCH  26  28
ENDBRANCH   1  24
TORSDOF 14
