REMARK  16 active torsions:
REMARK  status: ('A' for Active; 'I' for Inactive)
REMARK    1  A    between atoms: C2_2  and  N1_3 
REMARK    2  A    between atoms: C4_10  and  N4_11 
REMARK    3  A    between atoms: N4_11  and  C5_13 
REMARK    4  A    between atoms: C8_16  and  C9_17 
REMARK    5  A    between atoms: C9_17  and  N5_18 
REMARK    6  A    between atoms: N5_18  and  C10_20 
REMARK    7  A    between atoms: C10_20  and  O1_21 
REMARK    8  A    between atoms: C10_20  and  C11_23 
REMARK    9  A    between atoms: C11_23  and  C12_24 
REMARK   10  A    between atoms: C11_23  and  N6_28 
REMARK   11  A    between atoms: C12_24  and  C13_25 
REMARK       I    between atoms: N6_28  and  C16_30 
REMARK   12  A    between atoms: C16_30  and  C17_32 
REMARK   13  A    between atoms: C17_32  and  N7_33 
REMARK   14  A    between atoms: C17_32  and  C18_37 
REMARK   15  A    between atoms: C18_37  and  C19_38 
REMARK   16  A    between atoms: C19_38  and  C20_39 
ROOT
HETATM    1  C10 UNL     1       0.591  -0.502   1.338  1.00  0.00     0.134 C 
ENDROOT
BRANCH   1   2
HETATM    2  N5  UNL     1       1.972  -0.566   1.568  1.00  0.00    -0.372 N 
ATOM      3  H5  UNL     1       2.291  -0.138   2.437  1.00  0.00     0.161 HD
BRANCH   2   4
HETATM    4  C9  UNL     1       2.995  -1.144   0.760  1.00  0.00     0.126 C 
BRANCH   4   5
HETATM    5  C8  UNL     1       3.381  -0.512  -0.496  1.00  0.00     0.003 C 
HETATM    6  C7  UNL     1       3.886   0.919  -0.289  1.00  0.00     0.008 C 
HETATM    7  C6  UNL     1       3.736   1.673  -1.594  1.00  0.00     0.026 C 
HETATM    8  C5  UNL     1       4.371   0.791  -2.691  1.00  0.00     0.099 C 
HETATM    9  C28 UNL     1       3.421  -0.373  -2.935  1.00  0.00     0.026 C 
HETATM   10  C27 UNL     1       2.521  -0.609  -1.695  1.00  0.00     0.008 C 
BRANCH   8  11
HETATM   11  N4  UNL     1       5.659   0.358  -2.292  1.00  0.00    -0.220 N 
ATOM     12  H4  UNL     1       5.880   0.571  -1.319  1.00  0.00     0.178 HD
BRANCH  11  13
HETATM   13  C4  UNL     1       6.586  -0.240  -2.904  1.00  0.00     0.708 A 
HETATM   14  N3  UNL     1       6.710  -0.692  -4.159  1.00  0.00    -0.117 N 
HETATM   15  N2  UNL     1       7.902  -1.283  -4.313  1.00  0.00    -0.117 N 
ATOM     16  H3  UNL     1       6.003  -0.600  -4.888  1.00  0.00     0.206 HD
HETATM   17  C3  UNL     1       8.532  -1.200  -3.139  1.00  0.00     0.707 A 
ATOM     18  H2  UNL     1       8.260  -1.714  -5.165  1.00  0.00     0.206 HD
HETATM   19  N1  UNL     1       9.720  -1.667  -2.902  1.00  0.00    -0.225 N 
HETATM   20  N8  UNL     1       7.762  -0.572  -2.259  1.00  0.00    -0.020 N 
ATOM     21  H1  UNL     1      10.246  -2.138  -3.638  1.00  0.00     0.177 HD
ATOM     22  H8  UNL     1       7.995  -0.372  -1.286  1.00  0.00     0.203 HD
BRANCH  19  23
HETATM   23  C2  UNL     1      10.291  -1.509  -1.571  1.00  0.00     0.134 C 
HETATM   24  C1  UNL     1      10.749  -0.080  -1.433  1.00  0.00     0.027 C 
ENDBRANCH  19  23
ENDBRANCH  11  13
ENDBRANCH   8  11
ENDBRANCH   4   5
ENDBRANCH   2   4
ENDBRANCH   1   2
BRANCH   1  25
HETATM   25  O1  UNL     1       0.201  -1.075   0.235  1.00  0.00    -0.348 OA
ATOM     26  H1  UNL     1      -0.735  -1.032   0.079  1.00  0.00     0.219 HD
ENDBRANCH   1  25
BRANCH   1  27
HETATM   27  C11 UNL     1      -0.441   0.094   2.125  1.00  0.00     0.159 C 
BRANCH  27  28
HETATM   28  C12 UNL     1      -0.571  -0.391   3.569  1.00  0.00     0.037 C 
BRANCH  28  29
HETATM   29  C13 UNL     1       0.537  -0.165   4.494  1.00  0.00    -0.020 C 
HETATM   30  C14 UNL     1       0.775   1.339   4.600  1.00  0.00     0.009 C 
HETATM   31  C15 UNL     1       0.004  -0.548   5.905  1.00  0.00     0.009 C 
ENDBRANCH  28  29
ENDBRANCH  27  28
BRANCH  27  32
HETATM   32  N6  UNL     1      -1.820  -0.089   1.624  1.00  0.00    -0.347 N 
HETATM   33  C16 UNL     1      -2.788   0.913   1.861  1.00  0.00     0.248 C 
HETATM   34  O2  UNL     1      -2.414   1.946   2.507  1.00  0.00    -0.271 OA
ATOM     35  H6  UNL     1      -2.071  -0.934   1.110  1.00  0.00     0.163 HD
BRANCH  33  36
HETATM   36  C17 UNL     1      -4.218   0.845   1.420  1.00  0.00     0.274 C 
BRANCH  36  37
HETATM   37  N7  UNL     1      -4.962   1.536   2.473  1.00  0.00    -0.067 N 
ATOM     38  H73 UNL     1      -4.798   1.166   3.409  1.00  0.00     0.275 HD
ATOM     39  H72 UNL     1      -4.631   2.482   2.664  1.00  0.00     0.275 HD
ATOM     40  H71 UNL     1      -5.936   1.490   2.173  1.00  0.00     0.275 HD
ENDBRANCH  36  37
BRANCH  36  41
HETATM   41  C18 UNL     1      -4.631  -0.536   1.145  1.00  0.00     0.043 C 
BRANCH  41  42
HETATM   42  C19 UNL     1      -5.980  -0.875   0.680  1.00  0.00     0.007 C 
BRANCH  42  43
HETATM   43  C20 UNL     1      -6.491  -0.392  -0.615  1.00  0.00    -0.014 C 
HETATM   44  C21 UNL     1      -6.577   1.075  -0.733  1.00  0.00     0.005 C 
HETATM   45  C22 UNL     1      -7.839   1.548  -1.496  1.00  0.00     0.004 C 
HETATM   46  C23 UNL     1      -7.919   0.730  -2.755  1.00  0.00    -0.019 C 
HETATM   47  C24 UNL     1      -8.976   1.285  -3.701  1.00  0.00     0.010 C 
HETATM   48  C25 UNL     1      -8.258  -0.683  -2.337  1.00  0.00     0.004 C 
HETATM   49  C26 UNL     1      -7.849  -1.029  -0.939  1.00  0.00     0.005 C 
ENDBRANCH  42  43
ENDBRANCH  41  42
ENDBRANCH  36  41
ENDBRANCH  33  36
ENDBRANCH  27  32
ENDBRANCH   1  27
TORSDOF 16
