REMARK  13 active torsions:
REMARK  status: ('A' for Active; 'I' for Inactive)
REMARK    1  A    between atoms: C2_2  and  C5_5 
REMARK    2  A    between atoms: C5_5  and  C6_6 
REMARK    3  A    between atoms: C5_5  and  N4_32 
REMARK    4  A    between atoms: C6_6  and  N1_7 
REMARK       I    between atoms: N1_7  and  C7_9 
REMARK    5  A    between atoms: C7_9  and  C8_11 
REMARK    6  A    between atoms: C8_11  and  C9_12 
REMARK    7  A    between atoms: C8_11  and  N2_19 
REMARK    8  A    between atoms: C9_12  and  C10_13 
REMARK       I    between atoms: N2_19  and  C16_21 
REMARK    9  A    between atoms: C16_21  and  C17_23 
REMARK   10  A    between atoms: C17_23  and  N3_24 
REMARK   11  A    between atoms: C17_23  and  C18_28 
REMARK   12  A    between atoms: C18_28  and  C19_29 
REMARK       I    between atoms: N4_32  and  C20_34 
REMARK       I    between atoms: C20_34  and  N5_36 
REMARK   13  A    between atoms: C21_38  and  C22_40 
ROOT
HETATM    1  N1  UNL     1      -0.437  -1.127  -0.517  1.00  0.00    -0.357 N 
ATOM      2  H1  UNL     1      -0.755  -2.055  -0.239  1.00  0.00     0.162 HD
HETATM    3  C7  UNL     1      -1.370  -0.256  -1.085  1.00  0.00     0.240 C 
HETATM    4  O1  UNL     1      -0.987   0.890  -1.428  1.00  0.00    -0.271 OA
ENDROOT
BRANCH   3   5
HETATM    5  C8  UNL     1      -2.822  -0.573  -1.328  1.00  0.00     0.177 C 
BRANCH   5   6
HETATM    6  C9  UNL     1      -3.229  -1.686  -0.468  1.00  0.00     0.039 C 
BRANCH   6   7
HETATM    7  C10 UNL     1      -4.613  -2.214  -0.496  1.00  0.00    -0.012 C 
HETATM    8  C11 UNL     1      -4.561  -3.423   0.520  1.00  0.00     0.005 C 
HETATM    9  C12 UNL     1      -5.976  -3.767   0.855  1.00  0.00     0.000 C 
HETATM   10  C13 UNL     1      -6.437  -2.761   1.902  1.00  0.00     0.000 C 
HETATM   11  C14 UNL     1      -5.888  -1.408   1.498  1.00  0.00     0.000 C 
HETATM   12  C15 UNL     1      -5.722  -1.340  -0.024  1.00  0.00     0.005 C 
ENDBRANCH   6   7
ENDBRANCH   5   6
BRANCH   5  13
HETATM   13  N2  UNL     1      -3.497   0.672  -1.039  1.00  0.00    -0.346 N 
HETATM   14  C16 UNL     1      -3.997   1.548  -2.038  1.00  0.00     0.249 C 
HETATM   15  O2  UNL     1      -3.861   1.252  -3.273  1.00  0.00    -0.271 OA
ATOM     16  H2  UNL     1      -3.621   0.936  -0.062  1.00  0.00     0.163 HD
BRANCH  14  17
HETATM   17  C17 UNL     1      -4.672   2.800  -1.623  1.00  0.00     0.284 C 
BRANCH  17  18
HETATM   18  N3  UNL     1      -4.742   2.856  -0.180  1.00  0.00    -0.066 N 
ATOM     19  H33 UNL     1      -5.188   2.029   0.216  1.00  0.00     0.275 HD
ATOM     20  H32 UNL     1      -3.825   2.750   0.254  1.00  0.00     0.275 HD
ATOM     21  H31 UNL     1      -5.207   3.718   0.106  1.00  0.00     0.275 HD
ENDBRANCH  17  18
BRANCH  17  22
HETATM   22  C18 UNL     1      -6.050   2.952  -2.212  1.00  0.00     0.155 C 
BRANCH  22  23
HETATM   23  C19 UNL     1      -6.630   4.227  -1.736  1.00  0.00     0.175 C 
HETATM   24  O3  UNL     1      -7.779   4.515  -2.159  1.00  0.00    -0.648 OA
HETATM   25  O4  UNL     1      -5.916   5.025  -0.879  1.00  0.00    -0.648 OA
ENDBRANCH  22  23
ENDBRANCH  17  22
ENDBRANCH  14  17
ENDBRANCH   5  13
ENDBRANCH   3   5
BRANCH   1  26
HETATM   26  C6  UNL     1       0.926  -0.797  -0.304  1.00  0.00     0.148 C 
BRANCH  26  27
HETATM   27  C5  UNL     1       1.295   0.330   0.583  1.00  0.00     0.111 C 
BRANCH  27  28
HETATM   28  C2  UNL     1       0.891   0.244   1.984  1.00  0.00    -0.029 C 
HETATM   29  C1  UNL     1       1.477  -0.992   2.690  1.00  0.00     0.016 C 
HETATM   30  C3  UNL     1       1.381   1.408   2.835  1.00  0.00     0.016 C 
HETATM   31  C4  UNL     1      -0.602   0.224   2.144  1.00  0.00     0.016 C 
ENDBRANCH  27  28
BRANCH  27  32
HETATM   32  N4  UNL     1       2.729   0.499   0.374  1.00  0.00    -0.336 N 
HETATM   33  C20 UNL     1       3.347   1.460  -0.397  1.00  0.00     0.321 C 
HETATM   34  O5  UNL     1       2.648   2.310  -1.011  1.00  0.00    -0.247 OA
HETATM   35  N5  UNL     1       4.737   1.533  -0.530  1.00  0.00    -0.300 N 
HETATM   36  C21 UNL     1       5.593   0.620  -0.655  1.00  0.00     0.101 C 
ATOM     37  H5  UNL     1       5.118   2.479  -0.525  1.00  0.00     0.171 HD
HETATM   38  N6  UNL     1       5.196  -0.739  -0.680  1.00  0.00    -0.087 NA
ATOM     39  H4  UNL     1       3.340  -0.165   0.849  1.00  0.00     0.164 HD
BRANCH  36  40
HETATM   40  C22 UNL     1       7.074   0.897  -0.771  1.00  0.00     0.051 C 
HETATM   41  C23 UNL     1       7.754   0.298   0.406  1.00  0.00     0.012 C 
HETATM   42  C24 UNL     1       9.206   0.005   0.250  1.00  0.00     0.001 C 
HETATM   43  C25 UNL     1       9.702   0.117  -1.172  1.00  0.00     0.000 C 
HETATM   44  C26 UNL     1       8.666  -0.576  -2.035  1.00  0.00     0.001 C 
HETATM   45  C27 UNL     1       7.501   0.386  -2.101  1.00  0.00     0.012 C 
ENDBRANCH  36  40
ENDBRANCH  27  32
ENDBRANCH  26  27
ENDBRANCH   1  26
TORSDOF 13
