REMARK  15 active torsions:
REMARK  status: ('A' for Active; 'I' for Inactive)
REMARK    1  A    between atoms: C2_2  and  N5_22 
REMARK    2  A    between atoms: N1_3  and  C3_5 
REMARK    3  A    between atoms: C6_10  and  N3_11 
REMARK    4  A    between atoms: N3_11  and  C7_13 
REMARK    5  A    between atoms: C7_13  and  C8_14 
REMARK    6  A    between atoms: N5_22  and  C14_24 
REMARK    7  A    between atoms: C14_24  and  C15_25 
REMARK    8  A    between atoms: C15_25  and  C16_26 
REMARK    9  A    between atoms: C16_26  and  C17_27 
REMARK   10  A    between atoms: C17_27  and  C20_30 
REMARK       I    between atoms: C20_30  and  N6_32 
REMARK   11  A    between atoms: N6_32  and  C21_34 
REMARK   12  A    between atoms: C21_34  and  C22_35 
REMARK   13  A    between atoms: C21_34  and  C25_42 
REMARK   14  A    between atoms: C22_35  and  C23_36 
REMARK   15  A    between atoms: C23_36  and  N7_37 
REMARK       I    between atoms: N7_37  and  C24_39 
ROOT
HETATM    1  N5  UNL     1       1.822   1.701   0.162  1.00  0.00    -0.380 N 
ATOM      2  H5  UNL     1       2.239   2.568  -0.176  1.00  0.00     0.160 HD
ENDROOT
BRANCH   1   3
HETATM    3  C2  UNL     1       2.474   0.456   0.015  1.00  0.00     0.089 C 
HETATM    4  C1  UNL     1       2.456  -0.530   1.112  1.00  0.00     0.089 C 
HETATM    5  N1  UNL     1       3.079   0.193  -1.078  1.00  0.00    -0.181 N 
ATOM      6  H1  UNL     1       3.090   0.875  -1.837  1.00  0.00     0.185 HD
BRANCH   5   7
HETATM    7  C3  UNL     1       3.735  -1.055  -1.228  1.00  0.00     0.684 A 
HETATM    8  N2  UNL     1       3.075  -2.224  -1.198  1.00  0.00    -0.202 N 
HETATM    9  C4  UNL     1       3.735  -3.403  -1.350  1.00  0.00     0.110 A 
ATOM     10  H2  UNL     1       2.064  -2.228  -1.059  1.00  0.00     0.183 HD
HETATM   11  C5  UNL     1       5.098  -3.380  -1.537  1.00  0.00     0.066 A 
HETATM   12  C6  UNL     1       5.807  -2.176  -1.572  1.00  0.00     0.118 A 
HETATM   13  N4  UNL     1       5.074  -1.063  -1.413  1.00  0.00    -0.177 N 
ATOM     14  H4  UNL     1       5.558  -0.166  -1.433  1.00  0.00     0.186 HD
BRANCH  12  15
HETATM   15  N3  UNL     1       7.082  -2.200  -1.752  1.00  0.00    -0.376 N 
ATOM     16  H3  UNL     1       7.536  -3.107  -1.864  1.00  0.00     0.161 HD
BRANCH  15  17
HETATM   17  C7  UNL     1       7.899  -1.024  -1.804  1.00  0.00     0.126 C 
BRANCH  17  18
HETATM   18  C8  UNL     1       8.283  -0.524  -0.408  1.00  0.00     0.003 C 
HETATM   19  C9  UNL     1       9.051  -1.559   0.351  1.00  0.00     0.006 C 
HETATM   20  C10 UNL     1      10.492  -1.119   0.577  1.00  0.00     0.000 C 
HETATM   21  C11 UNL     1      10.445   0.151   1.410  1.00  0.00     0.000 C 
HETATM   22  C12 UNL     1       9.729   1.234   0.655  1.00  0.00     0.000 C 
HETATM   23  C13 UNL     1       9.060   0.755  -0.599  1.00  0.00     0.006 C 
ENDBRANCH  17  18
ENDBRANCH  15  17
ENDBRANCH  12  15
ENDBRANCH   5   7
ENDBRANCH   1   3
BRANCH   1  24
HETATM   24  C14 UNL     1       0.499   1.682   0.834  1.00  0.00     0.121 C 
BRANCH  24  25
HETATM   25  C15 UNL     1      -0.490   0.986  -0.040  1.00  0.00     0.021 C 
BRANCH  25  26
HETATM   26  C16 UNL     1      -1.829   0.851   0.538  1.00  0.00     0.020 C 
BRANCH  26  27
HETATM   27  C17 UNL     1      -2.648   2.016   0.899  1.00  0.00     0.034 C 
HETATM   28  C18 UNL     1      -2.168   2.959   1.929  1.00  0.00     0.025 C 
HETATM   29  C19 UNL     1      -2.951   2.810  -0.387  1.00  0.00     0.025 C 
BRANCH  27  30
HETATM   30  C20 UNL     1      -3.989   1.474   1.359  1.00  0.00     0.226 C 
HETATM   31  O1  UNL     1      -4.414   1.722   2.512  1.00  0.00    -0.273 OA
HETATM   32  N6  UNL     1      -4.756   0.686   0.475  1.00  0.00    -0.355 N 
ATOM     33  H6  UNL     1      -4.394   0.495  -0.459  1.00  0.00     0.162 HD
BRANCH  32  34
HETATM   34  C21 UNL     1      -6.077   0.126   0.865  1.00  0.00     0.093 C 
BRANCH  34  35
HETATM   35  C22 UNL     1      -7.031   0.708  -0.111  1.00  0.00     0.045 C 
BRANCH  35  36
HETATM   36  C23 UNL     1      -8.463   0.354   0.007  1.00  0.00     0.126 C 
BRANCH  36  37
HETATM   37  N7  UNL     1      -9.201   1.069  -1.046  1.00  0.00    -0.345 N 
HETATM   38  C24 UNL     1     -10.609   0.910  -1.166  1.00  0.00     0.328 C 
HETATM   39  N8  UNL     1     -11.331   1.594  -2.177  1.00  0.00    -0.040 NA
HETATM   40  O2  UNL     1     -11.247   0.167  -0.388  1.00  0.00    -0.251 OA
ATOM     41  H7  UNL     1      -8.701   1.680  -1.692  1.00  0.00     0.163 HD
ENDBRANCH  36  37
ENDBRANCH  35  36
ENDBRANCH  34  35
BRANCH  34  42
HETATM   42  C25 UNL     1      -5.882  -1.354   0.821  1.00  0.00    -0.031 C 
HETATM   43  C26 UNL     1      -7.073  -2.183   1.198  1.00  0.00     0.016 C 
HETATM   44  C27 UNL     1      -5.428  -1.834  -0.545  1.00  0.00     0.016 C 
HETATM   45  C28 UNL     1      -4.742  -1.731   1.782  1.00  0.00     0.016 C 
ENDBRANCH  34  42
ENDBRANCH  32  34
ENDBRANCH  27  30
ENDBRANCH  26  27
ENDBRANCH  25  26
ENDBRANCH  24  25
ENDBRANCH   1  24
TORSDOF 15
