REMARK  13 active torsions:
REMARK  status: ('A' for Active; 'I' for Inactive)
REMARK    1  A    between atoms: C10_10  and  C11_11 
REMARK    2  A    between atoms: C11_11  and  N1_12 
REMARK    3  A    between atoms: C11_11  and  C18_31 
REMARK       I    between atoms: N1_12  and  C12_14 
REMARK    4  A    between atoms: C12_14  and  C13_16 
REMARK    5  A    between atoms: C13_16  and  N2_17 
REMARK    6  A    between atoms: C13_16  and  C14_21 
REMARK    7  A    between atoms: C14_21  and  C15_22 
REMARK    8  A    between atoms: C15_22  and  C16_23 
REMARK    9  A    between atoms: C16_23  and  N3_24 
REMARK       I    between atoms: N3_24  and  C17_26 
REMARK       I    between atoms: C18_31  and  N6_33 
REMARK   10  A    between atoms: N6_33  and  C19_35 
REMARK   11  A    between atoms: C19_35  and  C20_36 
REMARK   12  A    between atoms: C19_35  and  C21_38 
REMARK   13  A    between atoms: C21_38  and  C22_39 
ROOT
HETATM    1  C11 UNL     1       0.152  -0.851   1.000  1.00  0.00     0.185 C 
ENDROOT
BRANCH   1   2
HETATM    2  C10 UNL     1       0.365  -2.284   0.651  1.00  0.00    -0.009 C 
HETATM    3  C9  UNL     1      -0.876  -3.128   0.769  1.00  0.00     0.021 C 
HETATM    4  C6  UNL     1      -0.498  -4.589   0.619  1.00  0.00    -0.042 C 
HETATM    5  C5  UNL     1       0.569  -5.033   1.558  1.00  0.00     0.014 C 
HETATM    6  C7  UNL     1      -1.772  -5.401   0.823  1.00  0.00     0.015 C 
HETATM    7  C8  UNL     1      -0.074  -4.760  -0.825  1.00  0.00     0.018 C 
HETATM    8  C4  UNL     1       1.811  -4.244   1.298  1.00  0.00    -0.012 C 
HETATM    9  C3  UNL     1       2.270  -4.403  -0.135  1.00  0.00     0.014 C 
HETATM   10  C28 UNL     1       1.500  -2.786   1.544  1.00  0.00     0.016 C 
HETATM   11  C2  UNL     1       1.161  -3.931  -1.025  1.00  0.00    -0.042 C 
HETATM   12  C1  UNL     1       1.576  -4.065  -2.473  1.00  0.00     0.015 C 
HETATM   13  C29 UNL     1       0.861  -2.464  -0.764  1.00  0.00     0.021 C 
ENDBRANCH   1   2
BRANCH   1  14
HETATM   14  N1  UNL     1       1.448  -0.175   0.834  1.00  0.00    -0.345 N 
HETATM   15  C12 UNL     1       2.136   0.403   1.910  1.00  0.00     0.249 C 
HETATM   16  O1  UNL     1       1.712   0.391   3.077  1.00  0.00    -0.271 OA
ATOM     17  H1  UNL     1       1.861  -0.125  -0.097  1.00  0.00     0.163 HD
BRANCH  15  18
HETATM   18  C13 UNL     1       3.455   1.076   1.655  1.00  0.00     0.274 C 
BRANCH  18  19
HETATM   19  N2  UNL     1       3.773   0.979   0.238  1.00  0.00    -0.067 N 
ATOM     20  H23 UNL     1       3.758   0.016  -0.098  1.00  0.00     0.275 HD
ATOM     21  H22 UNL     1       3.028   1.349  -0.353  1.00  0.00     0.275 HD
ATOM     22  H21 UNL     1       4.668   1.436   0.065  1.00  0.00     0.275 HD
ENDBRANCH  18  19
BRANCH  18  23
HETATM   23  C14 UNL     1       3.381   2.518   2.043  1.00  0.00     0.044 C 
BRANCH  23  24
HETATM   24  C15 UNL     1       4.603   3.331   1.893  1.00  0.00     0.022 C 
BRANCH  24  25
HETATM   25  C16 UNL     1       5.190   3.469   0.538  1.00  0.00     0.122 C 
BRANCH  25  26
HETATM   26  N3  UNL     1       6.366   4.364   0.605  1.00  0.00    -0.365 N 
HETATM   27  C17 UNL     1       7.065   4.625  -0.595  1.00  0.00     0.181 C 
HETATM   28  N4  UNL     1       7.806   5.667  -0.675  1.00  0.00    -0.374 N 
HETATM   29  N5  UNL     1       6.954   3.757  -1.697  1.00  0.00    -0.064 NA
ATOM     30  H42 UNL     1       7.886   6.296   0.124  1.00  0.00     0.158 HD
ATOM     31  H41 UNL     1       8.311   5.855  -1.541  1.00  0.00     0.158 HD
ATOM     32  H3  UNL     1       6.663   4.779   1.488  1.00  0.00     0.162 HD
ENDBRANCH  25  26
ENDBRANCH  24  25
ENDBRANCH  23  24
ENDBRANCH  18  23
ENDBRANCH  15  18
ENDBRANCH   1  14
BRANCH   1  33
HETATM   33  C18 UNL     1      -0.840  -0.116   0.230  1.00  0.00     0.241 C 
HETATM   34  O2  UNL     1      -0.459   0.866  -0.501  1.00  0.00    -0.271 OA
HETATM   35  N6  UNL     1      -2.232  -0.357   0.189  1.00  0.00    -0.348 N 
ATOM     36  H6  UNL     1      -2.602  -1.122   0.752  1.00  0.00     0.163 HD
BRANCH  35  37
HETATM   37  C19 UNL     1      -3.173   0.423  -0.611  1.00  0.00     0.146 C 
BRANCH  37  38
HETATM   38  C20 UNL     1      -3.894  -0.440  -1.582  1.00  0.00     0.256 C 
HETATM   39  O3  UNL     1      -3.632  -1.626  -1.590  1.00  0.00    -0.305 OA
ENDBRANCH  37  38
BRANCH  37  40
HETATM   40  C21 UNL     1      -4.199   1.095   0.259  1.00  0.00     0.037 C 
BRANCH  40  41
HETATM   41  C22 UNL     1      -5.171   1.893  -0.540  1.00  0.00    -0.012 C 
HETATM   42  C23 UNL     1      -6.185   2.544   0.404  1.00  0.00     0.005 C 
HETATM   43  C24 UNL     1      -6.520   3.947   0.004  1.00  0.00     0.000 C 
HETATM   44  C25 UNL     1      -6.740   4.135  -1.464  1.00  0.00     0.000 C 
HETATM   45  C26 UNL     1      -5.711   3.463  -2.314  1.00  0.00     0.000 C 
HETATM   46  C27 UNL     1      -4.587   2.969  -1.390  1.00  0.00     0.005 C 
ENDBRANCH  40  41
ENDBRANCH  37  40
ENDBRANCH  35  37
ENDBRANCH   1  33
TORSDOF 13
