REMARK  3 active torsions:
REMARK  status: ('A' for Active; 'I' for Inactive)
REMARK    1  A    between atoms: C2_2  and  C3_3 
REMARK    2  A    between atoms: C3_3  and  N1_4 
REMARK    3  A    between atoms: N1_4  and  C4_7 
ROOT
HETATM    1  C4  UNL     1      -0.357  -0.277  -1.178  1.00  0.00     0.332 C 
HETATM    2  O1  UNL     1       0.423  -0.611  -2.279  1.00  0.00    -0.356 OA
HETATM    3  C5  UNL     1       1.319   0.439  -2.457  1.00  0.00     0.203 C 
HETATM    4  C6  UNL     1       1.566   1.043  -1.090  1.00  0.00     0.158 C 
HETATM    5  O2  UNL     1       2.891   1.065  -0.819  1.00  0.00    -0.378 OA
HETATM    6  C7  UNL     1       3.280   1.150   0.485  1.00  0.00     0.229 C 
HETATM    7  C8  UNL     1       3.045  -0.149   1.203  1.00  0.00     0.289 C 
HETATM    8  O3  UNL     1       2.626  -1.089   0.279  1.00  0.00    -0.329 OA
HETATM    9  C9  UNL     1       1.314  -0.792   0.613  1.00  0.00     0.277 C 
HETATM   10  O4  UNL     1       1.786  -0.210   1.792  1.00  0.00    -0.329 OA
HETATM   11  C10 UNL     1       0.672   0.264  -0.204  1.00  0.00     0.128 C 
ENDROOT
BRANCH   1  12
HETATM   12  N1  UNL     1      -1.089  -1.395  -0.677  1.00  0.00    -0.048 N 
ATOM     13  H12 UNL     1      -0.461  -2.178  -0.494  1.00  0.00     0.280 HD
ATOM     14  H11 UNL     1      -1.665  -1.802  -1.414  1.00  0.00     0.280 HD
BRANCH  12  15
HETATM   15  C3  UNL     1      -1.884  -1.113   0.478  1.00  0.00     0.235 C 
BRANCH  15  16
HETATM   16  C2  UNL     1      -3.049  -0.187   0.157  1.00  0.00     0.023 C 
HETATM   17  C1  UNL     1      -3.856   0.079   1.395  1.00  0.00     0.007 C 
ENDBRANCH  15  16
ENDBRANCH  12  15
ENDBRANCH   1  12
TORSDOF 3
