REMARK  5 active torsions:
REMARK  status: ('A' for Active; 'I' for Inactive)
REMARK    1  A    between atoms: S1_2  and  C2_3 
REMARK    2  A    between atoms: C4_5  and  N1_6 
REMARK    3  A    between atoms: N3_10  and  O1_11 
REMARK    4  A    between atoms: C7_15  and  C8_16 
REMARK    5  A    between atoms: C8_16  and  O3_17 
ROOT
HETATM    1  C2  UNL     1      -1.268   0.291   0.724  1.00  0.00     0.082 C 
HETATM    2  C3  UNL     1      -0.150  -0.759   0.836  1.00  0.00     0.072 C 
HETATM    3  C4  UNL     1       0.648  -0.370  -0.396  1.00  0.00     0.231 C 
HETATM    4  O2  UNL     1       0.343   0.925  -0.714  1.00  0.00    -0.358 OA
HETATM    5  C7  UNL     1      -0.420   1.473   0.298  1.00  0.00     0.161 C 
ENDROOT
BRANCH   3   6
HETATM    6  N1  UNL     1       2.061  -0.513  -0.227  1.00  0.00    -0.307 N 
HETATM    7  C5  UNL     1       2.779  -0.264   0.879  1.00  0.00     0.205 A 
HETATM    8  N2  UNL     1       4.059  -0.535   0.585  1.00  0.00    -0.269 N 
HETATM    9  N3  UNL     1       4.135  -0.940  -0.666  1.00  0.00    -0.158 N 
ATOM     10  H2  UNL     1       4.847  -0.442   1.227  1.00  0.00     0.190 HD
HETATM   11  C6  UNL     1       2.914  -0.931  -1.175  1.00  0.00     0.239 A 
BRANCH   9  12
HETATM   12  O1  UNL     1       5.297  -1.304  -1.305  1.00  0.00    -0.267 OA
ATOM     13  H1  UNL     1       5.352  -1.596  -2.207  1.00  0.00     0.247 HD
ENDBRANCH   9  12
ENDBRANCH   3   6
BRANCH   1  14
HETATM   14  S1  UNL     1      -2.333  -0.273  -0.635  1.00  0.00    -0.166 SA
HETATM   15  C1  UNL     1      -3.119  -1.814  -0.116  1.00  0.00     0.090 C 
ENDBRANCH   1  14
BRANCH   5  16
HETATM   16  C8  UNL     1      -1.248   2.640  -0.159  1.00  0.00     0.197 C 
BRANCH  16  17
HETATM   17  O3  UNL     1      -2.134   2.293  -1.166  1.00  0.00    -0.398 OA
ATOM     18  H3  UNL     1      -2.658   3.031  -1.455  1.00  0.00     0.209 HD
ENDBRANCH  16  17
ENDBRANCH   5  16
TORSDOF 5
