REMARK  4 active torsions:
REMARK  status: ('A' for Active; 'I' for Inactive)
REMARK    1  A    between atoms: C7_8  and  N2_9 
REMARK    2  A    between atoms: N4_19  and  C13_21 
REMARK    3  A    between atoms: C13_21  and  C14_22 
REMARK    4  A    between atoms: C15_23  and  C16_24 
ROOT
HETATM    1  C1  UNL     1       5.713  -2.801   1.053  1.00  0.00     0.052 C 
HETATM    2  C2  UNL     1       4.663  -1.837   0.596  1.00  0.00    -0.020 A 
HETATM    3  C3  UNL     1       3.354  -1.969   0.879  1.00  0.00     0.100 A 
HETATM    4  N1  UNL     1       2.359  -1.110   0.480  1.00  0.00    -0.358 N 
HETATM    5  C4  UNL     1       1.003  -1.351   0.838  1.00  0.00     0.156 C 
HETATM    6  C5  UNL     1       2.788  -0.053  -0.260  1.00  0.00     0.070 A 
HETATM    7  C6  UNL     1       4.105   0.133  -0.577  1.00  0.00    -0.002 A 
HETATM    8  C7  UNL     1       5.071  -0.776  -0.143  1.00  0.00     0.041 A 
HETATM    9  C8  UNL     1       4.552   1.290  -1.369  1.00  0.00     0.048 A 
HETATM   10  C9  UNL     1       3.561   2.217  -1.913  1.00  0.00     0.047 A 
HETATM   11  C10 UNL     1       2.179   2.001  -1.508  1.00  0.00    -0.012 A 
HETATM   12  C11 UNL     1       1.185   2.915  -1.923  1.00  0.00     0.115 A 
HETATM   13  N3  UNL     1      -0.055   2.680  -1.554  1.00  0.00    -0.201 N 
ATOM     14  H3  UNL     1      -0.777   3.337  -1.851  1.00  0.00     0.183 HD
HETATM   15  C12 UNL     1      -0.437   1.600  -0.791  1.00  0.00     0.678 A 
HETATM   16  N4  UNL     1      -1.697   1.499  -0.503  1.00  0.00    -0.226 N 
ATOM     17  H4  UNL     1      -2.329   2.218  -0.854  1.00  0.00     0.177 HD
HETATM   18  N5  UNL     1       0.529   0.762  -0.421  1.00  0.00    -0.189 N 
ATOM     19  H5  UNL     1       0.274  -0.048   0.145  1.00  0.00     0.184 HD
HETATM   20  C21 UNL     1       1.800   0.921  -0.746  1.00  0.00     0.084 A 
ENDROOT
BRANCH  16  21
HETATM   21  C13 UNL     1      -2.249   0.443   0.274  1.00  0.00     0.144 C 
BRANCH  21  22
HETATM   22  C14 UNL     1      -3.666   0.783   0.603  1.00  0.00     0.020 A 
HETATM   23  C15 UNL     1      -4.464  -0.234   1.442  1.00  0.00     0.030 A 
HETATM   24  C17 UNL     1      -4.841   0.144   0.077  1.00  0.00    -0.029 A 
HETATM   25  C18 UNL     1      -6.120   0.812  -0.273  1.00  0.00     0.010 C 
HETATM   26  C20 UNL     1      -4.927  -0.771  -1.073  1.00  0.00     0.010 C 
HETATM   27  C19 UNL     1      -6.081   0.087  -1.610  1.00  0.00     0.002 C 
BRANCH  23  28
HETATM   28  C16 UNL     1      -3.874  -1.575   1.711  1.00  0.00     0.228 C 
HETATM   29  F1  UNL     1      -2.693  -1.584   2.382  1.00  0.00    -0.255 F 
ENDBRANCH  23  28
ENDBRANCH  21  22
ENDBRANCH  16  21
BRANCH   8  30
HETATM   30  N2  UNL     1       6.280  -0.574  -0.450  1.00  0.00    -0.398 N 
ATOM     31  H22 UNL     1       6.986  -1.238  -0.133  1.00  0.00     0.156 HD
ATOM     32  H21 UNL     1       6.587   0.224  -1.006  1.00  0.00     0.156 HD
ENDBRANCH   8  30
TORSDOF 4
