REMARK  6 active torsions:
REMARK  status: ('A' for Active; 'I' for Inactive)
REMARK    1  A    between atoms: C4_4  and  C5_5 
REMARK    2  A    between atoms: C5_5  and  C6_6 
REMARK    3  A    between atoms: C9_11  and  C10_12 
REMARK    4  A    between atoms: C10_12  and  O2_14 
REMARK    5  A    between atoms: O2_14  and  C11_15 
REMARK    6  A    between atoms: C13_17  and  O3_18 
ROOT
HETATM    1  C1  UNL     1      -3.097   2.589  -0.737  1.00  0.00     0.018 C 
HETATM    2  C2  UNL     1      -3.054   1.474  -0.255  1.00  0.00    -0.074 C 
HETATM    3  C3  UNL     1      -3.005   0.152   0.304  1.00  0.00     0.060 A 
HETATM    4  C4  UNL     1      -2.502  -1.010  -0.293  1.00  0.00     0.098 A 
HETATM    5  O4  UNL     1      -2.633  -2.016   0.529  1.00  0.00    -0.301 OA
HETATM    6  C14 UNL     1      -3.196  -1.623   1.662  1.00  0.00     0.129 A 
HETATM    7 BR1  UNL     1      -3.607  -2.701   3.188  1.00  0.00    -0.022 Br
HETATM    8  C15 UNL     1      -3.438  -0.269   1.545  1.00  0.00     0.001 A 
HETATM    9  C16 UNL     1      -4.066   0.611   2.585  1.00  0.00     0.053 C 
ENDROOT
BRANCH   4  10
HETATM   10  C5  UNL     1      -1.941  -0.977  -1.641  1.00  0.00     0.071 C 
BRANCH  10  11
HETATM   11  C6  UNL     1      -0.653  -0.728  -1.858  1.00  0.00     0.070 A 
HETATM   12  N1  UNL     1      -0.029  -0.672  -3.036  1.00  0.00    -0.354 N 
HETATM   13  C7  UNL     1       1.297  -0.391  -2.856  1.00  0.00     0.042 A 
ATOM     14  H1  UNL     1      -0.477  -0.818  -3.941  1.00  0.00     0.166 HD
HETATM   15  C8  UNL     1       2.158  -0.276  -3.844  1.00  0.00     0.044 C 
HETATM   16  C9  UNL     1       1.553  -0.257  -1.510  1.00  0.00     0.100 A 
HETATM   17  C13 UNL     1       0.321  -0.471  -0.891  1.00  0.00     0.111 A 
BRANCH  16  18
HETATM   18  C10 UNL     1       2.810   0.039  -0.839  1.00  0.00     0.298 C 
HETATM   19  O1  UNL     1       3.876   0.219  -1.467  1.00  0.00    -0.259 OA
BRANCH  18  20
HETATM   20  O2  UNL     1       2.910   0.144   0.543  1.00  0.00    -0.318 OA
BRANCH  20  21
HETATM   21  C11 UNL     1       4.137   0.433   1.188  1.00  0.00     0.174 C 
HETATM   22  C12 UNL     1       3.964   0.488   2.680  1.00  0.00     0.034 C 
ENDBRANCH  20  21
ENDBRANCH  18  20
ENDBRANCH  16  18
BRANCH  17  23
HETATM   23  O3  UNL     1       0.036  -0.448   0.438  1.00  0.00    -0.357 OA
ATOM     24  H3  UNL     1       0.699  -0.273   1.096  1.00  0.00     0.217 HD
ENDBRANCH  17  23
ENDBRANCH  10  11
ENDBRANCH   4  10
TORSDOF 6
