REMARK  4 active torsions:
REMARK  status: ('A' for Active; 'I' for Inactive)
REMARK    1  A    between atoms: C7_12  and  N3_13 
REMARK    2  A    between atoms: N3_13  and  C8_15 
REMARK    3  A    between atoms: C8_15  and  C9_16 
REMARK    4  A    between atoms: C9_16  and  N4_17 
ROOT
HETATM    1  C1  UNL     1      -2.299   1.604  -1.879  1.00  0.00     0.051 C 
HETATM    2  C2  UNL     1      -3.348   0.949  -0.996  1.00  0.00    -0.022 A 
HETATM    3  C3  UNL     1      -4.662   1.295  -1.181  1.00  0.00     0.059 A 
HETATM    4 BR1  UNL     1      -5.436   2.522  -2.427  1.00  0.00    -0.042 Br
HETATM    5  S1  UNL     1      -5.486   0.363  -0.022  1.00  0.00    -0.079 SA
HETATM    6  C4  UNL     1      -4.146  -0.442   0.668  1.00  0.00     0.046 A 
HETATM    7  C5  UNL     1      -4.032  -1.386   1.698  1.00  0.00     0.079 A 
HETATM    8  N1  UNL     1      -5.207  -1.822   2.357  1.00  0.00    -0.100 NA
HETATM    9  C6  UNL     1      -2.783  -1.874   2.050  1.00  0.00     0.117 A 
HETATM   10  N2  UNL     1      -1.760  -1.386   1.354  1.00  0.00    -0.350 N 
ATOM     11  H2  UNL     1      -0.831  -1.730   1.596  1.00  0.00     0.166 HD
HETATM   12  C7  UNL     1      -1.834  -0.483   0.363  1.00  0.00     0.113 A 
HETATM   13  C14 UNL     1      -3.080   0.048  -0.036  1.00  0.00     0.035 A 
ENDROOT
BRANCH  12  14
HETATM   14  N3  UNL     1      -0.772  -0.086  -0.237  1.00  0.00    -0.374 N 
ATOM     15  H3  UNL     1      -0.916   0.602  -0.976  1.00  0.00     0.161 HD
BRANCH  14  16
HETATM   16  C8  UNL     1       0.568  -0.470  -0.015  1.00  0.00     0.141 C 
BRANCH  16  17
HETATM   17  C9  UNL     1       1.460   0.704  -0.441  1.00  0.00     0.146 C 
BRANCH  17  18
HETATM   18  N4  UNL     1       2.818   0.380  -0.244  1.00  0.00    -0.368 N 
HETATM   19  C10 UNL     1       3.410  -0.603  -1.045  1.00  0.00     0.089 C 
HETATM   20  C11 UNL     1       4.906  -0.607  -1.092  1.00  0.00     0.212 C 
HETATM   21  O1  UNL     1       5.469   0.618  -0.765  1.00  0.00    -0.381 OA
HETATM   22  C12 UNL     1       5.081   0.935   0.517  1.00  0.00     0.212 C 
HETATM   23  C13 UNL     1       3.620   1.259   0.506  1.00  0.00     0.089 C 
ENDBRANCH  17  18
ENDBRANCH  16  17
ENDBRANCH  14  16
ENDBRANCH  12  14
TORSDOF 4
