REMARK  7 active torsions:
REMARK  status: ('A' for Active; 'I' for Inactive)
REMARK       I    between atoms: C2_2  and  N1_4 
REMARK    1  A    between atoms: N1_4  and  C3_6 
REMARK    2  A    between atoms: C3_6  and  C4_7 
REMARK    3  A    between atoms: C4_7  and  C5_8 
REMARK    4  A    between atoms: C5_8  and  N2_9 
REMARK    5  A    between atoms: N2_9  and  C6_11 
REMARK    6  A    between atoms: C7_14  and  C8_15 
REMARK    7  A    between atoms: C10_18  and  N4_19 
ROOT
HETATM    1  C8  UNL     1      -3.318  -1.378  -2.307  1.00  0.00    -0.029 C 
HETATM    2  C9  UNL     1      -4.240  -1.753  -2.998  1.00  0.00     0.012 C 
HETATM    3 CL1  UNL     1      -5.552  -2.261  -4.000  1.00  0.00    -0.023 Cl
ENDROOT
BRANCH   1   4
HETATM    4  C7  UNL     1      -2.212  -0.906  -1.449  1.00  0.00     0.124 A 
HETATM    5  N3  UNL     1      -0.973  -1.257  -1.650  1.00  0.00    -0.327 N 
HETATM    6  C6  UNL     1      -0.031  -0.789  -0.832  1.00  0.00     0.147 A 
ATOM      7  H3  UNL     1      -0.729  -1.879  -2.420  1.00  0.00     0.168 HD
HETATM    8  S3  UNL     1      -0.907   0.177   0.260  1.00  0.00    -0.033 SA
HETATM    9  C10 UNL     1      -2.462  -0.064  -0.389  1.00  0.00     0.121 A 
BRANCH   6  10
HETATM   10  N2  UNL     1       1.263  -1.012  -0.851  1.00  0.00    -0.370 N 
ATOM     11  H2  UNL     1       1.688  -1.615  -1.556  1.00  0.00     0.161 HD
BRANCH  10  12
HETATM   12  C5  UNL     1       2.067  -0.361   0.179  1.00  0.00     0.123 C 
BRANCH  12  13
HETATM   13  C4  UNL     1       2.390   1.068  -0.201  1.00  0.00     0.039 C 
BRANCH  13  14
HETATM   14  C3  UNL     1       3.213   1.647   0.915  1.00  0.00     0.124 C 
BRANCH  14  15
HETATM   15  N1  UNL     1       4.414   0.871   1.077  1.00  0.00    -0.361 N 
HETATM   16  C2  UNL     1       5.372   0.745   0.061  1.00  0.00     0.213 C 
HETATM   17  C1  UNL     1       6.584  -0.089   0.325  1.00  0.00     0.117 C 
HETATM   18  O1  UNL     1       5.221   1.311  -1.030  1.00  0.00    -0.274 OA
ATOM     19  H1  UNL     1       4.574   0.395   1.965  1.00  0.00     0.162 HD
ENDBRANCH  14  15
ENDBRANCH  13  14
ENDBRANCH  12  13
ENDBRANCH  10  12
ENDBRANCH   6  10
BRANCH   9  20
HETATM   20  N4  UNL     1      -3.760   0.469   0.041  1.00  0.00    -0.292 N 
HETATM   21  C11 UNL     1      -4.522  -0.084   0.948  1.00  0.00     0.022 A 
HETATM   22  C12 UNL     1      -4.108  -1.377   1.659  1.00  0.00     0.069 C 
HETATM   23  C13 UNL     1      -5.712   0.532   1.247  1.00  0.00     0.077 A 
HETATM   24  S1  UNL     1      -5.691   1.885   0.212  1.00  0.00    -0.070 SA
HETATM   25  C14 UNL     1      -4.188   1.597  -0.535  1.00  0.00     0.150 A 
HETATM   26  S2  UNL     1      -3.451   2.516  -1.702  1.00  0.00    -0.052 SA
ENDBRANCH   9  20
ENDBRANCH   1   4
TORSDOF 7
