REMARK  8 active torsions:
REMARK  status: ('A' for Active; 'I' for Inactive)
REMARK    1  A    between atoms: O1_2  and  C2_3 
REMARK    2  A    between atoms: C2_3  and  C3_5 
REMARK    3  A    between atoms: C6_8  and  C7_9 
REMARK    4  A    between atoms: C7_9  and  C8_11 
REMARK    5  A    between atoms: C11_16  and  C12_17 
REMARK    6  A    between atoms: C12_17  and  O4_18 
REMARK    7  A    between atoms: C12_17  and  C13_20 
REMARK    8  A    between atoms: C16_23  and  O5_24 
ROOT
HETATM    1  C8  UNL     1       0.866  -0.473   0.342  1.00  0.00     0.118 A 
HETATM    2  N1  UNL     1       1.043  -1.035   1.523  1.00  0.00    -0.354 N 
ATOM      3  H1  UNL     1       0.288  -1.424   2.087  1.00  0.00     0.166 HD
HETATM    4  C9  UNL     1       2.333  -1.035   1.895  1.00  0.00     0.021 A 
HETATM    5  C10 UNL     1       2.911  -1.557   3.160  1.00  0.00     0.069 C 
HETATM    6  C11 UNL     1       3.088  -0.438   0.907  1.00  0.00     0.051 A 
HETATM    7  C16 UNL     1       2.170  -0.092  -0.070  1.00  0.00     0.111 A 
ENDROOT
BRANCH   1   8
HETATM    8  C7  UNL     1      -0.291  -0.209  -0.462  1.00  0.00     0.215 C 
HETATM    9  O3  UNL     1      -0.091  -0.051  -1.731  1.00  0.00    -0.285 OA
BRANCH   8  10
HETATM   10  C6  UNL     1      -1.665  -0.081  -0.033  1.00  0.00     0.064 A 
HETATM   11  C4  UNL     1      -2.765  -0.193  -0.898  1.00  0.00    -0.011 A 
HETATM   12  C3  UNL     1      -3.931   0.042  -0.248  1.00  0.00     0.118 A 
HETATM   13  C5  UNL     1      -2.614  -0.577  -2.327  1.00  0.00     0.052 C 
HETATM   14  N2  UNL     1      -3.603   0.299   1.033  1.00  0.00    -0.336 N 
HETATM   15  C17 UNL     1      -2.247   0.230   1.171  1.00  0.00     0.121 A 
HETATM   16  C18 UNL     1      -4.504   0.586   2.151  1.00  0.00     0.157 C 
HETATM   17 CL1  UNL     1      -1.439   0.625   2.677  1.00  0.00    -0.063 Cl
BRANCH  12  18
HETATM   18  C2  UNL     1      -5.267   0.188  -0.791  1.00  0.00     0.310 C 
HETATM   19  O2  UNL     1      -6.301   0.303  -0.066  1.00  0.00    -0.258 OA
BRANCH  18  20
HETATM   20  O1  UNL     1      -5.561   0.219  -2.158  1.00  0.00    -0.321 OA
HETATM   21  C1  UNL     1      -6.827   0.365  -2.713  1.00  0.00     0.213 C 
ENDBRANCH  18  20
ENDBRANCH  12  18
ENDBRANCH   8  10
ENDBRANCH   1   8
BRANCH   7  22
HETATM   22  O5  UNL     1       2.427   0.526  -1.274  1.00  0.00    -0.357 OA
ATOM     23  H5  UNL     1       3.300   0.781  -1.550  1.00  0.00     0.217 HD
ENDBRANCH   7  22
BRANCH   6  24
HETATM   24  C12 UNL     1       4.523  -0.215   0.895  1.00  0.00     0.061 C 
BRANCH  24  25
HETATM   25  O4  UNL     1       5.134  -0.674   1.947  1.00  0.00    -0.364 OA
ATOM     26  H4  UNL     1       6.073  -0.528   1.939  1.00  0.00     0.217 HD
ENDBRANCH  24  25
BRANCH  24  27
HETATM   27  C13 UNL     1       5.379   0.419  -0.071  1.00  0.00     0.035 C 
HETATM   28  C14 UNL     1       5.202   1.900  -0.224  1.00  0.00     0.016 C 
HETATM   29  C15 UNL     1       5.458  -0.298  -1.413  1.00  0.00     0.016 C 
ENDBRANCH  24  27
ENDBRANCH   6  24
TORSDOF 8
