REMARK  7 active torsions:
REMARK  status: ('A' for Active; 'I' for Inactive)
REMARK    1  A    between atoms: O1_2  and  C2_3 
REMARK    2  A    between atoms: C3_4  and  N1_5 
REMARK       I    between atoms: N1_5  and  C4_7 
REMARK    3  A    between atoms: C8_12  and  C9_13 
REMARK    4  A    between atoms: C9_13  and  N2_15 
REMARK    5  A    between atoms: N2_15  and  N3_16 
REMARK    6  A    between atoms: N3_16  and  C11_18 
REMARK    7  A    between atoms: C15_26  and  O3_27 
ROOT
HETATM    1  C2  UNL     1      -2.582  -0.305  -0.394  1.00  0.00     0.129 A 
HETATM    2  C3  UNL     1      -2.922   0.878   0.244  1.00  0.00     0.071 A 
HETATM    3  C6  UNL     1      -1.932   1.586   0.858  1.00  0.00     0.033 A 
HETATM    4  C7  UNL     1      -0.629   1.095   0.822  1.00  0.00     0.020 A 
HETATM    5  C8  UNL     1      -0.276  -0.087   0.189  1.00  0.00     0.038 A 
HETATM    6  C15 UNL     1      -1.266  -0.789  -0.425  1.00  0.00     0.117 A 
ENDROOT
BRANCH   5   7
HETATM    7  C9  UNL     1       1.120  -0.545   0.278  1.00  0.00     0.118 C 
HETATM    8  C10 UNL     1       1.555  -1.874  -0.222  1.00  0.00     0.088 C 
BRANCH   7   9
HETATM    9  N2  UNL     1       1.948   0.185   0.814  1.00  0.00    -0.328 NA
BRANCH   9  10
HETATM   10  N3  UNL     1       2.787   0.923   1.356  1.00  0.00    -0.212 N 
ATOM     11  H3  UNL     1       2.406   1.647   1.965  1.00  0.00     0.204 HD
BRANCH  10  12
HETATM   12  C11 UNL     1       4.091   0.901   1.255  1.00  0.00     0.175 A 
HETATM   13  N4  UNL     1       4.873   0.090   0.552  1.00  0.00    -0.337 N 
HETATM   14  C12 UNL     1       6.165   0.252   0.600  1.00  0.00     0.036 A 
ATOM     15  H4  UNL     1       4.467  -0.651  -0.019  1.00  0.00     0.168 HD
HETATM   16  C13 UNL     1       7.128  -0.642  -0.176  1.00  0.00     0.070 C 
HETATM   17  C14 UNL     1       6.652   1.265   1.385  1.00  0.00     0.100 A 
HETATM   18 CL1  UNL     1       8.350   1.715   1.639  1.00  0.00    -0.074 Cl
HETATM   19  S1  UNL     1       5.228   1.944   2.023  1.00  0.00    -0.038 SA
ENDBRANCH  10  12
ENDBRANCH   9  10
ENDBRANCH   7   9
ENDBRANCH   5   7
BRANCH   6  20
HETATM   20  O3  UNL     1      -1.058  -1.981  -1.099  1.00  0.00    -0.352 OA
HETATM   21  C16 UNL     1      -0.828  -1.871  -2.514  1.00  0.00     0.210 C 
ENDBRANCH   6  20
BRANCH   1  22
HETATM   22  O1  UNL     1      -3.580  -1.022  -1.015  1.00  0.00    -0.351 OA
HETATM   23  C1  UNL     1      -4.267  -1.997  -0.256  1.00  0.00     0.210 C 
ENDBRANCH   1  22
BRANCH   2  24
HETATM   24  N1  UNL     1      -4.264   1.313   0.256  1.00  0.00    -0.325 N 
HETATM   25  C4  UNL     1      -4.841   2.441   0.802  1.00  0.00     0.218 C 
HETATM   26  C5  UNL     1      -6.321   2.655   0.667  1.00  0.00     0.117 C 
HETATM   27  O2  UNL     1      -4.230   3.321   1.414  1.00  0.00    -0.274 OA
ATOM     28  H1  UNL     1      -4.917   0.689  -0.218  1.00  0.00     0.169 HD
ENDBRANCH   2  24
TORSDOF 7
