REMARK  6 active torsions:
REMARK  status: ('A' for Active; 'I' for Inactive)
REMARK    1  A    between atoms: C2_2  and  N1_3 
REMARK    2  A    between atoms: N1_3  and  C3_4 
REMARK       I    between atoms: N1_3  and  C5_6 
REMARK    3  A    between atoms: C5_6  and  C6_8 
REMARK    4  A    between atoms: C6_8  and  C7_9 
REMARK    5  A    between atoms: C12_20  and  C13_21 
REMARK    6  A    between atoms: C16_29  and  C18_31 
ROOT
HETATM    1  C7  UNL     1       1.104  -1.673   0.039  1.00  0.00     0.063 A 
HETATM    2  N2  UNL     1       0.773  -2.824   0.618  1.00  0.00    -0.302 N 
ATOM      3  H2  UNL     1       1.408  -3.610   0.755  1.00  0.00     0.186 HD
HETATM    4  N3  UNL     1      -0.494  -2.805   0.991  1.00  0.00    -0.301 N 
ATOM      5  H3  UNL     1      -0.993  -3.562   1.457  1.00  0.00     0.186 HD
HETATM    6  C8  UNL     1      -1.010  -1.612   0.648  1.00  0.00     0.068 A 
HETATM    7  C9  UNL     1      -0.046  -0.870   0.052  1.00  0.00     0.082 A 
HETATM    8  N4  UNL     1      -0.319   0.437  -0.352  1.00  0.00    -0.356 N 
ATOM      9  H4  UNL     1       0.437   0.951  -0.804  1.00  0.00     0.166 HD
HETATM   10  C10 UNL     1      -1.421   1.041  -0.207  1.00  0.00     0.017 C 
HETATM   11  C11 UNL     1      -1.540   2.426  -0.702  1.00  0.00     0.069 C 
HETATM   12  C12 UNL     1      -2.525   0.384   0.504  1.00  0.00     0.033 C 
HETATM   13  C16 UNL     1      -2.385  -1.061   0.767  1.00  0.00     0.048 C 
HETATM   14  C17 UNL     1      -2.839  -1.391   2.204  1.00  0.00     0.029 C 
ENDROOT
BRANCH   1  15
HETATM   15  C6  UNL     1       2.388  -1.232  -0.531  1.00  0.00     0.164 C 
BRANCH  15  16
HETATM   16  C5  UNL     1       3.054  -0.283   0.398  1.00  0.00     0.225 C 
HETATM   17  N1  UNL     1       4.312   0.254   0.020  1.00  0.00    -0.353 N 
HETATM   18  O1  UNL     1       2.512   0.025   1.477  1.00  0.00    -0.273 OA
BRANCH  17  19
HETATM   19  C2  UNL     1       4.969   1.170   0.904  1.00  0.00     0.121 C 
HETATM   20  C1  UNL     1       4.576   2.596   0.614  1.00  0.00     0.026 C 
ENDBRANCH  17  19
BRANCH  17  21
HETATM   21  C3  UNL     1       4.966  -0.086  -1.226  1.00  0.00     0.121 C 
HETATM   22  C4  UNL     1       5.872  -1.291  -1.085  1.00  0.00     0.026 C 
ENDBRANCH  17  21
ENDBRANCH  15  16
ENDBRANCH   1  15
BRANCH  13  23
HETATM   23  C18 UNL     1      -3.241  -1.971  -0.103  1.00  0.00     0.135 C 
HETATM   24 CL1  UNL     1      -2.701  -1.997  -1.796  1.00  0.00    -0.129 Cl
ENDBRANCH  13  23
BRANCH  12  25
HETATM   25  C13 UNL     1      -3.855   0.788   0.022  1.00  0.00     0.181 A 
HETATM   26  N5  UNL     1      -4.391   0.627  -1.190  1.00  0.00    -0.323 N 
HETATM   27  C14 UNL     1      -5.621   1.132  -1.222  1.00  0.00     0.100 A 
ATOM     28  H5  UNL     1      -3.924   0.180  -1.979  1.00  0.00     0.169 HD
HETATM   29  C15 UNL     1      -6.612   1.194  -2.333  1.00  0.00     0.091 C 
HETATM   30  N6  UNL     1      -5.837   1.619   0.025  1.00  0.00    -0.247 N 
HETATM   31  O2  UNL     1      -4.760   1.394   0.734  1.00  0.00    -0.218 OA
ATOM     32  H6  UNL     1      -6.687   2.079   0.352  1.00  0.00     0.196 HD
ENDBRANCH  12  25
TORSDOF 6
