REMARK  13 active torsions:
REMARK  status: ('A' for Active; 'I' for Inactive)
REMARK    1  A    between atoms: N1_2  and  C2_4 
REMARK    2  A    between atoms: C3_5  and  C4_6 
REMARK    3  A    between atoms: C11_20  and  N5_21 
REMARK    4  A    between atoms: N5_21  and  C12_23 
REMARK    5  A    between atoms: C12_23  and  C13_24 
REMARK    6  A    between atoms: C13_24  and  O4_25 
REMARK    7  A    between atoms: C15_28  and  N6_29 
REMARK    8  A    between atoms: N6_29  and  C16_30 
REMARK    9  A    between atoms: N6_29  and  C18_34 
REMARK   10  A    between atoms: C16_30  and  C17_31 
REMARK   11  A    between atoms: C17_31  and  O5_32 
REMARK   12  A    between atoms: C18_34  and  C19_35 
REMARK   13  A    between atoms: C19_35  and  O6_36 
ROOT
HETATM    1  C2  UNL     1      -4.149  -0.301  -0.328  1.00  0.00     0.078 A 
HETATM    2  C3  UNL     1      -4.242  -1.653  -0.245  1.00  0.00     0.126 A 
HETATM    3  C5  UNL     1      -3.103  -2.413  -0.093  1.00  0.00     0.265 A 
HETATM    4  O2  UNL     1      -3.226  -3.682  -0.018  1.00  0.00    -0.267 OA
HETATM    5  N3  UNL     1      -1.842  -1.907  -0.016  1.00  0.00    -0.314 N 
HETATM    6  C6  UNL     1      -0.703  -2.766   0.134  1.00  0.00     0.160 C 
HETATM    7  C7  UNL     1      -1.752  -0.555  -0.099  1.00  0.00     0.094 A 
HETATM    8  C8  UNL     1      -2.864   0.250  -0.252  1.00  0.00     0.092 A 
HETATM    9  N4  UNL     1      -2.726   1.579  -0.340  1.00  0.00    -0.319 N 
ATOM     10  H4  UNL     1      -3.567   2.145  -0.453  1.00  0.00     0.169 HD
HETATM   11  C9  UNL     1      -1.532   2.211  -0.287  1.00  0.00     0.260 A 
HETATM   12  O3  UNL     1      -1.516   3.465  -0.379  1.00  0.00    -0.267 OA
HETATM   13  C10 UNL     1      -0.398   1.452  -0.136  1.00  0.00     0.087 A 
HETATM   14  C11 UNL     1       0.837   2.051  -0.088  1.00  0.00     0.050 A 
HETATM   15  C14 UNL     1       1.935   1.192   0.059  1.00  0.00     0.078 A 
HETATM   16  C15 UNL     1       1.776  -0.165   0.150  1.00  0.00     0.105 A 
HETATM   17  N7  UNL     1       0.552  -0.672   0.096  1.00  0.00    -0.340 N 
ATOM     18  H7  UNL     1       0.444  -1.684   0.165  1.00  0.00     0.167 HD
HETATM   19  C20 UNL     1      -0.522   0.057  -0.041  1.00  0.00     0.081 A 
ENDROOT
BRANCH  16  20
HETATM   20  N6  UNL     1       2.959  -0.983   0.272  1.00  0.00    -0.363 N 
BRANCH  20  21
HETATM   21  C16 UNL     1       2.956  -2.060   1.209  1.00  0.00     0.150 C 
BRANCH  21  22
HETATM   22  C17 UNL     1       3.932  -1.835   2.351  1.00  0.00     0.183 C 
BRANCH  22  23
HETATM   23  O5  UNL     1       3.832  -2.946   3.185  1.00  0.00    -0.399 OA
ATOM     24  H5  UNL     1       4.442  -2.805   3.899  1.00  0.00     0.209 HD
ENDBRANCH  22  23
ENDBRANCH  21  22
ENDBRANCH  20  21
BRANCH  20  25
HETATM   25  C18 UNL     1       4.149  -0.770  -0.540  1.00  0.00     0.150 C 
BRANCH  25  26
HETATM   26  C19 UNL     1       4.331  -1.910  -1.530  1.00  0.00     0.183 C 
BRANCH  26  27
HETATM   27  O6  UNL     1       5.471  -1.689  -2.296  1.00  0.00    -0.399 OA
ATOM     28  H6  UNL     1       5.585  -2.401  -2.914  1.00  0.00     0.209 HD
ENDBRANCH  26  27
ENDBRANCH  25  26
ENDBRANCH  20  25
ENDBRANCH  16  20
BRANCH  14  29
HETATM   29  N5  UNL     1       1.064   3.450  -0.166  1.00  0.00    -0.387 N 
ATOM     30  H5  UNL     1       0.278   4.096  -0.240  1.00  0.00     0.159 HD
BRANCH  29  31
HETATM   31  C12 UNL     1       2.445   3.960  -0.139  1.00  0.00     0.146 C 
BRANCH  31  32
HETATM   32  C13 UNL     1       2.400   5.476  -0.230  1.00  0.00     0.183 C 
BRANCH  32  33
HETATM   33  O4  UNL     1       1.781   5.884  -1.411  1.00  0.00    -0.399 OA
ATOM     34  H4  UNL     1       1.753   6.832  -1.468  1.00  0.00     0.209 HD
ENDBRANCH  32  33
ENDBRANCH  31  32
ENDBRANCH  29  31
ENDBRANCH  14  29
BRANCH   1  35
HETATM   35  N1  UNL     1      -5.237   0.581  -0.486  1.00  0.00    -0.391 N 
HETATM   36  C1  UNL     1      -5.990   1.208   0.567  1.00  0.00     0.146 C 
ATOM     37  H1  UNL     1      -5.518   0.796  -1.443  1.00  0.00     0.159 HD
ENDBRANCH   1  35
BRANCH   2  38
HETATM   38  C4  UNL     1      -5.524  -2.300  -0.319  1.00  0.00     0.272 C 
HETATM   39  N2  UNL     1      -5.626  -3.703  -0.234  1.00  0.00    -0.057 NA
HETATM   40  O1  UNL     1      -6.568  -1.633  -0.460  1.00  0.00    -0.271 OA
ENDBRANCH   2  38
TORSDOF 13
