REMARK  4 active torsions:
REMARK  status: ('A' for Active; 'I' for Inactive)
REMARK    1  A    between atoms: C2_2  and  C3_3 
REMARK    2  A    between atoms: N2_6  and  C5_8 
REMARK    3  A    between atoms: C5_8  and  O1_9 
REMARK    4  A    between atoms: N3_11  and  O2_13 
ROOT
HETATM    1  C3  UNL     1       1.336  -0.525  -0.236  1.00  0.00     0.122 C 
HETATM    2  C4  UNL     1       1.984  -0.930  -1.457  1.00  0.00     0.116 C 
HETATM    3  N1  UNL     1       2.496  -1.270  -2.427  1.00  0.00    -0.190 NA
HETATM    4  N2  UNL     1       1.947   0.025   0.741  1.00  0.00    -0.313 N 
ATOM      5  H2  UNL     1       1.386   0.271   1.557  1.00  0.00     0.170 HD
ENDROOT
BRANCH   1   6
HETATM    6  C2  UNL     1      -0.123  -0.750  -0.083  1.00  0.00     0.088 C 
HETATM    7  C1  UNL     1      -0.318  -2.269  -0.212  1.00  0.00     0.047 C 
HETATM    8  C6  UNL     1      -0.604  -0.350   1.266  1.00  0.00     0.111 C 
HETATM    9  S1  UNL     1      -1.041   1.395   1.388  1.00  0.00    -0.166 SA
HETATM   10  C7  UNL     1      -2.587   1.788   0.559  1.00  0.00     0.081 C 
HETATM   11  C8  UNL     1      -3.137   0.638  -0.244  1.00  0.00     0.079 C 
HETATM   12  C9  UNL     1      -2.147   0.329  -1.322  1.00  0.00     0.075 C 
HETATM   13  S2  UNL     1      -2.597   0.562  -2.867  1.00  0.00    -0.066 SA
HETATM   14  N4  UNL     1      -0.823  -0.158  -1.177  1.00  0.00    -0.368 N 
ATOM     15  H4  UNL     1      -0.259  -0.067  -2.022  1.00  0.00     0.161 HD
ENDBRANCH   1   6
BRANCH   4  16
HETATM   16  C5  UNL     1       3.310   0.322   0.798  1.00  0.00     0.242 C 
HETATM   17  N3  UNL     1       3.717   1.506   0.513  1.00  0.00    -0.233 N 
ATOM     18  H3  UNL     1       4.711   1.730   0.553  1.00  0.00     0.198 HD
BRANCH  16  19
HETATM   19  O1  UNL     1       4.186  -0.700   1.169  1.00  0.00    -0.331 OA
ATOM     20  H1  UNL     1       5.113  -0.498   1.208  1.00  0.00     0.221 HD
ENDBRANCH  16  19
BRANCH  17  21
HETATM   21  O2  UNL     1       2.811   2.464   0.156  1.00  0.00    -0.287 OA
ATOM     22  H2  UNL     1       3.112   3.340  -0.055  1.00  0.00     0.244 HD
ENDBRANCH  17  21
ENDBRANCH   4  16
TORSDOF 4
