REMARK  0 active torsions:
REMARK  status: ('A' for Active; 'I' for Inactive)
ROOT
HETATM    1  C1  UNL     1      -0.730  -0.286  -1.471  1.00  0.00     0.048 C 
HETATM    2  C2  UNL     1      -0.506  -0.397  -0.007  1.00  0.00     0.142 C 
HETATM    3  C3  UNL     1       0.707  -1.311   0.208  1.00  0.00     0.042 C 
HETATM    4  C4  UNL     1       1.739  -1.200  -0.845  1.00  0.00     0.028 C 
HETATM    5  C5  UNL     1       3.158  -0.897  -0.473  1.00  0.00     0.151 C 
HETATM    6  S1  UNL     1       3.789   0.325  -1.737  1.00  0.00    -0.077 SA
HETATM    7  S2  UNL     1       2.426   1.974  -1.375  1.00  0.00    -0.043 SA
HETATM    8  C6  UNL     1       1.591   1.591   0.104  1.00  0.00     0.061 C 
HETATM    9  N1  UNL     1       2.035   0.732   0.959  1.00  0.00    -0.323 N 
ATOM     10  H1  UNL     1       1.494   0.582   1.811  1.00  0.00     0.169 HD
HETATM   11  C7  UNL     1       3.208  -0.004   0.791  1.00  0.00     0.237 C 
HETATM   12  O1  UNL     1       4.192  -0.018   1.481  1.00  0.00    -0.272 OA
HETATM   13  C8  UNL     1       0.159   2.058   0.371  1.00  0.00     0.092 C 
HETATM   14  C9  UNL     1      -0.597   0.812   0.819  1.00  0.00     0.118 C 
HETATM   15  N2  UNL     1      -1.900   1.237   1.193  1.00  0.00    -0.413 N 
ATOM     16  H2  UNL     1      -2.048   1.873   1.977  1.00  0.00     0.153 HD
HETATM   17  C10 UNL     1      -2.981   0.740   0.431  1.00  0.00     0.142 C 
HETATM   18  C11 UNL     1      -2.912  -0.756   0.210  1.00  0.00     0.252 C 
HETATM   19  N3  UNL     1      -1.622  -1.273   0.472  1.00  0.00    -0.063 N 
ATOM     20  H31 UNL     1      -1.514  -1.480   1.465  1.00  0.00     0.278 HD
ATOM     21  H32 UNL     1      -1.529  -2.214   0.089  1.00  0.00     0.278 HD
ENDROOT
TORSDOF 0
