REMARK  2 active torsions:
REMARK  status: ('A' for Active; 'I' for Inactive)
REMARK    1  A    between atoms: C6_8  and  C7_9 
REMARK    2  A    between atoms: N2_10  and  O1_12 
ROOT
HETATM    1  C1  UNL     1      -0.918  -3.871   0.017  1.00  0.00     0.097 C 
HETATM    2  C2  UNL     1      -0.599  -2.433   0.244  1.00  0.00     0.113 C 
HETATM    3  N1  UNL     1       0.481  -1.950  -0.252  1.00  0.00    -0.365 N 
ATOM      4  H1  UNL     1       1.080  -2.579  -0.787  1.00  0.00     0.162 HD
HETATM    5  C3  UNL     1       0.910  -0.576  -0.107  1.00  0.00     0.037 C 
HETATM    6  C4  UNL     1       1.065   0.068  -1.484  1.00  0.00     0.032 C 
HETATM    7  C5  UNL     1       2.426   0.750  -1.430  1.00  0.00     0.012 C 
HETATM    8  C6  UNL     1       3.230  -0.229  -0.629  1.00  0.00     0.028 C 
HETATM    9  C8  UNL     1       2.305  -0.612   0.488  1.00  0.00     0.041 C 
HETATM   10  C9  UNL     1      -0.000   0.209   0.776  1.00  0.00     0.092 C 
HETATM   11  C10 UNL     1      -1.428  -0.234   0.667  1.00  0.00     0.145 C 
HETATM   12  C11 UNL     1      -2.307   0.572   1.579  1.00  0.00     0.073 C 
HETATM   13  C12 UNL     1      -2.922   1.597   0.667  1.00  0.00     0.053 C 
HETATM   14  C13 UNL     1      -4.267   2.077   1.168  1.00  0.00     0.018 C 
HETATM   15  C14 UNL     1      -3.093   0.833  -0.595  1.00  0.00     0.076 C 
HETATM   16  N3  UNL     1      -4.057   0.965  -1.473  1.00  0.00    -0.389 N 
ATOM     17  H31 UNL     1      -4.174   0.440  -2.340  1.00  0.00     0.157 HD
ATOM     18  H32 UNL     1      -4.848   1.608  -1.439  1.00  0.00     0.157 HD
HETATM   19  N4  UNL     1      -1.988  -0.066  -0.642  1.00  0.00    -0.348 N 
ATOM     20  H4  UNL     1      -1.645  -0.524  -1.486  1.00  0.00     0.163 HD
HETATM   21  O2  UNL     1      -1.461  -1.623   0.985  1.00  0.00    -0.308 OA
ENDROOT
BRANCH   8  22
HETATM   22  C7  UNL     1       4.447   0.371  -0.040  1.00  0.00     0.091 C 
HETATM   23  N2  UNL     1       4.634   1.634   0.004  1.00  0.00    -0.284 N 
ATOM     24  H2  UNL     1       3.925   2.260  -0.378  1.00  0.00     0.192 HD
BRANCH  23  25
HETATM   25  O1  UNL     1       5.765   2.159   0.553  1.00  0.00    -0.291 OA
ATOM     26  H1  UNL     1       5.904   3.098   0.586  1.00  0.00     0.244 HD
ENDBRANCH  23  25
ENDBRANCH   8  22
TORSDOF 2
