REMARK  2 active torsions:
REMARK  status: ('A' for Active; 'I' for Inactive)
REMARK    1  A    between atoms: C2_2  and  C4_4 
REMARK    2  A    between atoms: C2_2  and  C5_7 
ROOT
HETATM    1  C5  UNL     1       0.442  -0.829  -0.152  1.00  0.00     0.204 A 
HETATM    2  C6  UNL     1       1.567  -0.724   0.825  1.00  0.00     0.062 A 
HETATM    3  C7  UNL     1       2.371  -0.012  -0.242  1.00  0.00     0.235 A 
HETATM    4  N2  UNL     1       1.225  -0.096  -1.130  1.00  0.00    -0.070 N 
ATOM      5  H21 UNL     1       0.843   0.763  -1.525  1.00  0.00     0.277 HD
ATOM      6  H22 UNL     1       1.350  -0.494  -2.061  1.00  0.00     0.277 HD
ENDROOT
BRANCH   1   7
HETATM    7  C2  UNL     1      -0.813  -0.074   0.179  1.00  0.00     0.059 C 
HETATM    8  C1  UNL     1      -1.419  -0.527   1.495  1.00  0.00     0.027 C 
HETATM    9  C3  UNL     1      -1.825  -0.483  -0.905  1.00  0.00     0.027 C 
BRANCH   7  10
HETATM   10  C4  UNL     1      -0.645   1.379   0.230  1.00  0.00     0.241 C 
HETATM   11  N1  UNL     1      -0.100   2.112  -0.852  1.00  0.00    -0.061 NA
HETATM   12  O1  UNL     1      -0.978   2.066   1.252  1.00  0.00    -0.276 OA
ENDBRANCH   7  10
ENDBRANCH   1   7
TORSDOF 2
