REMARK  2 active torsions:
REMARK  status: ('A' for Active; 'I' for Inactive)
REMARK    1  A    between atoms: C2_2  and  N1_5 
REMARK       I    between atoms: C5_7  and  N3_9 
REMARK    2  A    between atoms: N3_9  and  C6_11 
ROOT
HETATM    1  N1  UNL     1      -0.968   0.395   0.848  1.00  0.00    -0.357 N 
ATOM      2  H1  UNL     1      -0.872   1.193   1.475  1.00  0.00     0.163 HD
HETATM    3  C5  UNL     1       0.089  -0.302   0.582  1.00  0.00     0.185 C 
HETATM    4  N2  UNL     1      -0.064  -1.410  -0.295  1.00  0.00    -0.064 NA
HETATM    5  N3  UNL     1       1.348   0.027   1.142  1.00  0.00    -0.360 N 
ATOM      6  H3  UNL     1       1.409   0.584   1.995  1.00  0.00     0.162 HD
ENDROOT
BRANCH   1   7
HETATM    7  C2  UNL     1      -2.261   0.110   0.313  1.00  0.00     0.021 C 
HETATM    8  C1  UNL     1      -2.760  -1.278   0.626  1.00  0.00     0.037 C 
HETATM    9  C3  UNL     1      -2.305   0.273  -1.204  1.00  0.00     0.037 C 
HETATM   10  C4  UNL     1      -3.251   1.113   0.919  1.00  0.00     0.037 C 
ENDBRANCH   1   7
BRANCH   5  11
HETATM   11  C6  UNL     1       2.548  -0.444   0.478  1.00  0.00     0.084 C 
HETATM   12  C7  UNL     1       2.604   0.108  -0.933  1.00  0.00     0.025 C 
HETATM   13  C8  UNL     1       3.388   1.276  -0.368  1.00  0.00     0.004 C 
HETATM   14  C9  UNL     1       3.779   0.373   0.784  1.00  0.00     0.025 C 
ENDBRANCH   5  11
TORSDOF 2
