REMARK  4 active torsions:
REMARK  status: ('A' for Active; 'I' for Inactive)
REMARK    1  A    between atoms: C2_2  and  N1_4 
REMARK       I    between atoms: N1_4  and  C4_6 
REMARK    2  A    between atoms: N3_8  and  C5_10 
REMARK    3  A    between atoms: C5_10  and  N4_11 
REMARK    4  A    between atoms: C5_10  and  C6_15 
ROOT
HETATM    1  N1  UNL     1       1.425  -0.641   0.272  1.00  0.00    -0.361 N 
ATOM      2  H1  UNL     1       1.091  -1.300   0.975  1.00  0.00     0.162 HD
HETATM    3  C4  UNL     1       0.588  -0.424  -0.852  1.00  0.00     0.185 C 
HETATM    4  N2  UNL     1       1.072  -0.243  -2.169  1.00  0.00    -0.064 NA
HETATM    5  N3  UNL     1      -0.696  -0.384  -0.693  1.00  0.00    -0.337 N 
ATOM      6  H3  UNL     1      -1.283  -0.227  -1.513  1.00  0.00     0.164 HD
ENDROOT
BRANCH   5   7
HETATM    7  C5  UNL     1      -1.333  -0.550   0.583  1.00  0.00     0.287 C 
BRANCH   7   8
HETATM    8  N4  UNL     1      -1.458  -1.964   0.926  1.00  0.00    -0.058 N 
ATOM      9  H43 UNL     1      -1.939  -2.487   0.195  1.00  0.00     0.276 HD
ATOM     10  H42 UNL     1      -0.557  -2.441   0.891  1.00  0.00     0.276 HD
ATOM     11  H41 UNL     1      -1.911  -2.082   1.832  1.00  0.00     0.276 HD
ENDBRANCH   7   8
BRANCH   7  12
HETATM   12  C6  UNL     1      -2.675   0.145   0.645  1.00  0.00     0.027 C 
HETATM   13  C7  UNL     1      -2.431   1.620   0.397  1.00  0.00     0.013 C 
HETATM   14  C8  UNL     1      -3.614  -0.345  -0.426  1.00  0.00     0.013 C 
ENDBRANCH   7  12
ENDBRANCH   5   7
BRANCH   1  15
HETATM   15  C2  UNL     1       2.677  -0.031   0.511  1.00  0.00     0.076 C 
HETATM   16  C1  UNL     1       2.665   1.468   0.606  1.00  0.00     0.032 C 
HETATM   17  C3  UNL     1       3.648  -0.451  -0.575  1.00  0.00     0.032 C 
ENDBRANCH   1  15
TORSDOF 4
