REMARK  4 active torsions:
REMARK  status: ('A' for Active; 'I' for Inactive)
REMARK    1  A    between atoms: N1_2  and  C2_4 
REMARK    2  A    between atoms: C2_4  and  N2_6 
REMARK    3  A    between atoms: N2_6  and  C3_8 
REMARK    4  A    between atoms: C5_10  and  C6_11 
ROOT
HETATM    1  N2  UNL     1      -1.261   0.097  -0.324  1.00  0.00    -0.362 N 
ATOM      2  H2  UNL     1      -1.370   0.980  -0.823  1.00  0.00     0.162 HD
ENDROOT
BRANCH   1   3
HETATM    3  C2  UNL     1      -2.421  -0.532   0.195  1.00  0.00     0.167 C 
HETATM    4  S1  UNL     1      -2.314  -1.955   1.009  1.00  0.00    -0.041 SA
BRANCH   3   5
HETATM    5  N1  UNL     1      -3.711   0.041   0.031  1.00  0.00    -0.372 N 
HETATM    6  C1  UNL     1      -4.905  -0.588   0.555  1.00  0.00     0.148 C 
ATOM      7  H1  UNL     1      -3.799   0.924  -0.472  1.00  0.00     0.161 HD
ENDBRANCH   3   5
ENDBRANCH   1   3
BRANCH   1   8
HETATM    8  C3  UNL     1       0.063  -0.450  -0.180  1.00  0.00     0.088 A 
HETATM    9  C4  UNL     1       0.678  -0.696   1.133  1.00  0.00     0.032 A 
HETATM   10  C5  UNL     1       1.075   0.520   0.414  1.00  0.00     0.013 A 
BRANCH  10  11
HETATM   11  C6  UNL     1       2.344   0.624  -0.376  1.00  0.00    -0.017 C 
HETATM   12  C7  UNL     1       3.081  -0.683  -0.503  1.00  0.00     0.010 C 
HETATM   13  C8  UNL     1       3.274   1.688   0.111  1.00  0.00     0.010 C 
ENDBRANCH  10  11
ENDBRANCH   1   8
TORSDOF 4
