REMARK  1 active torsions:
REMARK  status: ('A' for Active; 'I' for Inactive)
REMARK    1  A    between atoms: C4_4  and  N1_5 
REMARK       I    between atoms: N1_5  and  C5_7 
ROOT
HETATM    1  N1  UNL     1       0.786   0.111  -0.153  1.00  0.00    -0.340 N 
ATOM      2  H1  UNL     1       0.578   0.884   0.480  1.00  0.00     0.164 HD
HETATM    3  C5  UNL     1       2.068   0.024  -0.757  1.00  0.00     0.329 C 
HETATM    4  N2  UNL     1       3.083   0.979  -0.512  1.00  0.00    -0.040 NA
HETATM    5  O1  UNL     1       2.313  -0.951  -1.550  1.00  0.00    -0.251 OA
ENDROOT
BRANCH   1   6
HETATM    6  C4  UNL     1      -0.217  -0.873  -0.422  1.00  0.00     0.089 A 
HETATM    7  C2  UNL     1      -1.663  -0.551  -0.357  1.00  0.00     0.006 A 
HETATM    8  C1  UNL     1      -2.035   0.901  -0.292  1.00  0.00     0.012 C 
HETATM    9  C3  UNL     1      -1.069  -1.249   0.801  1.00  0.00     0.032 A 
ENDBRANCH   1   6
TORSDOF 1
