REMARK  3 active torsions:
REMARK  status: ('A' for Active; 'I' for Inactive)
REMARK    1  A    between atoms: C3_3  and  C5_5 
REMARK    2  A    between atoms: C5_5  and  N1_6 
REMARK    3  A    between atoms: C5_5  and  C6_10 
ROOT
HETATM    1  C1  UNL     1      -2.530   1.824   0.142  1.00  0.00     0.097 C 
HETATM    2  C2  UNL     1      -1.849   0.812   0.012  1.00  0.00    -0.181 C 
HETATM    3  C3  UNL     1      -1.061  -0.407  -0.148  1.00  0.00     0.087 C 
HETATM    4  C4  UNL     1      -0.992  -1.087   1.202  1.00  0.00     0.025 C 
ENDROOT
BRANCH   3   5
HETATM    5  C5  UNL     1       0.297  -0.048  -0.673  1.00  0.00     0.286 C 
BRANCH   5   6
HETATM    6  N1  UNL     1       1.096  -1.252  -0.842  1.00  0.00    -0.066 N 
ATOM      7  H13 UNL     1       1.150  -1.800   0.017  1.00  0.00     0.275 HD
ATOM      8  H12 UNL     1       0.629  -1.943  -1.429  1.00  0.00     0.275 HD
ATOM      9  H11 UNL     1       2.020  -1.008  -1.199  1.00  0.00     0.275 HD
ENDBRANCH   5   6
BRANCH   5  10
HETATM   10  C6  UNL     1       1.006   0.948   0.168  1.00  0.00     0.263 C 
HETATM   11  N2  UNL     1       2.287   0.606   0.673  1.00  0.00    -0.060 NA
HETATM   12  O1  UNL     1       0.533   2.074   0.455  1.00  0.00    -0.275 OA
ENDBRANCH   5  10
ENDBRANCH   3   5
TORSDOF 3
