REMARK  1 active torsions:
REMARK  status: ('A' for Active; 'I' for Inactive)
REMARK    1  A    between atoms: C4_4  and  C5_5 
ROOT
HETATM    1  C1  UNL     1      -2.088   0.545   0.873  1.00  0.00     0.011 C 
HETATM    2  C2  UNL     1      -0.845  -0.254   0.640  1.00  0.00    -0.005 A 
HETATM    3  C3  UNL     1      -0.667  -0.743  -0.784  1.00  0.00     0.019 A 
HETATM    4  C4  UNL     1       0.281   0.229  -0.168  1.00  0.00     0.079 A 
ENDROOT
BRANCH   4   5
HETATM    5  C5  UNL     1       1.629  -0.325   0.136  1.00  0.00     0.235 C 
HETATM    6  N1  UNL     1       2.832   0.399  -0.083  1.00  0.00    -0.062 NA
HETATM    7  O1  UNL     1       1.712  -1.485   0.608  1.00  0.00    -0.276 OA
ENDBRANCH   4   5
TORSDOF 1
