REMARK  1 active torsions:
REMARK  status: ('A' for Active; 'I' for Inactive)
REMARK    1  A    between atoms: N1_2  and  C2_4 
REMARK       I    between atoms: N2_6  and  C4_7 
ROOT
HETATM    1  C2  UNL     1      -1.247  -0.582  -0.346  1.00  0.00     0.116 C 
HETATM    2  C3  UNL     1      -0.513   0.707  -0.155  1.00  0.00     0.152 C 
HETATM    3  N2  UNL     1       0.757   0.000  -0.057  1.00  0.00    -0.352 N 
HETATM    4  C4  UNL     1       2.110   0.443  -0.128  1.00  0.00     0.184 C 
HETATM    5  N3  UNL     1       2.421   1.599  -0.565  1.00  0.00    -0.374 N 
ATOM      6  H31 UNL     1       3.389   1.916  -0.616  1.00  0.00     0.158 HD
ATOM      7  H32 UNL     1       1.663   2.210  -0.868  1.00  0.00     0.158 HD
HETATM    8  N4  UNL     1       3.175  -0.416   0.298  1.00  0.00    -0.064 NA
HETATM    9  C5  UNL     1       0.033  -1.225   0.125  1.00  0.00     0.152 C 
ENDROOT
BRANCH   1  10
HETATM   10  N1  UNL     1      -2.351  -0.690   0.533  1.00  0.00    -0.400 N 
HETATM   11  C1  UNL     1      -3.318   0.139   0.436  1.00  0.00     0.112 C 
ATOM     12  H1  UNL     1      -2.374  -1.425   1.240  1.00  0.00     0.158 HD
ENDBRANCH   1  10
TORSDOF 1
