REMARK  1 active torsions:
REMARK  status: ('A' for Active; 'I' for Inactive)
REMARK    1  A    between atoms: C4_5  and  C5_6 
ROOT
HETATM    1  C1  UNL     1      -1.436   1.306   0.333  1.00  0.00     0.310 C 
HETATM    2  N1  UNL     1      -0.821   0.440  -0.608  1.00  0.00     0.095 N 
HETATM    3  C2  UNL     1      -1.506  -0.872  -0.498  1.00  0.00     0.275 C 
HETATM    4  C3  UNL     1      -0.519  -1.107   0.661  1.00  0.00     0.073 C 
HETATM    5  C4  UNL     1       0.352  -0.285  -0.301  1.00  0.00     0.287 C 
ENDROOT
BRANCH   5   6
HETATM    6  C5  UNL     1       1.550   0.307   0.211  1.00  0.00     0.120 C 
HETATM    7  N2  UNL     1       1.746   1.559   0.403  1.00  0.00    -0.389 N 
ATOM      8  H22 UNL     1       0.967   2.175   0.171  1.00  0.00     0.157 HD
ATOM      9  H21 UNL     1       2.600   1.981   0.768  1.00  0.00     0.157 HD
HETATM   10  N3  UNL     1       2.646  -0.559   0.537  1.00  0.00    -0.086 NA
ENDBRANCH   5   6
TORSDOF 1
