REMARK  3 active torsions:
REMARK  status: ('A' for Active; 'I' for Inactive)
REMARK       I    between atoms: C1_2  and  N1_3 
REMARK    1  A    between atoms: C1_2  and  C7_13 
REMARK    2  A    between atoms: N1_3  and  C2_5 
REMARK    3  A    between atoms: C2_5  and  C3_6 
ROOT
HETATM    1  C2  UNL     1      -0.372   0.827  -0.371  1.00  0.00     0.155 C 
ENDROOT
BRANCH   1   2
HETATM    2  N1  UNL     1       0.738   0.062   0.142  1.00  0.00    -0.359 N 
HETATM    3  C1  UNL     1       2.037   0.354  -0.314  1.00  0.00     0.221 C 
HETATM    4  O1  UNL     1       2.216   1.261  -1.149  1.00  0.00    -0.273 OA
ATOM      5  H1  UNL     1       0.584  -0.680   0.825  1.00  0.00     0.162 HD
BRANCH   3   6
HETATM    6  C7  UNL     1       3.199  -0.406   0.187  1.00  0.00     0.078 A 
HETATM    7  C8  UNL     1       4.464  -0.476  -0.581  1.00  0.00     0.015 A 
HETATM    8  C9  UNL     1       4.418   0.489   0.525  1.00  0.00     0.015 A 
ENDBRANCH   3   6
ENDBRANCH   1   2
BRANCH   1   9
HETATM    9  C3  UNL     1      -1.691   0.392   0.216  1.00  0.00     0.203 C 
HETATM   10  C4  UNL     1      -2.005  -1.052  -0.073  1.00  0.00     0.036 C 
HETATM   11  C5  UNL     1      -3.487  -1.121   0.095  1.00  0.00     0.029 C 
HETATM   12  C6  UNL     1      -3.952   0.303   0.007  1.00  0.00     0.233 C 
HETATM   13  N2  UNL     1      -2.802   1.109  -0.315  1.00  0.00    -0.069 N 
ATOM     14  H22 UNL     1      -2.867   2.073   0.013  1.00  0.00     0.277 HD
ATOM     15  H21 UNL     1      -2.716   1.329  -1.307  1.00  0.00     0.277 HD
ENDBRANCH   1   9
TORSDOF 3
