REMARK  4 active torsions:
REMARK  status: ('A' for Active; 'I' for Inactive)
REMARK    1  A    between atoms: N1_1  and  C1_5 
REMARK    2  A    between atoms: C1_5  and  C2_6 
REMARK    3  A    between atoms: C1_5  and  C6_13 
REMARK       I    between atoms: C2_6  and  N2_8 
REMARK    4  A    between atoms: N2_8  and  C3_10 
ROOT
HETATM    1  C1  UNL     1      -0.943  -0.834   0.714  1.00  0.00     0.278 C 
ENDROOT
BRANCH   1   2
HETATM    2  N1  UNL     1      -1.783  -2.039   0.787  1.00  0.00    -0.066 N 
ATOM      3  H13 UNL     1      -1.804  -2.570  -0.084  1.00  0.00     0.275 HD
ATOM      4  H12 UNL     1      -1.386  -2.773   1.374  1.00  0.00     0.275 HD
ATOM      5  H11 UNL     1      -2.706  -1.732   1.094  1.00  0.00     0.275 HD
ENDBRANCH   1   2
BRANCH   1   6
HETATM    6  C2  UNL     1       0.396  -1.280   0.268  1.00  0.00     0.248 C 
HETATM    7  O1  UNL     1       0.668  -2.490   0.020  1.00  0.00    -0.271 OA
HETATM    8  N2  UNL     1       1.440  -0.340   0.102  1.00  0.00    -0.355 N 
ATOM      9  H2  UNL     1       1.246   0.642   0.296  1.00  0.00     0.162 HD
BRANCH   8  10
HETATM   10  C3  UNL     1       2.774  -0.709  -0.332  1.00  0.00     0.084 A 
HETATM   11  C4  UNL     1       3.952   0.092   0.069  1.00  0.00     0.027 A 
HETATM   12  C5  UNL     1       3.427   0.291  -1.299  1.00  0.00     0.027 A 
ENDBRANCH   8  10
ENDBRANCH   1   6
BRANCH   1  13
HETATM   13  C6  UNL     1      -1.618   0.073  -0.288  1.00  0.00     0.025 C 
HETATM   14  C7  UNL     1      -3.021   0.405   0.189  1.00  0.00     0.007 C 
HETATM   15  C8  UNL     1      -2.794   1.863  -0.160  1.00  0.00     0.001 C 
HETATM   16  C9  UNL     1      -1.292   1.542  -0.160  1.00  0.00     0.007 C 
ENDBRANCH   1  13
TORSDOF 4
