REMARK  4 active torsions:
REMARK  status: ('A' for Active; 'I' for Inactive)
REMARK    1  A    between atoms: C2_2  and  C3_3 
REMARK    2  A    between atoms: C3_3  and  N1_4 
REMARK    3  A    between atoms: N1_4  and  C4_6 
REMARK    4  A    between atoms: C4_6  and  C5_10 
ROOT
HETATM    1  C5  UNL     1      -0.159   0.323  -0.447  1.00  0.00     0.087 C 
HETATM    2  C6  UNL     1      -0.359  -1.044   0.161  1.00  0.00     0.023 C 
HETATM    3  C7  UNL     1      -1.874  -1.220  -0.010  1.00  0.00    -0.040 C 
HETATM    4  C8  UNL     1      -2.298  -2.142   1.131  1.00  0.00     0.015 C 
HETATM    5  C9  UNL     1      -2.215  -1.834  -1.331  1.00  0.00     0.015 C 
HETATM    6  C10 UNL     1      -2.475   0.142   0.150  1.00  0.00     0.056 C 
HETATM    7  C11 UNL     1      -2.757   0.910  -1.112  1.00  0.00     0.280 C 
HETATM    8  N3  UNL     1      -1.874   1.993  -0.704  1.00  0.00     0.090 N 
HETATM    9  C12 UNL     1      -2.543   3.150  -0.169  1.00  0.00     0.310 C 
HETATM   10  C13 UNL     1      -1.294   1.091   0.244  1.00  0.00     0.240 C 
ENDROOT
BRANCH   1  11
HETATM   11  C4  UNL     1       1.097   0.969  -0.073  1.00  0.00     0.076 C 
HETATM   12  N2  UNL     1       1.207   2.098   0.524  1.00  0.00    -0.389 N 
ATOM     13  H22 UNL     1       2.084   2.549   0.785  1.00  0.00     0.157 HD
ATOM     14  H21 UNL     1       0.347   2.592   0.761  1.00  0.00     0.157 HD
BRANCH  11  15
HETATM   15  N1  UNL     1       2.305   0.275  -0.406  1.00  0.00    -0.380 N 
ATOM     16  H1  UNL     1       2.665   0.252  -1.360  1.00  0.00     0.160 HD
BRANCH  15  17
HETATM   17  C3  UNL     1       2.985  -0.389   0.677  1.00  0.00     0.120 C 
BRANCH  17  18
HETATM   18  C2  UNL     1       4.241  -1.088   0.235  1.00  0.00     0.015 C 
HETATM   19  C1  UNL     1       5.242  -0.134  -0.373  1.00  0.00     0.006 C 
ENDBRANCH  17  18
ENDBRANCH  15  17
ENDBRANCH  11  15
ENDBRANCH   1  11
TORSDOF 4
