REMARK  3 active torsions:
REMARK  status: ('A' for Active; 'I' for Inactive)
REMARK    1  A    between atoms: C2_2  and  C4_4 
REMARK    2  A    between atoms: C4_4  and  N1_5 
REMARK       I    between atoms: N1_5  and  C5_7 
REMARK       I    between atoms: C5_7  and  N2_9 
REMARK    3  A    between atoms: N2_9  and  C6_11 
ROOT
HETATM    1  N1  UNL     1       2.294  -0.414  -1.261  1.00  0.00    -0.343 N 
ATOM      2  H1  UNL     1       2.219  -1.400  -1.510  1.00  0.00     0.164 HD
HETATM    3  C5  UNL     1       1.169   0.212  -0.718  1.00  0.00     0.316 C 
HETATM    4  O1  UNL     1       1.219   1.423  -0.412  1.00  0.00    -0.247 OA
HETATM    5  N2  UNL     1      -0.028  -0.505  -0.510  1.00  0.00    -0.338 N 
ATOM      6  H2  UNL     1      -0.037  -1.491  -0.770  1.00  0.00     0.164 HD
ENDROOT
BRANCH   5   7
HETATM    7  C6  UNL     1      -1.231   0.045   0.038  1.00  0.00     0.091 C 
HETATM    8  C7  UNL     1      -1.710  -0.696   1.298  1.00  0.00     0.031 C 
HETATM    9  C8  UNL     1      -3.087  -1.092   0.815  1.00  0.00    -0.004 C 
HETATM   10  C9  UNL     1      -2.713  -1.667  -0.564  1.00  0.00     0.012 C 
HETATM   11  C11 UNL     1      -3.609   0.084   0.012  1.00  0.00    -0.038 C 
HETATM   12  C10 UNL     1      -2.397  -0.202  -0.854  1.00  0.00     0.017 C 
HETATM   13  C12 UNL     1      -4.883  -0.263  -0.711  1.00  0.00     0.015 C 
HETATM   14  C13 UNL     1      -3.691   1.390   0.693  1.00  0.00     0.015 C 
ENDBRANCH   5   7
BRANCH   1  15
HETATM   15  C4  UNL     1       3.545   0.243  -1.490  1.00  0.00     0.128 C 
BRANCH  15  16
HETATM   16  C2  UNL     1       4.137   0.742  -0.210  1.00  0.00    -0.005 C 
HETATM   17  C1  UNL     1       5.479   1.434  -0.487  1.00  0.00     0.011 C 
HETATM   18  C3  UNL     1       4.333  -0.425   0.731  1.00  0.00     0.011 C 
ENDBRANCH  15  16
ENDBRANCH   1  15
TORSDOF 3
