REMARK  4 active torsions:
REMARK  status: ('A' for Active; 'I' for Inactive)
REMARK    1  A    between atoms: C2_2  and  C3_3 
REMARK    2  A    between atoms: C3_3  and  C5_5 
REMARK       I    between atoms: C5_5  and  N1_7 
REMARK    3  A    between atoms: N1_7  and  C6_9 
REMARK    4  A    between atoms: C9_16  and  C10_17 
ROOT
HETATM    1  C6  UNL     1      -0.571   0.928  -0.074  1.00  0.00     0.135 A 
HETATM    2  N2  UNL     1      -0.204   2.000   0.634  1.00  0.00    -0.284 N 
ATOM      3  H2  UNL     1       0.506   2.674   0.347  1.00  0.00     0.188 HD
HETATM    4  N3  UNL     1      -0.896   2.062   1.763  1.00  0.00    -0.303 N 
ATOM      5  H3  UNL     1      -0.789   2.794   2.465  1.00  0.00     0.186 HD
HETATM    6  C7  UNL     1      -1.755   1.038   1.863  1.00  0.00     0.036 A 
HETATM    7  C8  UNL     1      -2.701   0.856   3.010  1.00  0.00     0.070 C 
HETATM    8  C9  UNL     1      -1.579   0.293   0.716  1.00  0.00     0.035 A 
ENDROOT
BRANCH   1   9
HETATM    9  N1  UNL     1      -0.159   0.388  -1.117  1.00  0.00    -0.311 N 
HETATM   10  C5  UNL     1       0.873   0.682  -1.980  1.00  0.00     0.227 C 
HETATM   11  O1  UNL     1       0.649   1.281  -3.061  1.00  0.00    -0.273 OA
ATOM     12  H1  UNL     1      -0.693  -0.438  -1.387  1.00  0.00     0.170 HD
BRANCH  10  13
HETATM   13  C3  UNL     1       2.304   0.320  -1.699  1.00  0.00     0.074 C 
HETATM   14  C4  UNL     1       3.006   1.376  -0.933  1.00  0.00     0.020 C 
BRANCH  13  15
HETATM   15  C2  UNL     1       2.447  -1.013  -1.046  1.00  0.00     0.009 C 
HETATM   16  C1  UNL     1       3.877  -1.460  -0.930  1.00  0.00     0.006 C 
ENDBRANCH  13  15
ENDBRANCH  10  13
ENDBRANCH   1   9
BRANCH   8  17
HETATM   17  C10 UNL     1      -2.361  -0.861   0.324  1.00  0.00    -0.072 C 
HETATM   18  C11 UNL     1      -1.912  -2.202   0.744  1.00  0.00     0.044 C 
HETATM   19  C12 UNL     1      -2.938  -0.779  -1.035  1.00  0.00     0.044 C 
ENDBRANCH   8  17
TORSDOF 4
