REMARK  5 active torsions:
REMARK  status: ('A' for Active; 'I' for Inactive)
REMARK    1  A    between atoms: C2_2  and  C3_3 
REMARK    2  A    between atoms: C3_3  and  C4_4 
REMARK       I    between atoms: C4_4  and  N1_6 
REMARK    3  A    between atoms: N1_6  and  C5_8 
REMARK    4  A    between atoms: C5_8  and  N2_10 
REMARK    5  A    between atoms: N2_10  and  C6_12 
ROOT
HETATM    1  C4  UNL     1      -0.931  -0.618   0.481  1.00  0.00     0.232 C 
HETATM    2  O1  UNL     1      -0.419  -1.280   1.384  1.00  0.00    -0.272 OA
HETATM    3  N1  UNL     1      -0.264   0.119  -0.501  1.00  0.00    -0.303 N 
ATOM      4  H1  UNL     1      -0.843   0.562  -1.214  1.00  0.00     0.171 HD
ENDROOT
BRANCH   3   5
HETATM    5  C5  UNL     1       1.156   0.316  -0.608  1.00  0.00     0.174 C 
HETATM    6  S1  UNL     1       1.764   1.164  -1.850  1.00  0.00    -0.041 SA
BRANCH   5   7
HETATM    7  N2  UNL     1       2.075  -0.143   0.401  1.00  0.00    -0.363 N 
ATOM      8  H2  UNL     1       1.684  -0.648   1.196  1.00  0.00     0.162 HD
BRANCH   7   9
HETATM    9  C6  UNL     1       3.487   0.051   0.380  1.00  0.00     0.075 C 
HETATM   10  C7  UNL     1       3.762   1.538   0.543  1.00  0.00     0.032 C 
HETATM   11  C8  UNL     1       4.286  -0.520  -0.730  1.00  0.00     0.032 C 
ENDBRANCH   7   9
ENDBRANCH   5   7
ENDBRANCH   3   5
BRANCH   1  12
HETATM   12  C3  UNL     1      -2.446  -0.628   0.467  1.00  0.00     0.041 A 
HETATM   13  C9  UNL     1      -3.056  -1.636   1.438  1.00  0.00     0.020 A 
HETATM   14  C10 UNL     1      -3.025  -1.958  -0.067  1.00  0.00     0.020 A 
BRANCH  12  15
HETATM   15  C2  UNL     1      -3.247   0.571   0.230  1.00  0.00     0.014 C 
HETATM   16  C1  UNL     1      -3.174   1.424  -0.936  1.00  0.00     0.006 C 
ENDBRANCH  12  15
ENDBRANCH   1  12
TORSDOF 5
