REMARK  3 active torsions:
REMARK  status: ('A' for Active; 'I' for Inactive)
REMARK    1  A    between atoms: N1_7  and  C7_8 
REMARK    2  A    between atoms: C7_8  and  C8_9 
REMARK    3  A    between atoms: C8_9  and  C9_10 
ROOT
HETATM    1  C1  UNL     1      -4.548  -0.657   1.135  1.00  0.00     0.069 C 
HETATM    2  C2  UNL     1      -3.321  -0.551   0.292  1.00  0.00     0.020 C 
HETATM    3  C3  UNL     1      -2.430   0.353   0.576  1.00  0.00     0.029 C 
HETATM    4  C4  UNL     1      -1.138   0.756   0.003  1.00  0.00     0.049 C 
HETATM    5  C5  UNL     1      -0.336   1.481   1.092  1.00  0.00     0.043 C 
HETATM    6  C6  UNL     1      -1.448   1.805  -1.093  1.00  0.00     0.043 C 
HETATM    7  N1  UNL     1      -0.385  -0.259  -0.651  1.00  0.00    -0.321 N 
HETATM    8  C12 UNL     1      -0.800  -1.502  -1.235  1.00  0.00     0.337 C 
HETATM    9  O1  UNL     1       0.078  -2.252  -1.734  1.00  0.00    -0.245 OA
HETATM   10  N2  UNL     1      -2.117  -2.063  -1.353  1.00  0.00    -0.251 N 
ATOM     11  H2  UNL     1      -2.222  -2.924  -1.889  1.00  0.00     0.191 HD
HETATM   12  N3  UNL     1      -3.267  -1.503  -0.779  1.00  0.00    -0.302 N 
ATOM     13  H3  UNL     1      -4.162  -1.805  -1.165  1.00  0.00     0.186 HD
ENDROOT
BRANCH   7  14
HETATM   14  C7  UNL     1       1.025  -0.045  -0.810  1.00  0.00     0.129 C 
BRANCH  14  15
HETATM   15  C8  UNL     1       1.907  -0.605   0.246  1.00  0.00     0.024 C 
BRANCH  15  16
HETATM   16  C9  UNL     1       3.362  -0.275  -0.106  1.00  0.00    -0.021 C 
HETATM   17  C10 UNL     1       4.300  -0.829   0.948  1.00  0.00     0.009 C 
HETATM   18  C11 UNL     1       3.579   1.218  -0.149  1.00  0.00     0.009 C 
ENDBRANCH  15  16
ENDBRANCH  14  15
ENDBRANCH   7  14
TORSDOF 3
