REMARK  14 active torsions:
REMARK  status: ('A' for Active; 'I' for Inactive)
REMARK    1  A    between atoms: C2_2  and  N1_3 
REMARK    2  A    between atoms: C2_2  and  C27_40 
REMARK    3  A    between atoms: N1_3  and  O1_4 
REMARK    4  A    between atoms: O1_4  and  C3_5 
REMARK    5  A    between atoms: C3_5  and  C4_6 
REMARK    6  A    between atoms: C4_6  and  N2_7 
REMARK       I    between atoms: N2_7  and  C5_9 
REMARK    7  A    between atoms: C5_9  and  C6_11 
REMARK    8  A    between atoms: C8_13  and  N3_14 
REMARK       I    between atoms: N3_14  and  C9_16 
REMARK    9  A    between atoms: C9_16  and  C10_18 
REMARK   10  A    between atoms: C12_20  and  O4_21 
REMARK   11  A    between atoms: O4_21  and  C13_22 
REMARK   12  A    between atoms: C13_22  and  C14_23 
REMARK   13  A    between atoms: C14_23  and  N4_24 
REMARK   14  A    between atoms: C20_30  and  C21_31 
ROOT
HETATM    1  N3  UNL     1       0.513  -1.012   2.211  1.00  0.00    -0.308 N 
ATOM      2  H3  UNL     1       0.595  -1.649   3.003  1.00  0.00     0.170 HD
HETATM    3  C9  UNL     1      -0.688  -0.314   2.143  1.00  0.00     0.257 C 
HETATM    4  O3  UNL     1      -0.877   0.758   2.840  1.00  0.00    -0.267 OA
ENDROOT
BRANCH   1   5
HETATM    5  C8  UNL     1       1.520  -0.982   1.446  1.00  0.00     0.126 A 
HETATM    6  C7  UNL     1       2.649  -1.770   1.683  1.00  0.00     0.086 A 
HETATM    7  C6  UNL     1       3.542  -1.520   0.670  1.00  0.00     0.119 A 
HETATM    8  N6  UNL     1       2.930  -0.617  -0.115  1.00  0.00    -0.292 N 
HETATM    9  N5  UNL     1       1.731  -0.286   0.327  1.00  0.00    -0.280 N 
ATOM     10  H6  UNL     1       3.347  -0.229  -0.961  1.00  0.00     0.187 HD
HETATM   11  C26 UNL     1       0.861   0.702  -0.342  1.00  0.00     0.179 C 
BRANCH   7  12
HETATM   12  C5  UNL     1       4.880  -2.089   0.485  1.00  0.00     0.269 C 
HETATM   13  N2  UNL     1       5.516  -1.961  -0.756  1.00  0.00    -0.353 N 
ATOM     14  H2  UNL     1       5.036  -1.479  -1.516  1.00  0.00     0.162 HD
HETATM   15  O2  UNL     1       5.420  -2.674   1.430  1.00  0.00    -0.266 OA
BRANCH  13  16
HETATM   16  C4  UNL     1       6.821  -2.490  -0.980  1.00  0.00     0.153 C 
BRANCH  16  17
HETATM   17  C3  UNL     1       7.880  -1.828  -0.149  1.00  0.00     0.237 C 
BRANCH  17  18
HETATM   18  O1  UNL     1       7.964  -0.457  -0.420  1.00  0.00    -0.207 OA
BRANCH  18  19
HETATM   19  N1  UNL     1       8.613   0.544  -0.091  1.00  0.00    -0.279 NA
BRANCH  19  20
HETATM   20  C2  UNL     1       9.189   1.538   0.260  1.00  0.00     0.189 C 
HETATM   21  C1  UNL     1      10.618   1.785  -0.116  1.00  0.00     0.095 C 
BRANCH  20  22
HETATM   22  C27 UNL     1       8.551   2.554   1.068  1.00  0.00     0.239 C 
HETATM   23  O5  UNL     1       9.147   3.589   1.432  1.00  0.00    -0.642 OA
HETATM   24  O6  UNL     1       7.224   2.434   1.493  1.00  0.00    -0.642 OA
ENDBRANCH  20  22
ENDBRANCH  19  20
ENDBRANCH  18  19
ENDBRANCH  17  18
ENDBRANCH  16  17
ENDBRANCH  13  16
ENDBRANCH   7  12
ENDBRANCH   1   5
BRANCH   3  25
HETATM   25  C10 UNL     1      -1.811  -0.709   1.305  1.00  0.00     0.035 A 
HETATM   26  C11 UNL     1      -2.951   0.088   1.215  1.00  0.00     0.053 A 
HETATM   27  C12 UNL     1      -3.982  -0.301   0.380  1.00  0.00     0.070 A 
HETATM   28  C19 UNL     1      -3.914  -1.455  -0.362  1.00  0.00     0.044 A 
HETATM   29  C20 UNL     1      -2.794  -2.270  -0.293  1.00  0.00    -0.047 A 
HETATM   30  C25 UNL     1      -1.784  -1.866   0.539  1.00  0.00     0.025 A 
BRANCH  27  31
HETATM   31  O4  UNL     1      -5.113   0.536   0.312  1.00  0.00    -0.349 OA
BRANCH  31  32
HETATM   32  C13 UNL     1      -5.153   1.716   1.109  1.00  0.00     0.206 C 
BRANCH  32  33
HETATM   33  C14 UNL     1      -6.438   2.434   0.741  1.00  0.00     0.299 C 
BRANCH  33  34
HETATM   34  N4  UNL     1      -6.349   2.771  -0.678  1.00  0.00     0.090 N 
HETATM   35  C15 UNL     1      -7.599   3.340  -1.174  1.00  0.00     0.272 C 
HETATM   36  C16 UNL     1      -7.735   4.672  -0.497  1.00  0.00     0.032 C 
HETATM   37  C17 UNL     1      -6.299   5.091  -0.298  1.00  0.00     0.032 C 
HETATM   38  C18 UNL     1      -5.464   3.943  -0.830  1.00  0.00     0.272 C 
ENDBRANCH  33  34
ENDBRANCH  32  33
ENDBRANCH  31  32
ENDBRANCH  27  31
BRANCH  29  39
HETATM   39  C21 UNL     1      -2.665  -3.509  -1.082  1.00  0.00    -0.024 C 
HETATM   40  C22 UNL     1      -3.824  -3.605  -2.062  1.00  0.00     0.019 C 
HETATM   41  C23 UNL     1      -1.334  -3.551  -1.809  1.00  0.00     0.019 C 
HETATM   42  C24 UNL     1      -2.680  -4.744  -0.176  1.00  0.00     0.019 C 
ENDBRANCH  29  39
ENDBRANCH   3  25
TORSDOF 14
