REMARK  13 active torsions:
REMARK  status: ('A' for Active; 'I' for Inactive)
REMARK    1  A    between atoms: S1_2  and  C2_3 
REMARK    2  A    between atoms: C2_3  and  C3_4 
REMARK    3  A    between atoms: C3_4  and  C4_5 
REMARK    4  A    between atoms: C4_5  and  N1_6 
REMARK    5  A    between atoms: C4_5  and  C5_10 
REMARK    6  A    between atoms: C5_10  and  O1_11 
REMARK    7  A    between atoms: C5_10  and  C24_39 
REMARK    8  A    between atoms: O1_11  and  C6_12 
REMARK       I    between atoms: C6_12  and  N2_14 
REMARK    9  A    between atoms: N2_14  and  C7_15 
REMARK   10  A    between atoms: C7_15  and  C10_19 
REMARK       I    between atoms: C10_19  and  N4_21 
REMARK   11  A    between atoms: N4_21  and  C11_23 
REMARK   12  A    between atoms: C11_23  and  C12_24 
REMARK       I    between atoms: C12_24  and  N5_26 
REMARK   13  A    between atoms: N6_29  and  C15_30 
ROOT
HETATM    1  C7  UNL     1       0.585   0.304  -0.256  1.00  0.00     0.262 C 
HETATM    2  C8  UNL     1       0.752   0.351  -1.803  1.00  0.00     0.082 C 
HETATM    3  C9  UNL     1       0.922   1.721   0.394  1.00  0.00     0.115 C 
HETATM    4  N3  UNL     1       1.164   2.738   0.872  1.00  0.00    -0.193 NA
ENDROOT
BRANCH   1   5
HETATM    5  N2  UNL     1       1.585  -0.501   0.226  1.00  0.00    -0.353 NA
HETATM    6  C6  UNL     1       2.605  -1.331   0.722  1.00  0.00     0.437 C 
HETATM    7  O2  UNL     1       2.931  -2.286   1.218  1.00  0.00    -0.221 OA
BRANCH   6   8
HETATM    8  O1  UNL     1       3.708  -0.304   0.187  1.00  0.00    -0.284 OA
BRANCH   8   9
HETATM    9  C5  UNL     1       4.911  -0.676   0.415  1.00  0.00     0.172 C 
BRANCH   9  10
HETATM   10  C4  UNL     1       5.569  -1.723  -0.653  1.00  0.00     0.214 C 
BRANCH  10  11
HETATM   11  C3  UNL     1       6.830  -2.214  -0.135  1.00  0.00     0.045 C 
BRANCH  11  12
HETATM   12  C2  UNL     1       7.577  -2.949  -1.251  1.00  0.00     0.075 C 
BRANCH  12  13
HETATM   13  S1  UNL     1       9.314  -2.883  -0.525  1.00  0.00    -0.173 SA
HETATM   14  C1  UNL     1       9.854  -1.131  -0.437  1.00  0.00     0.089 C 
ENDBRANCH  12  13
ENDBRANCH  11  12
ENDBRANCH  10  11
BRANCH  10  15
HETATM   15  N1  UNL     1       5.775  -0.753  -1.785  1.00  0.00    -0.072 N 
ATOM     16  H13 UNL     1       6.389   0.014  -1.511  1.00  0.00     0.274 HD
ATOM     17  H12 UNL     1       6.348  -1.159  -2.524  1.00  0.00     0.274 HD
ATOM     18  H11 UNL     1       4.887  -0.407  -2.150  1.00  0.00     0.274 HD
ENDBRANCH  10  15
ENDBRANCH   9  10
BRANCH   9  19
HETATM   19  C24 UNL     1       5.868   0.355   0.938  1.00  0.00    -0.022 C 
HETATM   20  C25 UNL     1       6.762   1.049  -0.094  1.00  0.00     0.017 C 
HETATM   21  C26 UNL     1       4.784   1.657   0.898  1.00  0.00     0.017 C 
HETATM   22  C27 UNL     1       6.301   0.436   2.306  1.00  0.00     0.017 C 
ENDBRANCH   9  19
ENDBRANCH   8   9
ENDBRANCH   6   8
ENDBRANCH   1   5
BRANCH   1  23
HETATM   23  C10 UNL     1      -0.838   0.257  -0.004  1.00  0.00     0.275 C 
HETATM   24  O3  UNL     1      -1.295  -0.676   0.690  1.00  0.00    -0.268 OA
HETATM   25  N4  UNL     1      -1.664   1.284  -0.496  1.00  0.00    -0.339 N 
ATOM     26  H4  UNL     1      -1.223   1.976  -1.101  1.00  0.00     0.163 HD
BRANCH  25  27
HETATM   27  C11 UNL     1      -3.035   1.453  -0.238  1.00  0.00     0.114 C 
HETATM   28  C20 UNL     1      -3.369   2.848  -0.955  1.00  0.00     0.041 C 
HETATM   29  C21 UNL     1      -4.051   3.658   0.079  1.00  0.00     0.003 C 
HETATM   30  C22 UNL     1      -4.016   2.963   1.410  1.00  0.00     0.003 C 
HETATM   31  C23 UNL     1      -3.157   1.768   1.266  1.00  0.00     0.041 C 
BRANCH  27  32
HETATM   32  C12 UNL     1      -4.011   0.578  -0.834  1.00  0.00     0.248 C 
HETATM   33  O4  UNL     1      -3.951   0.203  -1.880  1.00  0.00    -0.271 OA
HETATM   34  N5  UNL     1      -5.146   0.160  -0.004  1.00  0.00    -0.347 N 
HETATM   35  C13 UNL     1      -6.364   0.303  -0.943  1.00  0.00     0.156 C 
HETATM   36  C19 UNL     1      -5.454  -0.350   1.257  1.00  0.00     0.156 C 
HETATM   37  C14 UNL     1      -7.620   0.321  -0.104  1.00  0.00     0.292 C 
HETATM   38  N6  UNL     1      -7.746  -0.965   0.519  1.00  0.00     0.096 N 
HETATM   39  C18 UNL     1      -6.576  -1.450   1.128  1.00  0.00     0.292 C 
BRANCH  38  40
HETATM   40  C15 UNL     1      -8.363  -1.948  -0.302  1.00  0.00     0.223 A 
HETATM   41  C16 UNL     1      -9.789  -1.893  -0.727  1.00  0.00     0.038 A 
HETATM   42  C17 UNL     1      -9.329  -2.921   0.252  1.00  0.00     0.038 A 
ENDBRANCH  38  40
ENDBRANCH  27  32
ENDBRANCH  25  27
ENDBRANCH   1  23
TORSDOF 13
