REMARK  12 active torsions:
REMARK  status: ('A' for Active; 'I' for Inactive)
REMARK    1  A    between atoms: C2_2  and  N1_3 
REMARK    2  A    between atoms: N1_3  and  C3_4 
REMARK    3  A    between atoms: N1_3  and  C5_6 
REMARK    4  A    between atoms: C6_9  and  N3_10 
REMARK    5  A    between atoms: C10_14  and  C11_15 
REMARK       I    between atoms: C11_15  and  N4_17 
REMARK    6  A    between atoms: N4_17  and  C12_19 
REMARK    7  A    between atoms: C12_19  and  C14_21 
REMARK    8  A    between atoms: C12_19  and  C15_24 
REMARK    9  A    between atoms: C14_21  and  O2_22 
REMARK       I    between atoms: C15_24  and  N5_26 
REMARK   10  A    between atoms: N5_26  and  C16_28 
REMARK   11  A    between atoms: C16_28  and  C17_29 
REMARK   12  A    between atoms: C23_36  and  N7_37 
ROOT
HETATM    1  C17 UNL     1       7.905  -1.185   0.925  1.00  0.00     0.154 C 
HETATM    2  C18 UNL     1       8.379  -0.567  -0.337  1.00  0.00     0.061 C 
HETATM    3  N6  UNL     1       8.735  -0.070  -1.320  1.00  0.00    -0.197 NA
ENDROOT
BRANCH   1   4
HETATM    4  C16 UNL     1       7.192  -0.093   1.672  1.00  0.00     0.045 C 
HETATM    5  C19 UNL     1       6.993  -0.334   3.163  1.00  0.00     0.032 C 
HETATM    6  C20 UNL     1       7.340   1.153   3.351  1.00  0.00     0.005 C 
HETATM    7  C21 UNL     1       8.180   1.013   2.097  1.00  0.00     0.032 C 
BRANCH   4   8
HETATM    8  N5  UNL     1       6.086   0.461   0.978  1.00  0.00    -0.349 N 
HETATM    9  C15 UNL     1       4.953  -0.279   0.553  1.00  0.00     0.248 C 
HETATM   10  O3  UNL     1       4.892  -1.492   0.790  1.00  0.00    -0.271 OA
ATOM     11  H5  UNL     1       6.107   1.459   0.770  1.00  0.00     0.163 HD
BRANCH   9  12
HETATM   12  C12 UNL     1       3.828   0.368  -0.174  1.00  0.00     0.131 C 
HETATM   13  C13 UNL     1       3.181   1.310   0.854  1.00  0.00     0.051 C 
BRANCH  12  14
HETATM   14  N4  UNL     1       2.854  -0.645  -0.511  1.00  0.00    -0.340 N 
HETATM   15  C11 UNL     1       1.595  -0.291  -1.037  1.00  0.00     0.241 C 
HETATM   16  O1  UNL     1       1.304   0.905  -1.212  1.00  0.00    -0.271 OA
ATOM     17  H4  UNL     1       3.080  -1.629  -0.366  1.00  0.00     0.163 HD
BRANCH  15  18
HETATM   18  C10 UNL     1       0.604  -1.335  -1.387  1.00  0.00     0.178 C 
HETATM   19  N3  UNL     1      -0.602  -0.727  -1.881  1.00  0.00    -0.354 N 
HETATM   20  C7  UNL     1      -0.361  -0.322  -3.239  1.00  0.00     0.125 C 
HETATM   21  C8  UNL     1       0.611  -1.301  -3.819  1.00  0.00     0.022 C 
HETATM   22  C9  UNL     1       1.171  -2.037  -2.622  1.00  0.00     0.037 C 
BRANCH  19  23
HETATM   23  C6  UNL     1      -1.795  -0.536  -1.128  1.00  0.00     0.107 A 
HETATM   24  N2  UNL     1      -2.209  -1.412  -0.215  1.00  0.00    -0.328 N 
HETATM   25  C5  UNL     1      -3.341  -1.265   0.565  1.00  0.00     0.113 A 
ATOM     26  H2  UNL     1      -1.649  -2.254  -0.081  1.00  0.00     0.169 HD
HETATM   27  C29 UNL     1      -4.128  -0.157   0.428  1.00  0.00     0.009 A 
HETATM   28  C23 UNL     1      -3.718   0.783  -0.527  1.00  0.00     0.043 A 
HETATM   29  C30 UNL     1      -5.340   0.112   1.205  1.00  0.00     0.054 C 
HETATM   30  C22 UNL     1      -2.566   0.590  -1.291  1.00  0.00     0.078 A 
BRANCH  25  31
HETATM   31  N1  UNL     1      -3.624  -2.298   1.486  1.00  0.00    -0.367 N 
BRANCH  31  32
HETATM   32  C2  UNL     1      -3.419  -3.673   0.983  1.00  0.00     0.120 C 
HETATM   33  C1  UNL     1      -4.672  -4.470   0.886  1.00  0.00     0.026 C 
ENDBRANCH  31  32
BRANCH  31  34
HETATM   34  C3  UNL     1      -4.000  -2.149   2.838  1.00  0.00     0.120 C 
HETATM   35  C4  UNL     1      -5.364  -2.648   3.234  1.00  0.00     0.026 C 
ENDBRANCH  31  34
ENDBRANCH  25  31
BRANCH  28  36
HETATM   36  N7  UNL     1      -4.506   1.938  -0.743  1.00  0.00    -0.380 N 
HETATM   37  C24 UNL     1      -5.675   1.876  -1.572  1.00  0.00     0.123 C 
HETATM   38  C25 UNL     1      -6.378   3.223  -1.600  1.00  0.00     0.020 C 
HETATM   39  C26 UNL     1      -5.354   4.238  -2.062  1.00  0.00     0.003 C 
HETATM   40  C27 UNL     1      -4.173   4.312  -1.144  1.00  0.00     0.020 C 
HETATM   41  C28 UNL     1      -4.134   3.188  -0.129  1.00  0.00     0.123 C 
ENDBRANCH  28  36
ENDBRANCH  19  23
ENDBRANCH  15  18
ENDBRANCH  12  14
BRANCH  12  42
HETATM   42  C14 UNL     1       4.260   1.116  -1.377  1.00  0.00     0.204 C 
BRANCH  42  43
HETATM   43  O2  UNL     1       4.844   0.340  -2.359  1.00  0.00    -0.398 OA
ATOM     44  H2  UNL     1       5.121   0.820  -3.131  1.00  0.00     0.209 HD
ENDBRANCH  42  43
ENDBRANCH  12  42
ENDBRANCH   9  12
ENDBRANCH   4   8
ENDBRANCH   1   4
TORSDOF 12
