REMARK  12 active torsions:
REMARK  status: ('A' for Active; 'I' for Inactive)
REMARK    1  A    between atoms: C2_2  and  C3_3 
REMARK    2  A    between atoms: C3_3  and  N1_4 
REMARK       I    between atoms: N1_4  and  C4_5 
REMARK    3  A    between atoms: N1_4  and  C17_25 
REMARK    4  A    between atoms: C4_5  and  C5_7 
REMARK    5  A    between atoms: C5_7  and  C6_8 
REMARK    6  A    between atoms: C6_8  and  C9_11 
REMARK    7  A    between atoms: C10_14  and  C11_15 
REMARK       I    between atoms: C11_15  and  N3_17 
REMARK    8  A    between atoms: N3_17  and  C12_19 
REMARK    9  A    between atoms: C19_27  and  C20_28 
REMARK       I    between atoms: N4_33  and  C23_34 
REMARK   10  A    between atoms: C23_34  and  C24_36 
REMARK   11  A    between atoms: C24_36  and  C25_37 
REMARK   12  A    between atoms: C25_37  and  C26_38 
ROOT
HETATM    1  N1  UNL     1      -1.645   0.810  -0.291  1.00  0.00    -0.307 N 
HETATM    2  C4  UNL     1      -0.472   0.338   0.420  1.00  0.00     0.226 C 
HETATM    3  O1  UNL     1       0.341   1.119   0.956  1.00  0.00    -0.273 OA
ENDROOT
BRANCH   1   4
HETATM    4  C3  UNL     1      -1.787   2.226  -0.291  1.00  0.00     0.133 C 
BRANCH   4   5
HETATM    5  C2  UNL     1      -0.995   3.061  -1.204  1.00  0.00     0.016 C 
HETATM    6  C1  UNL     1      -1.075   2.952  -2.659  1.00  0.00     0.006 C 
ENDBRANCH   4   5
ENDBRANCH   1   4
BRANCH   1   7
HETATM    7  C17 UNL     1      -2.521  -0.085  -0.906  1.00  0.00     0.091 C 
HETATM    8  C18 UNL     1      -2.925   0.070  -2.308  1.00  0.00     0.092 C 
HETATM    9  C19 UNL     1      -3.794  -1.078  -2.792  1.00  0.00     0.095 C 
HETATM   10  C21 UNL     1      -4.951  -1.345  -1.865  1.00  0.00     0.036 C 
HETATM   11  C22 UNL     1      -4.318  -1.697  -0.533  1.00  0.00     0.134 C 
HETATM   12  N4  UNL     1      -3.700  -0.427  -0.108  1.00  0.00    -0.307 N 
HETATM   13  C23 UNL     1      -4.295   0.182   0.973  1.00  0.00     0.225 C 
HETATM   14  O5  UNL     1      -3.942   1.209   1.609  1.00  0.00    -0.273 OA
BRANCH   9  15
HETATM   15  C20 UNL     1      -4.249  -0.839  -4.182  1.00  0.00     0.177 C 
HETATM   16  O3  UNL     1      -3.960  -1.655  -5.117  1.00  0.00    -0.648 OA
HETATM   17  O4  UNL     1      -4.997   0.278  -4.480  1.00  0.00    -0.648 OA
ENDBRANCH   9  15
BRANCH  13  18
HETATM   18  C24 UNL     1      -5.563  -0.430   1.512  1.00  0.00     0.114 C 
BRANCH  18  19
HETATM   19  C25 UNL     1      -6.293   0.587   2.395  1.00  0.00     0.122 C 
BRANCH  19  20
HETATM   20  C26 UNL     1      -7.524   0.008   2.934  1.00  0.00     0.172 C 
HETATM   21  O6  UNL     1      -7.831  -1.181   2.672  1.00  0.00    -0.648 OA
HETATM   22  O7  UNL     1      -8.365   0.752   3.735  1.00  0.00    -0.648 OA
ENDBRANCH  19  20
ENDBRANCH  18  19
ENDBRANCH  13  18
ENDBRANCH   1   7
BRANCH   2  23
HETATM   23  C5  UNL     1      -0.174  -1.104   0.547  1.00  0.00     0.118 C 
BRANCH  23  24
HETATM   24  C6  UNL     1       1.155  -1.371   1.222  1.00  0.00     0.010 C 
HETATM   25  C7  UNL     1       1.275  -2.906   1.283  1.00  0.00     0.022 C 
HETATM   26  C8  UNL     1       1.337  -0.746   2.545  1.00  0.00     0.022 C 
BRANCH  24  27
HETATM   27  C9  UNL     1       2.214  -0.989   0.216  1.00  0.00     0.059 A 
HETATM   28  N2  UNL     1       3.472  -0.690   0.370  1.00  0.00    -0.348 N 
HETATM   29  C10 UNL     1       4.213  -0.398  -0.660  1.00  0.00     0.107 A 
ATOM     30  H2  UNL     1       3.880  -0.685   1.305  1.00  0.00     0.166 HD
HETATM   31  C16 UNL     1       3.601  -0.426  -1.893  1.00  0.00     0.086 A 
HETATM   32  S1  UNL     1       2.002  -0.869  -1.477  1.00  0.00    -0.085 SA
BRANCH  29  33
HETATM   33  C11 UNL     1       5.660  -0.055  -0.565  1.00  0.00     0.269 C 
HETATM   34  O2  UNL     1       6.350   0.192  -1.578  1.00  0.00    -0.266 OA
HETATM   35  N3  UNL     1       6.317   0.004   0.696  1.00  0.00    -0.348 N 
ATOM     36  H3  UNL     1       5.780  -0.188   1.542  1.00  0.00     0.163 HD
BRANCH  35  37
HETATM   37  C12 UNL     1       7.722   0.328   0.817  1.00  0.00     0.022 C 
HETATM   38  C13 UNL     1       8.103   0.325   2.280  1.00  0.00     0.037 C 
HETATM   39  C14 UNL     1       8.587  -0.746   0.166  1.00  0.00     0.037 C 
HETATM   40  C15 UNL     1       8.076   1.635   0.150  1.00  0.00     0.037 C 
ENDBRANCH  35  37
ENDBRANCH  29  33
ENDBRANCH  24  27
ENDBRANCH  23  24
ENDBRANCH   2  23
TORSDOF 12
