REMARK  13 active torsions:
REMARK  status: ('A' for Active; 'I' for Inactive)
REMARK    1  A    between atoms: C2_2  and  N1_3 
REMARK    2  A    between atoms: N2_6  and  C5_7 
REMARK    3  A    between atoms: C5_7  and  C6_8 
REMARK    4  A    between atoms: C6_8  and  C7_9 
REMARK    5  A    between atoms: C7_9  and  N3_10 
REMARK    6  A    between atoms: N3_10  and  C8_11 
REMARK    7  A    between atoms: N3_10  and  C22_28 
REMARK    8  A    between atoms: C8_11  and  C9_12 
REMARK    9  A    between atoms: C9_12  and  C10_13 
REMARK   10  A    between atoms: C10_13  and  C11_14 
REMARK   11  A    between atoms: C22_28  and  O2_29 
REMARK   12  A    between atoms: C22_28  and  C23_31 
REMARK   13  A    between atoms: C24_35  and  C25_36 
ROOT
HETATM    1  N3  UNL     1       1.010   0.877   0.777  1.00  0.00    -0.361 N 
ENDROOT
BRANCH   1   2
HETATM    2  C7  UNL     1       1.668  -0.480   0.766  1.00  0.00     0.127 C 
BRANCH   2   3
HETATM    3  C6  UNL     1       3.144  -0.293   0.988  1.00  0.00     0.050 C 
BRANCH   3   4
HETATM    4  C5  UNL     1       3.809  -1.649   0.987  1.00  0.00     0.274 C 
BRANCH   4   5
HETATM    5  N2  UNL     1       5.216  -1.572   1.203  1.00  0.00     0.091 N 
HETATM    6  C4  UNL     1       5.980  -0.976   0.147  1.00  0.00     0.302 C 
HETATM    7  C3  UNL     1       6.327  -1.933  -0.945  1.00  0.00     0.302 C 
HETATM    8  N1  UNL     1       7.212  -2.938  -0.365  1.00  0.00     0.091 N 
HETATM    9  C28 UNL     1       6.393  -3.658   0.598  1.00  0.00     0.302 C 
HETATM   10  C27 UNL     1       5.853  -2.762   1.666  1.00  0.00     0.302 C 
BRANCH   8  11
HETATM   11  C2  UNL     1       7.620  -3.846  -1.394  1.00  0.00     0.268 C 
HETATM   12  C1  UNL     1       8.523  -3.212  -2.416  1.00  0.00     0.037 C 
ENDBRANCH   8  11
ENDBRANCH   4   5
ENDBRANCH   3   4
ENDBRANCH   2   3
ENDBRANCH   1   2
BRANCH   1  13
HETATM   13  C8  UNL     1       0.478   1.327   2.013  1.00  0.00     0.125 C 
BRANCH  13  14
HETATM   14  C9  UNL     1      -0.872   0.741   2.385  1.00  0.00     0.021 C 
BRANCH  14  15
HETATM   15  C10 UNL     1      -1.960   0.996   1.404  1.00  0.00     0.016 C 
BRANCH  15  16
HETATM   16  C11 UNL     1      -3.298   0.429   1.722  1.00  0.00     0.082 C 
HETATM   17  C12 UNL     1      -4.225   0.873   0.578  1.00  0.00     0.055 C 
HETATM   18  C13 UNL     1      -5.514   0.186   0.608  1.00  0.00    -0.030 A 
HETATM   19  C14 UNL     1      -6.579   0.827  -0.012  1.00  0.00     0.016 A 
HETATM   20  C20 UNL     1      -5.767  -1.034   1.195  1.00  0.00     0.041 A 
HETATM   21  C15 UNL     1      -7.830   0.248  -0.028  1.00  0.00    -0.055 A 
HETATM   22  C16 UNL     1      -8.935   0.975  -0.705  1.00  0.00     0.049 C 
HETATM   23  C17 UNL     1      -8.077  -0.980   0.565  1.00  0.00    -0.054 A 
HETATM   24  C18 UNL     1      -9.444  -1.563   0.521  1.00  0.00     0.049 C 
HETATM   25  C19 UNL     1      -7.023  -1.614   1.179  1.00  0.00     0.037 A 
HETATM   26  N4  UNL     1      -4.659  -1.691   1.832  1.00  0.00    -0.326 N 
HETATM   27  C21 UNL     1      -3.364  -1.041   1.817  1.00  0.00     0.226 C 
ATOM     28  H4  UNL     1      -4.782  -2.596   2.285  1.00  0.00     0.169 HD
HETATM   29  O1  UNL     1      -2.368  -1.770   1.886  1.00  0.00    -0.273 OA
ENDBRANCH  15  16
ENDBRANCH  14  15
ENDBRANCH  13  14
ENDBRANCH   1  13
BRANCH   1  30
HETATM   30  C22 UNL     1       0.897   1.537  -0.436  1.00  0.00     0.159 C 
BRANCH  30  31
HETATM   31  O2  UNL     1       1.293   0.855  -1.470  1.00  0.00    -0.345 OA
ATOM     32  H2  UNL     1       1.216   1.308  -2.302  1.00  0.00     0.219 HD
ENDBRANCH  30  31
BRANCH  30  33
HETATM   33  C23 UNL     1       0.400   2.894  -0.699  1.00  0.00     0.099 A 
HETATM   34  S1  UNL     1      -0.042   4.174   0.327  1.00  0.00    -0.008 SA
HETATM   35  N5  UNL     1      -0.385   5.340  -0.804  1.00  0.00    -0.320 N 
HETATM   36  C24 UNL     1      -0.162   4.750  -1.982  1.00  0.00     0.130 A 
ATOM     37  H5  UNL     1      -0.697   6.296  -0.636  1.00  0.00     0.174 HD
HETATM   38  C26 UNL     1       0.252   3.462  -1.955  1.00  0.00     0.101 A 
HETATM   39  N7  UNL     1       0.519   2.706  -3.168  1.00  0.00    -0.098 NA
BRANCH  36  40
HETATM   40  C25 UNL     1      -0.375   5.531  -3.225  1.00  0.00     0.283 C 
HETATM   41  N6  UNL     1      -0.807   6.858  -3.138  1.00  0.00    -0.056 NA
HETATM   42  O3  UNL     1      -0.166   4.997  -4.316  1.00  0.00    -0.269 OA
ENDBRANCH  36  40
ENDBRANCH  30  33
ENDBRANCH   1  30
TORSDOF 13
