REMARK  1 active torsions:
REMARK  status: ('A' for Active; 'I' for Inactive)
REMARK    1  A    between atoms: N8_20  and  N9_21 
ROOT
HETATM    1  N1  UNL     1      -2.597  -1.534  -0.063  1.00  0.00    -0.232 N 
ATOM      2  H11 UNL     1      -2.207  -2.475  -0.014  1.00  0.00     0.174 HD
ATOM      3  H12 UNL     1      -3.542  -1.154  -0.114  1.00  0.00     0.174 HD
HETATM    4  C1  UNL     1      -1.696  -0.621  -0.061  1.00  0.00     0.711 C 
HETATM    5  N2  UNL     1      -2.238   0.688  -0.129  1.00  0.00    -0.113 N 
ATOM      6  H2  UNL     1      -3.220   0.718   0.144  1.00  0.00     0.203 HD
HETATM    7  N3  UNL     1      -1.744   1.944  -0.481  1.00  0.00     0.008 NA
HETATM    8  N4  UNL     1      -0.649   2.343   0.262  1.00  0.00    -0.224 N 
ATOM      9  H4  UNL     1      -0.867   3.055   0.959  1.00  0.00     0.205 HD
HETATM   10  N5  UNL     1       0.693   1.967   0.250  1.00  0.00    -0.269 N 
ATOM     11  H5  UNL     1       1.323   2.767   0.316  1.00  0.00     0.190 HD
HETATM   12  C2  UNL     1       1.326   0.847   0.175  1.00  0.00     0.172 A 
HETATM   13  N6  UNL     1       2.749   0.842   0.190  1.00  0.00    -0.290 N 
ATOM     14  H6  UNL     1       3.353   1.661   0.256  1.00  0.00     0.172 HD
HETATM   15  C3  UNL     1       3.178  -0.511   0.096  1.00  0.00     0.327 A 
HETATM   16  O1  UNL     1       4.377  -0.895   0.081  1.00  0.00    -0.247 OA
HETATM   17  N7  UNL     1       1.986  -1.314   0.025  1.00  0.00    -0.289 N 
ATOM     18  H7  UNL     1       1.976  -2.331  -0.049  1.00  0.00     0.172 HD
HETATM   19  C4  UNL     1       0.944  -0.581   0.067  1.00  0.00     0.194 A 
HETATM   20  N8  UNL     1      -0.355  -1.160   0.011  1.00  0.00    -0.072 N 
ENDROOT
BRANCH  20  21
HETATM   21  N9  UNL     1      -0.283  -2.549   0.033  1.00  0.00    -0.322 N 
ATOM     22  H92 UNL     1      -1.214  -2.964  -0.007  1.00  0.00     0.178 HD
ATOM     23  H91 UNL     1       0.662  -2.929   0.084  1.00  0.00     0.178 HD
ENDBRANCH  20  21
TORSDOF 1
