REMARK  5 active torsions:
REMARK  status: ('A' for Active; 'I' for Inactive)
REMARK    1  A    between atoms: N1_1  and  C1_4 
REMARK    2  A    between atoms: N3_9  and  N4_10 
REMARK    3  A    between atoms: N4_10  and  N5_12 
REMARK    4  A    between atoms: C3_15  and  N6_16 
REMARK    5  A    between atoms: N6_16  and  N7_18 
ROOT
HETATM    1  C1  UNL     1       0.954  -1.842   0.090  1.00  0.00     0.694 A 
HETATM    2  N2  UNL     1      -0.366  -2.055  -0.060  1.00  0.00    -0.139 N 
ATOM      3  H2  UNL     1      -0.743  -2.996  -0.174  1.00  0.00     0.189 HD
HETATM    4  C2  UNL     1      -1.168  -0.973  -0.053  1.00  0.00     0.376 A 
HETATM    5  O1  UNL     1      -2.410  -1.155  -0.193  1.00  0.00    -0.243 OA
HETATM    6  N3  UNL     1      -0.716   0.283   0.093  1.00  0.00    -0.015 N 
HETATM    7  C3  UNL     1       0.607   0.477   0.241  1.00  0.00     0.737 A 
HETATM    8  N8  UNL     1       1.443  -0.597   0.239  1.00  0.00    -0.019 N 
ATOM      9  H8  UNL     1       2.447  -0.457   0.351  1.00  0.00     0.203 HD
ENDROOT
BRANCH   6  10
HETATM   10  N4  UNL     1      -1.559   1.393   0.097  1.00  0.00    -0.224 N 
ATOM     11  H4  UNL     1      -1.178   2.332   0.211  1.00  0.00     0.209 HD
BRANCH  10  12
HETATM   12  N5  UNL     1      -2.933   1.199  -0.057  1.00  0.00    -0.330 N 
ATOM     13  H52 UNL     1      -3.298   0.253  -0.170  1.00  0.00     0.178 HD
ATOM     14  H51 UNL     1      -3.550   2.011  -0.054  1.00  0.00     0.178 HD
ENDBRANCH  10  12
ENDBRANCH   6  10
BRANCH   7  15
HETATM   15  N6  UNL     1       1.039   1.674   0.381  1.00  0.00    -0.136 N 
ATOM     16  H6  UNL     1       0.351   2.427   0.373  1.00  0.00     0.205 HD
BRANCH  15  17
HETATM   17  N7  UNL     1       2.366   2.024   0.542  1.00  0.00    -0.331 N 
ATOM     18  H72 UNL     1       3.040   1.258   0.547  1.00  0.00     0.177 HD
ATOM     19  H71 UNL     1       2.710   2.978   0.654  1.00  0.00     0.177 HD
ENDBRANCH  15  17
ENDBRANCH   7  15
BRANCH   1  20
HETATM   20  N1  UNL     1       1.764  -2.838   0.092  1.00  0.00    -0.234 N 
ATOM     21  H12 UNL     1       1.393  -3.782  -0.021  1.00  0.00     0.174 HD
ATOM     22  H11 UNL     1       2.765  -2.677   0.206  1.00  0.00     0.174 HD
ENDBRANCH   1  20
TORSDOF 5
