REMARK  1 active torsions:
REMARK  status: ('A' for Active; 'I' for Inactive)
REMARK    1  A    between atoms: N6_14  and  N7_16 
ROOT
HETATM    1  N1  UNL     1      -0.479   2.528  -0.137  1.00  0.00    -0.382 N 
ATOM      2  H11 UNL     1       0.395   3.025   0.033  1.00  0.00     0.157 HD
ATOM      3  H12 UNL     1      -1.409   2.909  -0.313  1.00  0.00     0.157 HD
HETATM    4  C1  UNL     1      -0.395   1.246  -0.128  1.00  0.00     0.156 C 
HETATM    5  N2  UNL     1      -1.545   0.592  -0.351  1.00  0.00    -0.312 N 
ATOM      6  H2  UNL     1      -2.364   1.171  -0.538  1.00  0.00     0.170 HD
HETATM    7  C2  UNL     1      -1.745  -0.754  -0.357  1.00  0.00     0.208 C 
HETATM    8  N3  UNL     1      -3.091  -1.181  -0.255  1.00  0.00    -0.062 NA
HETATM    9  N4  UNL     1      -0.782  -1.701  -0.452  1.00  0.00    -0.272 N 
ATOM     10  H4  UNL     1      -1.072  -2.562  -0.916  1.00  0.00     0.189 HD
HETATM   11  N5  UNL     1       0.491  -1.687  -0.034  1.00  0.00    -0.279 N 
ATOM     12  H5  UNL     1       0.915  -2.591   0.174  1.00  0.00     0.189 HD
HETATM   13  C3  UNL     1       1.266  -0.604   0.139  1.00  0.00     0.189 C 
HETATM   14  N6  UNL     1       2.502  -0.815   0.352  1.00  0.00    -0.288 N 
ATOM     15  H6  UNL     1       2.804  -1.789   0.374  1.00  0.00     0.188 HD
HETATM   16  C4  UNL     1       0.870   0.728   0.112  1.00  0.00     0.261 C 
HETATM   17  O1  UNL     1       1.747   1.586   0.328  1.00  0.00    -0.280 OA
ENDROOT
BRANCH  14  18
HETATM   18  N7  UNL     1       3.470   0.137   0.555  1.00  0.00    -0.343 N 
ATOM     19  H72 UNL     1       3.149   1.105   0.529  1.00  0.00     0.176 HD
ATOM     20  H71 UNL     1       4.461  -0.032   0.726  1.00  0.00     0.176 HD
ENDBRANCH  14  18
TORSDOF 1
