REMARK  5 active torsions:
REMARK  status: ('A' for Active; 'I' for Inactive)
REMARK    1  A    between atoms: S1_2  and  C2_3 
REMARK    2  A    between atoms: C3_9  and  C4_10 
REMARK    3  A    between atoms: C4_10  and  N4_11 
REMARK    4  A    between atoms: N4_11  and  N5_12 
REMARK    5  A    between atoms: N5_12  and  N6_13 
ROOT
HETATM    1  C2  UNL     1       1.298   0.462   0.067  1.00  0.00     0.107 A 
HETATM    2  N1  UNL     1       2.003   1.481   0.280  1.00  0.00    -0.276 N 
ATOM      3  H1  UNL     1       2.907   1.624  -0.170  1.00  0.00     0.185 HD
HETATM    4  N2  UNL     1       1.481   2.366   1.142  1.00  0.00    -0.021 NA
HETATM    5  N3  UNL     1       0.301   1.804   1.454  1.00  0.00    -0.284 N 
ATOM      6  H3  UNL     1      -0.366   2.219   2.104  1.00  0.00     0.184 HD
HETATM    7  C3  UNL     1       0.095   0.657   0.830  1.00  0.00     0.074 A 
ENDROOT
BRANCH   7   8
HETATM    8  C4  UNL     1      -0.940  -0.395   0.814  1.00  0.00     0.193 C 
BRANCH   8   9
HETATM    9  N4  UNL     1      -2.173   0.156   0.256  1.00  0.00    -0.121 NA
BRANCH   9  10
HETATM   10  N5  UNL     1      -2.458  -0.671  -0.903  1.00  0.00    -0.038 NA
BRANCH  10  11
HETATM   11  N6  UNL     1      -3.399   0.040  -1.657  1.00  0.00    -0.332 N 
ATOM     12  H62 UNL     1      -3.794   0.952  -1.426  1.00  0.00     0.173 HD
ATOM     13  H61 UNL     1      -3.599  -0.541  -2.471  1.00  0.00     0.173 HD
ENDBRANCH  10  11
ENDBRANCH   9  10
ENDBRANCH   8   9
ENDBRANCH   7   8
BRANCH   1  14
HETATM   14  S1  UNL     1       1.730  -1.113  -0.682  1.00  0.00    -0.114 SA
HETATM   15  C1  UNL     1       3.468  -1.428  -0.089  1.00  0.00     0.097 C 
ENDBRANCH   1  14
TORSDOF 5
