REMARK  6 active torsions:
REMARK  status: ('A' for Active; 'I' for Inactive)
REMARK    1  A    between atoms: C2_2  and  C3_3 
REMARK    2  A    between atoms: C2_2  and  N3_8 
REMARK    3  A    between atoms: C3_3  and  N1_4 
REMARK    4  A    between atoms: N1_4  and  N2_5 
REMARK    5  A    between atoms: N3_8  and  C4_10 
REMARK    6  A    between atoms: N6_16  and  N7_17 
ROOT
HETATM    1  C4  UNL     1      -1.644  -0.360   0.021  1.00  0.00     0.714 A 
HETATM    2  N4  UNL     1      -1.824  -1.663   0.250  1.00  0.00    -0.130 N 
ATOM      3  H4  UNL     1      -1.094  -2.373   0.315  1.00  0.00     0.205 HD
HETATM    4  N5  UNL     1      -3.115  -1.859   0.375  1.00  0.00    -0.279 N 
ATOM      5  H5  UNL     1      -3.560  -2.759   0.555  1.00  0.00     0.188 HD
HETATM    6  C5  UNL     1      -3.760  -0.687   0.228  1.00  0.00     0.241 A 
HETATM    7  N6  UNL     1      -2.826   0.266   0.003  1.00  0.00    -0.086 N 
ENDROOT
BRANCH   1   8
HETATM    8  N3  UNL     1      -0.523   0.240  -0.159  1.00  0.00    -0.217 N 
ATOM      9  H3  UNL     1      -0.538   1.246  -0.324  1.00  0.00     0.178 HD
BRANCH   8  10
HETATM   10  C2  UNL     1       0.759  -0.427  -0.141  1.00  0.00     0.111 C 
HETATM   11  C1  UNL     1       1.035  -0.934   1.234  1.00  0.00     0.034 C 
BRANCH  10  12
HETATM   12  C3  UNL     1       1.786   0.582  -0.620  1.00  0.00     0.159 C 
BRANCH  12  13
HETATM   13  N1  UNL     1       3.112   0.035  -0.659  1.00  0.00    -0.146 NA
BRANCH  13  14
HETATM   14  N2  UNL     1       3.973   1.043  -1.111  1.00  0.00    -0.348 N 
ATOM     15  H22 UNL     1       3.693   1.991  -1.363  1.00  0.00     0.172 HD
ATOM     16  H21 UNL     1       4.916   0.654  -1.139  1.00  0.00     0.172 HD
ENDBRANCH  13  14
ENDBRANCH  12  13
ENDBRANCH  10  12
ENDBRANCH   8  10
ENDBRANCH   1   8
BRANCH   7  17
HETATM   17  N7  UNL     1      -3.052   1.636  -0.208  1.00  0.00    -0.323 N 
ATOM     18  H72 UNL     1      -2.348   2.354  -0.378  1.00  0.00     0.178 HD
ATOM     19  H71 UNL     1      -3.953   2.113  -0.222  1.00  0.00     0.178 HD
ENDBRANCH   7  17
TORSDOF 6
