REMARK  5 active torsions:
REMARK  status: ('A' for Active; 'I' for Inactive)
REMARK    1  A    between atoms: N1_1  and  C1_4 
REMARK    2  A    between atoms: C2_7  and  N3_8 
REMARK    3  A    between atoms: N3_8  and  N4_10 
REMARK    4  A    between atoms: N4_10  and  C3_12 
REMARK    5  A    between atoms: C4_14  and  C5_15 
ROOT
HETATM    1  C1  UNL     1       1.953  -0.979  -0.154  1.00  0.00     0.692 A 
HETATM    2  N2  UNL     1       0.697  -0.844   0.277  1.00  0.00    -0.172 N 
ATOM      3  H2  UNL     1       0.268  -1.625   0.774  1.00  0.00     0.186 HD
HETATM    4  C2  UNL     1      -0.048   0.297   0.083  1.00  0.00     0.167 A 
HETATM    5  C4  UNL     1       0.583   1.304  -0.588  1.00  0.00     0.132 A 
HETATM    6  N5  UNL     1       1.885   1.151  -1.028  1.00  0.00    -0.280 N 
ATOM      7  H5  UNL     1       2.338   1.917  -1.527  1.00  0.00     0.188 HD
HETATM    8  N6  UNL     1       2.551   0.036  -0.815  1.00  0.00    -0.132 N 
ATOM      9  H6  UNL     1       3.511  -0.061  -1.146  1.00  0.00     0.205 HD
ENDROOT
BRANCH   4  10
HETATM   10  N3  UNL     1      -1.364   0.355   0.568  1.00  0.00    -0.281 N 
ATOM     11  H3  UNL     1      -1.944   1.185   0.446  1.00  0.00     0.188 HD
BRANCH  10  12
HETATM   12  N4  UNL     1      -1.844  -0.796   1.235  1.00  0.00    -0.276 N 
ATOM     13  H4  UNL     1      -1.323  -1.156   2.034  1.00  0.00     0.189 HD
BRANCH  12  14
HETATM   14  C3  UNL     1      -3.018  -1.461   0.832  1.00  0.00     0.368 C 
HETATM   15  O1  UNL     1      -3.658  -1.021  -0.147  1.00  0.00    -0.282 OA
ENDBRANCH  12  14
ENDBRANCH  10  12
ENDBRANCH   4  10
BRANCH   5  16
HETATM   16  C5  UNL     1      -0.057   2.567  -0.873  1.00  0.00     0.293 C 
HETATM   17  O2  UNL     1      -1.201   2.837  -0.543  1.00  0.00    -0.300 OA
ENDBRANCH   5  16
BRANCH   1  18
HETATM   18  N1  UNL     1       2.623  -2.058   0.042  1.00  0.00    -0.233 N 
ATOM     19  H12 UNL     1       2.171  -2.824   0.541  1.00  0.00     0.174 HD
ATOM     20  H11 UNL     1       3.583  -2.161  -0.287  1.00  0.00     0.174 HD
ENDBRANCH   1  18
TORSDOF 5
