REMARK  13 active torsions:
REMARK  status: ('A' for Active; 'I' for Inactive)
REMARK    1  A    between atoms: N3_6  and  C3_8 
REMARK    2  A    between atoms: C3_8  and  C4_9 
REMARK    3  A    between atoms: C3_8  and  C6_20 
REMARK    4  A    between atoms: C4_9  and  O1_10 
REMARK    5  A    between atoms: O1_10  and  C5_11 
REMARK    6  A    between atoms: C5_11  and  N4_12 
REMARK    7  A    between atoms: C5_11  and  N5_16 
REMARK    8  A    between atoms: C6_20  and  O2_21 
REMARK    9  A    between atoms: C6_20  and  N6_23 
REMARK   10  A    between atoms: N6_23  and  O3_24 
REMARK       I    between atoms: N6_23  and  C7_26 
REMARK       I    between atoms: C7_26  and  N7_27 
REMARK       I    between atoms: C7_26  and  N8_31 
REMARK   11  A    between atoms: C8_36  and  C9_37 
REMARK   12  A    between atoms: C9_37  and  N9_38 
REMARK   13  A    between atoms: C9_37  and  O4_42 
ROOT
HETATM    1  C3  UNL     1      -1.809   0.277   1.133  1.00  0.00     0.109 C 
ENDROOT
BRANCH   1   2
HETATM    2  N3  UNL     1      -0.498  -0.023   1.466  1.00  0.00    -0.331 N 
HETATM    3  C2  UNL     1       0.610  -0.069   0.836  1.00  0.00     0.151 A 
HETATM    4  N2  UNL     1       0.955   0.157  -0.427  1.00  0.00    -0.324 N 
HETATM    5  S1  UNL     1       2.123  -0.487   1.550  1.00  0.00    -0.051 SA
HETATM    6  C1  UNL     1       2.195   0.027  -0.788  1.00  0.00     0.136 A 
ATOM      7  H2  UNL     1       0.249   0.431  -1.110  1.00  0.00     0.169 HD
HETATM    8  N1  UNL     1       2.660   0.255  -2.150  1.00  0.00    -0.081 NA
HETATM    9  C8  UNL     1       3.111  -0.342   0.161  1.00  0.00     0.082 A 
ATOM     10  H3  UNL     1      -0.394  -0.265   2.451  1.00  0.00     0.168 HD
BRANCH   9  11
HETATM   11  C9  UNL     1       4.596  -0.561   0.010  1.00  0.00     0.361 C 
BRANCH  11  12
HETATM   12  N9  UNL     1       5.000  -1.778   0.683  1.00  0.00    -0.048 N 
ATOM     13  H93 UNL     1       4.713  -1.783   1.662  1.00  0.00     0.277 HD
ATOM     14  H92 UNL     1       4.463  -2.584   0.363  1.00  0.00     0.277 HD
ATOM     15  H91 UNL     1       6.004  -1.926   0.581  1.00  0.00     0.277 HD
ENDBRANCH  11  12
BRANCH  11  16
HETATM   16  O4  UNL     1       4.844  -0.720  -1.337  1.00  0.00    -0.366 OA
ATOM     17  H4  UNL     1       5.779  -0.858  -1.432  1.00  0.00     0.212 HD
ENDBRANCH  11  16
ENDBRANCH   9  11
ENDBRANCH   1   2
BRANCH   1  18
HETATM   18  C4  UNL     1      -2.333   1.645   1.460  1.00  0.00     0.173 C 
BRANCH  18  19
HETATM   19  O1  UNL     1      -1.757   2.741   1.037  1.00  0.00    -0.306 OA
BRANCH  19  20
HETATM   20  C5  UNL     1      -1.483   3.211  -0.152  1.00  0.00     0.523 C 
BRANCH  20  21
HETATM   21  N4  UNL     1      -0.061   3.619  -0.234  1.00  0.00    -0.027 N 
ATOM     22  H43 UNL     1       0.187   4.281   0.502  1.00  0.00     0.279 HD
ATOM     23  H42 UNL     1       0.567   2.859   0.027  1.00  0.00     0.279 HD
ATOM     24  H41 UNL     1       0.153   3.986  -1.162  1.00  0.00     0.279 HD
ENDBRANCH  20  21
BRANCH  20  25
HETATM   25  N5  UNL     1      -2.189   4.491  -0.450  1.00  0.00    -0.027 N 
ATOM     26  H53 UNL     1      -3.196   4.390  -0.322  1.00  0.00     0.279 HD
ATOM     27  H52 UNL     1      -1.998   5.188   0.270  1.00  0.00     0.279 HD
ATOM     28  H51 UNL     1      -1.975   4.858  -1.378  1.00  0.00     0.279 HD
ENDBRANCH  20  25
ENDBRANCH  19  20
ENDBRANCH  18  19
ENDBRANCH   1  18
BRANCH   1  29
HETATM   29  C6  UNL     1      -2.459  -0.328  -0.044  1.00  0.00     0.195 C 
BRANCH  29  30
HETATM   30  O2  UNL     1      -3.317   0.408  -0.711  1.00  0.00    -0.343 OA
ATOM     31  H2  UNL     1      -3.736   0.018  -1.469  1.00  0.00     0.219 HD
ENDBRANCH  29  30
BRANCH  29  32
HETATM   32  N6  UNL     1      -2.308  -1.599  -0.581  1.00  0.00    -0.180 N 
HETATM   33  C7  UNL     1      -1.617  -2.683   0.028  1.00  0.00     0.508 C 
HETATM   34  N7  UNL     1      -0.562  -3.212  -0.832  1.00  0.00    -0.031 N 
HETATM   35  N8  UNL     1      -2.572  -3.778   0.280  1.00  0.00    -0.031 N 
ATOM     36  H73 UNL     1      -0.927  -3.474  -1.748  1.00  0.00     0.279 HD
ATOM     37  H72 UNL     1       0.084  -2.477  -1.120  1.00  0.00     0.279 HD
ATOM     38  H71 UNL     1      -0.067  -3.989  -0.395  1.00  0.00     0.279 HD
ATOM     39  H83 UNL     1      -3.377  -3.474   0.827  1.00  0.00     0.279 HD
ATOM     40  H82 UNL     1      -3.072  -4.060  -0.563  1.00  0.00     0.279 HD
ATOM     41  H81 UNL     1      -2.077  -4.555   0.717  1.00  0.00     0.279 HD
BRANCH  32  42
HETATM   42  O3  UNL     1      -2.937  -1.908  -1.767  1.00  0.00    -0.282 OA
ATOM     43  H3  UNL     1      -2.834  -2.778  -2.135  1.00  0.00     0.245 HD
ENDBRANCH  32  42
ENDBRANCH  29  32
ENDBRANCH   1  29
TORSDOF 13
