REMARK  11 active torsions:
REMARK  status: ('A' for Active; 'I' for Inactive)
REMARK    1  A    between atoms: C2_2  and  C3_3 
REMARK    2  A    between atoms: C2_2  and  C5_11 
REMARK    3  A    between atoms: C3_3  and  N1_4 
REMARK    4  A    between atoms: C3_3  and  C4_8 
REMARK    5  A    between atoms: C5_11  and  C6_12 
REMARK    6  A    between atoms: C5_11  and  N3_19 
REMARK    7  A    between atoms: C6_12  and  N2_13 
REMARK    8  A    between atoms: C6_12  and  O3_17 
REMARK    9  A    between atoms: C9_25  and  N6_26 
REMARK   10  A    between atoms: N7_29  and  N8_30 
REMARK   11  A    between atoms: C10_33  and  N9_34 
ROOT
HETATM    1  N3  UNL     1       0.367   0.624  -0.330  1.00  0.00    -0.295 N 
HETATM    2  C7  UNL     1       0.570   1.173  -1.527  1.00  0.00     0.197 A 
HETATM    3  N4  UNL     1      -0.310   1.949  -2.334  1.00  0.00    -0.063 NA
HETATM    4  N5  UNL     1       1.835   0.907  -1.977  1.00  0.00    -0.324 N 
ATOM      5  H5  UNL     1       2.250   1.207  -2.859  1.00  0.00     0.169 HD
HETATM    6  C8  UNL     1       2.412   0.177  -1.026  1.00  0.00     0.126 A 
HETATM    7  C9  UNL     1       3.699  -0.372  -0.953  1.00  0.00     0.169 A 
HETATM    8  N7  UNL     1       4.043  -1.077   0.126  1.00  0.00    -0.075 N 
HETATM    9  C10 UNL     1       3.141  -1.242   1.121  1.00  0.00     0.700 A 
HETATM   10  N10 UNL     1       1.909  -0.722   1.064  1.00  0.00    -0.172 N 
ATOM     11  H10 UNL     1       1.259  -0.869   1.836  1.00  0.00     0.186 HD
HETATM   12  C11 UNL     1       1.523  -0.002  -0.014  1.00  0.00     0.157 A 
ENDROOT
BRANCH   1  13
HETATM   13  C5  UNL     1      -0.790   0.644   0.516  1.00  0.00     0.156 C 
BRANCH  13  14
HETATM   14  C2  UNL     1      -2.082   0.434  -0.170  1.00  0.00     0.050 C 
HETATM   15  C1  UNL     1      -3.264   0.387   0.745  1.00  0.00     0.015 C 
BRANCH  14  16
HETATM   16  C3  UNL     1      -2.150  -0.826  -1.017  1.00  0.00     0.289 C 
BRANCH  16  17
HETATM   17  N1  UNL     1      -3.439  -0.707  -1.736  1.00  0.00    -0.065 N 
ATOM     18  H13 UNL     1      -4.246  -0.566  -1.129  1.00  0.00     0.275 HD
ATOM     19  H12 UNL     1      -3.546   0.159  -2.264  1.00  0.00     0.275 HD
ATOM     20  H11 UNL     1      -3.485  -1.553  -2.304  1.00  0.00     0.275 HD
ENDBRANCH  16  17
BRANCH  16  21
HETATM   21  C4  UNL     1      -2.170  -2.065  -0.212  1.00  0.00     0.204 C 
HETATM   22  O1  UNL     1      -1.166  -2.393   0.450  1.00  0.00    -0.646 OA
HETATM   23  O2  UNL     1      -3.289  -2.877  -0.175  1.00  0.00    -0.646 OA
ENDBRANCH  16  21
ENDBRANCH  14  16
ENDBRANCH  13  14
BRANCH  13  24
HETATM   24  C6  UNL     1      -0.758   1.952   1.270  1.00  0.00     0.340 C 
BRANCH  24  25
HETATM   25  N2  UNL     1      -1.761   2.046   2.295  1.00  0.00    -0.051 N 
ATOM     26  H23 UNL     1      -2.689   1.874   1.909  1.00  0.00     0.277 HD
ATOM     27  H22 UNL     1      -1.696   1.257   2.938  1.00  0.00     0.277 HD
ATOM     28  H21 UNL     1      -1.739   2.929   2.804  1.00  0.00     0.277 HD
ENDBRANCH  24  25
BRANCH  24  29
HETATM   29  O3  UNL     1      -0.832   3.062   0.430  1.00  0.00    -0.368 OA
ATOM     30  H3  UNL     1      -0.812   3.885   0.904  1.00  0.00     0.212 HD
ENDBRANCH  24  29
ENDBRANCH  13  24
ENDBRANCH   1  13
BRANCH   7  31
HETATM   31  N6  UNL     1       4.520  -0.186  -1.928  1.00  0.00    -0.382 N 
ATOM     32  H62 UNL     1       4.257   0.353  -2.753  1.00  0.00     0.157 HD
ATOM     33  H61 UNL     1       5.457  -0.586  -1.875  1.00  0.00     0.157 HD
ENDBRANCH   7  31
BRANCH   9  34
HETATM   34  N9  UNL     1       3.518  -1.940   2.164  1.00  0.00    -0.233 N 
ATOM     35  H92 UNL     1       4.457  -2.336   2.207  1.00  0.00     0.174 HD
ATOM     36  H91 UNL     1       2.838  -2.064   2.914  1.00  0.00     0.174 HD
ENDBRANCH   9  34
BRANCH   8  37
HETATM   37  N8  UNL     1       5.329  -1.615   0.179  1.00  0.00    -0.322 N 
ATOM     38  H82 UNL     1       6.009  -1.491  -0.571  1.00  0.00     0.178 HD
ATOM     39  H81 UNL     1       5.592  -2.154   1.004  1.00  0.00     0.178 HD
ENDBRANCH   8  37
TORSDOF 11
