REMARK  6 active torsions:
REMARK  status: ('A' for Active; 'I' for Inactive)
REMARK    1  A    between atoms: C2_2  and  O1_3 
REMARK    2  A    between atoms: C2_2  and  C8_22 
REMARK    3  A    between atoms: O1_3  and  C3_4 
REMARK    4  A    between atoms: N1_6  and  N2_7 
REMARK    5  A    between atoms: N3_11  and  N4_13 
REMARK       I    between atoms: C8_22  and  N8_24 
REMARK    6  A    between atoms: N8_24  and  N9_25 
ROOT
HETATM    1  C3  UNL     1      -0.147   0.594  -0.744  1.00  0.00     0.162 C 
HETATM    2  C4  UNL     1      -0.161  -0.482  -1.510  1.00  0.00     0.173 C 
HETATM    3  N1  UNL     1       0.355  -1.795  -1.231  1.00  0.00    -0.251 N 
HETATM    4  C5  UNL     1       1.409  -2.060  -0.280  1.00  0.00     0.168 C 
HETATM    5  N3  UNL     1       1.985  -3.167  -0.501  1.00  0.00    -0.289 N 
ATOM      6  H3  UNL     1       1.644  -3.714  -1.292  1.00  0.00     0.188 HD
HETATM    7  C6  UNL     1       1.872  -1.244   0.857  1.00  0.00     0.134 C 
HETATM    8  N5  UNL     1       2.889  -1.766   1.670  1.00  0.00    -0.095 NA
HETATM    9  C7  UNL     1       1.418  -0.050   1.198  1.00  0.00     0.146 C 
HETATM   10  N6  UNL     1       2.052   0.503   2.338  1.00  0.00    -0.080 NA
HETATM   11  N7  UNL     1       0.390   0.736   0.575  1.00  0.00    -0.323 N 
ATOM     12  H7  UNL     1      -0.005   1.487   1.141  1.00  0.00     0.169 HD
ENDROOT
BRANCH   1  13
HETATM   13  O1  UNL     1      -0.709   1.754  -1.233  1.00  0.00    -0.319 OA
BRANCH  13  14
HETATM   14  C2  UNL     1      -1.231   2.806  -0.491  1.00  0.00     0.235 C 
HETATM   15  C1  UNL     1      -1.700   3.888  -1.453  1.00  0.00     0.052 C 
BRANCH  14  16
HETATM   16  C8  UNL     1      -2.400   2.395   0.389  1.00  0.00     0.340 C 
HETATM   17  O2  UNL     1      -2.797   3.338   1.167  1.00  0.00    -0.252 OA
HETATM   18  N8  UNL     1      -2.942   1.146   0.326  1.00  0.00    -0.291 NA
BRANCH  18  19
HETATM   19  N9  UNL     1      -3.469  -0.064   0.266  1.00  0.00    -0.277 N 
ATOM     20  H92 UNL     1      -3.128   0.893   0.354  1.00  0.00     0.191 HD
ATOM     21  H91 UNL     1      -3.875  -0.999   0.219  1.00  0.00     0.191 HD
ENDBRANCH  18  19
ENDBRANCH  14  16
ENDBRANCH  13  14
ENDBRANCH   1  13
BRANCH   3  22
HETATM   22  N2  UNL     1      -0.188  -2.879  -1.913  1.00  0.00    -0.337 N 
ATOM     23  H22 UNL     1      -0.932  -2.692  -2.585  1.00  0.00     0.177 HD
ATOM     24  H21 UNL     1       0.178  -3.810  -1.715  1.00  0.00     0.177 HD
ENDBRANCH   3  22
BRANCH   5  25
HETATM   25  N4  UNL     1       3.023  -3.702   0.220  1.00  0.00    -0.344 N 
ATOM     26  H42 UNL     1       3.350  -3.141   1.007  1.00  0.00     0.176 HD
ATOM     27  H41 UNL     1       3.487  -4.593   0.042  1.00  0.00     0.176 HD
ENDBRANCH   5  25
TORSDOF 6
