REMARK  2 active torsions:
REMARK  status: ('A' for Active; 'I' for Inactive)
REMARK    1  A    between atoms: C1_4  and  C2_5 
REMARK       I    between atoms: N5_17  and  C7_18 
REMARK       I    between atoms: C7_18  and  N6_20 
REMARK    2  A    between atoms: N6_20  and  N7_22 
REMARK       I    between atoms: N7_22  and  C8_23 
REMARK       I    between atoms: C8_23  and  N8_24 
REMARK       I    between atoms: C8_23  and  N9_28 
ROOT
HETATM    1  C2  UNL     1      -1.854   1.859   0.268  1.00  0.00     0.133 A 
HETATM    2  N2  UNL     1      -3.118   1.327   0.353  1.00  0.00    -0.333 N 
ATOM      3  H2  UNL     1      -3.969   1.856   0.542  1.00  0.00     0.168 HD
HETATM    4  C3  UNL     1      -3.058   0.014   0.150  1.00  0.00     0.148 A 
HETATM    5  C4  UNL     1      -3.985  -1.016   0.118  1.00  0.00     0.277 A 
HETATM    6  O1  UNL     1      -5.181  -0.688   0.323  1.00  0.00    -0.266 OA
HETATM    7  N3  UNL     1      -3.576  -2.272  -0.121  1.00  0.00    -0.318 N 
ATOM      8  H3  UNL     1      -4.256  -3.031  -0.144  1.00  0.00     0.169 HD
HETATM    9  C5  UNL     1      -2.269  -2.535  -0.331  1.00  0.00     0.185 A 
HETATM   10  N4  UNL     1      -1.346  -1.567  -0.308  1.00  0.00    -0.336 N 
ATOM     11  H4  UNL     1      -0.362  -1.783  -0.468  1.00  0.00     0.168 HD
HETATM   12  C6  UNL     1      -1.746  -0.285  -0.066  1.00  0.00     0.151 A 
HETATM   13  N5  UNL     1      -1.030   0.859   0.011  1.00  0.00    -0.230 N 
HETATM   14  C7  UNL     1       0.385   0.985  -0.166  1.00  0.00     0.345 C 
HETATM   15  O2  UNL     1       0.925   2.122  -0.084  1.00  0.00    -0.245 OA
HETATM   16  N6  UNL     1       1.273  -0.085  -0.436  1.00  0.00    -0.251 N 
ATOM     17  H6  UNL     1       0.945  -1.047  -0.522  1.00  0.00     0.187 HD
ENDROOT
BRANCH   1  18
HETATM   18  C1  UNL     1      -1.605   3.288   0.447  1.00  0.00     0.130 C 
HETATM   19  N1  UNL     1      -2.582   4.107   0.695  1.00  0.00    -0.405 N 
ATOM     20  H12 UNL     1      -3.528   3.732   0.762  1.00  0.00     0.155 HD
ATOM     21  H11 UNL     1      -2.408   5.104   0.820  1.00  0.00     0.155 HD
ENDBRANCH   1  18
BRANCH  16  22
HETATM   22  N7  UNL     1       2.639   0.251  -0.580  1.00  0.00    -0.077 NA
HETATM   23  C8  UNL     1       3.472  -0.378   0.417  1.00  0.00     0.490 C 
HETATM   24  N8  UNL     1       3.281  -1.827   0.251  1.00  0.00    -0.035 N 
HETATM   25  N9  UNL     1       4.873  -0.105   0.076  1.00  0.00    -0.035 N 
ATOM     26  H83 UNL     1       2.304  -2.116   0.296  1.00  0.00     0.278 HD
ATOM     27  H82 UNL     1       3.464  -2.155  -0.697  1.00  0.00     0.278 HD
ATOM     28  H81 UNL     1       3.870  -2.271   0.956  1.00  0.00     0.278 HD
ATOM     29  H93 UNL     1       5.111  -0.391  -0.874  1.00  0.00     0.278 HD
ATOM     30  H92 UNL     1       5.067   0.891  -0.028  1.00  0.00     0.278 HD
ATOM     31  H91 UNL     1       5.462  -0.549   0.781  1.00  0.00     0.278 HD
ENDBRANCH  16  22
TORSDOF 2
