REMARK  7 active torsions:
REMARK  status: ('A' for Active; 'I' for Inactive)
REMARK    1  A    between atoms: N1_1  and  C1_4 
REMARK    2  A    between atoms: C3_10  and  N4_11 
REMARK    3  A    between atoms: C4_16  and  N6_17 
REMARK    4  A    between atoms: N6_17  and  N7_19 
REMARK    5  A    between atoms: C5_21  and  C6_22 
REMARK    6  A    between atoms: C6_22  and  O1_23 
REMARK    7  A    between atoms: C6_22  and  C7_25 
ROOT
HETATM    1  C1  UNL     1       3.835  -1.479  -0.550  1.00  0.00     0.706 A 
HETATM    2  N2  UNL     1       4.161  -0.174  -0.581  1.00  0.00    -0.018 N 
ATOM      3  H2  UNL     1       5.102   0.194  -0.724  1.00  0.00     0.203 HD
HETATM    4  C2  UNL     1       3.051   0.576  -0.394  1.00  0.00     0.748 A 
HETATM    5  N3  UNL     1       2.853   1.905  -0.341  1.00  0.00    -0.019 N 
ATOM      6  H3  UNL     1       3.637   2.548  -0.454  1.00  0.00     0.203 HD
HETATM    7  C3  UNL     1       1.605   2.379  -0.137  1.00  0.00     0.705 A 
HETATM    8  N5  UNL     1       0.601   1.501   0.007  1.00  0.00    -0.018 N 
ATOM      9  H5  UNL     1      -0.338   1.869   0.160  1.00  0.00     0.203 HD
HETATM   10  C4  UNL     1       0.755   0.169  -0.038  1.00  0.00     0.748 A 
HETATM   11  N8  UNL     1       2.011  -0.288  -0.243  1.00  0.00     0.107 N 
HETATM   12  N9  UNL     1       2.507  -1.506  -0.341  1.00  0.00    -0.096 N 
ATOM     13  H9  UNL     1       1.954  -2.360  -0.268  1.00  0.00     0.207 HD
ENDROOT
BRANCH  10  14
HETATM   14  N6  UNL     1      -0.190  -0.665   0.097  1.00  0.00    -0.130 N 
ATOM     15  H6  UNL     1       0.058  -1.653   0.041  1.00  0.00     0.205 HD
BRANCH  14  16
HETATM   16  N7  UNL     1      -1.517  -0.371   0.311  1.00  0.00    -0.298 N 
HETATM   17  C5  UNL     1      -2.361  -1.313   0.547  1.00  0.00     0.123 C 
ATOM     18  H7  UNL     1      -1.833   0.598   0.282  1.00  0.00     0.186 HD
BRANCH  17  19
HETATM   19  C6  UNL     1      -3.806  -1.053   0.785  1.00  0.00     0.258 C 
BRANCH  19  20
HETATM   20  O1  UNL     1      -4.606  -2.125   0.397  1.00  0.00    -0.380 OA
ATOM     21  H1  UNL     1      -5.529  -1.959   0.549  1.00  0.00     0.211 HD
ENDBRANCH  19  20
BRANCH  19  22
HETATM   22  C7  UNL     1      -4.241   0.210   0.143  1.00  0.00     0.208 C 
HETATM   23  O2  UNL     1      -5.222   0.190  -0.635  1.00  0.00    -0.646 OA
HETATM   24  O3  UNL     1      -3.595   1.404   0.379  1.00  0.00    -0.646 OA
ENDBRANCH  19  22
ENDBRANCH  17  19
ENDBRANCH  14  16
ENDBRANCH  10  14
BRANCH   7  25
HETATM   25  N4  UNL     1       1.454   3.655  -0.092  1.00  0.00    -0.234 N 
ATOM     26  H42 UNL     1       2.217   4.323  -0.201  1.00  0.00     0.174 HD
ATOM     27  H41 UNL     1       0.511   4.013   0.062  1.00  0.00     0.174 HD
ENDBRANCH   7  25
BRANCH   1  28
HETATM   28  N1  UNL     1       4.604  -2.520  -0.688  1.00  0.00    -0.233 N 
ATOM     29  H12 UNL     1       5.611  -2.500  -0.847  1.00  0.00     0.174 HD
ATOM     30  H11 UNL     1       4.357  -3.509  -0.664  1.00  0.00     0.174 HD
ENDBRANCH   1  28
TORSDOF 7
