REMARK  5 active torsions:
REMARK  status: ('A' for Active; 'I' for Inactive)
REMARK    1  A    between atoms: N1_1  and  S1_4 
REMARK    2  A    between atoms: S1_4  and  N2_5 
REMARK    3  A    between atoms: S1_4  and  C1_9 
REMARK    4  A    between atoms: C3_11  and  C4_12 
REMARK    5  A    between atoms: C5_17  and  C6_18 
ROOT
HETATM    1  C1  UNL     1       1.340  -0.367   0.368  1.00  0.00     0.130 A 
HETATM    2  C2  UNL     1       1.398   0.965   0.014  1.00  0.00     0.076 A 
HETATM    3  C3  UNL     1       0.241   1.713  -0.136  1.00  0.00     0.102 A 
HETATM    4  N4  UNL     1      -0.918   1.077   0.078  1.00  0.00    -0.339 N 
ATOM      5  H4  UNL     1      -1.787   1.601  -0.025  1.00  0.00     0.167 HD
HETATM    6  C5  UNL     1      -0.988  -0.233   0.426  1.00  0.00     0.121 A 
HETATM    7  N9  UNL     1       0.141  -0.937   0.566  1.00  0.00    -0.334 N 
ATOM      8  H9  UNL     1       0.090  -1.922   0.827  1.00  0.00     0.168 HD
ENDROOT
BRANCH   1   9
HETATM    9  S1  UNL     1       2.841  -1.253   0.541  1.00  0.00     0.147 S 
HETATM   10  O1  UNL     1       3.003  -1.793   1.937  1.00  0.00    -0.222 OA
BRANCH   9  11
HETATM   11  N1  UNL     1       2.854  -2.428  -0.471  1.00  0.00    -0.340 N 
ATOM     12  H12 UNL     1       3.552  -2.558  -1.204  1.00  0.00     0.167 HD
ATOM     13  H11 UNL     1       2.058  -3.036  -0.278  1.00  0.00     0.167 HD
ENDBRANCH   9  11
BRANCH   9  14
HETATM   14  N2  UNL     1       4.189  -0.224   0.215  1.00  0.00    -0.340 N 
ATOM     15  H22 UNL     1       4.873  -0.377  -0.526  1.00  0.00     0.167 HD
ATOM     16  H21 UNL     1       4.180   0.549   0.881  1.00  0.00     0.167 HD
ENDBRANCH   9  14
ENDBRANCH   1   9
BRANCH   3  17
HETATM   17  C4  UNL     1       0.315   3.118  -0.510  1.00  0.00     0.281 C 
HETATM   18  N3  UNL     1       1.572   3.741  -0.725  1.00  0.00    -0.056 NA
HETATM   19  O2  UNL     1      -0.754   3.753  -0.634  1.00  0.00    -0.269 OA
ENDBRANCH   3  17
BRANCH   6  20
HETATM   20  C6  UNL     1      -2.338  -0.792   0.628  1.00  0.00     0.274 C 
HETATM   21  N5  UNL     1      -2.516  -2.085   0.001  1.00  0.00    -0.098 NA
HETATM   22  N6  UNL     1      -3.861  -2.132  -0.311  1.00  0.00    -0.019 NA
HETATM   23  N7  UNL     1      -4.427  -0.904  -0.037  1.00  0.00    -0.019 NA
HETATM   24  N8  UNL     1      -3.333   0.001  -0.107  1.00  0.00    -0.098 NA
ENDBRANCH   6  20
TORSDOF 5
