REMARK  7 active torsions:
REMARK  status: ('A' for Active; 'I' for Inactive)
REMARK    1  A    between atoms: N1_1  and  C1_4 
REMARK    2  A    between atoms: C2_7  and  C3_8 
REMARK    3  A    between atoms: C3_8  and  N3_9 
REMARK    4  A    between atoms: N3_9  and  N4_10 
REMARK    5  A    between atoms: N4_10  and  C4_12 
REMARK    6  A    between atoms: C7_19  and  N7_20 
REMARK    7  A    between atoms: N7_20  and  N8_22 
ROOT
HETATM    1  C1  UNL     1       3.649   1.332   0.237  1.00  0.00     0.680 C 
HETATM    2  N2  UNL     1       2.332   1.580  -0.071  1.00  0.00    -0.191 N 
ATOM      3  H2  UNL     1       2.076   2.480  -0.476  1.00  0.00     0.184 HD
HETATM    4  C2  UNL     1       1.352   0.640   0.155  1.00  0.00     0.088 C 
HETATM    5  C7  UNL     1       1.563  -0.744  -0.027  1.00  0.00     0.148 C 
HETATM    6  N9  UNL     1       2.587  -1.530   0.293  1.00  0.00    -0.291 N 
ATOM      7  H9  UNL     1       2.423  -2.536   0.334  1.00  0.00     0.172 HD
HETATM    8  C8  UNL     1       3.861  -1.069   0.574  1.00  0.00     0.340 C 
HETATM    9  O1  UNL     1       4.633  -1.982   0.818  1.00  0.00    -0.246 OA
HETATM   10  N10 UNL     1       4.293   0.223   0.627  1.00  0.00    -0.141 N 
ATOM     11  H10 UNL     1       5.227   0.364   1.013  1.00  0.00     0.189 HD
ENDROOT
BRANCH   4  12
HETATM   12  C3  UNL     1       0.030   1.022   0.684  1.00  0.00     0.196 C 
BRANCH  12  13
HETATM   13  N3  UNL     1      -1.089   0.689  -0.121  1.00  0.00    -0.134 NA
BRANCH  13  14
HETATM   14  N4  UNL     1      -2.222   1.140   0.492  1.00  0.00    -0.288 N 
ATOM     15  H4  UNL     1      -2.199   1.900   1.172  1.00  0.00     0.184 HD
BRANCH  14  16
HETATM   16  C4  UNL     1      -3.456   0.484   0.127  1.00  0.00     0.132 A 
HETATM   17  C5  UNL     1      -4.314  -0.162   0.946  1.00  0.00     0.069 A 
HETATM   18  C6  UNL     1      -5.365  -0.629   0.173  1.00  0.00     0.111 A 
HETATM   19  N5  UNL     1      -5.092  -0.236  -1.116  1.00  0.00    -0.310 N 
HETATM   20  N6  UNL     1      -3.923   0.439  -1.105  1.00  0.00    -0.285 N 
ATOM     21  H5  UNL     1      -5.670  -0.422  -1.935  1.00  0.00     0.186 HD
ATOM     22  H6  UNL     1      -3.472   0.850  -1.922  1.00  0.00     0.188 HD
ENDBRANCH  14  16
ENDBRANCH  13  14
ENDBRANCH  12  13
ENDBRANCH   4  12
BRANCH   5  23
HETATM   23  N7  UNL     1       0.557  -1.199  -0.731  1.00  0.00    -0.290 N 
ATOM     24  H7  UNL     1      -0.197  -0.592  -1.053  1.00  0.00     0.188 HD
BRANCH  23  25
HETATM   25  N8  UNL     1       0.579  -2.572  -1.015  1.00  0.00    -0.344 N 
ATOM     26  H82 UNL     1       1.340  -3.167  -0.686  1.00  0.00     0.176 HD
ATOM     27  H81 UNL     1      -0.205  -2.926  -1.563  1.00  0.00     0.176 HD
ENDBRANCH  23  25
ENDBRANCH   5  23
BRANCH   1  28
HETATM   28  N1  UNL     1       4.437   2.362   0.168  1.00  0.00    -0.234 N 
ATOM     29  H12 UNL     1       3.947   3.206  -0.129  1.00  0.00     0.174 HD
ATOM     30  H11 UNL     1       5.414   2.178   0.396  1.00  0.00     0.174 HD
ENDBRANCH   1  28
TORSDOF 7
