REMARK  7 active torsions:
REMARK  status: ('A' for Active; 'I' for Inactive)
REMARK    1  A    between atoms: C2_2  and  N1_3 
REMARK    2  A    between atoms: C2_2  and  N2_7 
REMARK       I    between atoms: N2_7  and  C3_8 
REMARK    3  A    between atoms: N2_7  and  C4_15 
REMARK    4  A    between atoms: N4_10  and  N5_12 
REMARK    5  A    between atoms: C5_18  and  C6_19 
REMARK       I    between atoms: C6_19  and  N7_21 
REMARK    6  A    between atoms: N7_21  and  N8_23 
REMARK    7  A    between atoms: C7_28  and  N10_29 
ROOT
HETATM    1  C4  UNL     1      -0.082  -0.232  -0.282  1.00  0.00     0.705 A 
HETATM    2  N6  UNL     1       0.920   0.317   0.428  1.00  0.00    -0.169 N 
ATOM      3  H6  UNL     1       0.690   1.049   1.100  1.00  0.00     0.186 HD
HETATM    4  C5  UNL     1       2.212  -0.048   0.300  1.00  0.00     0.205 A 
HETATM    5  N9  UNL     1       2.464  -1.014  -0.596  1.00  0.00    -0.170 N 
ATOM      6  H9  UNL     1       3.426  -1.326  -0.732  1.00  0.00     0.186 HD
HETATM    7  C7  UNL     1       1.481  -1.585  -1.323  1.00  0.00     0.692 A 
HETATM    8  N11 UNL     1       0.202  -1.199  -1.173  1.00  0.00    -0.022 N 
ATOM      9  H11 UNL     1      -0.539  -1.631  -1.724  1.00  0.00     0.203 HD
ENDROOT
BRANCH   1  10
HETATM   10  N2  UNL     1      -1.415   0.217  -0.080  1.00  0.00    -0.123 N 
HETATM   11  C3  UNL     1      -2.201  -0.436   0.905  1.00  0.00     0.225 C 
HETATM   12  N3  UNL     1      -2.826  -1.688   0.700  1.00  0.00    -0.061 NA
HETATM   13  N4  UNL     1      -2.363   0.125   2.051  1.00  0.00    -0.279 N 
ATOM     14  H4  UNL     1      -1.918   1.028   2.217  1.00  0.00     0.189 HD
BRANCH  10  15
HETATM   15  C2  UNL     1      -2.031   1.289  -0.802  1.00  0.00     0.304 C 
HETATM   16  C1  UNL     1      -1.168   1.940  -1.821  1.00  0.00     0.064 C 
BRANCH  15  17
HETATM   17  N1  UNL     1      -3.189   0.720  -1.503  1.00  0.00    -0.058 N 
ATOM     18  H13 UNL     1      -3.689   1.407  -2.068  1.00  0.00     0.276 HD
ATOM     19  H12 UNL     1      -2.925   0.091  -2.261  1.00  0.00     0.276 HD
ATOM     20  H11 UNL     1      -3.782   0.273  -0.803  1.00  0.00     0.276 HD
ENDBRANCH  15  17
ENDBRANCH  10  15
BRANCH  13  21
HETATM   21  N5  UNL     1      -3.117  -0.442   3.077  1.00  0.00    -0.343 N 
ATOM     22  H52 UNL     1      -3.554  -1.345   2.894  1.00  0.00     0.176 HD
ATOM     23  H51 UNL     1      -3.245   0.003   3.986  1.00  0.00     0.176 HD
ENDBRANCH  13  21
ENDBRANCH   1  10
BRANCH   4  24
HETATM   24  C6  UNL     1       3.247   0.586   1.098  1.00  0.00     0.304 C 
HETATM   25  O1  UNL     1       2.970   1.485   1.924  1.00  0.00    -0.263 OA
HETATM   26  N7  UNL     1       4.596   0.199   0.959  1.00  0.00    -0.270 N 
ATOM     27  H7  UNL     1       4.833  -0.533   0.289  1.00  0.00     0.189 HD
BRANCH  26  28
HETATM   28  N8  UNL     1       5.616   0.784   1.707  1.00  0.00    -0.342 N 
ATOM     29  H82 UNL     1       5.362   1.514   2.372  1.00  0.00     0.176 HD
ATOM     30  H81 UNL     1       6.592   0.504   1.606  1.00  0.00     0.176 HD
ENDBRANCH  26  28
ENDBRANCH   4  24
BRANCH   7  31
HETATM   31  N10 UNL     1       1.804  -2.496  -2.153  1.00  0.00    -0.234 N 
ATOM     32 2H10 UNL     1       2.774  -2.789  -2.267  1.00  0.00     0.174 HD
ATOM     33 1H10 UNL     1       1.061  -2.928  -2.703  1.00  0.00     0.174 HD
ENDBRANCH   7  31
TORSDOF 7
