REMARK  4 active torsions:
REMARK  status: ('A' for Active; 'I' for Inactive)
REMARK       I    between atoms: C2_2  and  N1_4 
REMARK    1  A    between atoms: N1_4  and  N2_5 
REMARK    2  A    between atoms: N2_5  and  N3_6 
REMARK    3  A    between atoms: C4_12  and  N5_13 
REMARK    4  A    between atoms: C6_20  and  N7_21 
REMARK       I    between atoms: N8_23  and  C7_25 
REMARK       I    between atoms: C7_25  and  N9_26 
REMARK       I    between atoms: C7_25  and  N10_30 
ROOT
HETATM    1  N2  UNL     1      -1.674   0.165  -0.102  1.00  0.00    -0.113 N 
HETATM    2  C3  UNL     1      -0.709   0.999   0.274  1.00  0.00     0.206 A 
HETATM    3  N4  UNL     1      -0.991   2.388   0.157  1.00  0.00    -0.170 N 
ATOM      4  H4  UNL     1      -1.857   2.718  -0.270  1.00  0.00     0.186 HD
HETATM    5  C4  UNL     1      -0.083   3.243   0.626  1.00  0.00     0.680 A 
HETATM    6  N6  UNL     1       1.073   2.921   1.207  1.00  0.00    -0.154 N 
ATOM      7  H6  UNL     1       1.715   3.637   1.545  1.00  0.00     0.187 HD
HETATM    8  C5  UNL     1       1.363   1.582   1.331  1.00  0.00     0.291 A 
HETATM    9  O2  UNL     1       2.418   1.265   1.871  1.00  0.00    -0.265 OA
HETATM   10  C6  UNL     1       0.443   0.655   0.846  1.00  0.00     0.166 A 
ENDROOT
BRANCH  10  11
HETATM   11  N7  UNL     1       0.899  -0.694   0.871  1.00  0.00    -0.293 N 
HETATM   12  N8  UNL     1       2.008  -0.902   0.417  1.00  0.00    -0.283 N 
HETATM   13  C7  UNL     1       3.034  -1.792   0.121  1.00  0.00     0.494 C 
ATOM     14  H8  UNL     1       2.345   0.009   0.106  1.00  0.00     0.184 HD
HETATM   15  N9  UNL     1       4.389  -1.247   0.469  1.00  0.00    -0.032 N 
HETATM   16  N10 UNL     1       3.110  -2.004  -1.292  1.00  0.00    -0.032 N 
ATOM     17  H93 UNL     1       4.547  -0.344   0.022  1.00  0.00     0.279 HD
ATOM     18  H92 UNL     1       4.427  -0.956   1.446  1.00  0.00     0.279 HD
ATOM     19  H91 UNL     1       5.142  -1.900   0.252  1.00  0.00     0.279 HD
ATOM     20 3H10 UNL     1       2.217  -2.308  -1.681  1.00  0.00     0.279 HD
ATOM     21 2H10 UNL     1       3.206  -1.127  -1.805  1.00  0.00     0.279 HD
ATOM     22 1H10 UNL     1       3.863  -2.657  -1.509  1.00  0.00     0.279 HD
ATOM     23  H7  UNL     1       0.325  -1.447   1.250  1.00  0.00     0.187 HD
ENDBRANCH  10  11
BRANCH   1  24
HETATM   24  N1  UNL     1      -2.377  -0.521  -0.883  1.00  0.00    -0.263 NA
HETATM   25  C2  UNL     1      -3.177  -1.277  -1.785  1.00  0.00     0.311 C 
HETATM   26  C1  UNL     1      -3.531  -2.688  -1.325  1.00  0.00     0.137 C 
HETATM   27  O1  UNL     1      -3.586  -0.921  -2.819  1.00  0.00    -0.256 OA
ENDBRANCH   1  24
BRANCH   1  28
HETATM   28  N3  UNL     1      -2.278  -0.282   1.333  1.00  0.00    -0.312 N 
ATOM     29  H32 UNL     1      -3.018  -0.922   1.045  1.00  0.00     0.179 HD
ATOM     30  H31 UNL     1      -1.707   0.276   1.968  1.00  0.00     0.179 HD
ENDBRANCH   1  28
BRANCH   5  31
HETATM   31  N5  UNL     1      -0.346   4.524   0.454  1.00  0.00    -0.234 N 
ATOM     32  H52 UNL     1      -1.230   4.770   0.010  1.00  0.00     0.174 HD
ATOM     33  H51 UNL     1       0.349   5.179   0.813  1.00  0.00     0.174 HD
ENDBRANCH   5  31
TORSDOF 4
