REMARK  10 active torsions:
REMARK  status: ('A' for Active; 'I' for Inactive)
REMARK    1  A    between atoms: C2_2  and  N1_3 
REMARK    2  A    between atoms: C3_4  and  O1_5 
REMARK    3  A    between atoms: C6_9  and  O2_10 
REMARK    4  A    between atoms: C8_14  and  N2_15 
REMARK    5  A    between atoms: C14_28  and  C15_29 
REMARK    6  A    between atoms: C15_29  and  C16_30 
REMARK    7  A    between atoms: C16_30  and  C17_31 
REMARK    8  A    between atoms: C17_31  and  C18_32 
REMARK    9  A    between atoms: C18_32  and  C19_33 
REMARK   10  A    between atoms: C19_33  and  C20_34 
ROOT
HETATM    1  N1  UNL     1      -2.111   2.423  -0.066  1.00  0.00    -0.308 N 
HETATM    2  C3  UNL     1      -1.031   2.000  -0.683  1.00  0.00     0.151 A 
HETATM    3  C4  UNL     1      -1.081   0.616  -0.684  1.00  0.00     0.013 A 
HETATM    4  C5  UNL     1      -2.259   0.239  -0.031  1.00  0.00     0.045 A 
HETATM    5  C6  UNL     1      -2.889   1.408   0.351  1.00  0.00     0.154 A 
HETATM    6  C7  UNL     1      -2.354  -1.264  -0.035  1.00  0.00     0.142 C 
HETATM    7  S1  UNL     1      -3.240  -1.834   1.468  1.00  0.00    -0.088 SA
HETATM    8  C8  UNL     1      -4.198  -3.162   0.680  1.00  0.00     0.340 C 
HETATM    9  C9  UNL     1      -3.786  -2.991  -0.736  1.00  0.00     0.276 C 
HETATM   10  O3  UNL     1      -3.966  -3.957  -1.558  1.00  0.00    -0.269 OA
HETATM   11  N3  UNL     1      -3.226  -1.747  -1.037  1.00  0.00    -0.231 N 
HETATM   12 CL1  UNL     1      -3.577  -0.848  -2.522  1.00  0.00     0.018 Cl
HETATM   13  C10 UNL     1      -0.932  -1.607  -0.069  1.00  0.00     0.012 C 
HETATM   14  C11 UNL     1      -0.352  -1.472   1.298  1.00  0.00     0.020 C 
HETATM   15  C12 UNL     1      -0.521  -2.849  -0.780  1.00  0.00     0.092 C 
HETATM   16  C13 UNL     1       0.730  -2.430  -1.461  1.00  0.00     0.132 C 
HETATM   17  O4  UNL     1       1.537  -3.080  -2.084  1.00  0.00    -0.298 OA
HETATM   18  C14 UNL     1       0.913  -0.893  -1.265  1.00  0.00     0.065 C 
HETATM   19  C21 UNL     1      -0.446  -0.585  -1.083  1.00  0.00     0.047 C 
ENDROOT
BRANCH   5  20
HETATM   20  O2  UNL     1      -4.102   1.517   1.037  1.00  0.00    -0.345 OA
ATOM     21  H2  UNL     1      -4.651   0.800   1.332  1.00  0.00     0.219 HD
ENDBRANCH   5  20
BRANCH   8  22
HETATM   22  N2  UNL     1      -5.618  -2.933   0.758  1.00  0.00    -0.057 N 
ATOM     23  H23 UNL     1      -5.915  -2.788   1.723  1.00  0.00     0.276 HD
ATOM     24  H22 UNL     1      -5.866  -2.022   0.372  1.00  0.00     0.276 HD
ATOM     25  H21 UNL     1      -6.156  -3.678   0.316  1.00  0.00     0.276 HD
ENDBRANCH   8  22
BRANCH   2  26
HETATM   26  O1  UNL     1      -0.076   2.841  -1.206  1.00  0.00    -0.345 OA
ATOM     27  H1  UNL     1       0.705   2.535  -1.652  1.00  0.00     0.219 HD
ENDBRANCH   2  26
BRANCH   1  28
HETATM   28  C2  UNL     1      -2.472   3.829   0.169  1.00  0.00     0.129 C 
HETATM   29  C1  UNL     1      -3.295   4.371  -0.970  1.00  0.00     0.027 C 
ENDBRANCH   1  28
BRANCH  18  30
HETATM   30  C15 UNL     1       2.073  -0.714  -0.416  1.00  0.00     0.013 C 
BRANCH  30  31
HETATM   31  C16 UNL     1       2.495   0.673  -0.070  1.00  0.00     0.001 C 
BRANCH  31  32
HETATM   32  C17 UNL     1       3.728   0.735   0.842  1.00  0.00     0.000 C 
BRANCH  32  33
HETATM   33  C18 UNL     1       4.896   0.101   0.181  1.00  0.00     0.001 C 
BRANCH  33  34
HETATM   34  C19 UNL     1       6.123   0.035   1.008  1.00  0.00     0.011 C 
BRANCH  34  35
HETATM   35  C20 UNL     1       6.668   1.300   1.506  1.00  0.00     0.085 C 
HETATM   36 BR1  UNL     1       5.521   2.148   2.783  1.00  0.00    -0.097 Br
ENDBRANCH  34  35
ENDBRANCH  33  34
ENDBRANCH  32  33
ENDBRANCH  31  32
ENDBRANCH  30  31
ENDBRANCH  18  30
TORSDOF 10
