REMARK  13 active torsions:
REMARK  status: ('A' for Active; 'I' for Inactive)
REMARK    1  A    between atoms: C2_2  and  O1_3 
REMARK    2  A    between atoms: O1_3  and  C3_4 
REMARK       I    between atoms: C3_4  and  N1_6 
REMARK    3  A    between atoms: N1_6  and  C4_8 
REMARK    4  A    between atoms: C4_8  and  C5_9 
REMARK    5  A    between atoms: C5_9  and  O4_11 
REMARK    6  A    between atoms: O4_11  and  C6_12 
REMARK    7  A    between atoms: C6_12  and  C7_13 
REMARK    8  A    between atoms: C12_18  and  O5_19 
REMARK    9  A    between atoms: C12_18  and  C13_21 
REMARK   10  A    between atoms: C16_24  and  O6_25 
REMARK   11  A    between atoms: O6_25  and  C17_26 
REMARK   12  A    between atoms: C17_26  and  C18_28 
REMARK   13  A    between atoms: C18_28  and  O8_31 
ROOT
HETATM    1  C7  UNL     1       0.020   0.929  -1.098  1.00  0.00    -0.004 C 
HETATM    2  C8  UNL     1       0.905   2.037  -1.731  1.00  0.00     0.019 C 
HETATM    3  C9  UNL     1      -1.236   1.558  -0.740  1.00  0.00     0.058 C 
HETATM    4  C10 UNL     1      -2.374   1.357  -1.669  1.00  0.00    -0.072 C 
HETATM    5  C11 UNL     1      -3.455   1.757  -1.030  1.00  0.00     0.017 C 
HETATM    6  C12 UNL     1      -3.080   2.239   0.357  1.00  0.00     0.106 C 
HETATM    7  C16 UNL     1      -1.921   1.221   0.556  1.00  0.00     0.179 C 
HETATM    8  C21 UNL     1      -2.139   0.793  -3.003  1.00  0.00     0.055 C 
HETATM    9  C22 UNL     1      -1.151  -0.326  -2.973  1.00  0.00     0.095 C 
HETATM   10 CL1  UNL     1      -0.729  -0.714  -4.671  1.00  0.00    -0.124 Cl
HETATM   11  C23 UNL     1       0.020  -0.196  -2.081  1.00  0.00    -0.021 C 
HETATM   12  C24 UNL     1       1.199  -0.028  -3.066  1.00  0.00     0.017 C 
HETATM   13  C25 UNL     1       0.295  -1.539  -1.428  1.00  0.00     0.017 C 
ENDROOT
BRANCH   1  14
HETATM   14  C6  UNL     1       0.793   0.612   0.172  1.00  0.00     0.189 C 
BRANCH  14  15
HETATM   15  O4  UNL     1       2.100   0.162  -0.103  1.00  0.00    -0.319 OA
BRANCH  15  16
HETATM   16  C5  UNL     1       2.999  -0.190   0.892  1.00  0.00     0.276 C 
HETATM   17  O3  UNL     1       2.641  -0.107   2.089  1.00  0.00    -0.263 OA
BRANCH  16  18
HETATM   18  C4  UNL     1       4.345  -0.648   0.472  1.00  0.00     0.235 C 
BRANCH  18  19
HETATM   19  N1  UNL     1       5.187  -0.983   1.568  1.00  0.00    -0.328 N 
HETATM   20  C3  UNL     1       6.507  -1.438   1.338  1.00  0.00     0.360 C 
HETATM   21  O2  UNL     1       6.955  -1.554   0.166  1.00  0.00    -0.239 OA
ATOM     22  H1  UNL     1       4.838  -0.895   2.523  1.00  0.00     0.165 HD
BRANCH  20  23
HETATM   23  O1  UNL     1       7.374  -1.780   2.367  1.00  0.00    -0.304 OA
BRANCH  23  24
HETATM   24  C2  UNL     1       8.694  -2.234   2.097  1.00  0.00     0.176 C 
HETATM   25  C1  UNL     1       9.408  -1.131   1.346  1.00  0.00     0.034 C 
ENDBRANCH  23  24
ENDBRANCH  20  23
ENDBRANCH  18  19
ENDBRANCH  16  18
ENDBRANCH  15  16
ENDBRANCH  14  15
ENDBRANCH   1  14
BRANCH   7  26
HETATM   26  O6  UNL     1      -2.572  -0.024   0.472  1.00  0.00    -0.309 OA
BRANCH  26  27
HETATM   27  C17 UNL     1      -2.607  -0.998   1.422  1.00  0.00     0.293 C 
HETATM   28  O7  UNL     1      -1.980  -0.758   2.499  1.00  0.00    -0.262 OA
BRANCH  27  29
HETATM   29  C18 UNL     1      -3.299  -2.304   1.326  1.00  0.00     0.138 C 
HETATM   30  C19 UNL     1      -2.831  -3.166   0.191  1.00  0.00     0.056 C 
HETATM   31  C20 UNL     1      -4.796  -2.075   1.100  1.00  0.00     0.056 C 
BRANCH  29  32
HETATM   32  O8  UNL     1      -3.109  -3.058   2.499  1.00  0.00    -0.380 OA
ATOM     33  H8  UNL     1      -3.553  -3.896   2.437  1.00  0.00     0.211 HD
ENDBRANCH  29  32
ENDBRANCH  27  29
ENDBRANCH  26  27
ENDBRANCH   7  26
BRANCH   6  34
HETATM   34  O5  UNL     1      -2.643   3.525   0.265  1.00  0.00    -0.383 OA
ATOM     35  H5  UNL     1      -2.408   3.827   1.134  1.00  0.00     0.211 HD
ENDBRANCH   6  34
BRANCH   6  36
HETATM   36  C13 UNL     1      -4.172   2.059   1.322  1.00  0.00     0.018 C 
HETATM   37  C14 UNL     1      -3.780   2.543   2.688  1.00  0.00     0.013 C 
HETATM   38  C15 UNL     1      -5.342   2.918   0.863  1.00  0.00     0.013 C 
ENDBRANCH   6  36
TORSDOF 13
