REMARK  13 active torsions:
REMARK  status: ('A' for Active; 'I' for Inactive)
REMARK    1  A    between atoms: N1_2  and  C2_3 
REMARK    2  A    between atoms: N1_2  and  C4_7 
REMARK    3  A    between atoms: C2_3  and  C3_4 
REMARK    4  A    between atoms: C3_4  and  O1_5 
REMARK    5  A    between atoms: C4_7  and  C5_8 
REMARK    6  A    between atoms: C5_8  and  O2_9 
REMARK    7  A    between atoms: C5_8  and  N2_11 
REMARK    8  A    between atoms: C7_15  and  N4_16 
REMARK    9  A    between atoms: C8_21  and  N6_22 
REMARK   10  A    between atoms: C10_27  and  N8_28 
REMARK   11  A    between atoms: C11_33  and  C12_34 
REMARK   12  A    between atoms: C12_34  and  N10_35 
REMARK   13  A    between atoms: N10_35  and  N11_37 
ROOT
HETATM    1  N2  UNL     1      -0.204  -0.522   0.211  1.00  0.00    -0.219 N 
HETATM    2  C6  UNL     1      -0.398  -1.864   0.249  1.00  0.00     0.175 A 
HETATM    3  N3  UNL     1       0.312  -2.868   0.796  1.00  0.00    -0.173 N 
ATOM      4  H3  UNL     1       1.177  -2.652   1.291  1.00  0.00     0.186 HD
HETATM    5  C7  UNL     1      -0.092  -4.154   0.706  1.00  0.00     0.679 A 
HETATM    6  N5  UNL     1      -1.225  -4.448   0.061  1.00  0.00    -0.175 N 
ATOM      7  H5  UNL     1      -1.520  -5.423   0.001  1.00  0.00     0.186 HD
HETATM    8  C8  UNL     1      -2.001  -3.486  -0.520  1.00  0.00     0.148 A 
HETATM    9  C9  UNL     1      -1.564  -2.189  -0.411  1.00  0.00     0.167 A 
HETATM   10  N7  UNL     1      -2.070  -0.996  -0.851  1.00  0.00    -0.056 N 
HETATM   11  C10 UNL     1      -3.113  -0.487  -1.530  1.00  0.00     0.701 A 
HETATM   12  N9  UNL     1      -2.856   0.878  -1.529  1.00  0.00    -0.174 N 
ATOM     13  H9  UNL     1      -3.452   1.582  -1.963  1.00  0.00     0.185 HD
HETATM   14  C11 UNL     1      -1.738   1.134  -0.891  1.00  0.00     0.158 A 
HETATM   15  N15 UNL     1      -1.235  -0.033  -0.460  1.00  0.00    -0.154 N 
ENDROOT
BRANCH   1  16
HETATM   16  C5  UNL     1       0.942   0.164   0.808  1.00  0.00     0.273 C 
BRANCH  16  17
HETATM   17  C4  UNL     1       2.161  -0.113  -0.005  1.00  0.00     0.327 C 
BRANCH  17  18
HETATM   18  N1  UNL     1       3.387   0.360   0.551  1.00  0.00     0.090 N 
HETATM   19  C1  UNL     1       3.777  -0.352   1.750  1.00  0.00     0.310 C 
BRANCH  18  20
HETATM   20  C2  UNL     1       3.546   1.773   0.671  1.00  0.00     0.297 C 
BRANCH  20  21
HETATM   21  C3  UNL     1       3.217   2.558  -0.571  1.00  0.00     0.194 C 
BRANCH  21  22
HETATM   22  O1  UNL     1       4.037   2.169  -1.623  1.00  0.00    -0.399 OA
ATOM     23  H1  UNL     1       3.829   2.664  -2.407  1.00  0.00     0.209 HD
ENDBRANCH  21  22
ENDBRANCH  20  21
ENDBRANCH  18  20
ENDBRANCH  17  18
ENDBRANCH  16  17
BRANCH  16  24
HETATM   24  O2  UNL     1       1.032  -0.397   2.103  1.00  0.00    -0.373 OA
ATOM     25  H2  UNL     1       0.255  -0.221   2.621  1.00  0.00     0.212 HD
ENDBRANCH  16  24
ENDBRANCH   1  16
BRANCH  14  26
HETATM   26  C12 UNL     1      -1.093   2.477  -0.645  1.00  0.00     0.224 C 
BRANCH  26  27
HETATM   27  N10 UNL     1      -2.016   3.468  -1.210  1.00  0.00    -0.291 N 
ATOM     28  H10 UNL     1      -1.713   4.045  -1.995  1.00  0.00     0.184 HD
BRANCH  27  29
HETATM   29  N11 UNL     1      -3.302   3.635  -0.691  1.00  0.00    -0.103 N 
HETATM   30  N12 UNL     1      -4.306   4.413  -1.001  1.00  0.00    -0.189 N 
HETATM   31  N13 UNL     1      -5.033   3.900  -0.024  1.00  0.00    -0.208 N 
ATOM     32  H12 UNL     1      -4.464   5.128  -1.711  1.00  0.00     0.213 HD
HETATM   33  N14 UNL     1      -4.028   3.126   0.282  1.00  0.00    -0.189 N 
ATOM     34  H13 UNL     1      -5.976   4.046   0.337  1.00  0.00     0.211 HD
ATOM     35  H14 UNL     1      -3.869   2.411   0.992  1.00  0.00     0.213 HD
ENDBRANCH  27  29
ENDBRANCH  26  27
ENDBRANCH  14  26
BRANCH   5  36
HETATM   36  N4  UNL     1       0.632  -5.072   1.252  1.00  0.00    -0.234 N 
ATOM     37  H42 UNL     1       1.497  -4.848   1.744  1.00  0.00     0.174 HD
ATOM     38  H41 UNL     1       0.327  -6.043   1.184  1.00  0.00     0.174 HD
ENDBRANCH   5  36
BRANCH   8  39
HETATM   39  N6  UNL     1      -3.075  -3.847  -1.123  1.00  0.00    -0.383 N 
ATOM     40  H62 UNL     1      -3.400  -4.811  -1.204  1.00  0.00     0.157 HD
ATOM     41  H61 UNL     1      -3.655  -3.129  -1.557  1.00  0.00     0.157 HD
ENDBRANCH   8  39
BRANCH  11  42
HETATM   42  N8  UNL     1      -4.134  -0.963  -2.086  1.00  0.00    -0.233 N 
ATOM     43  H82 UNL     1      -4.323  -1.965  -2.087  1.00  0.00     0.174 HD
ATOM     44  H81 UNL     1      -4.925  -0.577  -2.601  1.00  0.00     0.174 HD
ENDBRANCH  11  42
TORSDOF 13
