REMARK  15 active torsions:
REMARK  status: ('A' for Active; 'I' for Inactive)
REMARK    1  A    between atoms: N1_1  and  C1_4 
REMARK    2  A    between atoms: C1_4  and  O1_5 
REMARK    3  A    between atoms: C1_4  and  N6_12 
REMARK    4  A    between atoms: O1_5  and  N2_6 
REMARK    5  A    between atoms: N2_6  and  N3_7 
REMARK    6  A    between atoms: N3_7  and  N4_8 
REMARK    7  A    between atoms: N4_8  and  N5_9 
REMARK    8  A    between atoms: N6_12  and  C2_13 
REMARK    9  A    between atoms: N6_12  and  C6_25 
REMARK   10  A    between atoms: C2_13  and  C3_14 
REMARK   11  A    between atoms: C3_14  and  O2_15 
REMARK   12  A    between atoms: C3_14  and  C4_17 
REMARK   13  A    between atoms: C7_28  and  N11_29 
REMARK   14  A    between atoms: C8_34  and  N13_35 
REMARK   15  A    between atoms: C9_38  and  N14_39 
ROOT
HETATM    1  N6  UNL     1      -0.107   0.503   0.050  1.00  0.00    -0.271 N 
ENDROOT
BRANCH   1   2
HETATM    2  C1  UNL     1      -1.126  -0.406   0.564  1.00  0.00     0.246 C 
BRANCH   2   3
HETATM    3  N1  UNL     1      -1.068  -0.644   1.822  1.00  0.00    -0.364 N 
ATOM      4  H12 UNL     1      -1.780  -1.279   2.181  1.00  0.00     0.159 HD
ATOM      5  H11 UNL     1      -0.354  -0.224   2.417  1.00  0.00     0.159 HD
ENDBRANCH   2   3
BRANCH   2   6
HETATM    6  O1  UNL     1      -2.075  -0.965  -0.227  1.00  0.00    -0.189 OA
BRANCH   6   7
HETATM    7  N2  UNL     1      -2.419  -2.281  -0.042  1.00  0.00     0.041 NA
BRANCH   7   8
HETATM    8  N3  UNL     1      -3.650  -2.454  -0.702  1.00  0.00     0.012 NA
BRANCH   8   9
HETATM    9  N4  UNL     1      -4.023  -3.778  -0.760  1.00  0.00    -0.018 NA
BRANCH   9  10
HETATM   10  N5  UNL     1      -4.558  -4.126   0.490  1.00  0.00    -0.331 N 
ATOM     11  H52 UNL     1      -4.648  -3.499   1.289  1.00  0.00     0.173 HD
ATOM     12  H51 UNL     1      -4.834  -5.107   0.447  1.00  0.00     0.173 HD
ENDBRANCH   9  10
ENDBRANCH   8   9
ENDBRANCH   7   8
ENDBRANCH   6   7
ENDBRANCH   2   6
ENDBRANCH   1   2
BRANCH   1  13
HETATM   13  C2  UNL     1       1.117  -0.130  -0.171  1.00  0.00     0.114 C 
BRANCH  13  14
HETATM   14  C3  UNL     1       1.839  -0.588   1.086  1.00  0.00     0.215 C 
BRANCH  14  15
HETATM   15  O2  UNL     1       2.130   0.405   1.978  1.00  0.00    -0.384 OA
ATOM     16  H2  UNL     1       2.581   0.119   2.764  1.00  0.00     0.211 HD
ENDBRANCH  14  15
BRANCH  14  17
HETATM   17  C4  UNL     1       3.175  -1.108   0.596  1.00  0.00     0.103 A 
HETATM   18  N7  UNL     1       4.226  -0.405   0.187  1.00  0.00    -0.293 N 
HETATM   19  N8  UNL     1       5.272  -1.002  -0.187  1.00  0.00    -0.281 N 
ATOM     20  H7  UNL     1       4.187   0.614   0.176  1.00  0.00     0.187 HD
HETATM   21  C5  UNL     1       5.316  -2.331  -0.170  1.00  0.00     0.174 A 
ATOM     22  H8  UNL     1       6.082  -0.467  -0.502  1.00  0.00     0.188 HD
HETATM   23  N9  UNL     1       6.419  -3.182  -0.561  1.00  0.00    -0.073 NA
HETATM   24  S1  UNL     1       3.756  -2.706   0.420  1.00  0.00    -0.038 SA
ENDBRANCH  14  17
ENDBRANCH  13  14
ENDBRANCH   1  13
BRANCH   1  25
HETATM   25  C6  UNL     1      -0.569   1.821  -0.116  1.00  0.00     0.167 A 
HETATM   26  N10 UNL     1      -1.848   2.166   0.243  1.00  0.00    -0.174 N 
HETATM   27  C7  UNL     1      -2.388   3.370   0.105  1.00  0.00     0.679 A 
ATOM     28  H10 UNL     1      -2.432   1.436   0.650  1.00  0.00     0.186 HD
HETATM   29  N12 UNL     1      -1.692   4.381  -0.419  1.00  0.00    -0.175 N 
HETATM   30  C8  UNL     1      -0.430   4.116  -0.792  1.00  0.00     0.152 A 
ATOM     31  H12 UNL     1      -2.099   5.310  -0.531  1.00  0.00     0.186 HD
HETATM   32  C9  UNL     1       0.161   2.852  -0.655  1.00  0.00     0.191 A 
BRANCH  27  33
HETATM   33  N11 UNL     1      -3.615   3.612   0.478  1.00  0.00    -0.234 N 
ATOM     34 2H11 UNL     1      -4.147   2.839   0.878  1.00  0.00     0.174 HD
ATOM     35 1H11 UNL     1      -4.030   4.538   0.372  1.00  0.00     0.174 HD
ENDBRANCH  27  33
BRANCH  30  36
HETATM   36  N13 UNL     1       0.297   5.063  -1.315  1.00  0.00    -0.383 N 
ATOM     37 2H13 UNL     1      -0.133   5.983  -1.415  1.00  0.00     0.157 HD
ATOM     38 1H13 UNL     1       1.256   4.862  -1.598  1.00  0.00     0.157 HD
ENDBRANCH  30  36
BRANCH  32  39
HETATM   39  N14 UNL     1       1.493   2.753  -1.108  1.00  0.00    -0.108 N 
HETATM   40  O3  UNL     1       2.407   2.859  -0.273  1.00  0.00    -0.531 OA
HETATM   41  O4  UNL     1       1.857   2.601  -2.431  1.00  0.00    -0.531 OA
ENDBRANCH  32  39
ENDBRANCH   1  25
TORSDOF 15
