REMARK  11 active torsions:
REMARK  status: ('A' for Active; 'I' for Inactive)
REMARK    1  A    between atoms: C3_8  and  N4_9 
REMARK       I    between atoms: N4_9  and  C4_11 
REMARK       I    between atoms: C4_11  and  N5_12 
REMARK       I    between atoms: C4_11  and  N6_16 
REMARK    2  A    between atoms: C5_20  and  N7_21 
REMARK    3  A    between atoms: N7_21  and  C6_23 
REMARK    4  A    between atoms: C6_23  and  C7_24 
REMARK    5  A    between atoms: C8_29  and  S1_30 
REMARK    6  A    between atoms: S1_30  and  C9_31 
REMARK    7  A    between atoms: C9_31  and  C10_32 
REMARK    8  A    between atoms: C11_35  and  O1_36 
REMARK    9  A    between atoms: C11_35  and  C12_38 
REMARK   10  A    between atoms: C12_38  and  O2_39 
REMARK   11  A    between atoms: N11_41  and  N12_42 
ROOT
HETATM    1  N7  UNL     1      -1.869  -1.124   1.983  1.00  0.00    -0.377 N 
ATOM      2  H7  UNL     1      -2.456  -0.990   2.806  1.00  0.00     0.160 HD
ENDROOT
BRANCH   1   3
HETATM    3  C5  UNL     1      -2.502  -1.577   0.818  1.00  0.00     0.114 A 
HETATM    4  C1  UNL     1      -2.522  -2.947   0.585  1.00  0.00     0.147 A 
HETATM    5  N1  UNL     1      -1.920  -3.876   1.476  1.00  0.00    -0.080 NA
HETATM    6  N2  UNL     1      -3.134  -3.390  -0.521  1.00  0.00    -0.339 N 
HETATM    7  C2  UNL     1      -3.722  -2.569  -1.404  1.00  0.00     0.183 A 
ATOM      8  H2  UNL     1      -3.154  -4.394  -0.699  1.00  0.00     0.167 HD
HETATM    9  N3  UNL     1      -3.720  -1.241  -1.208  1.00  0.00    -0.337 N 
HETATM   10  C3  UNL     1      -3.118  -0.750  -0.111  1.00  0.00     0.135 A 
ATOM     11  H3  UNL     1      -4.167  -0.616  -1.879  1.00  0.00     0.168 HD
BRANCH  10  12
HETATM   12  N4  UNL     1      -3.123   0.532   0.087  1.00  0.00    -0.325 N 
HETATM   13  C4  UNL     1      -3.747   1.437  -0.822  1.00  0.00     0.481 C 
HETATM   14  N5  UNL     1      -3.318   2.790  -0.420  1.00  0.00    -0.033 N 
HETATM   15  N6  UNL     1      -5.197   1.442  -0.741  1.00  0.00    -0.033 N 
ATOM     16  H53 UNL     1      -3.511   3.002   0.559  1.00  0.00     0.278 HD
ATOM     17  H52 UNL     1      -2.305   2.897  -0.374  1.00  0.00     0.278 HD
ATOM     18  H51 UNL     1      -3.764   3.437  -1.070  1.00  0.00     0.278 HD
ATOM     19  H63 UNL     1      -5.567   0.499  -0.862  1.00  0.00     0.278 HD
ATOM     20  H62 UNL     1      -5.503   1.625   0.215  1.00  0.00     0.278 HD
ATOM     21  H61 UNL     1      -5.643   2.089  -1.391  1.00  0.00     0.278 HD
ATOM     22  H4  UNL     1      -2.666   0.905   0.919  1.00  0.00     0.165 HD
ENDBRANCH  10  12
ENDBRANCH   1   3
BRANCH   1  23
HETATM   23  C6  UNL     1      -0.469  -0.831   2.126  1.00  0.00     0.199 C 
BRANCH  23  24
HETATM   24  C7  UNL     1       0.039   0.234   1.235  1.00  0.00     0.137 A 
HETATM   25  N8  UNL     1       0.123   1.547   1.467  1.00  0.00    -0.284 N 
HETATM   26  N9  UNL     1       0.644   2.172   0.415  1.00  0.00    -0.277 N 
ATOM     27  H8  UNL     1      -0.171   2.005   2.329  1.00  0.00     0.188 HD
HETATM   28  C8  UNL     1       0.894   1.241  -0.499  1.00  0.00     0.186 A 
ATOM     29  H9  UNL     1       0.818   3.173   0.327  1.00  0.00     0.189 HD
HETATM   30  N11 UNL     1       0.524   0.039  -0.002  1.00  0.00    -0.223 N 
BRANCH  28  31
HETATM   31  S1  UNL     1       1.595   1.520  -2.101  1.00  0.00    -0.060 SA
BRANCH  31  32
HETATM   32  C9  UNL     1       3.363   1.431  -2.094  1.00  0.00     0.083 C 
BRANCH  32  33
HETATM   33  C10 UNL     1       4.087   1.080  -1.056  1.00  0.00     0.072 A 
HETATM   34  N10 UNL     1       3.993   0.658   0.351  1.00  0.00    -0.351 N 
HETATM   35  C11 UNL     1       5.306   0.783  -0.275  1.00  0.00     0.198 A 
ATOM     36  H10 UNL     1       3.424   0.438   1.169  1.00  0.00     0.163 HD
BRANCH  35  37
HETATM   37  O1  UNL     1       5.933  -0.426  -0.547  1.00  0.00    -0.364 OA
ATOM     38  H1  UNL     1       6.717  -0.617  -0.045  1.00  0.00     0.213 HD
ENDBRANCH  35  37
BRANCH  35  39
HETATM   39  C12 UNL     1       6.121   1.919   0.300  1.00  0.00     0.232 C 
BRANCH  39  40
HETATM   40  O2  UNL     1       7.369   2.005  -0.325  1.00  0.00    -0.396 OA
ATOM     41  H2  UNL     1       7.881   2.719   0.036  1.00  0.00     0.209 HD
ENDBRANCH  39  40
ENDBRANCH  35  39
ENDBRANCH  32  33
ENDBRANCH  31  32
ENDBRANCH  28  31
BRANCH  30  42
HETATM   42  N12 UNL     1       0.618  -1.198  -0.638  1.00  0.00    -0.335 N 
ATOM     43 2H12 UNL     1       0.339  -2.105  -0.263  1.00  0.00     0.177 HD
ATOM     44 1H12 UNL     1       0.986  -1.346  -1.578  1.00  0.00     0.177 HD
ENDBRANCH  30  42
ENDBRANCH  23  24
ENDBRANCH   1  23
TORSDOF 11
