REMARK  2 active torsions:
REMARK  status: ('A' for Active; 'I' for Inactive)
REMARK    1  A    between atoms: C3_3  and  O1_4 
REMARK    2  A    between atoms: O1_4  and  C4_5 
ROOT
HETATM    1  O1  UNL     1       0.463  -0.204  -0.664  1.00  0.00    -0.379 OA
ENDROOT
BRANCH   1   2
HETATM    2  C3  UNL     1      -0.776  -0.060  -0.057  1.00  0.00     0.125 C 
HETATM    3  C2  UNL     1      -1.490   1.193  -0.539  1.00  0.00     0.051 C 
HETATM    4  C1  UNL     1      -2.713   1.281   0.387  1.00  0.00     0.116 C 
HETATM    5  N2  UNL     1      -3.602   0.256  -0.035  1.00  0.00    -0.421 N 
HETATM    6  C9  UNL     1      -3.087  -1.057  -0.086  1.00  0.00     0.116 C 
ATOM      7  H2  UNL     1      -4.568   0.460  -0.290  1.00  0.00     0.153 HD
HETATM    8  C8  UNL     1      -1.645  -1.230  -0.317  1.00  0.00     0.051 C 
ENDBRANCH   1   2
BRANCH   1   9
HETATM    9  C4  UNL     1       1.475  -0.137   0.295  1.00  0.00     0.149 C 
HETATM   10  C5  UNL     1       2.380   1.057   0.036  1.00  0.00     0.061 C 
HETATM   11  C6  UNL     1       3.739   0.502   0.370  1.00  0.00     0.235 C 
HETATM   12  N1  UNL     1       3.681  -0.815  -0.268  1.00  0.00    -0.073 N 
HETATM   13  C7  UNL     1       2.403  -1.306   0.262  1.00  0.00     0.264 C 
ATOM     14  H12 UNL     1       3.770  -0.819  -1.284  1.00  0.00     0.277 HD
ATOM     15  H11 UNL     1       4.487  -1.419  -0.111  1.00  0.00     0.277 HD
ENDBRANCH   1   9
TORSDOF 2
