REMARK  3 active torsions:
REMARK  status: ('A' for Active; 'I' for Inactive)
REMARK    1  A    between atoms: N1_1  and  C1_5 
REMARK    2  A    between atoms: C3_7  and  C4_8 
REMARK    3  A    between atoms: C5_9  and  C6_10 
ROOT
HETATM    1  C4  UNL     1       1.129  -0.158   0.287  1.00  0.00    -0.021 C 
HETATM    2  C5  UNL     1       0.040   0.528   0.008  1.00  0.00     0.003 C 
ENDROOT
BRANCH   2   3
HETATM    3  C6  UNL     1      -1.287  -0.018   0.343  1.00  0.00     0.169 C 
HETATM    4  C7  UNL     1      -2.283   1.077   0.525  1.00  0.00     0.268 C 
HETATM    5  N2  UNL     1      -3.643   0.665   0.538  1.00  0.00    -0.070 N 
HETATM    6  C8  UNL     1      -3.880  -0.605  -0.108  1.00  0.00     0.258 C 
ATOM      7  H22 UNL     1      -4.004   0.654   1.492  1.00  0.00     0.277 HD
ATOM      8  H21 UNL     1      -4.240   1.388   0.136  1.00  0.00     0.277 HD
HETATM    9  C9  UNL     1      -2.847  -0.752  -1.204  1.00  0.00     0.196 C 
HETATM   10  O1  UNL     1      -1.626  -0.949  -0.614  1.00  0.00    -0.379 OA
ENDBRANCH   2   3
BRANCH   1  11
HETATM   11  C3  UNL     1       2.498   0.328  -0.020  1.00  0.00     0.040 A 
HETATM   12  C1  UNL     1       3.598  -0.671   0.175  1.00  0.00     0.191 A 
HETATM   13  C2  UNL     1       3.504   0.533   1.034  1.00  0.00     0.044 A 
BRANCH  12  14
HETATM   14  N1  UNL     1       4.583  -0.803  -0.857  1.00  0.00    -0.074 N 
ATOM     15  H13 UNL     1       4.498   0.008  -1.470  1.00  0.00     0.274 HD
ATOM     16  H12 UNL     1       5.498  -0.656  -0.431  1.00  0.00     0.274 HD
ATOM     17  H11 UNL     1       4.648  -1.632  -1.448  1.00  0.00     0.274 HD
ENDBRANCH  12  14
ENDBRANCH   1  11
TORSDOF 3
