REMARK  4 active torsions:
REMARK  status: ('A' for Active; 'I' for Inactive)
REMARK    1  A    between atoms: N1_2  and  N2_4 
REMARK    2  A    between atoms: N2_4  and  C2_6 
REMARK    3  A    between atoms: C2_6  and  N3_7 
REMARK    4  A    between atoms: N3_7  and  C3_9 
ROOT
HETATM    1  C3  UNL     1      -0.412  -0.495  -0.102  1.00  0.00     0.128 C 
HETATM    2  C4  UNL     1      -1.282  -1.739  -0.096  1.00  0.00     0.056 C 
HETATM    3  C5  UNL     1      -2.140  -1.512   1.135  1.00  0.00     0.235 C 
HETATM    4  N4  UNL     1      -1.928  -0.165   1.565  1.00  0.00    -0.065 N 
ATOM      5  H41 UNL     1      -1.327  -0.085   2.385  1.00  0.00     0.278 HD
ATOM      6  H42 UNL     1      -2.753   0.269   1.979  1.00  0.00     0.278 HD
HETATM    7  C6  UNL     1      -1.423   0.532   0.401  1.00  0.00     0.139 C 
HETATM    8  C7  UNL     1      -2.563   0.723  -0.552  1.00  0.00     0.048 C 
HETATM    9  C8  UNL     1      -0.776   1.842   0.726  1.00  0.00     0.048 C 
ENDROOT
BRANCH   1  10
HETATM   10  N3  UNL     1       0.111  -0.175  -1.389  1.00  0.00    -0.334 N 
ATOM     11  H3  UNL     1      -0.451  -0.285  -2.233  1.00  0.00     0.171 HD
BRANCH  10  12
HETATM   12  C2  UNL     1       1.322   0.258  -1.442  1.00  0.00     0.063 C 
BRANCH  12  13
HETATM   13  N2  UNL     1       2.571   0.458  -1.520  1.00  0.00    -0.256 N 
ATOM     14  H2  UNL     1       2.892   1.231  -2.103  1.00  0.00     0.198 HD
BRANCH  13  15
HETATM   15  N1  UNL     1       3.526  -0.297  -0.871  1.00  0.00    -0.333 N 
HETATM   16  C1  UNL     1       4.786   0.312  -0.516  1.00  0.00     0.168 C 
ATOM     17  H1  UNL     1       3.344  -1.275  -0.644  1.00  0.00     0.180 HD
ENDBRANCH  13  15
ENDBRANCH  12  13
ENDBRANCH  10  12
ENDBRANCH   1  10
TORSDOF 4
