REMARK  4 active torsions:
REMARK  status: ('A' for Active; 'I' for Inactive)
REMARK    1  A    between atoms: O1_2  and  C2_3 
REMARK    2  A    between atoms: C5_6  and  C6_7 
REMARK    3  A    between atoms: C6_7  and  N1_8 
REMARK    4  A    between atoms: C9_14  and  N2_15 
ROOT
HETATM    1  C2  UNL     1       1.515   0.200   0.303  1.00  0.00     0.151 C 
HETATM    2  C3  UNL     1       0.514   1.282   0.367  1.00  0.00     0.034 C 
HETATM    3  C4  UNL     1      -0.803   1.003  -0.275  1.00  0.00     0.009 C 
HETATM    4  C5  UNL     1      -1.561  -0.082   0.421  1.00  0.00     0.011 C 
HETATM    5  C7  UNL     1      -0.805  -1.374   0.518  1.00  0.00     0.008 C 
HETATM    6  C8  UNL     1       0.006  -1.536  -0.739  1.00  0.00     0.036 C 
HETATM    7  C9  UNL     1       1.315  -0.853  -0.729  1.00  0.00     0.212 C 
ENDROOT
BRANCH   4   8
HETATM    8  C6  UNL     1      -2.928  -0.260  -0.195  1.00  0.00     0.234 C 
BRANCH   8   9
HETATM    9  N1  UNL     1      -3.703   0.962  -0.100  1.00  0.00    -0.079 N 
ATOM     10  H13 UNL     1      -3.764   1.295   0.862  1.00  0.00     0.274 HD
ATOM     11  H12 UNL     1      -3.207   1.755  -0.507  1.00  0.00     0.274 HD
ATOM     12  H11 UNL     1      -4.626   0.842  -0.516  1.00  0.00     0.274 HD
ENDBRANCH   8   9
ENDBRANCH   4   8
BRANCH   1  13
HETATM   13  O1  UNL     1       2.759   0.787   0.061  1.00  0.00    -0.389 OA
HETATM   14  C1  UNL     1       3.658   0.552   1.091  1.00  0.00     0.202 C 
ENDBRANCH   1  13
BRANCH   7  15
HETATM   15  N2  UNL     1       1.550  -0.316  -2.080  1.00  0.00    -0.073 N 
ATOM     16  H23 UNL     1       0.975   0.506  -2.264  1.00  0.00     0.274 HD
ATOM     17  H22 UNL     1       2.470   0.118  -2.158  1.00  0.00     0.274 HD
ATOM     18  H21 UNL     1       1.413  -1.038  -2.787  1.00  0.00     0.274 HD
ENDBRANCH   7  15
TORSDOF 4
