REMARK  4 active torsions:
REMARK  status: ('A' for Active; 'I' for Inactive)
REMARK    1  A    between atoms: C2_2  and  O1_5 
REMARK    2  A    between atoms: O1_5  and  C5_6 
REMARK    3  A    between atoms: C5_6  and  C6_7 
REMARK    4  A    between atoms: C8_9  and  N1_10 
ROOT
HETATM    1  C6  UNL     1       1.114   0.426  -0.359  1.00  0.00     0.211 C 
HETATM    2  C7  UNL     1       2.088   0.409   0.822  1.00  0.00     0.069 C 
HETATM    3  C8  UNL     1       3.412   0.019   0.226  1.00  0.00     0.211 C 
HETATM    4  C9  UNL     1       3.033  -0.712  -1.020  1.00  0.00     0.265 C 
HETATM    5  N2  UNL     1       1.597  -0.656  -1.153  1.00  0.00    -0.067 N 
ATOM      6  H21 UNL     1       1.295  -0.594  -2.125  1.00  0.00     0.277 HD
ATOM      7  H22 UNL     1       1.147  -1.542  -0.924  1.00  0.00     0.277 HD
ENDROOT
BRANCH   1   8
HETATM    8  C5  UNL     1      -0.260   0.239   0.180  1.00  0.00     0.201 C 
BRANCH   8   9
HETATM    9  O1  UNL     1      -1.227   0.075  -0.778  1.00  0.00    -0.379 OA
BRANCH   9  10
HETATM   10  C2  UNL     1      -2.478  -0.095  -0.243  1.00  0.00     0.050 C 
HETATM   11  C1  UNL     1      -2.564  -1.323   0.665  1.00  0.00     0.045 C 
HETATM   12  C3  UNL     1      -2.928   1.087   0.608  1.00  0.00     0.045 C 
HETATM   13  C4  UNL     1      -3.529  -0.263  -1.318  1.00  0.00     0.045 C 
ENDBRANCH   9  10
ENDBRANCH   8   9
ENDBRANCH   1   8
BRANCH   3  14
HETATM   14  N1  UNL     1       4.226   1.160  -0.139  1.00  0.00    -0.073 N 
ATOM     15  H13 UNL     1       3.716   1.786  -0.762  1.00  0.00     0.274 HD
ATOM     16  H12 UNL     1       4.355   1.785   0.657  1.00  0.00     0.274 HD
ATOM     17  H11 UNL     1       5.124   0.895  -0.543  1.00  0.00     0.274 HD
ENDBRANCH   3  14
TORSDOF 4
