REMARK  3 active torsions:
REMARK  status: ('A' for Active; 'I' for Inactive)
REMARK    1  A    between atoms: C3_3  and  C4_4 
REMARK    2  A    between atoms: C4_4  and  N1_5 
REMARK    3  A    between atoms: C7_11  and  N2_12 
ROOT
HETATM    1  C1  UNL     1      -4.244   1.267  -0.129  1.00  0.00     0.012 C 
HETATM    2  C2  UNL     1      -3.457   0.403  -0.434  1.00  0.00    -0.115 C 
HETATM    3  C3  UNL     1      -2.488  -0.637  -0.795  1.00  0.00     0.131 C 
ENDROOT
BRANCH   3   4
HETATM    4  C4  UNL     1      -1.222  -0.472   0.062  1.00  0.00     0.134 C 
HETATM    5  C5  UNL     1      -0.804   0.966  -0.105  1.00  0.00     0.041 C 
HETATM    6  C6  UNL     1       0.625   1.159   0.372  1.00  0.00     0.027 C 
HETATM    7  C7  UNL     1       1.461   0.322  -0.570  1.00  0.00     0.076 C 
HETATM    8  C9  UNL     1       1.199  -1.113  -0.226  1.00  0.00     0.027 C 
HETATM    9  C10 UNL     1      -0.239  -1.478  -0.378  1.00  0.00     0.041 C 
BRANCH   4  10
HETATM   10  N1  UNL     1      -1.671  -0.618   1.443  1.00  0.00    -0.070 N 
ATOM     11  H13 UNL     1      -2.427   0.017   1.699  1.00  0.00     0.275 HD
ATOM     12  H12 UNL     1      -2.178  -1.485   1.621  1.00  0.00     0.275 HD
ATOM     13  H11 UNL     1      -0.831  -0.509   2.011  1.00  0.00     0.275 HD
ENDBRANCH   4  10
BRANCH   7  14
HETATM   14  N2  UNL     1       2.825   0.694  -0.615  1.00  0.00    -0.421 N 
HETATM   15  C8  UNL     1       3.541   0.546   0.617  1.00  0.00     0.140 C 
ATOM     16  H2  UNL     1       3.268   1.043  -1.465  1.00  0.00     0.153 HD
ENDBRANCH   7  14
ENDBRANCH   3   4
TORSDOF 3
