REMARK  4 active torsions:
REMARK  status: ('A' for Active; 'I' for Inactive)
REMARK    1  A    between atoms: C2_2  and  C3_3 
REMARK    2  A    between atoms: C3_3  and  N1_4 
REMARK    3  A    between atoms: C3_3  and  C4_8 
REMARK    4  A    between atoms: C4_8  and  N2_9 
ROOT
HETATM    1  C4  UNL     1       0.158  -0.067  -0.425  1.00  0.00     0.158 C 
HETATM    2  C5  UNL     1       1.269  -1.099  -0.178  1.00  0.00     0.024 C 
HETATM    3  C6  UNL     1       1.534  -0.873   1.281  1.00  0.00     0.007 C 
HETATM    4  C7  UNL     1       1.365   0.645   1.447  1.00  0.00     0.007 C 
HETATM    5  C8  UNL     1       0.921   1.130   0.095  1.00  0.00     0.024 C 
HETATM    6  C9  UNL     1       2.153   1.068  -0.809  1.00  0.00     0.007 C 
HETATM    7  C10 UNL     1       2.396  -0.438  -0.945  1.00  0.00     0.007 C 
ENDROOT
BRANCH   1   8
HETATM    8  C3  UNL     1      -1.079  -0.376   0.338  1.00  0.00     0.219 C 
BRANCH   8   9
HETATM    9  C2  UNL     1      -2.091   0.712   0.050  1.00  0.00     0.031 C 
HETATM   10  C1  UNL     1      -3.425   0.441   0.714  1.00  0.00     0.007 C 
ENDBRANCH   8   9
BRANCH   8  11
HETATM   11  N1  UNL     1      -1.574  -1.644  -0.154  1.00  0.00    -0.073 N 
ATOM     12  H13 UNL     1      -2.496  -1.868   0.220  1.00  0.00     0.274 HD
ATOM     13  H12 UNL     1      -1.823  -1.602  -1.142  1.00  0.00     0.274 HD
ATOM     14  H11 UNL     1      -0.892  -2.377   0.040  1.00  0.00     0.274 HD
ENDBRANCH   8  11
ENDBRANCH   1   8
BRANCH   1  15
HETATM   15  N2  UNL     1      -0.111  -0.023  -1.822  1.00  0.00    -0.068 N 
ATOM     16  H23 UNL     1      -0.553  -0.882  -2.149  1.00  0.00     0.275 HD
ATOM     17  H22 UNL     1      -0.864   0.629  -2.042  1.00  0.00     0.275 HD
ATOM     18  H21 UNL     1       0.738   0.189  -2.346  1.00  0.00     0.275 HD
ENDBRANCH   1  15
TORSDOF 4
