REMARK  2 active torsions:
REMARK  status: ('A' for Active; 'I' for Inactive)
REMARK    1  A    between atoms: C4_4  and  C5_5 
REMARK    2  A    between atoms: C5_5  and  C6_6 
ROOT
HETATM    1  C1  UNL     1      -3.373  -0.697   0.178  1.00  0.00     0.012 C 
HETATM    2  C2  UNL     1      -2.180  -0.472  -0.685  1.00  0.00     0.014 C 
HETATM    3  C3  UNL     1      -1.204  -1.630  -0.501  1.00  0.00     0.039 C 
HETATM    4  C4  UNL     1      -0.011  -1.050   0.223  1.00  0.00     0.188 C 
HETATM    5  N2  UNL     1      -0.382   0.265   0.657  1.00  0.00    -0.067 N 
ATOM      6  H21 UNL     1       0.405   0.902   0.781  1.00  0.00     0.278 HD
ATOM      7  H22 UNL     1      -0.714   0.310   1.620  1.00  0.00     0.278 HD
HETATM    8  C9  UNL     1      -1.342   0.697  -0.317  1.00  0.00     0.186 C 
HETATM    9  C10 UNL     1      -2.112   1.884   0.184  1.00  0.00     0.040 C 
ENDROOT
BRANCH   4  10
HETATM   10  C5  UNL     1       1.208  -0.988  -0.641  1.00  0.00     0.066 C 
BRANCH  10  11
HETATM   11  C6  UNL     1       2.393  -0.414   0.080  1.00  0.00     0.189 C 
HETATM   12  C7  UNL     1       2.294   0.977   0.608  1.00  0.00     0.060 C 
HETATM   13  C8  UNL     1       3.757   1.105   0.148  1.00  0.00     0.235 C 
HETATM   14  N1  UNL     1       3.446   0.053  -0.810  1.00  0.00    -0.071 N 
ATOM     15  H12 UNL     1       4.174  -0.587  -1.129  1.00  0.00     0.277 HD
ATOM     16  H11 UNL     1       3.236   0.285  -1.781  1.00  0.00     0.277 HD
ENDBRANCH  10  11
ENDBRANCH   4  10
TORSDOF 2
