REMARK  3 active torsions:
REMARK  status: ('A' for Active; 'I' for Inactive)
REMARK    1  A    between atoms: N1_2  and  C3_4 
REMARK    2  A    between atoms: C3_4  and  C4_5 
REMARK    3  A    between atoms: C9_10  and  N2_11 
ROOT
HETATM    1  C4  UNL     1      -0.166   0.370   0.405  1.00  0.00     0.054 C 
HETATM    2  C5  UNL     1      -0.545  -1.069   0.430  1.00  0.00     0.012 C 
HETATM    3  C6  UNL     1      -1.938  -1.362   0.929  1.00  0.00     0.001 C 
HETATM    4  C7  UNL     1      -2.988  -0.429   0.437  1.00  0.00     0.002 C 
HETATM    5  C8  UNL     1      -2.396   0.292  -0.777  1.00  0.00     0.033 C 
HETATM    6  C9  UNL     1      -1.301   1.170  -0.204  1.00  0.00     0.192 C 
ENDROOT
BRANCH   1   7
HETATM    7  C3  UNL     1       1.122   0.577  -0.309  1.00  0.00     0.064 C 
BRANCH   7   8
HETATM    8  N1  UNL     1       2.284  -0.026   0.141  1.00  0.00    -0.401 N 
HETATM    9  C1  UNL     1       2.534  -1.391   0.096  1.00  0.00     0.148 C 
HETATM   10  C2  UNL     1       3.449   0.770   0.340  1.00  0.00     0.148 C 
ENDBRANCH   7   8
ENDBRANCH   1   7
BRANCH   6  11
HETATM   11  N2  UNL     1      -0.844   2.028  -1.279  1.00  0.00    -0.074 N 
ATOM     12  H23 UNL     1      -0.086   2.637  -0.970  1.00  0.00     0.274 HD
ATOM     13  H22 UNL     1      -0.343   1.496  -1.990  1.00  0.00     0.274 HD
ATOM     14  H21 UNL     1      -1.608   2.566  -1.689  1.00  0.00     0.274 HD
ENDBRANCH   6  11
TORSDOF 3
