REMARK  2 active torsions:
REMARK  status: ('A' for Active; 'I' for Inactive)
REMARK    1  A    between atoms: C2_2  and  C3_3 
REMARK    2  A    between atoms: C2_2  and  C7_7 
ROOT
HETATM    1  C7  UNL     1       0.817  -0.240  -0.087  1.00  0.00     0.227 C 
HETATM    2  C8  UNL     1       1.425   0.950  -0.741  1.00  0.00     0.088 C 
HETATM    3  N1  UNL     1       2.811   0.890  -0.990  1.00  0.00    -0.399 N 
ATOM      4  H1  UNL     1       3.215   1.263  -1.849  1.00  0.00     0.158 HD
HETATM    5  C9  UNL     1       3.621   0.285   0.011  1.00  0.00     0.146 C 
HETATM    6  C10 UNL     1       3.012  -0.987   0.553  1.00  0.00     0.252 C 
HETATM    7  N2  UNL     1       1.668  -0.692   1.023  1.00  0.00    -0.065 N 
ATOM      8  H21 UNL     1       1.257  -1.485   1.516  1.00  0.00     0.278 HD
ATOM      9  H22 UNL     1       1.675  -0.021   1.791  1.00  0.00     0.278 HD
ENDROOT
BRANCH   1  10
HETATM   10  C2  UNL     1      -0.527   0.071   0.508  1.00  0.00     0.021 C 
HETATM   11  C1  UNL     1      -1.130  -1.141   1.166  1.00  0.00     0.012 C 
BRANCH  10  12
HETATM   12  C3  UNL     1      -1.479   0.715  -0.453  1.00  0.00    -0.009 A 
HETATM   13  C4  UNL     1      -2.753   1.177   0.223  1.00  0.00     0.005 A 
HETATM   14  C5  UNL     1      -3.573   0.172  -0.541  1.00  0.00     0.001 A 
HETATM   15  C6  UNL     1      -2.322  -0.235  -1.271  1.00  0.00     0.005 A 
ENDBRANCH  10  12
ENDBRANCH   1  10
TORSDOF 2
