REMARK  12 active torsions:
REMARK  status: ('A' for Active; 'I' for Inactive)
REMARK    1  A    between atoms: C1_4  and  C2_5 
REMARK    2  A    between atoms: C1_4  and  N4_15 
REMARK    3  A    between atoms: C2_5  and  N2_6 
REMARK    4  A    between atoms: N2_6  and  C3_9 
REMARK    5  A    between atoms: C3_9  and  C4_10 
REMARK    6  A    between atoms: C4_10  and  N3_11 
REMARK    7  A    between atoms: N3_11  and  C5_13 
REMARK    8  A    between atoms: N4_15  and  C6_17 
REMARK    9  A    between atoms: C6_17  and  C7_18 
REMARK       I    between atoms: C7_18  and  N5_20 
REMARK   10  A    between atoms: N5_20  and  C8_22 
REMARK   11  A    between atoms: C8_22  and  C9_23 
REMARK   12  A    between atoms: C8_22  and  C10_26 
ROOT
HETATM    1  N1  UNL     1       1.099  -2.488  -1.267  1.00  0.00    -0.388 N 
ATOM      2  H11 UNL     1       0.474  -3.258  -1.503  1.00  0.00     0.157 HD
ATOM      3  H12 UNL     1       1.719  -2.165  -2.010  1.00  0.00     0.157 HD
HETATM    4  C1  UNL     1       1.090  -1.976  -0.095  1.00  0.00     0.097 C 
ENDROOT
BRANCH   4   5
HETATM    5  C2  UNL     1       2.014  -0.838   0.254  1.00  0.00     0.307 C 
BRANCH   5   6
HETATM    6  N2  UNL     1       2.820  -0.557  -0.906  1.00  0.00    -0.067 N 
ATOM      7  H22 UNL     1       3.330  -1.384  -1.216  1.00  0.00     0.277 HD
ATOM      8  H21 UNL     1       2.244  -0.408  -1.734  1.00  0.00     0.277 HD
BRANCH   6   9
HETATM    9  C3  UNL     1       3.708   0.555  -0.674  1.00  0.00     0.252 C 
BRANCH   9  10
HETATM   10  C4  UNL     1       4.776   0.219   0.317  1.00  0.00     0.149 C 
BRANCH  10  11
HETATM   11  N3  UNL     1       5.679   1.308   0.546  1.00  0.00    -0.367 N 
ATOM     12  H3  UNL     1       6.667   1.187   0.322  1.00  0.00     0.161 HD
BRANCH  11  13
HETATM   13  C5  UNL     1       5.245   2.537   1.069  1.00  0.00     0.348 C 
HETATM   14  O1  UNL     1       4.060   2.769   1.374  1.00  0.00    -0.284 OA
ENDBRANCH  11  13
ENDBRANCH  10  11
ENDBRANCH   9  10
ENDBRANCH   6   9
ENDBRANCH   5   6
ENDBRANCH   4   5
BRANCH   4  15
HETATM   15  N4  UNL     1       0.225  -2.427   0.942  1.00  0.00    -0.370 N 
ATOM     16  H4  UNL     1       0.254  -3.397   1.257  1.00  0.00     0.161 HD
BRANCH  15  17
HETATM   17  C6  UNL     1      -0.692  -1.491   1.539  1.00  0.00     0.223 C 
BRANCH  17  18
HETATM   18  C7  UNL     1      -1.728  -1.094   0.573  1.00  0.00     0.236 C 
HETATM   19  O2  UNL     1      -1.705  -1.583  -0.600  1.00  0.00    -0.272 OA
HETATM   20  N5  UNL     1      -2.757  -0.177   0.914  1.00  0.00    -0.339 N 
ATOM     21  H5  UNL     1      -2.781   0.219   1.854  1.00  0.00     0.163 HD
BRANCH  20  22
HETATM   22  C8  UNL     1      -3.777   0.210  -0.046  1.00  0.00     0.263 C 
BRANCH  22  23
HETATM   23  C9  UNL     1      -5.112  -0.299   0.367  1.00  0.00     0.262 C 
HETATM   24  N6  UNL     1      -6.262  -0.051  -0.417  1.00  0.00    -0.060 NA
HETATM   25  O3  UNL     1      -5.235  -0.960   1.423  1.00  0.00    -0.274 OA
ENDBRANCH  22  23
BRANCH  22  26
HETATM   26  C10 UNL     1      -3.778   1.647  -0.313  1.00  0.00     0.262 C 
HETATM   27  N7  UNL     1      -4.700   2.204  -1.222  1.00  0.00    -0.060 NA
HETATM   28  O4  UNL     1      -2.962   2.401   0.260  1.00  0.00    -0.274 OA
ENDBRANCH  22  26
ENDBRANCH  20  22
ENDBRANCH  17  18
ENDBRANCH  15  17
ENDBRANCH   4  15
TORSDOF 12
