REMARK  12 active torsions:
REMARK  status: ('A' for Active; 'I' for Inactive)
REMARK    1  A    between atoms: C1_4  and  N2_5 
REMARK    2  A    between atoms: N2_5  and  C2_7 
REMARK    3  A    between atoms: C2_7  and  N3_8 
REMARK    4  A    between atoms: N3_8  and  N4_9 
REMARK    5  A    between atoms: N4_9  and  C3_10 
REMARK    6  A    between atoms: C3_10  and  C4_11 
REMARK    7  A    between atoms: C4_11  and  N5_12 
REMARK    8  A    between atoms: C4_11  and  C9_24 
REMARK       I    between atoms: N5_12  and  C5_14 
REMARK    9  A    between atoms: C5_14  and  C6_16 
REMARK   10  A    between atoms: C6_16  and  N6_17 
REMARK   11  A    between atoms: C6_16  and  C8_21 
REMARK   12  A    between atoms: N6_17  and  C7_19 
ROOT
HETATM    1  C4  UNL     1       0.034  -0.323  -1.279  1.00  0.00     0.189 C 
ENDROOT
BRANCH   1   2
HETATM    2  C3  UNL     1       0.638  -0.702   0.056  1.00  0.00     0.164 C 
BRANCH   2   3
HETATM    3  N4  UNL     1       2.090  -0.719   0.016  1.00  0.00    -0.144 NA
BRANCH   3   4
HETATM    4  N3  UNL     1       2.530  -1.078   1.286  1.00  0.00    -0.129 NA
BRANCH   4   5
HETATM    5  C2  UNL     1       3.742  -0.397   1.671  1.00  0.00     0.251 C 
BRANCH   5   6
HETATM    6  N2  UNL     1       4.131  -0.821   2.994  1.00  0.00    -0.372 N 
ATOM      7  H2  UNL     1       3.556  -1.506   3.484  1.00  0.00     0.161 HD
BRANCH   6   8
HETATM    8  C1  UNL     1       5.291  -0.312   3.632  1.00  0.00     0.169 C 
HETATM    9  N1  UNL     1       5.515   0.965   3.738  1.00  0.00    -0.396 N 
ATOM     10  H12 UNL     1       4.826   1.606   3.345  1.00  0.00     0.156 HD
ATOM     11  H11 UNL     1       6.349   1.331   4.197  1.00  0.00     0.156 HD
ENDBRANCH   6   8
ENDBRANCH   5   6
ENDBRANCH   4   5
ENDBRANCH   3   4
ENDBRANCH   2   3
ENDBRANCH   1   2
BRANCH   1  12
HETATM   12  N5  UNL     1      -1.406  -0.344  -1.102  1.00  0.00    -0.345 N 
HETATM   13  C5  UNL     1      -2.133   0.860  -1.261  1.00  0.00     0.250 C 
HETATM   14  O1  UNL     1      -1.502   1.906  -1.552  1.00  0.00    -0.271 OA
ATOM     15  H5  UNL     1      -1.887  -1.212  -0.867  1.00  0.00     0.163 HD
BRANCH  13  16
HETATM   16  C6  UNL     1      -3.605   0.854  -1.082  1.00  0.00     0.266 C 
BRANCH  16  17
HETATM   17  N6  UNL     1      -4.061   2.233  -1.343  1.00  0.00    -0.348 N 
ATOM     18  H6  UNL     1      -3.705   3.001  -0.774  1.00  0.00     0.163 HD
BRANCH  17  19
HETATM   19  C7  UNL     1      -4.982   2.494  -2.369  1.00  0.00     0.349 C 
HETATM   20  O2  UNL     1      -5.416   1.552  -3.063  1.00  0.00    -0.284 OA
ENDBRANCH  17  19
ENDBRANCH  16  17
BRANCH  16  21
HETATM   21  C8  UNL     1      -4.026   0.537   0.309  1.00  0.00     0.263 C 
HETATM   22  N7  UNL     1      -3.738  -0.737   0.860  1.00  0.00    -0.060 NA
HETATM   23  O3  UNL     1      -4.644   1.363   1.047  1.00  0.00    -0.274 OA
ENDBRANCH  16  21
ENDBRANCH  13  16
ENDBRANCH   1  12
BRANCH   1  24
HETATM   24  C9  UNL     1       0.405  -1.286  -2.334  1.00  0.00     0.255 C 
HETATM   25  N8  UNL     1       1.741  -1.503  -2.744  1.00  0.00    -0.060 NA
HETATM   26  O4  UNL     1      -0.528  -1.948  -2.896  1.00  0.00    -0.275 OA
ENDBRANCH   1  24
TORSDOF 12
