REMARK  11 active torsions:
REMARK  status: ('A' for Active; 'I' for Inactive)
REMARK    1  A    between atoms: C1_4  and  N2_5 
REMARK    2  A    between atoms: N2_5  and  C2_7 
REMARK    3  A    between atoms: C2_7  and  C3_8 
REMARK    4  A    between atoms: C3_8  and  N3_9 
REMARK    5  A    between atoms: N3_9  and  C4_11 
REMARK    6  A    between atoms: C5_12  and  N4_13 
REMARK    7  A    between atoms: C5_12  and  C7_17 
REMARK    8  A    between atoms: N4_13  and  C6_15 
REMARK       I    between atoms: C7_17  and  N5_19 
REMARK    9  A    between atoms: N5_19  and  C8_21 
REMARK   10  A    between atoms: C8_21  and  C9_22 
REMARK   11  A    between atoms: C8_21  and  C10_25 
ROOT
HETATM    1  C4  UNL     1       1.199  -0.573  -0.251  1.00  0.00     0.118 C 
HETATM    2  C5  UNL     1       0.084  -1.486  -0.125  1.00  0.00     0.117 C 
ENDROOT
BRANCH   2   3
HETATM    3  N4  UNL     1      -0.058  -2.336   1.002  1.00  0.00    -0.329 N 
ATOM      4  H4  UNL     1      -0.178  -1.899   1.916  1.00  0.00     0.168 HD
BRANCH   3   5
HETATM    5  C6  UNL     1      -0.044  -3.741   0.943  1.00  0.00     0.353 C 
HETATM    6  O1  UNL     1       0.117  -4.354  -0.134  1.00  0.00    -0.283 OA
ENDBRANCH   3   5
ENDBRANCH   2   3
BRANCH   2   7
HETATM    7  C7  UNL     1      -1.245  -0.933  -0.510  1.00  0.00     0.270 C 
HETATM    8  O2  UNL     1      -1.731  -1.189  -1.611  1.00  0.00    -0.266 OA
HETATM    9  N5  UNL     1      -1.997  -0.108   0.403  1.00  0.00    -0.335 N 
ATOM     10  H5  UNL     1      -1.649   0.164   1.322  1.00  0.00     0.164 HD
BRANCH   9  11
HETATM   11  C8  UNL     1      -3.313   0.307  -0.112  1.00  0.00     0.264 C 
BRANCH  11  12
HETATM   12  C9  UNL     1      -4.175  -0.953   0.082  1.00  0.00     0.262 C 
HETATM   13  N6  UNL     1      -5.294  -1.190  -0.703  1.00  0.00    -0.060 NA
HETATM   14  O3  UNL     1      -3.800  -1.747   0.981  1.00  0.00    -0.274 OA
ENDBRANCH  11  12
BRANCH  11  15
HETATM   15  C10 UNL     1      -3.917   1.379   0.698  1.00  0.00     0.262 C 
HETATM   16  N7  UNL     1      -4.401   2.550   0.056  1.00  0.00    -0.060 NA
HETATM   17  O4  UNL     1      -4.010   1.290   1.937  1.00  0.00    -0.274 OA
ENDBRANCH  11  15
ENDBRANCH   9  11
ENDBRANCH   2   7
BRANCH   1  18
HETATM   18  N3  UNL     1       1.346   0.400   0.756  1.00  0.00    -0.395 N 
ATOM     19  H3  UNL     1       0.835   0.382   1.639  1.00  0.00     0.159 HD
BRANCH  18  20
HETATM   20  C3  UNL     1       2.288   1.414   0.406  1.00  0.00     0.138 C 
BRANCH  20  21
HETATM   21  C2  UNL     1       3.673   0.894   0.356  1.00  0.00     0.140 C 
BRANCH  21  22
HETATM   22  N2  UNL     1       4.659   1.924   0.061  1.00  0.00    -0.385 N 
ATOM     23  H2  UNL     1       4.359   2.808  -0.349  1.00  0.00     0.160 HD
BRANCH  22  24
HETATM   24  C1  UNL     1       6.032   1.709   0.339  1.00  0.00     0.168 C 
HETATM   25  N1  UNL     1       6.908   1.369  -0.488  1.00  0.00    -0.396 N 
ATOM     26  H12 UNL     1       6.587   1.239  -1.447  1.00  0.00     0.156 HD
ATOM     27  H11 UNL     1       7.896   1.214  -0.288  1.00  0.00     0.156 HD
ENDBRANCH  22  24
ENDBRANCH  21  22
ENDBRANCH  20  21
ENDBRANCH  18  20
ENDBRANCH   1  18
TORSDOF 11
