REMARK  6 active torsions:
REMARK  status: ('A' for Active; 'I' for Inactive)
REMARK    1  A    between atoms: C2_5  and  N3_6 
REMARK    2  A    between atoms: N4_9  and  C3_10 
REMARK    3  A    between atoms: C3_10  and  C4_11 
REMARK    4  A    between atoms: C4_11  and  C5_12 
REMARK    5  A    between atoms: C5_12  and  N5_13 
REMARK    6  A    between atoms: N5_13  and  N6_14 
ROOT
HETATM    1  C1  UNL     1      -3.302   1.803  -0.172  1.00  0.00     0.198 C 
HETATM    2  N1  UNL     1      -2.541   0.551  -0.235  1.00  0.00    -0.114 N 
HETATM    3  N2  UNL     1      -2.742  -0.479  -1.020  1.00  0.00    -0.116 N 
ATOM      4  H2  UNL     1      -3.513  -0.568  -1.682  1.00  0.00     0.206 HD
HETATM    5  C2  UNL     1      -1.776  -1.409  -0.823  1.00  0.00     0.707 A 
HETATM    6  N4  UNL     1      -1.004  -0.915   0.117  1.00  0.00    -0.012 N 
HETATM    7  C6  UNL     1      -1.433   0.318   0.534  1.00  0.00     0.709 A 
HETATM    8  N7  UNL     1      -0.928   1.104   1.411  1.00  0.00    -0.232 N 
ATOM      9  H71 UNL     1      -0.102   0.930   1.984  1.00  0.00     0.174 HD
ATOM     10  H72 UNL     1      -1.247   2.022   1.721  1.00  0.00     0.174 HD
ENDROOT
BRANCH   6  11
HETATM   11  C3  UNL     1       0.284  -1.369   0.708  1.00  0.00     0.168 C 
BRANCH  11  12
HETATM   12  C4  UNL     1       1.308  -0.579  -0.095  1.00  0.00     0.039 C 
BRANCH  12  13
HETATM   13  C5  UNL     1       2.679  -0.589   0.470  1.00  0.00     0.136 C 
BRANCH  13  14
HETATM   14  N5  UNL     1       3.418   0.296  -0.442  1.00  0.00    -0.148 NA
BRANCH  14  15
HETATM   15  N6  UNL     1       3.969   1.293   0.291  1.00  0.00    -0.348 N 
ATOM     16  H62 UNL     1       3.878   1.398   1.301  1.00  0.00     0.172 HD
ATOM     17  H61 UNL     1       4.482   1.907  -0.342  1.00  0.00     0.172 HD
ENDBRANCH  14  15
ENDBRANCH  13  14
ENDBRANCH  12  13
ENDBRANCH  11  12
ENDBRANCH   6  11
BRANCH   5  18
HETATM   18  N3  UNL     1      -1.635  -2.529  -1.438  1.00  0.00    -0.233 N 
ATOM     19  H32 UNL     1      -2.235  -2.913  -2.168  1.00  0.00     0.174 HD
ATOM     20  H31 UNL     1      -0.908  -3.229  -1.290  1.00  0.00     0.174 HD
ENDBRANCH   5  18
TORSDOF 6
