REMARK  1 active torsions:
REMARK  status: ('A' for Active; 'I' for Inactive)
REMARK    1  A    between atoms: C9_11  and  N1_13 
ROOT
HETATM    1  C1  UNL     1       2.300   0.662   2.097  1.00  0.00     0.046 C 
HETATM    2  C2  UNL     1       1.270   0.175   1.425  1.00  0.00     0.047 C 
HETATM    3  O1  UNL     1      -0.026   0.181   1.931  1.00  0.00    -0.316 OA
HETATM    4  C3  UNL     1      -1.019  -0.361   1.079  1.00  0.00     0.202 C 
HETATM    5  C4  UNL     1      -2.388  -0.418   1.688  1.00  0.00     0.082 C 
HETATM    6  O2  UNL     1      -0.578  -1.565   0.492  1.00  0.00    -0.338 OA
HETATM    7  C5  UNL     1       0.063  -0.777  -0.471  1.00  0.00     0.108 C 
HETATM    8  C6  UNL     1       0.069  -1.332  -1.859  1.00  0.00     0.050 C 
HETATM    9  C7  UNL     1       1.401  -0.423   0.067  1.00  0.00     0.075 C 
HETATM   10  C8  UNL     1       2.250   0.398  -0.850  1.00  0.00     0.020 C 
HETATM   11  C9  UNL     1      -1.010   0.231  -0.286  1.00  0.00     0.206 C 
HETATM   12  C10 UNL     1      -0.680   1.665  -0.443  1.00  0.00     0.055 C 
ENDROOT
BRANCH  11  13
HETATM   13  N1  UNL     1      -2.204  -0.140  -1.020  1.00  0.00    -0.062 N 
ATOM     14  H13 UNL     1      -2.329  -1.152  -1.049  1.00  0.00     0.275 HD
ATOM     15  H12 UNL     1      -3.052   0.106  -0.509  1.00  0.00     0.275 HD
ATOM     16  H11 UNL     1      -2.198   0.266  -1.956  1.00  0.00     0.275 HD
ENDBRANCH  11  13
TORSDOF 1
