REMARK  2 active torsions:
REMARK  status: ('A' for Active; 'I' for Inactive)
REMARK    1  A    between atoms: C3_3  and  O1_4 
REMARK    2  A    between atoms: N2_10  and  O2_11 
ROOT
HETATM    1  C1  UNL     1      -0.931   1.709   1.293  1.00  0.00     0.015 C 
HETATM    2  C2  UNL     1      -0.316   0.952   0.166  1.00  0.00     0.038 C 
HETATM    3  C3  UNL     1       1.103   0.508   0.441  1.00  0.00     0.163 C 
HETATM    4  C4  UNL     1       1.279  -0.448  -0.722  1.00  0.00     0.149 C 
HETATM    5  C5  UNL     1       2.233  -1.563  -0.410  1.00  0.00     0.054 C 
HETATM    6  C6  UNL     1       1.819   0.330  -1.863  1.00  0.00     0.089 C 
HETATM    7  N1  UNL     1       2.224   0.948  -2.752  1.00  0.00    -0.195 NA
HETATM    8  N2  UNL     1      -0.010  -0.968  -1.055  1.00  0.00    -0.165 NA
HETATM    9  C7  UNL     1      -0.975  -0.350  -0.147  1.00  0.00     0.039 C 
HETATM   10  C8  UNL     1      -1.216  -1.215   1.066  1.00  0.00     0.035 C 
HETATM   11  C9  UNL     1      -2.294  -0.085  -0.821  1.00  0.00     0.035 C 
ENDROOT
BRANCH   3  12
HETATM   12  O1  UNL     1       2.022   1.526   0.355  1.00  0.00    -0.392 OA
ATOM     13  H1  UNL     1       2.914   1.247   0.528  1.00  0.00     0.210 HD
ENDBRANCH   3  12
BRANCH   8  14
HETATM   14  O2  UNL     1      -0.334  -0.657  -2.343  1.00  0.00    -0.310 OA
ATOM     15  H2  UNL     1      -1.191  -1.003  -2.564  1.00  0.00     0.237 HD
ENDBRANCH   8  14
TORSDOF 2
