REMARK  2 active torsions:
REMARK  status: ('A' for Active; 'I' for Inactive)
REMARK       I    between atoms: N2_7  and  C4_9 
REMARK       I    between atoms: C4_9  and  N3_10 
REMARK       I    between atoms: C4_9  and  N4_14 
REMARK    1  A    between atoms: C5_18  and  N5_19 
REMARK    2  A    between atoms: N5_19  and  N6_21 
ROOT
HETATM    1  C1  UNL     1      -3.369   0.560   0.774  1.00  0.00     0.073 C 
HETATM    2  C2  UNL     1      -1.886   0.529   0.725  1.00  0.00     0.061 A 
HETATM    3  N1  UNL     1      -1.006   1.162   1.512  1.00  0.00    -0.261 N 
ATOM      4  H1  UNL     1      -1.254   1.778   2.286  1.00  0.00     0.194 HD
HETATM    5  O1  UNL     1       0.206   0.879   1.149  1.00  0.00    -0.217 OA
HETATM    6  C3  UNL     1       0.215   0.062   0.123  1.00  0.00     0.199 A 
HETATM    7  N2  UNL     1       1.198  -0.449  -0.525  1.00  0.00    -0.318 N 
ATOM      8  H2  UNL     1       0.973  -1.070  -1.302  1.00  0.00     0.165 HD
HETATM    9  C4  UNL     1       2.580  -0.220  -0.248  1.00  0.00     0.482 C 
HETATM   10  N3  UNL     1       2.915  -0.433   1.153  1.00  0.00    -0.033 N 
ATOM     11  H31 UNL     1       3.902  -0.269   1.351  1.00  0.00     0.278 HD
ATOM     12  H32 UNL     1       2.629  -1.363   1.460  1.00  0.00     0.278 HD
ATOM     13  H33 UNL     1       2.322   0.131   1.761  1.00  0.00     0.278 HD
HETATM   14  N4  UNL     1       3.031   1.105  -0.597  1.00  0.00    -0.033 N 
ATOM     15  H41 UNL     1       4.018   1.269  -0.399  1.00  0.00     0.278 HD
ATOM     16  H42 UNL     1       2.452   1.813  -0.145  1.00  0.00     0.278 HD
ATOM     17  H43 UNL     1       2.821   1.310  -1.574  1.00  0.00     0.278 HD
HETATM   18  C5  UNL     1      -1.109  -0.184  -0.176  1.00  0.00     0.125 A 
ENDROOT
BRANCH  18  19
HETATM   19  N5  UNL     1      -1.647  -1.010  -1.209  1.00  0.00    -0.301 N 
ATOM     20  H5  UNL     1      -2.658  -1.098  -1.312  1.00  0.00     0.186 HD
BRANCH  19  21
HETATM   21  N6  UNL     1      -0.803  -1.696  -2.076  1.00  0.00    -0.344 N 
ATOM     22  H62 UNL     1       0.206  -1.597  -1.959  1.00  0.00     0.176 HD
ATOM     23  H61 UNL     1      -1.187  -2.286  -2.814  1.00  0.00     0.176 HD
ENDBRANCH  19  21
ENDBRANCH  18  19
TORSDOF 2
