REMARK  7 active torsions:
REMARK  status: ('A' for Active; 'I' for Inactive)
REMARK    1  A    between atoms: N1_1  and  C1_4 
REMARK    2  A    between atoms: C2_7  and  N3_8 
REMARK    3  A    between atoms: N4_11  and  C3_12 
REMARK    4  A    between atoms: C3_12  and  C4_13 
REMARK    5  A    between atoms: C4_13  and  C5_14 
REMARK    6  A    between atoms: C5_14  and  N5_15 
REMARK    7  A    between atoms: N6_19  and  O1_20 
ROOT
HETATM    1  C1  UNL     1      -2.976  -0.047  -0.062  1.00  0.00     0.733 A 
HETATM    2  N2  UNL     1      -2.634   0.971  -0.855  1.00  0.00    -0.018 N 
ATOM      3  H2  UNL     1      -3.266   1.533  -1.426  1.00  0.00     0.203 HD
HETATM    4  C2  UNL     1      -1.289   1.118  -0.759  1.00  0.00     0.709 A 
HETATM    5  N4  UNL     1      -0.795   0.180   0.102  1.00  0.00    -0.082 N 
HETATM    6  N6  UNL     1      -1.849  -0.505   0.502  1.00  0.00     0.033 N 
ENDROOT
BRANCH   5   7
HETATM    7  C3  UNL     1       0.588   0.033   0.449  1.00  0.00     0.173 C 
BRANCH   7   8
HETATM    8  C4  UNL     1       1.326  -0.919  -0.480  1.00  0.00     0.050 C 
BRANCH   8   9
HETATM    9  C5  UNL     1       2.770  -0.962   0.025  1.00  0.00     0.231 C 
BRANCH   9  10
HETATM   10  N5  UNL     1       3.388   0.336  -0.005  1.00  0.00    -0.079 N 
ATOM     11  H53 UNL     1       3.333   0.751  -0.935  1.00  0.00     0.274 HD
ATOM     12  H52 UNL     1       2.836   1.022   0.510  1.00  0.00     0.274 HD
ATOM     13  H51 UNL     1       4.350   0.307   0.332  1.00  0.00     0.274 HD
ENDBRANCH   9  10
ENDBRANCH   8   9
ENDBRANCH   7   8
ENDBRANCH   5   7
BRANCH   4  14
HETATM   14  N3  UNL     1      -0.564   1.991  -1.369  1.00  0.00    -0.233 N 
ATOM     15  H32 UNL     1      -0.933   2.692  -2.012  1.00  0.00     0.174 HD
ATOM     16  H31 UNL     1       0.447   2.102  -1.297  1.00  0.00     0.174 HD
ENDBRANCH   4  14
BRANCH   6  17
HETATM   17  O1  UNL     1      -1.742  -1.564   1.401  1.00  0.00    -0.254 OA
ATOM     18  H1  UNL     1      -0.944  -1.888   1.801  1.00  0.00     0.247 HD
ENDBRANCH   6  17
BRANCH   1  19
HETATM   19  N1  UNL     1      -4.175  -0.477   0.101  1.00  0.00    -0.231 N 
ATOM     20  H12 UNL     1      -5.032  -0.129  -0.328  1.00  0.00     0.174 HD
ATOM     21  H11 UNL     1      -4.436  -1.255   0.707  1.00  0.00     0.174 HD
ENDBRANCH   1  19
TORSDOF 7
