REMARK  6 active torsions:
REMARK  status: ('A' for Active; 'I' for Inactive)
REMARK    1  A    between atoms: N1_1  and  C1_4 
REMARK    2  A    between atoms: N3_8  and  C3_9 
REMARK    3  A    between atoms: C3_9  and  C4_10 
REMARK    4  A    between atoms: C4_10  and  C5_11 
REMARK    5  A    between atoms: C5_11  and  N4_12 
REMARK    6  A    between atoms: C5_11  and  N5_16 
ROOT
HETATM    1  C3  UNL     1      -0.071   0.211  -0.744  1.00  0.00     0.173 C 
ENDROOT
BRANCH   1   2
HETATM    2  N3  UNL     1       1.319  -0.073  -0.517  1.00  0.00    -0.233 N 
HETATM    3  N2  UNL     1       1.995  -1.204  -0.761  1.00  0.00    -0.292 N 
HETATM    4  C2  UNL     1       3.283  -1.053  -0.403  1.00  0.00     0.158 A 
ATOM      5  H2  UNL     1       1.593  -2.053  -1.159  1.00  0.00     0.188 HD
HETATM    6  C1  UNL     1       3.376   0.243   0.081  1.00  0.00     0.132 A 
HETATM    7  N6  UNL     1       2.162   0.817  -0.002  1.00  0.00    -0.268 N 
ATOM      8  H6  UNL     1       1.929   1.769   0.281  1.00  0.00     0.190 HD
BRANCH   6   9
HETATM    9  N1  UNL     1       4.481   0.768   0.528  1.00  0.00    -0.383 N 
ATOM     10  H12 UNL     1       5.401   0.333   0.591  1.00  0.00     0.157 HD
ATOM     11  H11 UNL     1       4.549   1.721   0.884  1.00  0.00     0.157 HD
ENDBRANCH   6   9
ENDBRANCH   1   2
BRANCH   1  12
HETATM   12  C4  UNL     1      -0.946  -0.126   0.438  1.00  0.00     0.085 C 
BRANCH  12  13
HETATM   13  C5  UNL     1      -2.379   0.236   0.026  1.00  0.00     0.379 C 
BRANCH  13  14
HETATM   14  N4  UNL     1      -3.318  -0.038   1.068  1.00  0.00    -0.050 N 
ATOM     15  H43 UNL     1      -3.255  -1.008   1.378  1.00  0.00     0.276 HD
ATOM     16  H42 UNL     1      -3.054   0.426   1.937  1.00  0.00     0.276 HD
ATOM     17  H41 UNL     1      -4.271   0.203   0.794  1.00  0.00     0.276 HD
ENDBRANCH  13  14
BRANCH  13  18
HETATM   18  N5  UNL     1      -2.657  -0.482  -1.186  1.00  0.00    -0.050 N 
ATOM     19  H53 UNL     1      -1.972  -0.309  -1.921  1.00  0.00     0.276 HD
ATOM     20  H52 UNL     1      -2.505  -1.487  -1.101  1.00  0.00     0.276 HD
ATOM     21  H51 UNL     1      -3.610  -0.241  -1.460  1.00  0.00     0.276 HD
ENDBRANCH  13  18
ENDBRANCH  12  13
ENDBRANCH   1  12
TORSDOF 6
