REMARK  11 active torsions:
REMARK  status: ('A' for Active; 'I' for Inactive)
REMARK    1  A    between atoms: N1_1  and  C1_4 
REMARK    2  A    between atoms: C2_7  and  C3_8 
REMARK    3  A    between atoms: N3_10  and  C5_11 
REMARK    4  A    between atoms: C5_11  and  C6_12 
REMARK    5  A    between atoms: C6_12  and  O1_13 
REMARK    6  A    between atoms: C6_12  and  C7_15 
REMARK    7  A    between atoms: C7_15  and  N4_16 
REMARK    8  A    between atoms: C9_26  and  N8_27 
REMARK    9  A    between atoms: N8_27  and  C10_29 
REMARK   10  A    between atoms: C10_29  and  C11_30 
REMARK   11  A    between atoms: C11_30  and  N9_31 
ROOT
HETATM    1  C1  UNL     1       2.699  -2.422  -0.073  1.00  0.00     0.678 A 
HETATM    2  N2  UNL     1       1.372  -2.398  -0.125  1.00  0.00    -0.188 N 
ATOM      3  H2  UNL     1       0.877  -3.278   0.022  1.00  0.00     0.184 HD
HETATM    4  C2  UNL     1       0.623  -1.283  -0.360  1.00  0.00     0.106 A 
HETATM    5  C8  UNL     1       1.325  -0.131  -0.549  1.00  0.00     0.120 A 
HETATM    6  N7  UNL     1       0.696   1.097  -0.801  1.00  0.00    -0.096 NA
HETATM    7  C9  UNL     1       2.726  -0.144  -0.496  1.00  0.00     0.143 A 
HETATM    8  N10 UNL     1       3.401  -1.274  -0.261  1.00  0.00    -0.175 N 
ATOM      9  H10 UNL     1       4.420  -1.274  -0.224  1.00  0.00     0.186 HD
ENDROOT
BRANCH   4  10
HETATM   10  C3  UNL     1      -0.834  -1.390  -0.394  1.00  0.00     0.096 A 
HETATM   11  C4  UNL     1      -1.805  -0.455  -0.603  1.00  0.00     0.145 A 
HETATM   12  N3  UNL     1      -3.039  -1.040  -0.540  1.00  0.00    -0.284 N 
HETATM   13  N5  UNL     1      -2.819  -2.313  -0.294  1.00  0.00    -0.240 N 
HETATM   14  N6  UNL     1      -1.524  -2.546  -0.204  1.00  0.00    -0.283 N 
ATOM     15  H5  UNL     1      -3.547  -3.020  -0.188  1.00  0.00     0.208 HD
ATOM     16  H6  UNL     1      -1.103  -3.457  -0.020  1.00  0.00     0.188 HD
BRANCH  12  17
HETATM   17  C5  UNL     1      -4.334  -0.410  -0.704  1.00  0.00     0.183 C 
BRANCH  17  18
HETATM   18  C6  UNL     1      -4.876   0.088   0.622  1.00  0.00     0.163 C 
BRANCH  18  19
HETATM   19  O1  UNL     1      -5.027  -0.959   1.526  1.00  0.00    -0.392 OA
ATOM     20  H1  UNL     1      -5.367  -0.647   2.357  1.00  0.00     0.210 HD
ENDBRANCH  18  19
BRANCH  18  21
HETATM   21  C7  UNL     1      -6.162   0.858   0.428  1.00  0.00     0.262 C 
BRANCH  21  22
HETATM   22  N4  UNL     1      -6.577   1.405   1.687  1.00  0.00    -0.077 N 
ATOM     23  H43 UNL     1      -6.658   0.692   2.412  1.00  0.00     0.274 HD
ATOM     24  H42 UNL     1      -5.849   1.971   2.123  1.00  0.00     0.274 HD
ATOM     25  H41 UNL     1      -7.445   1.925   1.556  1.00  0.00     0.274 HD
ENDBRANCH  21  22
ENDBRANCH  18  21
ENDBRANCH  17  18
ENDBRANCH  12  17
ENDBRANCH   4  10
BRANCH   1  26
HETATM   26  N1  UNL     1       3.310  -3.534   0.157  1.00  0.00    -0.234 N 
ATOM     27  H12 UNL     1       2.783  -4.396   0.298  1.00  0.00     0.174 HD
ATOM     28  H11 UNL     1       4.329  -3.552   0.197  1.00  0.00     0.174 HD
ENDBRANCH   1  26
BRANCH   7  29
HETATM   29  N8  UNL     1       3.424   1.076  -0.722  1.00  0.00    -0.373 N 
ATOM     30  H8  UNL     1       2.887   1.914  -0.944  1.00  0.00     0.161 HD
BRANCH  29  31
HETATM   31  C10 UNL     1       4.854   1.171  -0.649  1.00  0.00     0.148 C 
BRANCH  31  32
HETATM   32  C11 UNL     1       5.432   1.109   0.725  1.00  0.00     0.249 C 
BRANCH  32  33
HETATM   33  N9  UNL     1       6.890   1.215   0.564  1.00  0.00    -0.078 N 
ATOM     34  H93 UNL     1       7.279   0.518  -0.071  1.00  0.00     0.274 HD
ATOM     35  H92 UNL     1       7.181   2.040   0.039  1.00  0.00     0.274 HD
ATOM     36  H91 UNL     1       7.285   1.173   1.503  1.00  0.00     0.274 HD
ENDBRANCH  32  33
ENDBRANCH  31  32
ENDBRANCH  29  31
ENDBRANCH   7  29
TORSDOF 11
