REMARK  13 active torsions:
REMARK  status: ('A' for Active; 'I' for Inactive)
REMARK    1  A    between atoms: C3_6  and  N2_7 
REMARK    2  A    between atoms: C4_10  and  C5_11 
REMARK    3  A    between atoms: C5_11  and  C6_12 
REMARK    4  A    between atoms: C6_12  and  O2_13 
REMARK    5  A    between atoms: C6_12  and  N3_15 
REMARK    6  A    between atoms: N3_15  and  C7_17 
REMARK    7  A    between atoms: C7_17  and  O3_18 
REMARK    8  A    between atoms: C7_17  and  C8_20 
REMARK    9  A    between atoms: C8_20  and  O4_21 
REMARK   10  A    between atoms: C8_20  and  C9_23 
REMARK   11  A    between atoms: C9_23  and  O5_24 
REMARK   12  A    between atoms: C9_23  and  N4_26 
REMARK   13  A    between atoms: N4_26  and  N5_28 
ROOT
HETATM    1  C7  UNL     1      -0.203  -0.244   0.079  1.00  0.00     0.248 C 
ENDROOT
BRANCH   1   2
HETATM    2  N3  UNL     1       0.536   0.635   0.881  1.00  0.00    -0.369 N 
ATOM      3  H3  UNL     1       0.576   0.456   1.884  1.00  0.00     0.158 HD
BRANCH   2   4
HETATM    4  C6  UNL     1       1.229   1.756   0.373  1.00  0.00     0.219 C 
BRANCH   4   5
HETATM    5  C5  UNL     1       2.430   1.206  -0.410  1.00  0.00     0.098 C 
BRANCH   5   6
HETATM    6  C4  UNL     1       3.326   0.378   0.405  1.00  0.00     0.023 A 
HETATM    7  C2  UNL     1       4.213  -0.577  -0.146  1.00  0.00     0.082 A 
HETATM    8  C1  UNL     1       4.324  -0.820  -1.607  1.00  0.00     0.079 C 
HETATM    9  O1  UNL     1       4.823  -1.107   0.863  1.00  0.00    -0.240 OA
HETATM   10  N1  UNL     1       4.440  -0.613   1.989  1.00  0.00    -0.245 N 
HETATM   11  C3  UNL     1       3.479   0.349   1.762  1.00  0.00     0.128 A 
ATOM     12  H1  UNL     1       4.792  -0.890   2.905  1.00  0.00     0.196 HD
BRANCH  11  13
HETATM   13  N2  UNL     1       2.920   1.041   2.694  1.00  0.00    -0.384 N 
ATOM     14  H22 UNL     1       3.034   1.019   3.707  1.00  0.00     0.157 HD
ATOM     15  H21 UNL     1       2.209   1.753   2.526  1.00  0.00     0.157 HD
ENDBRANCH  11  13
ENDBRANCH   5   6
ENDBRANCH   4   5
BRANCH   4  16
HETATM   16  O2  UNL     1       0.482   2.560  -0.512  1.00  0.00    -0.377 OA
ATOM     17  H2  UNL     1      -0.261   2.900  -0.028  1.00  0.00     0.212 HD
ENDBRANCH   4  16
ENDBRANCH   2   4
ENDBRANCH   1   2
BRANCH   1  18
HETATM   18  O3  UNL     1      -0.341  -1.500   0.748  1.00  0.00    -0.374 OA
ATOM     19  H3  UNL     1      -0.842  -2.096   0.204  1.00  0.00     0.212 HD
ENDBRANCH   1  18
BRANCH   1  20
HETATM   20  C8  UNL     1      -1.601   0.163  -0.242  1.00  0.00     0.216 C 
BRANCH  20  21
HETATM   21  O4  UNL     1      -1.801   1.337  -0.867  1.00  0.00    -0.387 OA
ATOM     22  H4  UNL     1      -2.692   1.596  -1.072  1.00  0.00     0.210 HD
ENDBRANCH  20  21
BRANCH  20  23
HETATM   23  C9  UNL     1      -2.303  -0.916  -1.080  1.00  0.00     0.266 C 
BRANCH  23  24
HETATM   24  O5  UNL     1      -1.802  -0.828  -2.404  1.00  0.00    -0.373 OA
ATOM     25  H5  UNL     1      -2.236  -1.495  -2.922  1.00  0.00     0.212 HD
ENDBRANCH  23  24
BRANCH  23  26
HETATM   26  N4  UNL     1      -3.722  -0.700  -1.153  1.00  0.00    -0.297 N 
ATOM     27  H4  UNL     1      -4.108  -0.421  -2.055  1.00  0.00     0.183 HD
BRANCH  26  28
HETATM   28  N5  UNL     1      -4.621  -0.842  -0.080  1.00  0.00    -0.247 N 
HETATM   29  C10 UNL     1      -4.297  -1.246   1.166  1.00  0.00     0.223 A 
HETATM   30  N6  UNL     1      -5.442  -1.206   1.862  1.00  0.00    -0.293 N 
HETATM   31  N7  UNL     1      -6.422  -0.804   1.106  1.00  0.00    -0.293 N 
ATOM     32  H6  UNL     1      -5.532  -1.456   2.847  1.00  0.00     0.187 HD
HETATM   33  C11 UNL     1      -5.956  -0.556  -0.158  1.00  0.00     0.223 A 
ATOM     34  H7  UNL     1      -7.390  -0.691   1.409  1.00  0.00     0.187 HD
ENDBRANCH  26  28
ENDBRANCH  23  26
ENDBRANCH  20  23
ENDBRANCH   1  20
TORSDOF 13
