REMARK  12 active torsions:
REMARK  status: ('A' for Active; 'I' for Inactive)
REMARK    1  A    between atoms: C3_8  and  N4_9 
REMARK    2  A    between atoms: N4_9  and  C4_11 
REMARK    3  A    between atoms: C7_18  and  N7_19 
REMARK    4  A    between atoms: N7_19  and  C8_21 
REMARK    5  A    between atoms: C8_21  and  C9_22 
REMARK    6  A    between atoms: C8_21  and  C10_25 
REMARK    7  A    between atoms: C9_22  and  O1_23 
REMARK    8  A    between atoms: C10_25  and  O2_26 
REMARK    9  A    between atoms: C10_25  and  C11_28 
REMARK   10  A    between atoms: C11_28  and  O3_29 
REMARK   11  A    between atoms: C11_28  and  C12_31 
REMARK   12  A    between atoms: C12_31  and  O4_32 
ROOT
HETATM    1  C4  UNL     1      -1.693   0.880  -0.213  1.00  0.00     0.136 A 
HETATM    2  N5  UNL     1      -2.337   2.044  -0.385  1.00  0.00    -0.337 N 
ATOM      3  H5  UNL     1      -3.333   2.100  -0.174  1.00  0.00     0.168 HD
HETATM    4  C5  UNL     1      -1.695   3.138  -0.830  1.00  0.00     0.182 A 
HETATM    5  N6  UNL     1      -0.408   3.081  -1.108  1.00  0.00    -0.360 N 
ATOM      6  H6  UNL     1       0.082   3.909  -1.446  1.00  0.00     0.166 HD
HETATM    7  C6  UNL     1       0.266   1.902  -0.939  1.00  0.00     0.122 A 
HETATM    8  C7  UNL     1      -0.323   0.755  -0.491  1.00  0.00     0.092 A 
ENDROOT
BRANCH   8   9
HETATM    9  N7  UNL     1       0.303  -0.461  -0.306  1.00  0.00    -0.355 N 
ATOM     10  H7  UNL     1      -0.325  -1.197   0.017  1.00  0.00     0.166 HD
BRANCH   9  11
HETATM   11  C8  UNL     1       1.657  -0.900  -0.476  1.00  0.00     0.042 C 
BRANCH  11  12
HETATM   12  C9  UNL     1       2.224  -0.696  -1.849  1.00  0.00     0.219 C 
BRANCH  12  13
HETATM   13  O1  UNL     1       1.355  -1.359  -2.742  1.00  0.00    -0.395 OA
ATOM     14  H1  UNL     1       1.714  -1.230  -3.612  1.00  0.00     0.209 HD
ENDBRANCH  12  13
ENDBRANCH  11  12
BRANCH  11  15
HETATM   15  C10 UNL     1       2.531  -0.593   0.685  1.00  0.00     0.196 C 
BRANCH  15  16
HETATM   16  O2  UNL     1       2.612   0.773   1.007  1.00  0.00    -0.387 OA
ATOM     17  H2  UNL     1       3.171   0.969   1.750  1.00  0.00     0.210 HD
ENDBRANCH  15  16
BRANCH  15  18
HETATM   18  C11 UNL     1       3.952  -1.065   0.579  1.00  0.00     0.176 C 
BRANCH  18  19
HETATM   19  O3  UNL     1       4.692  -0.541  -0.441  1.00  0.00    -0.390 OA
ATOM     20  H3  UNL     1       5.591  -0.840  -0.508  1.00  0.00     0.210 HD
ENDBRANCH  18  19
BRANCH  18  21
HETATM   21  C12 UNL     1       4.707  -0.823   1.891  1.00  0.00     0.198 C 
BRANCH  21  22
HETATM   22  O4  UNL     1       5.990  -1.278   1.715  1.00  0.00    -0.398 OA
ATOM     23  H4  UNL     1       6.458  -1.128   2.528  1.00  0.00     0.209 HD
ENDBRANCH  21  22
ENDBRANCH  18  21
ENDBRANCH  15  18
ENDBRANCH  11  15
ENDBRANCH   9  11
ENDBRANCH   8   9
BRANCH   1  24
HETATM   24  N4  UNL     1      -2.382  -0.109   0.214  1.00  0.00    -0.324 N 
ATOM     25  H4  UNL     1      -1.899  -0.997   0.347  1.00  0.00     0.169 HD
BRANCH  24  26
HETATM   26  C3  UNL     1      -3.753  -0.066   0.514  1.00  0.00     0.149 A 
HETATM   27  C1  UNL     1      -4.755  -0.653  -0.236  1.00  0.00     0.161 A 
HETATM   28  N1  UNL     1      -4.641  -1.403  -1.431  1.00  0.00    -0.079 NA
HETATM   29  N2  UNL     1      -5.927  -0.393   0.371  1.00  0.00    -0.338 N 
HETATM   30  C2  UNL     1      -5.709   0.336   1.477  1.00  0.00     0.183 A 
ATOM     31  H2  UNL     1      -6.841  -0.702   0.041  1.00  0.00     0.168 HD
HETATM   32  N3  UNL     1      -4.382   0.522   1.543  1.00  0.00    -0.336 N 
ATOM     33  H3  UNL     1      -3.911   1.044   2.282  1.00  0.00     0.168 HD
ENDBRANCH  24  26
ENDBRANCH   1  24
TORSDOF 12
