REMARK  10 active torsions:
REMARK  status: ('A' for Active; 'I' for Inactive)
REMARK    1  A    between atoms: N2_3  and  C2_4 
REMARK    2  A    between atoms: N2_3  and  C9_23 
REMARK    3  A    between atoms: C2_4  and  C3_5 
REMARK    4  A    between atoms: N3_6  and  C4_8 
REMARK    5  A    between atoms: C4_8  and  O1_9 
REMARK    6  A    between atoms: C4_8  and  C5_11 
REMARK    7  A    between atoms: C7_15  and  N5_16 
REMARK    8  A    between atoms: C10_26  and  C11_27 
REMARK    9  A    between atoms: C11_27  and  O2_28 
REMARK   10  A    between atoms: O2_28  and  N9_29 
ROOT
HETATM    1  N1  UNL     1       1.397  -4.262  -1.312  1.00  0.00    -0.171 NA
HETATM    2  C1  UNL     1       1.448  -3.123  -1.079  1.00  0.00     0.199 C 
HETATM    3  N2  UNL     1       1.489  -1.743  -0.811  1.00  0.00    -0.113 N 
ENDROOT
BRANCH   3   4
HETATM    4  C2  UNL     1       0.446  -0.841  -1.177  1.00  0.00     0.204 C 
BRANCH   4   5
HETATM    5  C3  UNL     1      -0.811  -1.047  -0.430  1.00  0.00     0.080 C 
HETATM    6  N3  UNL     1      -0.983  -0.750   0.788  1.00  0.00    -0.371 N 
ATOM      7  H3  UNL     1      -0.225  -0.337   1.331  1.00  0.00     0.161 HD
BRANCH   6   8
HETATM    8  C4  UNL     1      -2.274  -1.005   1.403  1.00  0.00     0.256 C 
BRANCH   8   9
HETATM    9  O1  UNL     1      -2.554  -2.355   1.218  1.00  0.00    -0.372 OA
ATOM     10  H1  UNL     1      -3.398  -2.522   1.620  1.00  0.00     0.212 HD
ENDBRANCH   8   9
BRANCH   8  11
HETATM   11  C5  UNL     1      -3.332  -0.209   0.728  1.00  0.00     0.047 A 
HETATM   12  C6  UNL     1      -4.540  -0.755   0.340  1.00  0.00     0.121 A 
HETATM   13  N4  UNL     1      -5.472  -0.008  -0.282  1.00  0.00    -0.201 N 
HETATM   14  C7  UNL     1      -5.228   1.293  -0.532  1.00  0.00     0.676 A 
ATOM     15  H4  UNL     1      -6.359  -0.426  -0.563  1.00  0.00     0.183 HD
HETATM   16  N6  UNL     1      -4.067   1.885  -0.176  1.00  0.00    -0.178 N 
HETATM   17  C8  UNL     1      -3.141   1.139   0.443  1.00  0.00     0.143 A 
ATOM     18  H6  UNL     1      -3.900   2.872  -0.373  1.00  0.00     0.185 HD
HETATM   19  N7  UNL     1      -1.922   1.742   0.832  1.00  0.00    -0.081 NA
BRANCH  14  20
HETATM   20  N5  UNL     1      -6.123   1.975  -1.123  1.00  0.00    -0.234 N 
ATOM     21  H52 UNL     1      -7.000   1.528  -1.392  1.00  0.00     0.174 HD
ATOM     22  H51 UNL     1      -5.938   2.960  -1.312  1.00  0.00     0.174 HD
ENDBRANCH  14  20
ENDBRANCH   8  11
ENDBRANCH   6   8
ENDBRANCH   4   5
ENDBRANCH   3   4
BRANCH   3  23
HETATM   23  C9  UNL     1       2.635  -1.242  -0.147  1.00  0.00     0.694 A 
HETATM   24  N8  UNL     1       2.846   0.046   0.162  1.00  0.00    -0.191 N 
HETATM   25  C10 UNL     1       4.033   0.202   0.793  1.00  0.00     0.068 A 
ATOM     26  H8  UNL     1       2.199   0.806  -0.050  1.00  0.00     0.184 HD
HETATM   27  C12 UNL     1       4.566  -1.072   0.867  1.00  0.00     0.134 A 
HETATM   28  N10 UNL     1       3.718  -1.942   0.298  1.00  0.00    -0.199 N 
ATOM     29  H10 UNL     1       3.858  -2.949   0.213  1.00  0.00     0.183 HD
BRANCH  25  30
HETATM   30  C11 UNL     1       4.592   1.498   1.276  1.00  0.00     0.259 C 
BRANCH  30  31
HETATM   31  O2  UNL     1       3.929   2.521   0.621  1.00  0.00    -0.281 OA
BRANCH  31  32
HETATM   32  N9  UNL     1       4.045   2.515  -0.700  1.00  0.00    -0.311 N 
ATOM     33  H92 UNL     1       4.588   1.800  -1.184  1.00  0.00     0.184 HD
ATOM     34  H91 UNL     1       3.556   3.269  -1.183  1.00  0.00     0.184 HD
ENDBRANCH  31  32
ENDBRANCH  30  31
ENDBRANCH  25  30
ENDBRANCH   3  23
TORSDOF 10
