REMARK  14 active torsions:
REMARK  status: ('A' for Active; 'I' for Inactive)
REMARK    1  A    between atoms: C2_2  and  C3_3 
REMARK    2  A    between atoms: C2_2  and  C4_5 
REMARK    3  A    between atoms: C4_5  and  O2_6 
REMARK    4  A    between atoms: C4_5  and  N1_8 
REMARK    5  A    between atoms: N1_8  and  C5_10 
REMARK    6  A    between atoms: C5_10  and  O3_11 
REMARK    7  A    between atoms: C5_10  and  C6_13 
REMARK    8  A    between atoms: C6_13  and  N2_14 
REMARK    9  A    between atoms: C6_13  and  C7_18 
REMARK   10  A    between atoms: C7_18  and  O4_19 
REMARK   11  A    between atoms: C7_18  and  C8_21 
REMARK   12  A    between atoms: C9_24  and  C10_25 
REMARK   13  A    between atoms: C10_25  and  N4_26 
REMARK   14  A    between atoms: C10_25  and  N5_30 
ROOT
HETATM    1  C7  UNL     1      -0.510   0.105   0.762  1.00  0.00     0.209 C 
ENDROOT
BRANCH   1   2
HETATM    2  C6  UNL     1       0.157  -1.082   0.174  1.00  0.00     0.266 C 
BRANCH   2   3
HETATM    3  C5  UNL     1       1.678  -0.879   0.411  1.00  0.00     0.249 C 
BRANCH   3   4
HETATM    4  N1  UNL     1       2.085   0.217  -0.349  1.00  0.00    -0.369 N 
ATOM      5  H1  UNL     1       1.561   0.448  -1.193  1.00  0.00     0.158 HD
BRANCH   4   6
HETATM    6  C4  UNL     1       3.180   1.011  -0.003  1.00  0.00     0.225 C 
BRANCH   6   7
HETATM    7  C2  UNL     1       4.533   0.376   0.038  1.00  0.00     0.091 C 
HETATM    8  C1  UNL     1       4.878  -0.452  -1.151  1.00  0.00     0.022 C 
BRANCH   7   9
HETATM    9  C3  UNL     1       5.535   1.496   0.122  1.00  0.00     0.239 C 
HETATM   10  O1  UNL     1       5.265   2.656  -0.063  1.00  0.00    -0.306 OA
ENDBRANCH   7   9
ENDBRANCH   6   7
BRANCH   6  11
HETATM   11  O2  UNL     1       3.037   1.741   1.185  1.00  0.00    -0.376 OA
ATOM     12  H2  UNL     1       2.177   2.144   1.159  1.00  0.00     0.212 HD
ENDBRANCH   6  11
ENDBRANCH   4   6
ENDBRANCH   3   4
BRANCH   3  13
HETATM   13  O3  UNL     1       1.853  -0.862   1.757  1.00  0.00    -0.375 OA
ATOM     14  H3  UNL     1       1.576  -1.609   2.275  1.00  0.00     0.212 HD
ENDBRANCH   3  13
ENDBRANCH   2   3
BRANCH   2  15
HETATM   15  N2  UNL     1      -0.200  -2.349   0.810  1.00  0.00    -0.068 N 
ATOM     16  H23 UNL     1       0.366  -3.135   0.489  1.00  0.00     0.275 HD
ATOM     17  H22 UNL     1       0.064  -2.394   1.794  1.00  0.00     0.275 HD
ATOM     18  H21 UNL     1      -1.199  -2.482   0.654  1.00  0.00     0.275 HD
ENDBRANCH   2  15
ENDBRANCH   1   2
BRANCH   1  19
HETATM   19  O4  UNL     1      -0.097   1.227   0.025  1.00  0.00    -0.387 OA
ATOM     20  H4  UNL     1      -0.524   1.987   0.402  1.00  0.00     0.210 HD
ENDBRANCH   1  19
BRANCH   1  21
HETATM   21  C8  UNL     1      -2.004   0.039   0.814  1.00  0.00     0.082 A 
HETATM   22  N3  UNL     1      -2.896   0.147  -0.145  1.00  0.00    -0.352 N 
HETATM   23  C9  UNL     1      -4.165   0.085   0.116  1.00  0.00     0.074 A 
ATOM     24  H3  UNL     1      -2.586   0.281  -1.107  1.00  0.00     0.166 HD
HETATM   25  C11 UNL     1      -4.533  -0.096   1.429  1.00  0.00     0.080 A 
HETATM   26  S1  UNL     1      -3.015  -0.167   2.206  1.00  0.00    -0.084 SA
BRANCH  23  27
HETATM   27  C10 UNL     1      -5.250   0.195  -0.946  1.00  0.00     0.427 C 
BRANCH  27  28
HETATM   28  N4  UNL     1      -6.247   1.172  -0.523  1.00  0.00    -0.045 N 
ATOM     29  H43 UNL     1      -6.629   0.959   0.398  1.00  0.00     0.277 HD
ATOM     30  H42 UNL     1      -5.831   2.077  -0.302  1.00  0.00     0.277 HD
ATOM     31  H41 UNL     1      -6.974   1.246  -1.235  1.00  0.00     0.277 HD
ENDBRANCH  27  28
BRANCH  27  32
HETATM   32  N5  UNL     1      -5.901  -1.098  -1.021  1.00  0.00    -0.045 N 
ATOM     33  H53 UNL     1      -5.251  -1.865  -1.190  1.00  0.00     0.277 HD
ATOM     34  H52 UNL     1      -6.253  -1.423  -0.120  1.00  0.00     0.277 HD
ATOM     35  H51 UNL     1      -6.628  -1.024  -1.733  1.00  0.00     0.277 HD
ENDBRANCH  27  32
ENDBRANCH  23  27
ENDBRANCH   1  21
TORSDOF 14
