REMARK  5 active torsions:
REMARK  status: ('A' for Active; 'I' for Inactive)
REMARK    1  A    between atoms: C2_2  and  O1_3 
REMARK    2  A    between atoms: O1_3  and  C3_4 
REMARK    3  A    between atoms: C4_5  and  C5_6 
REMARK    4  A    between atoms: C6_15  and  C7_16 
REMARK    5  A    between atoms: C11_29  and  N10_30 
ROOT
HETATM    1  C3  UNL     1       1.680   0.513  -0.813  1.00  0.00     0.127 A 
HETATM    2  C4  UNL     1       0.484   0.564  -0.081  1.00  0.00     0.064 A 
HETATM    3  C6  UNL     1      -0.688   0.351  -0.761  1.00  0.00     0.050 A 
HETATM    4  C9  UNL     1      -0.718   0.093  -2.126  1.00  0.00     0.022 A 
HETATM    5  C10 UNL     1      -2.027  -0.128  -2.794  1.00  0.00     0.069 C 
HETATM    6  N9  UNL     1       0.441   0.056  -2.780  1.00  0.00    -0.344 N 
ATOM      7  H9  UNL     1       0.429  -0.133  -3.782  1.00  0.00     0.167 HD
HETATM    8  C11 UNL     1       1.653   0.261  -2.164  1.00  0.00     0.134 A 
ENDROOT
BRANCH   2   9
HETATM    9  C5  UNL     1       0.414   0.827   1.344  1.00  0.00     0.151 A 
HETATM   10  N1  UNL     1       0.376   2.081   1.827  1.00  0.00    -0.268 N 
HETATM   11  N2  UNL     1       0.304   2.072   3.123  1.00  0.00    -0.227 N 
ATOM     12  H1  UNL     1       0.400   2.924   1.254  1.00  0.00     0.190 HD
HETATM   13  N3  UNL     1       0.295   0.798   3.469  1.00  0.00    -0.227 N 
ATOM     14  H2  UNL     1       0.263   2.880   3.744  1.00  0.00     0.210 HD
HETATM   15  N4  UNL     1       0.361   0.017   2.408  1.00  0.00    -0.268 N 
ATOM     16  H3  UNL     1       0.244   0.462   4.431  1.00  0.00     0.210 HD
ATOM     17  H4  UNL     1       0.370  -1.003   2.400  1.00  0.00     0.190 HD
ENDBRANCH   2   9
BRANCH   1  18
HETATM   18  O1  UNL     1       2.851   0.721  -0.147  1.00  0.00    -0.347 OA
BRANCH  18  19
HETATM   19  C2  UNL     1       3.652  -0.154   0.560  1.00  0.00     0.171 C 
HETATM   20  C1  UNL     1       4.198  -1.340  -0.151  1.00  0.00     0.034 C 
ENDBRANCH  18  19
ENDBRANCH   1  18
BRANCH   3  21
HETATM   21  C7  UNL     1      -1.947   0.401  -0.009  1.00  0.00     0.150 A 
HETATM   22  N5  UNL     1      -2.734   1.471   0.220  1.00  0.00    -0.268 N 
HETATM   23  N6  UNL     1      -3.774   1.118   0.932  1.00  0.00    -0.225 N 
ATOM     24  H5  UNL     1      -2.547   2.417  -0.113  1.00  0.00     0.190 HD
HETATM   25  N7  UNL     1      -3.701  -0.172   1.186  1.00  0.00    -0.223 N 
ATOM     26  H6  UNL     1      -4.520   1.741   1.240  1.00  0.00     0.210 HD
HETATM   27  C8  UNL     1      -4.673  -0.961   1.957  1.00  0.00     0.202 C 
HETATM   28  N8  UNL     1      -2.589  -0.607   0.613  1.00  0.00    -0.266 N 
ATOM     29  H8  UNL     1      -2.263  -1.573   0.639  1.00  0.00     0.190 HD
ENDBRANCH   3  21
BRANCH   8  30
HETATM   30  N10 UNL     1       2.721   0.273  -2.866  1.00  0.00    -0.383 N 
ATOM     31 2H10 UNL     1       3.620   0.425  -2.409  1.00  0.00     0.157 HD
ATOM     32 1H10 UNL     1       2.701   0.086  -3.869  1.00  0.00     0.157 HD
ENDBRANCH   8  30
TORSDOF 5
