REMARK  3 active torsions:
REMARK  status: ('A' for Active; 'I' for Inactive)
REMARK    1  A    between atoms: C3_3  and  C4_4 
REMARK       I    between atoms: C4_4  and  N1_6 
REMARK    2  A    between atoms: N1_6  and  N2_8 
REMARK    3  A    between atoms: N3_10  and  C5_12 
ROOT
HETATM    1  N2  UNL     1       2.319  -1.540   2.466  1.00  0.00    -0.238 N 
ATOM      2  H2  UNL     1       2.070  -2.229   3.176  1.00  0.00     0.208 HD
HETATM    3  N3  UNL     1       3.542  -1.415   2.139  1.00  0.00    -0.264 N 
ATOM      4  H3  UNL     1       4.245  -2.002   2.589  1.00  0.00     0.190 HD
ENDROOT
BRANCH   1   5
HETATM    5  N1  UNL     1       1.303  -0.772   1.893  1.00  0.00    -0.251 N 
HETATM    6  C4  UNL     1       0.235  -1.329   1.165  1.00  0.00     0.278 C 
HETATM    7  O1  UNL     1       0.231  -2.603   1.044  1.00  0.00    -0.266 OA
ATOM      8  H1  UNL     1       1.337   0.241   2.008  1.00  0.00     0.192 HD
BRANCH   6   9
HETATM    9  C3  UNL     1      -0.843  -0.569   0.553  1.00  0.00     0.126 A 
HETATM   10  C2  UNL     1      -1.903  -1.100  -0.165  1.00  0.00     0.045 A 
HETATM   11  C1  UNL     1      -2.083  -2.567  -0.412  1.00  0.00     0.071 C 
HETATM   12  N8  UNL     1      -2.695  -0.101  -0.575  1.00  0.00    -0.295 N 
HETATM   13  N7  UNL     1      -2.204   1.052  -0.160  1.00  0.00    -0.259 N 
HETATM   14  C9  UNL     1      -3.907  -0.259  -1.355  1.00  0.00     0.178 C 
HETATM   15  C7  UNL     1      -1.065   0.790   0.536  1.00  0.00     0.279 A 
HETATM   16  C8  UNL     1      -2.737   2.391  -0.375  1.00  0.00     0.181 C 
HETATM   17  O2  UNL     1      -0.352   1.669   1.066  1.00  0.00    -0.265 OA
ENDBRANCH   6   9
ENDBRANCH   1   5
BRANCH   3  18
HETATM   18  C5  UNL     1       3.949  -0.456   1.142  1.00  0.00     0.182 A 
HETATM   19  N4  UNL     1       4.156  -0.631  -0.153  1.00  0.00    -0.276 N 
HETATM   20  N5  UNL     1       4.515   0.337  -0.886  1.00  0.00    -0.278 N 
ATOM     21  H4  UNL     1       4.025  -1.555  -0.565  1.00  0.00     0.189 HD
HETATM   22  C6  UNL     1       4.681   1.540  -0.330  1.00  0.00     0.160 A 
ATOM     23  H5  UNL     1       4.675   0.200  -1.884  1.00  0.00     0.189 HD
HETATM   24  N6  UNL     1       5.044   2.667  -0.899  1.00  0.00    -0.378 N 
HETATM   25  S1  UNL     1       4.297   1.220   1.308  1.00  0.00    -0.014 SA
ATOM     26  H62 UNL     1       5.273   2.858  -1.875  1.00  0.00     0.158 HD
ATOM     27  H61 UNL     1       5.171   3.586  -0.474  1.00  0.00     0.158 HD
ENDBRANCH   3  18
TORSDOF 3
