REMARK  5 active torsions:
REMARK  status: ('A' for Active; 'I' for Inactive)
REMARK    1  A    between atoms: N1_2  and  N2_4 
REMARK    2  A    between atoms: C2_6  and  C3_7 
REMARK    3  A    between atoms: C3_7  and  C4_9 
REMARK    4  A    between atoms: C4_9  and  O2_11 
REMARK    5  A    between atoms: O2_11  and  C5_12 
ROOT
HETATM    1  C4  UNL     1       1.096   1.448  -1.059  1.00  0.00     0.283 C 
HETATM    2  O1  UNL     1       0.702   1.663  -2.231  1.00  0.00    -0.263 OA
ENDROOT
BRANCH   1   3
HETATM    3  C3  UNL     1       2.399   1.975  -0.640  1.00  0.00     0.221 C 
HETATM    4 CL1  UNL     1       2.270   3.111   0.716  1.00  0.00    -0.109 Cl
BRANCH   3   5
HETATM    5  C2  UNL     1       3.252   0.822  -0.231  1.00  0.00     0.110 C 
HETATM    6  N2  UNL     1       3.737   0.694   0.943  1.00  0.00    -0.319 N 
ATOM      7  H2  UNL     1       3.540   1.406   1.646  1.00  0.00     0.185 HD
BRANCH   6   8
HETATM    8  N1  UNL     1       4.532  -0.403   1.283  1.00  0.00    -0.341 N 
HETATM    9  C1  UNL     1       5.931  -0.424   0.886  1.00  0.00     0.167 C 
ATOM     10  H1  UNL     1       4.134  -1.183   1.806  1.00  0.00     0.179 HD
ENDBRANCH   6   8
ENDBRANCH   3   5
ENDBRANCH   1   3
BRANCH   1  11
HETATM   11  O2  UNL     1       0.250   0.714  -0.242  1.00  0.00    -0.310 OA
BRANCH  11  12
HETATM   12  C5  UNL     1      -0.973   0.242  -0.698  1.00  0.00     0.164 C 
HETATM   13  C6  UNL     1      -1.021  -1.325  -0.626  1.00  0.00     0.116 C 
HETATM   14  C7  UNL     1      -2.302  -1.644  -0.149  1.00  0.00    -0.180 C 
HETATM   15  C8  UNL     1      -3.589  -1.913   0.341  1.00  0.00     0.083 C 
HETATM   16  C9  UNL     1      -4.231  -0.510   0.635  1.00  0.00     0.038 C 
HETATM   17  C10 UNL     1      -3.464   0.613  -0.033  1.00  0.00    -0.027 C 
HETATM   18  C11 UNL     1      -2.071   0.874   0.155  1.00  0.00     0.002 C 
ENDBRANCH  11  12
ENDBRANCH   1  11
TORSDOF 5
