REMARK  5 active torsions:
REMARK  status: ('A' for Active; 'I' for Inactive)
REMARK    1  A    between atoms: O1_2  and  C2_3 
REMARK    2  A    between atoms: C2_3  and  C3_5 
REMARK    3  A    between atoms: C3_5  and  C4_6 
REMARK    4  A    between atoms: C4_6  and  C5_7 
REMARK    5  A    between atoms: C5_7  and  S1_8 
ROOT
HETATM    1  C3  UNL     1      -0.411  -0.283  -0.011  1.00  0.00     0.167 C 
HETATM    2  N1  UNL     1      -1.051  -0.781  -1.157  1.00  0.00    -0.367 N 
ATOM      3  H1  UNL     1      -0.499  -1.242  -1.880  1.00  0.00     0.158 HD
HETATM    4  C7  UNL     1      -2.442  -0.654  -1.323  1.00  0.00     0.267 C 
HETATM    5  F1  UNL     1      -2.866   0.436  -2.064  1.00  0.00    -0.227 F 
HETATM    6  C8  UNL     1      -3.299  -0.739  -0.107  1.00  0.00     0.069 C 
HETATM    7  C9  UNL     1      -2.725  -1.760   0.890  1.00  0.00     0.081 C 
HETATM    8  S2  UNL     1      -1.207  -0.947   1.481  1.00  0.00    -0.128 SA
ENDROOT
BRANCH   1   9
HETATM    9  C2  UNL     1      -0.347   1.195   0.103  1.00  0.00     0.297 C 
HETATM   10  O2  UNL     1      -0.814   1.992  -0.751  1.00  0.00    -0.261 OA
BRANCH   9  11
HETATM   11  O1  UNL     1       0.256   1.786   1.205  1.00  0.00    -0.324 OA
HETATM   12  C1  UNL     1       0.338   3.189   1.351  1.00  0.00     0.213 C 
ENDBRANCH   9  11
ENDBRANCH   1   9
BRANCH   1  13
HETATM   13  C4  UNL     1       0.998  -0.885   0.025  1.00  0.00     0.063 C 
BRANCH  13  14
HETATM   14  C5  UNL     1       1.850  -0.391  -1.084  1.00  0.00     0.077 C 
BRANCH  14  15
HETATM   15  S1  UNL     1       3.518  -1.104  -1.040  1.00  0.00    -0.173 SA
HETATM   16  C6  UNL     1       4.441  -0.545   0.414  1.00  0.00     0.089 C 
ENDBRANCH  14  15
ENDBRANCH  13  14
ENDBRANCH   1  13
TORSDOF 5
