REMARK  7 active torsions:
REMARK  status: ('A' for Active; 'I' for Inactive)
REMARK    1  A    between atoms: C2_2  and  C4_5 
REMARK    2  A    between atoms: C4_5  and  C5_7 
REMARK    3  A    between atoms: C5_7  and  C6_8 
REMARK    4  A    between atoms: C6_8  and  O2_10 
REMARK    5  A    between atoms: O2_10  and  C7_11 
REMARK    6  A    between atoms: C7_11  and  C8_12 
REMARK    7  A    between atoms: C8_12  and  N1_13 
ROOT
HETATM    1  C8  UNL     1       3.533   0.452  -0.100  1.00  0.00     0.313 C 
HETATM    2  C9  UNL     1       4.287  -0.751   0.200  1.00  0.00     0.094 C 
HETATM    3  N2  UNL     1       4.875  -1.725   0.438  1.00  0.00    -0.195 NA
ENDROOT
BRANCH   1   4
HETATM    4  C7  UNL     1       2.323   0.132  -0.983  1.00  0.00     0.224 C 
BRANCH   4   5
HETATM    5  O2  UNL     1       1.408  -0.709  -0.350  1.00  0.00    -0.341 OA
BRANCH   5   6
HETATM    6  C6  UNL     1       0.753  -0.408   0.831  1.00  0.00     0.119 C 
HETATM    7  S1  UNL     1       1.551  -0.674   2.230  1.00  0.00    -0.057 SA
BRANCH   6   8
HETATM    8  C5  UNL     1      -0.613   0.133   0.809  1.00  0.00     0.157 C 
BRANCH   8   9
HETATM    9  C4  UNL     1      -1.578  -0.801   0.147  1.00  0.00     0.156 C 
HETATM   10  O1  UNL     1      -1.269  -1.866  -0.310  1.00  0.00    -0.295 OA
BRANCH   9  11
HETATM   11  C2  UNL     1      -3.001  -0.329   0.078  1.00  0.00     0.090 C 
HETATM   12  C1  UNL     1      -3.099   0.964  -0.694  1.00  0.00     0.041 C 
HETATM   13  C3  UNL     1      -3.889  -1.362  -0.576  1.00  0.00     0.041 C 
HETATM   14 CL1  UNL     1      -3.540  -0.101   1.757  1.00  0.00    -0.112 Cl
ENDBRANCH   9  11
ENDBRANCH   8   9
ENDBRANCH   6   8
ENDBRANCH   5   6
ENDBRANCH   4   5
ENDBRANCH   1   4
BRANCH   1  15
HETATM   15  N1  UNL     1       4.393   1.337  -0.900  1.00  0.00    -0.060 N 
ATOM     16  H13 UNL     1       4.643   0.949  -1.809  1.00  0.00     0.276 HD
ATOM     17  H12 UNL     1       3.912   2.166  -1.249  1.00  0.00     0.276 HD
ATOM     18  H11 UNL     1       5.199   1.550  -0.312  1.00  0.00     0.276 HD
ENDBRANCH   1  15
TORSDOF 7
