REMARK  4 active torsions:
REMARK  status: ('A' for Active; 'I' for Inactive)
REMARK    1  A    between atoms: O1_2  and  C2_3 
REMARK    2  A    between atoms: C2_3  and  C3_4 
REMARK    3  A    between atoms: C7_10  and  O2_11 
REMARK    4  A    between atoms: C10_15  and  O3_16 
ROOT
HETATM    1  C3  UNL     1       2.037  -0.367  -0.581  1.00  0.00     0.170 C 
HETATM    2  C4  UNL     1       1.521  -1.511  -1.451  1.00  0.00     0.154 C 
HETATM    3  N1  UNL     1       0.165  -1.834  -1.104  1.00  0.00    -0.385 N 
ATOM      4  H1  UNL     1      -0.195  -2.732  -1.428  1.00  0.00     0.159 HD
HETATM    5  C5  UNL     1      -0.708  -1.028  -0.361  1.00  0.00     0.067 A 
HETATM    6  C6  UNL     1      -1.961  -1.452   0.034  1.00  0.00     0.072 A 
HETATM    7  C7  UNL     1      -2.743  -0.604   0.753  1.00  0.00     0.112 A 
HETATM    8  C9  UNL     1      -2.340   0.686   1.116  1.00  0.00     0.185 A 
HETATM    9  F1  UNL     1      -3.154   1.503   1.836  1.00  0.00    -0.200 F 
HETATM   10  C10 UNL     1      -1.086   1.097   0.714  1.00  0.00     0.145 A 
HETATM   11  C12 UNL     1      -0.281   0.246  -0.016  1.00  0.00     0.132 A 
HETATM   12  O4  UNL     1       0.991   0.602  -0.450  1.00  0.00    -0.337 OA
ENDROOT
BRANCH   1  13
HETATM   13  C2  UNL     1       3.184   0.310  -1.243  1.00  0.00     0.201 C 
BRANCH  13  14
HETATM   14  O1  UNL     1       3.617   1.377  -0.501  1.00  0.00    -0.393 OA
HETATM   15  C1  UNL     1       4.048   1.047   0.772  1.00  0.00     0.201 C 
ENDBRANCH  13  14
ENDBRANCH   1  13
BRANCH  10  16
HETATM   16  O3  UNL     1      -0.610   2.343   1.024  1.00  0.00    -0.350 OA
HETATM   17  C11 UNL     1      -0.763   3.495   0.256  1.00  0.00     0.210 C 
ENDBRANCH  10  16
BRANCH   7  18
HETATM   18  O2  UNL     1      -4.000  -0.999   1.163  1.00  0.00    -0.353 OA
HETATM   19  C8  UNL     1      -4.492  -2.267   0.851  1.00  0.00     0.210 C 
ENDBRANCH   7  18
TORSDOF 4
