REMARK  2 active torsions:
REMARK  status: ('A' for Active; 'I' for Inactive)
REMARK    1  A    between atoms: O1_2  and  C2_3 
REMARK    2  A    between atoms: C7_9  and  O2_10 
ROOT
HETATM    1  C2  UNL     1       1.802  -0.419  -0.422  1.00  0.00     0.105 A 
HETATM    2  C3  UNL     1       0.859  -1.402  -0.186  1.00  0.00     0.056 A 
HETATM    3  C4  UNL     1      -0.494  -1.065  -0.123  1.00  0.00     0.030 A 
HETATM    4  C5  UNL     1      -0.940   0.225  -0.288  1.00  0.00     0.002 A 
HETATM    5  C6  UNL     1       0.032   1.202  -0.526  1.00  0.00     0.160 A 
HETATM    6  F1  UNL     1      -0.291   2.506  -0.704  1.00  0.00    -0.202 F 
HETATM    7  C7  UNL     1       1.363   0.855  -0.586  1.00  0.00     0.141 A 
HETATM    8  C9  UNL     1      -2.332   0.671  -0.239  1.00  0.00     0.026 C 
HETATM    9  C10 UNL     1      -2.617   1.529   0.985  1.00  0.00     0.015 C 
HETATM   10  C11 UNL     1      -3.347  -0.410  -0.310  1.00  0.00     0.096 C 
HETATM   11  C12 UNL     1      -2.894  -1.711   0.185  1.00  0.00     0.200 C 
HETATM   12  O3  UNL     1      -3.708  -2.519   0.671  1.00  0.00    -0.289 OA
HETATM   13  C13 UNL     1      -1.494  -2.094   0.125  1.00  0.00     0.228 C 
HETATM   14  O4  UNL     1      -1.100  -3.277   0.278  1.00  0.00    -0.284 OA
ENDROOT
BRANCH   1  15
HETATM   15  O1  UNL     1       3.150  -0.741  -0.488  1.00  0.00    -0.353 OA
HETATM   16  C1  UNL     1       3.630  -2.060  -0.321  1.00  0.00     0.210 C 
ENDBRANCH   1  15
BRANCH   7  17
HETATM   17  O2  UNL     1       2.324   1.844  -0.824  1.00  0.00    -0.350 OA
HETATM   18  C8  UNL     1       2.917   2.538   0.282  1.00  0.00     0.210 C 
ENDBRANCH   7  17
TORSDOF 2
