REMARK  2 active torsions:
REMARK  status: ('A' for Active; 'I' for Inactive)
REMARK    1  A    between atoms: C6_9  and  C7_10 
REMARK    2  A    between atoms: N1_13  and  C9_14 
ROOT
HETATM    1  C1  UNL     1       4.178   0.001   0.199  1.00  0.00     0.026 C 
HETATM    2  C2  UNL     1       2.948  -0.506   0.249  1.00  0.00     0.018 A 
HETATM    3  C3  UNL     1       2.749  -1.855   0.706  1.00  0.00     0.294 A 
HETATM    4  O1  UNL     1       3.715  -2.581   1.097  1.00  0.00    -0.259 OA
HETATM    5  O2  UNL     1       1.460  -2.348   0.707  1.00  0.00    -0.270 OA
HETATM    6  C4  UNL     1       0.367  -1.591   0.291  1.00  0.00     0.143 A 
HETATM    7  C5  UNL     1      -0.996  -1.912   0.211  1.00  0.00     0.182 A 
HETATM    8  F1  UNL     1      -1.473  -3.125   0.573  1.00  0.00    -0.200 F 
HETATM    9  C6  UNL     1      -1.649  -0.815  -0.270  1.00  0.00     0.122 A 
HETATM   10  N1  UNL     1      -0.730   0.143  -0.478  1.00  0.00    -0.342 N 
HETATM   11  C11 UNL     1       0.505  -0.305  -0.143  1.00  0.00     0.058 A 
HETATM   12  C12 UNL     1       1.834   0.348  -0.171  1.00  0.00     0.073 A 
HETATM   13  C13 UNL     1       1.824   1.591   0.725  1.00  0.00     0.022 C 
ENDROOT
BRANCH   9  14
HETATM   14  C7  UNL     1      -3.081  -0.770  -0.487  1.00  0.00     0.175 C 
HETATM   15  C8  UNL     1      -3.913  -1.954  -0.188  1.00  0.00     0.098 C 
HETATM   16  O3  UNL     1      -3.657   0.241  -0.922  1.00  0.00    -0.291 OA
ENDBRANCH   9  14
BRANCH  10  17
HETATM   17  C9  UNL     1      -1.013   1.445  -1.013  1.00  0.00     0.125 C 
HETATM   18  C10 UNL     1      -1.418   2.476  -0.019  1.00  0.00     0.027 C 
ENDBRANCH  10  17
TORSDOF 2
