REMARK  2 active torsions:
REMARK  status: ('A' for Active; 'I' for Inactive)
REMARK    1  A    between atoms: O1_2  and  C2_3 
REMARK    2  A    between atoms: C7_9  and  O2_10 
ROOT
HETATM    1  C2  UNL     1      -1.827  -0.276   0.441  1.00  0.00     0.105 A 
HETATM    2  C3  UNL     1      -0.973  -1.202  -0.112  1.00  0.00     0.056 A 
HETATM    3  C4  UNL     1       0.380  -0.869  -0.221  1.00  0.00     0.034 A 
HETATM    4  C5  UNL     1       0.857   0.344   0.209  1.00  0.00     0.070 A 
HETATM    5  C6  UNL     1      -0.021   1.264   0.764  1.00  0.00     0.167 A 
HETATM    6  F1  UNL     1       0.487   2.454   1.178  1.00  0.00    -0.202 F 
HETATM    7  C7  UNL     1      -1.361   0.943   0.875  1.00  0.00     0.141 A 
HETATM    8  C9  UNL     1       2.260   0.632   0.072  1.00  0.00     0.192 A 
HETATM    9  O3  UNL     1       2.704   1.752   0.468  1.00  0.00    -0.287 OA
HETATM   10  C10 UNL     1       3.217  -0.317  -0.510  1.00  0.00    -0.007 A 
HETATM   11  C11 UNL     1       4.656   0.039  -0.624  1.00  0.00     0.052 C 
HETATM   12  C12 UNL     1       2.722  -1.474  -0.912  1.00  0.00     0.066 A 
HETATM   13  C13 UNL     1       1.317  -1.830  -0.804  1.00  0.00     0.183 A 
HETATM   14  O4  UNL     1       0.899  -2.958  -1.208  1.00  0.00    -0.288 OA
ENDROOT
BRANCH   1  15
HETATM   15  O1  UNL     1      -3.158  -0.551   0.570  1.00  0.00    -0.353 OA
HETATM   16  C1  UNL     1      -3.719  -1.791   0.144  1.00  0.00     0.210 C 
ENDBRANCH   1  15
BRANCH   7  17
HETATM   17  O2  UNL     1      -2.198   1.895   1.436  1.00  0.00    -0.350 OA
HETATM   18  C8  UNL     1      -2.824   2.849   0.593  1.00  0.00     0.210 C 
ENDBRANCH   7  17
TORSDOF 2
