REMARK  2 active torsions:
REMARK  status: ('A' for Active; 'I' for Inactive)
REMARK    1  A    between atoms: O1_2  and  C2_3 
REMARK    2  A    between atoms: C9_12  and  N1_13 
ROOT
HETATM    1  C2  UNL     1       2.359  -0.239  -0.094  1.00  0.00     0.415 C 
HETATM    2  O2  UNL     1       1.869  -0.437   1.197  1.00  0.00    -0.315 OA
HETATM    3  C3  UNL     1       0.606   0.202   1.206  1.00  0.00     0.259 C 
HETATM    4 CL1  UNL     1      -0.480  -0.768   2.162  1.00  0.00    -0.092 Cl
HETATM    5  C4  UNL     1       0.241   0.352  -0.231  1.00  0.00     0.136 C 
HETATM    6  C5  UNL     1       0.403   1.774  -0.678  1.00  0.00     0.044 C 
HETATM    7  C6  UNL     1      -0.769   2.652  -0.431  1.00  0.00     0.003 C 
HETATM    8  C7  UNL     1      -1.874   2.047   0.369  1.00  0.00     0.002 C 
HETATM    9  C8  UNL     1      -2.254   0.691  -0.112  1.00  0.00     0.039 C 
HETATM   10  C9  UNL     1      -1.111  -0.154  -0.601  1.00  0.00     0.260 C 
HETATM   11  O3  UNL     1       1.210  -0.390  -0.896  1.00  0.00    -0.322 OA
ENDROOT
BRANCH  10  12
HETATM   12  N1  UNL     1      -1.373  -1.509  -0.246  1.00  0.00     0.087 N 
HETATM   13  C10 UNL     1      -0.555  -2.499  -0.864  1.00  0.00     0.310 C 
HETATM   14  C11 UNL     1      -2.765  -1.827  -0.489  1.00  0.00     0.310 C 
ENDBRANCH  10  12
BRANCH   1  15
HETATM   15  O1  UNL     1       3.296  -1.223  -0.341  1.00  0.00    -0.344 OA
HETATM   16  C1  UNL     1       4.565  -0.685  -0.655  1.00  0.00     0.207 C 
ENDBRANCH   1  15
TORSDOF 2
