REMARK  2 active torsions:
REMARK  status: ('A' for Active; 'I' for Inactive)
REMARK    1  A    between atoms: O1_2  and  C2_3 
REMARK    2  A    between atoms: C8_12  and  N2_13 
ROOT
HETATM    1  C2  UNL     1       2.522  -0.654   0.096  1.00  0.00     0.072 A 
HETATM    2  C3  UNL     1       2.115  -1.578   1.039  1.00  0.00     0.081 A 
HETATM    3  C4  UNL     1       0.779  -1.618   1.363  1.00  0.00     0.146 A 
HETATM    4  F1  UNL     1       0.303  -2.502   2.286  1.00  0.00    -0.204 F 
HETATM    5  C5  UNL     1      -0.166  -0.770   0.782  1.00  0.00     0.086 A 
HETATM    6  N1  UNL     1      -1.464  -0.862   1.149  1.00  0.00    -0.354 N 
ATOM      7  H1  UNL     1      -1.767  -1.542   1.846  1.00  0.00     0.166 HD
HETATM    8  C6  UNL     1      -2.347  -0.025   0.563  1.00  0.00     0.043 A 
HETATM    9  C7  UNL     1      -3.771  -0.084   0.935  1.00  0.00     0.071 C 
HETATM   10  C8  UNL     1      -1.929   0.891  -0.376  1.00  0.00     0.175 A 
HETATM   11  C9  UNL     1      -0.604   0.996  -0.761  1.00  0.00     0.219 A 
HETATM   12  O4  UNL     1      -0.249   1.831  -1.613  1.00  0.00    -0.285 OA
HETATM   13  C10 UNL     1       0.298   0.123  -0.146  1.00  0.00     0.049 A 
HETATM   14  C11 UNL     1       1.631   0.209  -0.511  1.00  0.00     0.054 A 
ENDROOT
BRANCH  10  15
HETATM   15  N2  UNL     1      -2.886   1.746  -0.968  1.00  0.00    -0.110 N 
HETATM   16  O2  UNL     1      -3.298   2.729  -0.353  1.00  0.00    -0.532 OA
HETATM   17  O3  UNL     1      -3.350   1.492  -2.225  1.00  0.00    -0.532 OA
ENDBRANCH  10  15
BRANCH   1  18
HETATM   18  O1  UNL     1       3.863  -0.615  -0.223  1.00  0.00    -0.356 OA
HETATM   19  C1  UNL     1       4.374   0.292  -1.170  1.00  0.00     0.210 C 
ENDBRANCH   1  18
TORSDOF 2
