REMARK  13 active torsions:
REMARK  status: ('A' for Active; 'I' for Inactive)
REMARK    1  A    between atoms: O1_2  and  C2_3 
REMARK    2  A    between atoms: C2_3  and  C3_5 
REMARK    3  A    between atoms: C3_5  and  C4_6 
REMARK    4  A    between atoms: C4_6  and  N1_7 
REMARK    5  A    between atoms: C4_6  and  C15_43 
REMARK    6  A    between atoms: N1_7  and  C5_9 
REMARK    7  A    between atoms: C5_9  and  O3_10 
REMARK    8  A    between atoms: C5_9  and  C6_12 
REMARK    9  A    between atoms: C7_13  and  N2_14 
REMARK   10  A    between atoms: N3_16  and  C8_18 
REMARK   11  A    between atoms: C9_21  and  N5_22 
REMARK   12  A    between atoms: C10_27  and  N7_28 
REMARK   13  A    between atoms: N8_31  and  N9_32 
ROOT
HETATM    1  C6  UNL     1       0.151  -0.829  -1.733  1.00  0.00     0.128 A 
HETATM    2  C7  UNL     1      -1.252  -0.887  -1.711  1.00  0.00     0.142 A 
HETATM    3  N10 UNL     1      -1.935  -1.414  -2.731  1.00  0.00    -0.330 N 
ATOM      4  H10 UNL     1      -2.953  -1.436  -2.675  1.00  0.00     0.168 HD
HETATM    5  C11 UNL     1      -1.350  -1.910  -3.814  1.00  0.00     0.083 A 
HETATM    6  C12 UNL     1      -2.152  -2.480  -4.907  1.00  0.00     0.089 C 
HETATM    7  N11 UNL     1      -0.029  -1.882  -3.890  1.00  0.00    -0.307 N 
HETATM    8  C13 UNL     1       0.665  -2.404  -5.046  1.00  0.00     0.161 C 
HETATM    9  C14 UNL     1       0.721  -1.353  -2.874  1.00  0.00     0.267 A 
HETATM   10  O4  UNL     1       1.955  -1.362  -3.018  1.00  0.00    -0.267 OA
ENDROOT
BRANCH   2  11
HETATM   11  N2  UNL     1      -1.944  -0.368  -0.570  1.00  0.00    -0.270 N 
HETATM   12  N3  UNL     1      -2.826   0.535  -0.712  1.00  0.00    -0.128 N 
ATOM     13  H3  UNL     1      -3.029   0.881  -1.650  1.00  0.00     0.205 HD
ATOM     14  H2  UNL     1      -1.728  -0.725   0.361  1.00  0.00     0.189 HD
BRANCH  12  15
HETATM   15  C8  UNL     1      -3.537   1.079   0.384  1.00  0.00     0.747 A 
HETATM   16  N4  UNL     1      -4.152   2.279   0.298  1.00  0.00    -0.018 N 
HETATM   17  C9  UNL     1      -4.834   2.788   1.363  1.00  0.00     0.705 A 
ATOM     18  H4  UNL     1      -4.106   2.809  -0.572  1.00  0.00     0.203 HD
HETATM   19  N6  UNL     1      -4.904   2.106   2.508  1.00  0.00    -0.020 N 
HETATM   20  C10 UNL     1      -4.295   0.911   2.602  1.00  0.00     0.726 A 
ATOM     21  H6  UNL     1      -5.415   2.488   3.304  1.00  0.00     0.203 HD
HETATM   22  N8  UNL     1      -3.613   0.403   1.536  1.00  0.00     0.085 N 
BRANCH  17  23
HETATM   23  N5  UNL     1      -5.406   3.927   1.245  1.00  0.00    -0.234 N 
ATOM     24  H52 UNL     1      -5.352   4.448   0.370  1.00  0.00     0.174 HD
ATOM     25  H51 UNL     1      -5.916   4.308   2.042  1.00  0.00     0.174 HD
ENDBRANCH  17  23
BRANCH  20  26
HETATM   26  N7  UNL     1      -4.394   0.297   3.728  1.00  0.00    -0.232 N 
ATOM     27  H72 UNL     1      -4.904   0.677   4.525  1.00  0.00     0.174 HD
ATOM     28  H71 UNL     1      -3.932  -0.610   3.799  1.00  0.00     0.174 HD
ENDBRANCH  20  26
BRANCH  22  29
HETATM   29  N9  UNL     1      -3.016  -0.838   1.723  1.00  0.00    -0.309 N 
ATOM     30  H92 UNL     1      -2.506  -1.218   0.926  1.00  0.00     0.178 HD
ATOM     31  H91 UNL     1      -3.074  -1.353   2.601  1.00  0.00     0.178 HD
ENDBRANCH  22  29
ENDBRANCH  12  15
ENDBRANCH   2  11
BRANCH   1  32
HETATM   32  C5  UNL     1       0.886  -0.262  -0.624  1.00  0.00     0.156 C 
BRANCH  32  33
HETATM   33  N1  UNL     1       2.266  -0.097  -0.516  1.00  0.00    -0.355 N 
ATOM     34  H1  UNL     1       2.852  -0.399  -1.294  1.00  0.00     0.162 HD
BRANCH  33  35
HETATM   35  C4  UNL     1       2.915   0.487   0.656  1.00  0.00     0.194 C 
BRANCH  35  36
HETATM   36  C3  UNL     1       3.759  -0.519   1.372  1.00  0.00     0.147 C 
BRANCH  36  37
HETATM   37  C2  UNL     1       4.411   0.086   2.528  1.00  0.00     0.260 C 
HETATM   38  O2  UNL     1       5.680   0.209   2.515  1.00  0.00    -0.265 OA
BRANCH  37  39
HETATM   39  O1  UNL     1       3.783   0.556   3.673  1.00  0.00    -0.326 OA
HETATM   40  C1  UNL     1       4.553   1.124   4.725  1.00  0.00     0.213 C 
ENDBRANCH  37  39
ENDBRANCH  36  37
ENDBRANCH  35  36
BRANCH  35  41
HETATM   41  C15 UNL     1       3.698   1.675   0.333  1.00  0.00     0.197 C 
HETATM   42  O5  UNL     1       3.772   2.106  -0.876  1.00  0.00    -0.646 OA
HETATM   43  O6  UNL     1       4.402   2.413   1.260  1.00  0.00    -0.646 OA
ENDBRANCH  35  41
ENDBRANCH  33  35
ENDBRANCH  32  33
BRANCH  32  44
HETATM   44  O3  UNL     1       0.129   0.124   0.362  1.00  0.00    -0.345 OA
ATOM     45  H3  UNL     1      -0.811   0.012   0.288  1.00  0.00     0.219 HD
ENDBRANCH  32  44
ENDBRANCH   1  32
TORSDOF 13
