REMARK  12 active torsions:
REMARK  status: ('A' for Active; 'I' for Inactive)
REMARK    1  A    between atoms: N1_2  and  C2_4 
REMARK    2  A    between atoms: C3_5  and  O1_6 
REMARK    3  A    between atoms: C6_11  and  O3_12 
REMARK    4  A    between atoms: O3_12  and  C7_13 
REMARK    5  A    between atoms: C9_17  and  C10_18 
REMARK    6  A    between atoms: N2_19  and  O6_21 
REMARK    7  A    between atoms: C11_23  and  O7_24 
REMARK    8  A    between atoms: C13_26  and  O8_27 
REMARK    9  A    between atoms: O8_27  and  C14_28 
REMARK   10  A    between atoms: C15_30  and  O10_31 
REMARK   11  A    between atoms: C16_33  and  O11_34 
REMARK   12  A    between atoms: C17_36  and  O12_37 
ROOT
HETATM    1  C2  UNL     1      -2.149  -2.262  -0.223  1.00  0.00     0.145 C 
HETATM    2  C3  UNL     1      -1.208  -3.312   0.320  1.00  0.00     0.172 C 
HETATM    3  C4  UNL     1      -0.458  -2.866   1.535  1.00  0.00     0.151 C 
HETATM    4  C5  UNL     1       0.505  -3.966   1.917  1.00  0.00     0.042 C 
HETATM    5  O2  UNL     1       0.159  -1.633   1.390  1.00  0.00    -0.351 OA
HETATM    6  C6  UNL     1       0.061  -1.127   0.102  1.00  0.00     0.294 C 
HETATM    7  C13 UNL     1      -1.372  -0.975  -0.350  1.00  0.00     0.205 C 
ENDROOT
BRANCH   6   8
HETATM    8  O3  UNL     1       0.624   0.143   0.115  1.00  0.00    -0.326 OA
BRANCH   8   9
HETATM    9  C7  UNL     1       1.664   0.219  -0.764  1.00  0.00     0.297 C 
HETATM   10  O4  UNL     1       1.402   1.246  -1.666  1.00  0.00    -0.334 OA
HETATM   11  C8  UNL     1       2.552   1.484  -2.398  1.00  0.00     0.342 C 
HETATM   12  O5  UNL     1       3.437   0.414  -2.396  1.00  0.00    -0.354 OA
HETATM   13  C9  UNL     1       4.058   0.246  -1.163  1.00  0.00     0.198 C 
HETATM   14  C11 UNL     1       2.991   0.539  -0.105  1.00  0.00     0.210 C 
BRANCH  13  15
HETATM   15  C10 UNL     1       5.225   1.123  -1.026  1.00  0.00     0.121 C 
HETATM   16  N2  UNL     1       6.303   0.648  -0.525  1.00  0.00    -0.282 N 
ATOM     17  H2  UNL     1       6.291  -0.332  -0.243  1.00  0.00     0.193 HD
BRANCH  16  18
HETATM   18  O6  UNL     1       7.458   1.330  -0.335  1.00  0.00    -0.290 OA
ATOM     19  H6  UNL     1       8.258   0.977   0.037  1.00  0.00     0.244 HD
ENDBRANCH  16  18
ENDBRANCH  13  15
BRANCH  14  20
HETATM   20  O7  UNL     1       3.076   1.865   0.283  1.00  0.00    -0.383 OA
HETATM   21  C12 UNL     1       3.368   1.946   1.658  1.00  0.00     0.202 C 
ENDBRANCH  14  20
ENDBRANCH   8   9
ENDBRANCH   6   8
BRANCH   7  22
HETATM   22  O8  UNL     1      -2.065   0.002   0.327  1.00  0.00    -0.346 OA
BRANCH  22  23
HETATM   23  C14 UNL     1      -2.532   1.000  -0.534  1.00  0.00     0.295 C 
HETATM   24  O9  UNL     1      -3.906   1.029  -0.569  1.00  0.00    -0.326 OA
HETATM   25  C15 UNL     1      -4.361   2.242  -0.124  1.00  0.00     0.291 C 
HETATM   26  C16 UNL     1      -3.249   3.257  -0.337  1.00  0.00     0.206 C 
HETATM   27  C17 UNL     1      -2.029   2.370  -0.186  1.00  0.00     0.207 C 
BRANCH  25  28
HETATM   28  O10 UNL     1      -5.507   2.580  -0.840  1.00  0.00    -0.368 OA
ATOM     29  H10 UNL     1      -5.823   3.421  -0.531  1.00  0.00     0.212 HD
ENDBRANCH  25  28
BRANCH  26  30
HETATM   30  O11 UNL     1      -3.381   3.741  -1.631  1.00  0.00    -0.388 OA
ATOM     31  H11 UNL     1      -2.686   4.375  -1.764  1.00  0.00     0.210 HD
ENDBRANCH  26  30
BRANCH  27  32
HETATM   32  O12 UNL     1      -1.620   2.472   1.151  1.00  0.00    -0.388 OA
ATOM     33  H12 UNL     1      -1.302   3.339   1.371  1.00  0.00     0.210 HD
ENDBRANCH  27  32
ENDBRANCH  22  23
ENDBRANCH   7  22
BRANCH   1  34
HETATM   34  N1  UNL     1      -3.243  -2.148   0.685  1.00  0.00    -0.398 N 
HETATM   35  C1  UNL     1      -4.255  -2.919   0.541  1.00  0.00     0.112 C 
ATOM     36  H1  UNL     1      -3.219  -1.461   1.439  1.00  0.00     0.158 HD
ENDBRANCH   1  34
BRANCH   2  37
HETATM   37  O1  UNL     1      -2.003  -4.408   0.692  1.00  0.00    -0.391 OA
ATOM     38  H1  UNL     1      -1.411  -5.068   1.033  1.00  0.00     0.210 HD
ENDBRANCH   2  37
TORSDOF 12
