REMARK  12 active torsions:
REMARK  status: ('A' for Active; 'I' for Inactive)
REMARK    1  A    between atoms: O1_2  and  N1_3 
REMARK    2  A    between atoms: N3_12  and  C7_13 
REMARK    3  A    between atoms: C7_13  and  N4_14 
REMARK    4  A    between atoms: C7_13  and  C11_25 
REMARK    5  A    between atoms: N4_14  and  O3_15 
REMARK    6  A    between atoms: O3_15  and  C8_16 
REMARK    7  A    between atoms: C8_16  and  O4_17 
REMARK    8  A    between atoms: C8_16  and  C9_19 
REMARK    9  A    between atoms: C9_19  and  O5_20 
REMARK   10  A    between atoms: C9_19  and  C10_22 
REMARK   11  A    between atoms: C10_22  and  O6_23 
REMARK   12  A    between atoms: C15_32  and  N6_33 
ROOT
HETATM    1  C7  UNL     1       0.176   0.341  -0.405  1.00  0.00     0.264 C 
ENDROOT
BRANCH   1   2
HETATM    2  N3  UNL     1       0.028   1.137  -1.608  1.00  0.00    -0.076 N 
HETATM    3  C2  UNL     1      -0.938   2.040  -1.709  1.00  0.00     0.715 A 
HETATM    4  N1  UNL     1      -1.835   2.297  -0.816  1.00  0.00    -0.096 N 
HETATM    5  N2  UNL     1      -0.984   2.777  -2.876  1.00  0.00    -0.195 N 
ATOM      6  H1  UNL     1      -2.527   3.021  -1.009  1.00  0.00     0.213 HD
HETATM    7  C3  UNL     1      -2.018   3.770  -3.029  1.00  0.00     0.175 C 
HETATM    8  C4  UNL     1      -0.105   2.602  -3.865  1.00  0.00     0.114 A 
HETATM    9  C5  UNL     1       0.892   1.663  -3.748  1.00  0.00     0.093 A 
HETATM   10  C6  UNL     1       0.927   0.941  -2.591  1.00  0.00     0.270 A 
HETATM   11  O2  UNL     1       1.822   0.063  -2.427  1.00  0.00    -0.267 OA
BRANCH   4  12
HETATM   12  O1  UNL     1      -1.890   1.647   0.354  1.00  0.00    -0.271 OA
HETATM   13  C1  UNL     1      -2.506   2.057   1.538  1.00  0.00     0.238 C 
ENDBRANCH   4  12
ENDBRANCH   1   2
BRANCH   1  14
HETATM   14  N4  UNL     1       0.923   0.766   0.454  1.00  0.00    -0.256 NA
BRANCH  14  15
HETATM   15  O3  UNL     1       1.618   1.041   1.392  1.00  0.00    -0.172 OA
BRANCH  15  16
HETATM   16  C8  UNL     1       2.595   0.576   2.264  1.00  0.00     0.332 C 
BRANCH  16  17
HETATM   17  O4  UNL     1       2.268   0.677   3.594  1.00  0.00    -0.366 OA
ATOM     18  H4  UNL     1       2.936   0.359   4.190  1.00  0.00     0.212 HD
ENDBRANCH  16  17
BRANCH  16  19
HETATM   19  C9  UNL     1       3.864   1.397   1.973  1.00  0.00     0.200 C 
BRANCH  19  20
HETATM   20  O5  UNL     1       4.244   1.201   0.644  1.00  0.00    -0.388 OA
ATOM     21  H5  UNL     1       5.027   1.708   0.464  1.00  0.00     0.210 HD
ENDBRANCH  19  20
BRANCH  19  22
HETATM   22  C10 UNL     1       4.983   1.013   2.922  1.00  0.00     0.201 C 
BRANCH  22  23
HETATM   23  O6  UNL     1       4.491   1.253   4.222  1.00  0.00    -0.398 OA
ATOM     24  H6  UNL     1       5.192   1.012   4.816  1.00  0.00     0.209 HD
ENDBRANCH  22  23
ENDBRANCH  19  22
ENDBRANCH  16  19
ENDBRANCH  15  16
ENDBRANCH  14  15
ENDBRANCH   1  14
BRANCH   1  25
HETATM   25  C11 UNL     1      -0.502  -0.940  -0.210  1.00  0.00     0.099 A 
HETATM   26  C12 UNL     1      -0.282  -1.725   0.936  1.00  0.00     0.056 A 
HETATM   27  C13 UNL     1      -1.046  -2.869   0.876  1.00  0.00     0.080 A 
HETATM   28  C14 UNL     1      -1.240  -3.966   1.676  1.00  0.00     0.273 A 
HETATM   29  C16 UNL     1      -1.729  -2.788  -0.295  1.00  0.00     0.139 A 
HETATM   30  O7  UNL     1      -0.589  -4.013   2.763  1.00  0.00    -0.267 OA
HETATM   31  N5  UNL     1      -2.071  -4.967   1.366  1.00  0.00    -0.156 N 
HETATM   32  C15 UNL     1      -2.742  -4.878   0.204  1.00  0.00     0.680 A 
ATOM     33  H5  UNL     1      -2.191  -5.767   1.987  1.00  0.00     0.187 HD
HETATM   34  N7  UNL     1      -2.561  -3.805  -0.592  1.00  0.00    -0.176 N 
ATOM     35  H7  UNL     1      -3.083  -3.761  -1.467  1.00  0.00     0.186 HD
HETATM   36  N8  UNL     1      -1.381  -1.628  -0.913  1.00  0.00    -0.332 N 
HETATM   37  C17 UNL     1      -1.954  -1.254  -2.178  1.00  0.00     0.158 C 
BRANCH  32  38
HETATM   38  N6  UNL     1      -3.555  -5.820  -0.138  1.00  0.00    -0.234 N 
ATOM     39  H62 UNL     1      -3.692  -6.632   0.464  1.00  0.00     0.174 HD
ATOM     40  H61 UNL     1      -4.064  -5.752  -1.019  1.00  0.00     0.174 HD
ENDBRANCH  32  38
ENDBRANCH   1  25
TORSDOF 12
