REMARK  10 active torsions:
REMARK  status: ('A' for Active; 'I' for Inactive)
REMARK    1  A    between atoms: O1_2  and  C2_3 
REMARK    2  A    between atoms: C3_5  and  C4_6 
REMARK    3  A    between atoms: C4_6  and  O3_7 
REMARK    4  A    between atoms: C5_9  and  O4_10 
REMARK    5  A    between atoms: O4_10  and  C6_11 
REMARK    6  A    between atoms: C8_17  and  O5_18 
REMARK    7  A    between atoms: O5_18  and  C9_19 
REMARK    8  A    between atoms: C9_19  and  N3_22 
REMARK       I    between atoms: N3_22  and  C12_24 
REMARK    9  A    between atoms: C12_24  and  C13_26 
REMARK   10  A    between atoms: C16_30  and  C17_31 
ROOT
HETATM    1  O5  UNL     1      -0.245   0.298  -0.132  1.00  0.00    -0.351 OA
ENDROOT
BRANCH   1   2
HETATM    2  C8  UNL     1      -1.586   0.125   0.126  1.00  0.00     0.182 C 
HETATM    3  C2  UNL     1      -2.059  -1.298  -0.104  1.00  0.00     0.288 C 
HETATM    4  O2  UNL     1      -3.271  -1.463   0.528  1.00  0.00    -0.349 OA
HETATM    5  C3  UNL     1      -4.065  -0.348   0.566  1.00  0.00     0.177 C 
HETATM    6  C5  UNL     1      -3.870   0.582  -0.603  1.00  0.00     0.165 C 
HETATM    7  C7  UNL     1      -2.447   0.978  -0.820  1.00  0.00     0.072 C 
BRANCH   3   8
HETATM    8  O1  UNL     1      -2.252  -1.550  -1.462  1.00  0.00    -0.363 OA
HETATM    9  C1  UNL     1      -1.525  -2.656  -1.892  1.00  0.00     0.204 C 
ENDBRANCH   3   8
BRANCH   5  10
HETATM   10  C4  UNL     1      -5.518  -0.841   0.470  1.00  0.00     0.198 C 
BRANCH  10  11
HETATM   11  O3  UNL     1      -5.685  -1.539  -0.735  1.00  0.00    -0.398 OA
ATOM     12  H3  UNL     1      -6.583  -1.844  -0.794  1.00  0.00     0.209 HD
ENDBRANCH  10  11
ENDBRANCH   5  10
BRANCH   6  13
HETATM   13  O4  UNL     1      -4.775   1.641  -0.523  1.00  0.00    -0.317 OA
BRANCH  13  14
HETATM   14  C6  UNL     1      -4.846   2.541   0.526  1.00  0.00     0.225 C 
HETATM   15  N1  UNL     1      -3.795   2.691   1.247  1.00  0.00    -0.368 N 
ATOM     16  H12 UNL     1      -2.942   2.166   1.052  1.00  0.00     0.159 HD
ATOM     17  H11 UNL     1      -3.847   3.354   2.020  1.00  0.00     0.159 HD
HETATM   18  N2  UNL     1      -6.049   3.281   0.801  1.00  0.00    -0.057 NA
ENDBRANCH  13  14
ENDBRANCH   6  13
ENDBRANCH   1   2
BRANCH   1  19
HETATM   19  C9  UNL     1       0.508   0.732   0.937  1.00  0.00     0.129 C 
HETATM   20  C10 UNL     1      -0.050   2.073   1.377  1.00  0.00     0.070 C 
HETATM   21  C11 UNL     1       0.493  -0.228   2.111  1.00  0.00     0.070 C 
BRANCH  19  22
HETATM   22  N3  UNL     1       1.872   0.888   0.496  1.00  0.00    -0.328 N 
HETATM   23  C12 UNL     1       2.612  -0.231   0.030  1.00  0.00     0.243 C 
HETATM   24  O6  UNL     1       2.042  -1.349   0.016  1.00  0.00    -0.271 OA
ATOM     25  H3  UNL     1       2.309   1.809   0.519  1.00  0.00     0.165 HD
BRANCH  23  26
HETATM   26  C13 UNL     1       4.019  -0.118  -0.433  1.00  0.00     0.179 C 
HETATM   27  C14 UNL     1       4.067   0.906  -1.548  1.00  0.00     0.108 C 
HETATM   28  S1  UNL     1       5.626   0.567  -2.454  1.00  0.00    -0.164 SA
HETATM   29  C15 UNL     1       6.675  -0.373  -1.294  1.00  0.00     0.109 C 
HETATM   30  C16 UNL     1       5.892  -1.585  -0.859  1.00  0.00     0.188 C 
HETATM   31  N4  UNL     1       4.480  -1.404  -0.834  1.00  0.00    -0.395 N 
ATOM     32  H4  UNL     1       3.836  -2.153  -1.089  1.00  0.00     0.155 HD
BRANCH  30  33
HETATM   33  C17 UNL     1       6.468  -2.075   0.395  1.00  0.00     0.197 C 
HETATM   34  O7  UNL     1       5.797  -2.326   1.428  1.00  0.00    -0.646 OA
HETATM   35  O8  UNL     1       7.838  -2.281   0.463  1.00  0.00    -0.646 OA
ENDBRANCH  30  33
ENDBRANCH  23  26
ENDBRANCH  19  22
ENDBRANCH   1  19
TORSDOF 10
