REMARK  13 active torsions:
REMARK  status: ('A' for Active; 'I' for Inactive)
REMARK       I    between atoms: C2_2  and  N1_4 
REMARK    1  A    between atoms: N1_4  and  C3_6 
REMARK    2  A    between atoms: C4_7  and  O2_8 
REMARK    3  A    between atoms: O2_8  and  C5_9 
REMARK    4  A    between atoms: C5_9  and  C6_10 
REMARK    5  A    between atoms: C6_10  and  O3_11 
REMARK    6  A    between atoms: C10_16  and  N2_17 
REMARK    7  A    between atoms: C11_21  and  O4_22 
REMARK    8  A    between atoms: O4_22  and  C12_23 
REMARK    9  A    between atoms: C13_25  and  C14_26 
REMARK   10  A    between atoms: N3_27  and  C15_29 
REMARK   11  A    between atoms: C19_33  and  O6_34 
REMARK   12  A    between atoms: C20_36  and  N4_37 
REMARK   13  A    between atoms: C21_41  and  O7_42 
ROOT
HETATM    1  O4  UNL     1      -0.866  -1.760   0.473  1.00  0.00    -0.349 OA
ENDROOT
BRANCH   1   2
HETATM    2  C11 UNL     1      -1.599  -1.003  -0.457  1.00  0.00     0.180 C 
HETATM    3  C3  UNL     1      -2.309   0.039   0.325  1.00  0.00     0.144 C 
HETATM    4  C4  UNL     1      -3.676   0.452  -0.027  1.00  0.00     0.150 C 
HETATM    5  C7  UNL     1      -4.504  -0.623  -0.749  1.00  0.00     0.015 C 
HETATM    6  C8  UNL     1      -5.036  -1.637   0.203  1.00  0.00     0.012 C 
HETATM    7  C9  UNL     1      -3.657  -1.150  -1.852  1.00  0.00     0.042 C 
HETATM    8  C10 UNL     1      -2.422  -1.840  -1.353  1.00  0.00     0.215 C 
BRANCH   3   9
HETATM    9  N1  UNL     1      -1.497   1.233   0.450  1.00  0.00    -0.352 N 
HETATM   10  C2  UNL     1      -0.963   2.005  -0.586  1.00  0.00     0.214 C 
HETATM   11  C1  UNL     1      -0.129   3.223  -0.303  1.00  0.00     0.117 C 
HETATM   12  O1  UNL     1      -1.160   1.710  -1.785  1.00  0.00    -0.274 OA
ATOM     13  H1  UNL     1      -1.292   1.545   1.399  1.00  0.00     0.163 HD
ENDBRANCH   3   9
BRANCH   4  14
HETATM   14  O2  UNL     1      -3.806   1.596  -0.736  1.00  0.00    -0.381 OA
BRANCH  14  15
HETATM   15  C5  UNL     1      -4.595   2.565  -0.233  1.00  0.00     0.194 C 
BRANCH  15  16
HETATM   16  C6  UNL     1      -4.279   3.237   1.045  1.00  0.00     0.190 C 
BRANCH  16  17
HETATM   17  O3  UNL     1      -4.218   2.474   2.188  1.00  0.00    -0.399 OA
ATOM     18  H3  UNL     1      -4.015   2.906   3.009  1.00  0.00     0.209 HD
ENDBRANCH  16  17
ENDBRANCH  15  16
ENDBRANCH  14  15
ENDBRANCH   4  14
BRANCH   8  19
HETATM   19  N2  UNL     1      -2.879  -3.063  -0.684  1.00  0.00    -0.072 N 
ATOM     20  H23 UNL     1      -3.571  -2.892   0.045  1.00  0.00     0.274 HD
ATOM     21  H22 UNL     1      -3.464  -3.654  -1.275  1.00  0.00     0.274 HD
ATOM     22  H21 UNL     1      -2.039  -3.532  -0.345  1.00  0.00     0.274 HD
ENDBRANCH   8  19
ENDBRANCH   1   2
BRANCH   1  23
HETATM   23  C12 UNL     1       0.506  -1.637   0.351  1.00  0.00     0.292 C 
HETATM   24  O5  UNL     1       1.114  -1.100   1.438  1.00  0.00    -0.345 OA
HETATM   25  C13 UNL     1       2.461  -1.181   1.563  1.00  0.00     0.193 C 
HETATM   26  C19 UNL     1       3.067  -2.503   1.153  1.00  0.00     0.185 C 
HETATM   27  C20 UNL     1       2.555  -2.994  -0.166  1.00  0.00     0.248 C 
HETATM   28  C21 UNL     1       1.046  -2.975  -0.092  1.00  0.00     0.206 C 
BRANCH  25  29
HETATM   29  C14 UNL     1       3.075  -0.139   0.703  1.00  0.00     0.090 C 
HETATM   30  N3  UNL     1       4.130   0.470   1.001  1.00  0.00    -0.392 N 
ATOM     31  H3  UNL     1       4.574   0.221   1.885  1.00  0.00     0.159 HD
BRANCH  30  32
HETATM   32  C15 UNL     1       4.757   1.465   0.228  1.00  0.00     0.018 C 
HETATM   33  C16 UNL     1       4.267   1.583  -1.175  1.00  0.00     0.037 C 
HETATM   34  C17 UNL     1       4.500   2.819   0.907  1.00  0.00     0.037 C 
HETATM   35  C18 UNL     1       6.282   1.314   0.212  1.00  0.00     0.037 C 
ENDBRANCH  30  32
ENDBRANCH  25  29
BRANCH  26  36
HETATM   36  O6  UNL     1       4.438  -2.478   1.116  1.00  0.00    -0.390 OA
ATOM     37  H6  UNL     1       4.819  -3.309   0.858  1.00  0.00     0.210 HD
ENDBRANCH  26  36
BRANCH  27  38
HETATM   38  N4  UNL     1       3.089  -2.294  -1.288  1.00  0.00    -0.070 N 
ATOM     39  H43 UNL     1       2.932  -1.291  -1.193  1.00  0.00     0.274 HD
ATOM     40  H42 UNL     1       4.109  -2.311  -1.270  1.00  0.00     0.274 HD
ATOM     41  H41 UNL     1       2.740  -2.628  -2.186  1.00  0.00     0.274 HD
ENDBRANCH  27  38
BRANCH  28  42
HETATM   42  O7  UNL     1       0.583  -3.349  -1.342  1.00  0.00    -0.388 OA
ATOM     43  H7  UNL     1       0.923  -4.191  -1.621  1.00  0.00     0.210 HD
ENDBRANCH  28  42
ENDBRANCH   1  23
TORSDOF 13
