REMARK  16 active torsions:
REMARK  status: ('A' for Active; 'I' for Inactive)
REMARK    1  A    between atoms: C9_9  and  C10_10 
REMARK    2  A    between atoms: C10_10  and  C11_11 
REMARK    3  A    between atoms: C11_11  and  N1_14 
REMARK       I    between atoms: N1_14  and  C14_16 
REMARK    4  A    between atoms: C14_16  and  C15_18 
REMARK    5  A    between atoms: C15_18  and  C16_19 
REMARK    6  A    between atoms: C16_19  and  C17_20 
REMARK    7  A    between atoms: C17_20  and  C18_21 
REMARK    8  A    between atoms: C18_21  and  C19_22 
REMARK    9  A    between atoms: C19_22  and  C20_23 
REMARK   10  A    between atoms: C20_23  and  C21_24 
REMARK   11  A    between atoms: C21_24  and  C22_25 
REMARK   12  A    between atoms: C22_25  and  O3_27 
REMARK   13  A    between atoms: O3_27  and  C23_28 
REMARK   14  A    between atoms: C27_32  and  O4_33 
REMARK   15  A    between atoms: C29_36  and  O5_37 
REMARK   16  A    between atoms: C30_41  and  O6_42 
ROOT
HETATM    1  C20 UNL     1       1.881   2.189   2.127  1.00  0.00     0.010 C 
ENDROOT
BRANCH   1   2
HETATM    2  C19 UNL     1       1.180   0.868   2.191  1.00  0.00     0.000 C 
BRANCH   2   3
HETATM    3  C18 UNL     1       0.543   0.498   0.860  1.00  0.00     0.000 C 
BRANCH   3   4
HETATM    4  C17 UNL     1      -0.479   1.536   0.443  1.00  0.00     0.000 C 
BRANCH   4   5
HETATM    5  C16 UNL     1      -1.123   1.198  -0.864  1.00  0.00     0.009 C 
BRANCH   5   6
HETATM    6  C15 UNL     1      -1.859  -0.086  -0.925  1.00  0.00     0.103 C 
BRANCH   6   7
HETATM    7  C14 UNL     1      -3.006  -0.232  -0.024  1.00  0.00     0.218 C 
HETATM    8  N1  UNL     1      -3.755  -1.442   0.069  1.00  0.00    -0.353 N 
ATOM      9  H1  UNL     1      -3.450  -2.212  -0.526  1.00  0.00     0.163 HD
HETATM   10  O1  UNL     1      -3.390   0.705   0.715  1.00  0.00    -0.274 OA
BRANCH   8  11
HETATM   11  C11 UNL     1      -4.876  -1.691   0.898  1.00  0.00     0.026 C 
HETATM   12  C12 UNL     1      -4.336  -1.258   2.320  1.00  0.00     0.038 C 
HETATM   13  C13 UNL     1      -5.053  -3.196   1.026  1.00  0.00     0.038 C 
BRANCH  11  14
HETATM   14  C10 UNL     1      -6.125  -0.953   0.757  1.00  0.00     0.040 C 
BRANCH  14  15
HETATM   15  C9  UNL     1      -7.045  -1.058  -0.368  1.00  0.00     0.024 C 
HETATM   16  C2  UNL     1      -8.218  -0.121  -0.001  1.00  0.00    -0.084 C 
HETATM   17  C1  UNL     1      -8.964  -0.447   1.044  1.00  0.00     0.014 C 
HETATM   18  C3  UNL     1      -8.551   1.094  -0.731  1.00  0.00     0.034 C 
HETATM   19  C4  UNL     1      -7.503   1.683  -1.598  1.00  0.00     0.005 C 
HETATM   20  C5  UNL     1      -6.324   0.775  -1.856  1.00  0.00     0.010 C 
HETATM   21  C6  UNL     1      -6.712  -0.694  -1.749  1.00  0.00    -0.040 C 
HETATM   22  C7  UNL     1      -8.032  -0.875  -2.552  1.00  0.00     0.015 C 
HETATM   23  C8  UNL     1      -5.698  -1.497  -2.480  1.00  0.00     0.015 C 
ENDBRANCH  14  15
ENDBRANCH  11  14
ENDBRANCH   8  11
ENDBRANCH   6   7
ENDBRANCH   5   6
ENDBRANCH   4   5
ENDBRANCH   3   4
ENDBRANCH   2   3
ENDBRANCH   1   2
BRANCH   1  24
HETATM   24  C21 UNL     1       2.981   2.272   1.133  1.00  0.00     0.111 C 
BRANCH  24  25
HETATM   25  C22 UNL     1       4.096   1.351   1.313  1.00  0.00     0.259 C 
HETATM   26  O2  UNL     1       4.137   0.554   2.255  1.00  0.00    -0.265 OA
BRANCH  25  27
HETATM   27  O3  UNL     1       5.146   1.352   0.415  1.00  0.00    -0.312 OA
BRANCH  27  28
HETATM   28  C23 UNL     1       6.262   0.482   0.534  1.00  0.00     0.174 C 
HETATM   29  C24 UNL     1       7.450   1.327   0.856  1.00  0.00     0.017 C 
HETATM   30  C25 UNL     1       8.492   0.619   1.678  1.00  0.00     0.012 C 
HETATM   31  C26 UNL     1       7.996   1.952  -0.393  1.00  0.00     0.043 C 
HETATM   32  C27 UNL     1       9.134   1.173  -1.002  1.00  0.00     0.156 C 
HETATM   33  C28 UNL     1       8.905  -0.260  -1.036  1.00  0.00     0.035 A 
HETATM   34  C29 UNL     1       9.880  -1.200  -1.225  1.00  0.00     0.151 A 
HETATM   35  C31 UNL     1       7.729  -0.951  -0.892  1.00  0.00     0.042 A 
HETATM   36  N2  UNL     1       9.317  -2.445  -1.198  1.00  0.00    -0.317 N 
HETATM   37  C30 UNL     1       7.998  -2.309  -0.995  1.00  0.00     0.152 A 
ATOM     38  H2  UNL     1       9.815  -3.328  -1.313  1.00  0.00     0.170 HD
HETATM   39  C32 UNL     1       6.397  -0.400  -0.669  1.00  0.00     0.238 C 
HETATM   40  F1  UNL     1       5.452  -1.416  -0.553  1.00  0.00    -0.241 F 
BRANCH  32  41
HETATM   41  O4  UNL     1       9.247   1.614  -2.341  1.00  0.00    -0.391 OA
ATOM     42  H4  UNL     1       9.964   1.123  -2.725  1.00  0.00     0.210 HD
ENDBRANCH  32  41
BRANCH  34  43
HETATM   43  O5  UNL     1      11.243  -1.028  -1.420  1.00  0.00    -0.346 OA
ATOM     44  H5  UNL     1      11.920  -1.681  -1.551  1.00  0.00     0.219 HD
ENDBRANCH  34  43
BRANCH  37  45
HETATM   45  O6  UNL     1       7.079  -3.336  -0.905  1.00  0.00    -0.346 OA
ATOM     46  H6  UNL     1       6.145  -3.240  -0.761  1.00  0.00     0.219 HD
ENDBRANCH  37  45
ENDBRANCH  27  28
ENDBRANCH  25  27
ENDBRANCH  24  25
ENDBRANCH   1  24
TORSDOF 16
