REMARK  14 active torsions:
REMARK  status: ('A' for Active; 'I' for Inactive)
REMARK    1  A    between atoms: N1_2  and  C2_5 
REMARK    2  A    between atoms: C2_5  and  C3_6 
REMARK    3  A    between atoms: C3_6  and  C4_7 
REMARK    4  A    between atoms: C4_7  and  N2_8 
REMARK    5  A    between atoms: N2_8  and  C5_10 
REMARK    6  A    between atoms: C5_10  and  C6_11 
REMARK    7  A    between atoms: C6_11  and  C7_12 
REMARK    8  A    between atoms: C10_15  and  C12_17 
REMARK    9  A    between atoms: C12_17  and  N3_18 
REMARK   10  A    between atoms: C23_33  and  O1_34 
REMARK   11  A    between atoms: O1_34  and  C24_35 
REMARK   12  A    between atoms: C24_35  and  C25_36 
REMARK   13  A    between atoms: C29_40  and  C30_41 
REMARK   14  A    between atoms: C30_41  and  O2_42 
ROOT
HETATM    1  C5  UNL     1       1.647   0.911  -0.978  1.00  0.00     0.198 C 
HETATM    2  C15 UNL     1       0.345   1.464  -0.334  1.00  0.00     0.105 C 
HETATM    3  C16 UNL     1      -0.196   1.563  -1.691  1.00  0.00     0.160 C 
HETATM    4  C17 UNL     1      -0.230   2.947  -2.319  1.00  0.00     0.044 C 
HETATM    5  C18 UNL     1      -0.575   2.964  -3.771  1.00  0.00     0.007 C 
HETATM    6  C19 UNL     1      -1.216   1.700  -4.247  1.00  0.00     0.042 C 
HETATM    7  C20 UNL     1      -2.057   1.117  -3.183  1.00  0.00    -0.011 A 
HETATM    8  C21 UNL     1      -3.345   0.664  -3.500  1.00  0.00     0.126 A 
HETATM    9  F1  UNL     1      -3.803   0.779  -4.782  1.00  0.00    -0.205 F 
HETATM   10  C22 UNL     1      -4.083   0.120  -2.481  1.00  0.00     0.079 A 
HETATM   11  C23 UNL     1      -3.644  -0.009  -1.181  1.00  0.00     0.072 A 
HETATM   12  C34 UNL     1      -2.349   0.460  -0.918  1.00  0.00     0.047 A 
HETATM   13  C35 UNL     1      -1.571   1.012  -1.899  1.00  0.00    -0.010 A 
HETATM   14  N4  UNL     1       0.798   0.693  -2.195  1.00  0.00    -0.036 N 
ATOM     15  H41 UNL     1       0.544  -0.257  -2.467  1.00  0.00     0.281 HD
ATOM     16  H42 UNL     1       1.193   0.863  -3.120  1.00  0.00     0.281 HD
ENDROOT
BRANCH   1  17
HETATM   17  N2  UNL     1       2.554   1.916  -1.296  1.00  0.00    -0.391 N 
ATOM     18  H2  UNL     1       2.695   2.117  -2.286  1.00  0.00     0.155 HD
BRANCH  17  19
HETATM   19  C4  UNL     1       3.283   2.669  -0.391  1.00  0.00     0.118 C 
BRANCH  19  20
HETATM   20  C3  UNL     1       4.138   3.658  -1.239  1.00  0.00     0.047 C 
BRANCH  20  21
HETATM   21  C2  UNL     1       4.958   4.522  -0.315  1.00  0.00     0.233 C 
BRANCH  21  22
HETATM   22  N1  UNL     1       5.741   5.427  -1.132  1.00  0.00    -0.079 N 
HETATM   23  C1  UNL     1       6.557   6.305  -0.309  1.00  0.00     0.266 C 
ATOM     24  H12 UNL     1       5.152   5.956  -1.775  1.00  0.00     0.276 HD
ATOM     25  H11 UNL     1       6.305   4.922  -1.816  1.00  0.00     0.276 HD
ENDBRANCH  21  22
ENDBRANCH  20  21
ENDBRANCH  19  20
ENDBRANCH  17  19
ENDBRANCH   1  17
BRANCH   1  26
HETATM   26  C6  UNL     1       1.964  -0.449  -0.490  1.00  0.00     0.066 C 
BRANCH  26  27
HETATM   27  C7  UNL     1       2.750  -0.750   0.709  1.00  0.00    -0.010 C 
HETATM   28  C8  UNL     1       2.639  -2.315   0.847  1.00  0.00     0.005 C 
HETATM   29  C9  UNL     1       3.471  -2.763   2.000  1.00  0.00     0.011 C 
HETATM   30  C10 UNL     1       4.947  -2.596   1.698  1.00  0.00    -0.020 C 
HETATM   31  C11 UNL     1       5.665  -1.895   2.818  1.00  0.00     0.017 C 
HETATM   32  C13 UNL     1       5.045  -1.844   0.419  1.00  0.00     0.011 C 
HETATM   33  C14 UNL     1       4.246  -0.603   0.361  1.00  0.00     0.005 C 
BRANCH  30  34
HETATM   34  C12 UNL     1       5.605  -3.967   1.509  1.00  0.00     0.238 C 
BRANCH  34  35
HETATM   35  N3  UNL     1       6.999  -3.855   1.222  1.00  0.00    -0.079 N 
ATOM     36  H33 UNL     1       7.164  -3.251   0.417  1.00  0.00     0.274 HD
ATOM     37  H32 UNL     1       7.481  -3.308   1.935  1.00  0.00     0.274 HD
ATOM     38  H31 UNL     1       7.437  -4.768   1.096  1.00  0.00     0.274 HD
ENDBRANCH  34  35
ENDBRANCH  30  34
ENDBRANCH  26  27
ENDBRANCH   1  26
BRANCH  11  39
HETATM   39  O1  UNL     1      -4.399  -0.560  -0.158  1.00  0.00    -0.347 OA
BRANCH  39  40
HETATM   40  C24 UNL     1      -5.687  -1.024  -0.424  1.00  0.00     0.215 C 
BRANCH  40  41
HETATM   41  C25 UNL     1      -6.441  -1.578   0.684  1.00  0.00    -0.022 A 
HETATM   42  C26 UNL     1      -7.716  -2.049   0.434  1.00  0.00    -0.052 A 
HETATM   43  C27 UNL     1      -8.288  -2.004  -0.951  1.00  0.00     0.049 C 
HETATM   44  C28 UNL     1      -8.480  -2.574   1.472  1.00  0.00     0.016 A 
HETATM   45  C29 UNL     1      -7.998  -2.638   2.755  1.00  0.00    -0.034 A 
HETATM   46  C31 UNL     1      -6.727  -2.165   2.991  1.00  0.00     0.016 A 
HETATM   47  C32 UNL     1      -5.948  -1.635   1.954  1.00  0.00    -0.052 A 
HETATM   48  C33 UNL     1      -4.592  -1.165   2.338  1.00  0.00     0.049 C 
BRANCH  45  49
HETATM   49  C30 UNL     1      -8.822  -3.206   3.881  1.00  0.00     0.202 C 
BRANCH  49  50
HETATM   50  O2  UNL     1      -8.194  -3.057   5.090  1.00  0.00    -0.396 OA
ATOM     51  H2  UNL     1      -8.714  -3.415   5.800  1.00  0.00     0.209 HD
ENDBRANCH  49  50
ENDBRANCH  45  49
ENDBRANCH  40  41
ENDBRANCH  39  40
ENDBRANCH  11  39
TORSDOF 14
