REMARK  18 active torsions:
REMARK  status: ('A' for Active; 'I' for Inactive)
REMARK    1  A    between atoms: C2_2  and  C3_3 
REMARK    2  A    between atoms: C9_10  and  O1_11 
REMARK    3  A    between atoms: C14_17  and  O2_18 
REMARK    4  A    between atoms: O2_18  and  C15_19 
REMARK    5  A    between atoms: C15_19  and  C16_21 
REMARK    6  A    between atoms: C16_21  and  C17_22 
REMARK    7  A    between atoms: C17_22  and  C18_23 
REMARK    8  A    between atoms: C18_23  and  C19_24 
REMARK    9  A    between atoms: C19_24  and  C20_25 
REMARK   10  A    between atoms: C20_25  and  C21_26 
REMARK   11  A    between atoms: C21_26  and  C22_27 
REMARK   12  A    between atoms: C22_27  and  C23_28 
REMARK   13  A    between atoms: C23_28  and  C24_29 
REMARK   14  A    between atoms: C24_29  and  C25_30 
REMARK   15  A    between atoms: C27_32  and  O4_33 
REMARK   16  A    between atoms: C30_37  and  O5_38 
REMARK   17  A    between atoms: C31_40  and  O6_41 
REMARK   18  A    between atoms: C32_43  and  C33_44 
ROOT
HETATM    1  C3  UNL     1      -4.801  -2.901  -0.001  1.00  0.00     0.051 C 
HETATM    2  C4  UNL     1      -6.081  -2.646  -0.723  1.00  0.00     0.013 C 
HETATM    3  C5  UNL     1      -6.334  -1.182  -0.738  1.00  0.00     0.014 C 
HETATM    4  C6  UNL     1      -5.319  -0.516   0.212  1.00  0.00     0.006 C 
HETATM    5  C7  UNL     1      -6.185  -0.189   1.407  1.00  0.00     0.020 C 
HETATM    6  C8  UNL     1      -4.422  -1.628   0.704  1.00  0.00     0.144 C 
HETATM    7  F1  UNL     1      -4.667  -1.929   2.071  1.00  0.00    -0.239 F 
HETATM    8  C9  UNL     1      -2.959  -1.334   0.713  1.00  0.00     0.159 C 
HETATM    9  C10 UNL     1      -2.766   0.121   1.089  1.00  0.00     0.041 C 
HETATM   10  C11 UNL     1      -3.369   1.088   0.153  1.00  0.00     0.014 C 
HETATM   11  C12 UNL     1      -2.521   1.748  -0.851  1.00  0.00     0.024 C 
HETATM   12  C13 UNL     1      -2.537   3.269  -0.781  1.00  0.00     0.022 C 
HETATM   13  C14 UNL     1      -1.044   1.452  -0.882  1.00  0.00     0.172 C 
HETATM   14  C27 UNL     1      -0.769   1.615  -2.385  1.00  0.00     0.155 C 
HETATM   15  C28 UNL     1      -1.915   0.758  -2.950  1.00  0.00     0.051 C 
HETATM   16  C29 UNL     1      -1.459  -0.631  -2.961  1.00  0.00     0.016 C 
HETATM   17  C30 UNL     1      -3.057   1.239  -2.192  1.00  0.00     0.100 C 
HETATM   18  C31 UNL     1      -4.228   0.370  -1.910  1.00  0.00     0.163 C 
HETATM   19  C32 UNL     1      -4.677   0.627  -0.462  1.00  0.00     0.003 C 
ENDROOT
BRANCH  13  20
HETATM   20  O2  UNL     1      -0.264   2.310  -0.119  1.00  0.00    -0.312 OA
BRANCH  20  21
HETATM   21  C15 UNL     1       0.789   1.906   0.668  1.00  0.00     0.259 C 
HETATM   22  O3  UNL     1       0.983   0.674   0.623  1.00  0.00    -0.265 OA
BRANCH  21  23
HETATM   23  C16 UNL     1       1.600   2.843   1.477  1.00  0.00     0.111 C 
BRANCH  23  24
HETATM   24  C17 UNL     1       2.762   2.146   2.091  1.00  0.00     0.010 C 
BRANCH  24  25
HETATM   25  C18 UNL     1       3.699   1.630   1.059  1.00  0.00     0.000 C 
BRANCH  25  26
HETATM   26  C19 UNL     1       4.897   0.909   1.685  1.00  0.00     0.000 C 
BRANCH  26  27
HETATM   27  C20 UNL     1       5.744   0.452   0.502  1.00  0.00     0.000 C 
BRANCH  27  28
HETATM   28  C21 UNL     1       6.989  -0.293   0.949  1.00  0.00     0.000 C 
BRANCH  28  29
HETATM   29  C22 UNL     1       7.727  -0.681  -0.310  1.00  0.00     0.000 C 
BRANCH  29  30
HETATM   30  C23 UNL     1       8.981  -1.436   0.028  1.00  0.00     0.000 C 
BRANCH  30  31
HETATM   31  C24 UNL     1       9.882  -0.585   0.871  1.00  0.00    -0.000 C 
BRANCH  31  32
HETATM   32  C25 UNL     1      11.142  -1.392   1.176  1.00  0.00    -0.005 C 
HETATM   33  C26 UNL     1      10.706  -2.633   1.915  1.00  0.00     0.005 C 
ENDBRANCH  31  32
ENDBRANCH  30  31
ENDBRANCH  29  30
ENDBRANCH  28  29
ENDBRANCH  27  28
ENDBRANCH  26  27
ENDBRANCH  25  26
ENDBRANCH  24  25
ENDBRANCH  23  24
ENDBRANCH  21  23
ENDBRANCH  20  21
ENDBRANCH  13  20
BRANCH  14  34
HETATM   34  O4  UNL     1       0.447   1.037  -2.739  1.00  0.00    -0.392 OA
ATOM     35  H4  UNL     1       0.617   1.138  -3.668  1.00  0.00     0.210 HD
ENDBRANCH  14  34
BRANCH  17  36
HETATM   36  O5  UNL     1      -3.471   2.428  -2.866  1.00  0.00    -0.386 OA
ATOM     37  H5  UNL     1      -3.804   2.112  -3.698  1.00  0.00     0.210 HD
ENDBRANCH  17  36
BRANCH  19  38
HETATM   38  C33 UNL     1      -5.649   1.774  -0.605  1.00  0.00     0.009 C 
HETATM   39  C34 UNL     1      -6.245   2.483   0.484  1.00  0.00     0.006 C 
ENDBRANCH  19  38
BRANCH  18  40
HETATM   40  O6  UNL     1      -4.071  -0.927  -2.266  1.00  0.00    -0.392 OA
ATOM     41  H6  UNL     1      -4.820  -1.483  -2.086  1.00  0.00     0.210 HD
ENDBRANCH  18  40
BRANCH   8  42
HETATM   42  O1  UNL     1      -2.313  -2.018   1.792  1.00  0.00    -0.392 OA
ATOM     43  H1  UNL     1      -1.382  -1.831   1.798  1.00  0.00     0.210 HD
ENDBRANCH   8  42
BRANCH   1  44
HETATM   44  C2  UNL     1      -5.074  -4.049   0.947  1.00  0.00    -0.029 C 
HETATM   45  C1  UNL     1      -4.392  -5.176   0.930  1.00  0.00     0.007 C 
ENDBRANCH   1  44
TORSDOF 18
