REMARK  13 active torsions:
REMARK  status: ('A' for Active; 'I' for Inactive)
REMARK    1  A    between atoms: C1_4  and  N2_5 
REMARK    2  A    between atoms: C1_4  and  C13_25 
REMARK    3  A    between atoms: N2_5  and  C2_7 
REMARK    4  A    between atoms: C2_7  and  C3_8 
REMARK    5  A    between atoms: C3_8  and  C4_9 
REMARK    6  A    between atoms: C4_9  and  C5_10 
REMARK    7  A    between atoms: C5_10  and  C6_11 
REMARK    8  A    between atoms: C6_11  and  C7_12 
REMARK    9  A    between atoms: C7_12  and  C8_13 
REMARK   10  A    between atoms: C8_13  and  N3_14 
REMARK   11  A    between atoms: N3_14  and  S1_16 
REMARK   12  A    between atoms: S1_16  and  C9_19 
REMARK   13  A    between atoms: C15_31  and  C16_32 
ROOT
HETATM    1  N2  UNL     1      -1.748   0.274  -0.812  1.00  0.00    -0.378 N 
ATOM      2  H2  UNL     1      -2.211  -0.204  -1.585  1.00  0.00     0.160 HD
ENDROOT
BRANCH   1   3
HETATM    3  C1  UNL     1      -2.523   1.102   0.037  1.00  0.00     0.103 C 
HETATM    4  N1  UNL     1      -2.400   2.383  -0.106  1.00  0.00    -0.387 N 
ATOM      5  H12 UNL     1      -1.772   2.787  -0.801  1.00  0.00     0.157 HD
ATOM      6  H11 UNL     1      -2.958   2.979   0.505  1.00  0.00     0.157 HD
BRANCH   3   7
HETATM    7  C13 UNL     1      -3.436   0.514   1.047  1.00  0.00     0.223 C 
HETATM    8  O3  UNL     1      -2.624  -0.311   1.901  1.00  0.00    -0.289 OA
HETATM    9  C14 UNL     1      -3.441  -1.341   2.373  1.00  0.00     0.361 C 
HETATM   10  O4  UNL     1      -3.159  -2.190   3.284  1.00  0.00    -0.238 OA
HETATM   11  N4  UNL     1      -4.675  -1.305   1.666  1.00  0.00    -0.329 N 
HETATM   12  C15 UNL     1      -4.410  -0.476   0.497  1.00  0.00     0.128 C 
ATOM     13  H4  UNL     1      -5.552  -1.759   1.921  1.00  0.00     0.165 HD
BRANCH  12  14
HETATM   14  C16 UNL     1      -5.677   0.121  -0.057  1.00  0.00     0.011 C 
HETATM   15  C17 UNL     1      -6.504  -1.069  -0.572  1.00  0.00     0.007 C 
HETATM   16  C18 UNL     1      -7.697  -0.461  -1.309  1.00  0.00     0.000 C 
HETATM   17  C19 UNL     1      -8.551   0.346  -0.338  1.00  0.00     0.000 C 
HETATM   18  C20 UNL     1      -7.684   1.466   0.199  1.00  0.00     0.000 C 
HETATM   19  C21 UNL     1      -6.545   0.787   0.972  1.00  0.00     0.007 C 
ENDBRANCH  12  14
ENDBRANCH   3   7
ENDBRANCH   1   3
BRANCH   1  20
HETATM   20  C2  UNL     1      -0.321   0.079  -0.625  1.00  0.00     0.121 C 
BRANCH  20  21
HETATM   21  C3  UNL     1       0.459   1.328  -0.909  1.00  0.00     0.020 C 
BRANCH  21  22
HETATM   22  C4  UNL     1       1.944   1.073  -0.711  1.00  0.00     0.002 C 
BRANCH  22  23
HETATM   23  C5  UNL     1       2.237   0.653   0.682  1.00  0.00     0.000 C 
BRANCH  23  24
HETATM   24  C6  UNL     1       3.701   0.416   0.923  1.00  0.00     0.002 C 
BRANCH  24  25
HETATM   25  C7  UNL     1       4.217  -0.671   0.022  1.00  0.00     0.020 C 
BRANCH  25  26
HETATM   26  C8  UNL     1       5.706  -0.900   0.310  1.00  0.00     0.132 C 
BRANCH  26  27
HETATM   27  N3  UNL     1       6.140  -1.938  -0.573  1.00  0.00    -0.315 N 
ATOM     28  H3  UNL     1       5.521  -2.396  -1.243  1.00  0.00     0.172 HD
BRANCH  27  29
HETATM   29  S1  UNL     1       7.796  -2.341  -0.401  1.00  0.00     0.265 S 
HETATM   30  O1  UNL     1       8.134  -3.474  -1.310  1.00  0.00    -0.200 OA
HETATM   31  O2  UNL     1       8.047  -2.749   0.997  1.00  0.00    -0.200 OA
BRANCH  29  32
HETATM   32  C9  UNL     1       8.829  -0.959  -0.769  1.00  0.00     0.121 A 
HETATM   33  C10 UNL     1       9.728  -0.342   0.055  1.00  0.00     0.035 A 
HETATM   34  C11 UNL     1      10.408   0.697  -0.437  1.00  0.00     0.033 A 
HETATM   35  C12 UNL     1      10.150   1.064  -1.732  1.00  0.00     0.075 A 
HETATM   36 CL1  UNL     1      10.891   2.390  -2.646  1.00  0.00    -0.076 Cl
HETATM   37  S2  UNL     1       8.962  -0.062  -2.215  1.00  0.00    -0.064 SA
ENDBRANCH  29  32
ENDBRANCH  27  29
ENDBRANCH  26  27
ENDBRANCH  25  26
ENDBRANCH  24  25
ENDBRANCH  23  24
ENDBRANCH  22  23
ENDBRANCH  21  22
ENDBRANCH  20  21
ENDBRANCH   1  20
TORSDOF 13
