REMARK  17 active torsions:
REMARK  status: ('A' for Active; 'I' for Inactive)
REMARK    1  A    between atoms: C3_3  and  C4_4 
REMARK    2  A    between atoms: C8_8  and  C10_10 
REMARK    3  A    between atoms: C10_10  and  C11_12 
REMARK    4  A    between atoms: C11_12  and  O2_13 
REMARK    5  A    between atoms: C11_12  and  C12_15 
REMARK    6  A    between atoms: C12_15  and  N1_17 
REMARK    7  A    between atoms: C12_15  and  C14_21 
REMARK    8  A    between atoms: C15_22  and  C16_23 
REMARK    9  A    between atoms: C16_23  and  O3_24 
REMARK   10  A    between atoms: C16_23  and  C20_35 
REMARK   11  A    between atoms: O3_24  and  C17_25 
REMARK       I    between atoms: C17_25  and  N2_27 
REMARK   12  A    between atoms: N2_27  and  C18_29 
REMARK   13  A    between atoms: C18_29  and  N3_31 
REMARK   14  A    between atoms: C20_35  and  O5_36 
REMARK   15  A    between atoms: C21_38  and  C23_40 
REMARK   16  A    between atoms: C23_40  and  C24_41 
REMARK   17  A    between atoms: C23_40  and  C26_43 
ROOT
HETATM    1  C1  UNL     1       9.251   3.917  -1.759  1.00  0.00     0.112 C 
HETATM    2  C2  UNL     1       8.736   2.710  -1.117  1.00  0.00    -0.110 C 
HETATM    3  C3  UNL     1       8.291   1.722  -0.591  1.00  0.00    -0.092 C 
ENDROOT
BRANCH   3   4
HETATM    4  C4  UNL     1       7.723   0.522   0.059  1.00  0.00     0.048 A 
HETATM    5  C5  UNL     1       8.134   0.286   1.496  1.00  0.00     0.034 C 
HETATM    6  C6  UNL     1       7.395  -0.620  -0.746  1.00  0.00     0.063 A 
HETATM    7  C7  UNL     1       6.275   0.313  -0.287  1.00  0.00    -0.048 A 
HETATM    8  C8  UNL     1       4.995   0.632  -0.258  1.00  0.00    -0.009 C 
HETATM    9  C9  UNL     1       4.591   1.845   0.490  1.00  0.00     0.052 C 
BRANCH   8  10
HETATM   10  C10 UNL     1       4.013  -0.176  -0.934  1.00  0.00     0.186 C 
HETATM   11  O1  UNL     1       4.466  -1.205  -1.553  1.00  0.00    -0.290 OA
BRANCH  10  12
HETATM   12  C11 UNL     1       2.572   0.015  -1.012  1.00  0.00     0.231 C 
BRANCH  12  13
HETATM   13  O2  UNL     1       2.218   1.158  -0.305  1.00  0.00    -0.385 OA
ATOM     14  H2  UNL     1       1.278   1.283  -0.356  1.00  0.00     0.210 HD
ENDBRANCH  12  13
BRANCH  12  15
HETATM   15  C12 UNL     1       1.757  -1.181  -0.598  1.00  0.00     0.170 C 
HETATM   16  C13 UNL     1       2.032  -2.403  -1.401  1.00  0.00     0.054 C 
BRANCH  15  17
HETATM   17  N1  UNL     1       1.931  -1.486   0.817  1.00  0.00    -0.064 N 
ATOM     18  H13 UNL     1       2.916  -1.606   1.054  1.00  0.00     0.275 HD
ATOM     19  H12 UNL     1       1.726  -0.675   1.401  1.00  0.00     0.275 HD
ATOM     20  H11 UNL     1       1.379  -2.296   1.098  1.00  0.00     0.275 HD
ENDBRANCH  15  17
BRANCH  15  21
HETATM   21  C14 UNL     1       0.310  -0.831  -0.765  1.00  0.00     0.013 C 
HETATM   22  C15 UNL     1      -0.588  -0.985   0.158  1.00  0.00     0.011 C 
BRANCH  22  23
HETATM   23  C16 UNL     1      -2.047  -0.587  -0.132  1.00  0.00     0.213 C 
BRANCH  23  24
HETATM   24  O3  UNL     1      -2.849  -1.522   0.497  1.00  0.00    -0.288 OA
BRANCH  24  25
HETATM   25  C17 UNL     1      -3.563  -2.522  -0.158  1.00  0.00     0.363 C 
HETATM   26  O4  UNL     1      -3.473  -2.578  -1.401  1.00  0.00    -0.238 OA
HETATM   27  N2  UNL     1      -4.345  -3.412   0.618  1.00  0.00    -0.309 N 
ATOM     28  H2  UNL     1      -4.370  -3.304   1.632  1.00  0.00     0.166 HD
BRANCH  27  29
HETATM   29  C18 UNL     1      -5.108  -4.470  -0.003  1.00  0.00     0.281 C 
HETATM   30  C19 UNL     1      -4.616  -5.819   0.481  1.00  0.00     0.063 C 
BRANCH  29  31
HETATM   31  N3  UNL     1      -6.508  -4.261   0.278  1.00  0.00    -0.059 N 
ATOM     32  H33 UNL     1      -6.697  -4.179   1.277  1.00  0.00     0.276 HD
ATOM     33  H32 UNL     1      -6.827  -3.334  -0.003  1.00  0.00     0.276 HD
ATOM     34  H31 UNL     1      -7.047  -5.008  -0.160  1.00  0.00     0.276 HD
ENDBRANCH  29  31
ENDBRANCH  27  29
ENDBRANCH  24  25
ENDBRANCH  23  24
BRANCH  23  35
HETATM   35  C20 UNL     1      -2.135   0.834   0.280  1.00  0.00     0.082 C 
HETATM   36  C21 UNL     1      -3.192   1.713  -0.155  1.00  0.00    -0.028 C 
HETATM   37  C22 UNL     1      -3.256   1.795  -1.695  1.00  0.00     0.051 C 
BRANCH  35  38
HETATM   38  O5  UNL     1      -1.845   0.869   1.655  1.00  0.00    -0.361 OA
ATOM     39  H5  UNL     1      -1.901   1.780   1.919  1.00  0.00     0.217 HD
ENDBRANCH  35  38
BRANCH  36  40
HETATM   40  C23 UNL     1      -4.529   1.840   0.402  1.00  0.00    -0.072 C 
BRANCH  40  41
HETATM   41  C24 UNL     1      -5.465   0.699   0.432  1.00  0.00     0.030 C 
HETATM   42  C25 UNL     1      -6.790   1.187   1.055  1.00  0.00     0.010 C 
ENDBRANCH  40  41
BRANCH  40  43
HETATM   43  C26 UNL     1      -4.543   2.622   1.731  1.00  0.00     0.030 C 
HETATM   44  C27 UNL     1      -3.992   3.998   1.421  1.00  0.00     0.010 C 
ENDBRANCH  40  43
ENDBRANCH  36  40
ENDBRANCH  23  35
ENDBRANCH  22  23
ENDBRANCH  15  21
ENDBRANCH  12  15
ENDBRANCH  10  12
ENDBRANCH   8  10
ENDBRANCH   3   4
TORSDOF 17
