REMARK  17 active torsions:
REMARK  status: ('A' for Active; 'I' for Inactive)
REMARK    1  A    between atoms: O1_2  and  C2_3 
REMARK    2  A    between atoms: C5_7  and  C6_8 
REMARK    3  A    between atoms: C6_8  and  N1_9 
REMARK    4  A    between atoms: N1_9  and  C7_11 
REMARK    5  A    between atoms: C8_14  and  N3_15 
REMARK    6  A    between atoms: N3_15  and  C9_17 
REMARK    7  A    between atoms: C9_17  and  C10_18 
REMARK    8  A    between atoms: C10_18  and  C11_19 
REMARK    9  A    between atoms: C11_19  and  C12_20 
REMARK   10  A    between atoms: C12_20  and  C13_21 
REMARK   11  A    between atoms: C13_21  and  C14_22 
REMARK   12  A    between atoms: C14_22  and  C15_23 
REMARK   13  A    between atoms: C15_23  and  O2_24 
REMARK   14  A    between atoms: N4_26  and  O3_28 
REMARK   15  A    between atoms: N6_33  and  C17_35 
REMARK   16  A    between atoms: C21_41  and  O4_42 
REMARK   17  A    between atoms: O4_42  and  C22_43 
ROOT
HETATM    1  C7  UNL     1      -1.088  -0.793   0.900  1.00  0.00     0.707 A 
HETATM    2  N2  UNL     1      -0.132   0.146   1.081  1.00  0.00    -0.022 N 
ATOM      3  H2  UNL     1      -0.380   1.001   1.578  1.00  0.00     0.203 HD
HETATM    4  C8  UNL     1       1.127   0.007   0.638  1.00  0.00     0.707 A 
HETATM    5  N5  UNL     1       1.450  -1.100  -0.004  1.00  0.00    -0.022 N 
ATOM      6  H5  UNL     1       2.408  -1.207  -0.337  1.00  0.00     0.203 HD
HETATM    7  C16 UNL     1       0.542  -2.131  -0.248  1.00  0.00     0.707 A 
HETATM    8  N6  UNL     1       1.027  -3.109  -0.764  1.00  0.00    -0.220 N 
ATOM      9  H6  UNL     1       2.025  -2.925  -0.866  1.00  0.00     0.178 HD
HETATM   10  N7  UNL     1      -0.713  -1.893   0.238  1.00  0.00    -0.021 N 
ATOM     11  H7  UNL     1      -1.420  -2.612   0.084  1.00  0.00     0.203 HD
ENDROOT
BRANCH   1  12
HETATM   12  N1  UNL     1      -2.332  -0.607   1.243  1.00  0.00    -0.221 N 
ATOM     13  H1  UNL     1      -3.030  -1.341   1.120  1.00  0.00     0.178 HD
BRANCH  12  14
HETATM   14  C6  UNL     1      -2.698   0.717   1.822  1.00  0.00     0.178 C 
BRANCH  14  15
HETATM   15  C5  UNL     1      -3.762   1.198   0.870  1.00  0.00    -0.015 A 
HETATM   16  C4  UNL     1      -3.604   2.444   0.326  1.00  0.00     0.044 A 
HETATM   17  C3  UNL     1      -4.566   2.957  -0.542  1.00  0.00     0.064 A 
HETATM   18 CL1  UNL     1      -2.214   3.404   0.737  1.00  0.00    -0.084 Cl
HETATM   19  C2  UNL     1      -5.689   2.275  -0.890  1.00  0.00     0.103 A 
HETATM   20  C21 UNL     1      -5.860   1.009  -0.323  1.00  0.00     0.103 A 
HETATM   21  C20 UNL     1      -4.899   0.517   0.531  1.00  0.00     0.050 A 
BRANCH  19  22
HETATM   22  O1  UNL     1      -6.619   2.777  -1.771  1.00  0.00    -0.353 OA
HETATM   23  C1  UNL     1      -6.418   4.006  -2.465  1.00  0.00     0.210 C 
ENDBRANCH  19  22
BRANCH  20  24
HETATM   24  O4  UNL     1      -7.045   0.342  -0.665  1.00  0.00    -0.343 OA
BRANCH  24  25
HETATM   25  C22 UNL     1      -7.688  -0.540   0.275  1.00  0.00     0.129 C 
HETATM   26  C23 UNL     1      -8.830   0.309   0.991  1.00  0.00     0.032 C 
HETATM   27  C24 UNL     1      -9.546   0.194  -0.334  1.00  0.00     0.005 C 
HETATM   28  C25 UNL     1      -8.843  -1.216  -0.405  1.00  0.00     0.032 C 
ENDBRANCH  24  25
ENDBRANCH  20  24
ENDBRANCH  14  15
ENDBRANCH  12  14
ENDBRANCH   1  12
BRANCH   4  29
HETATM   29  N3  UNL     1       1.965   0.981   0.834  1.00  0.00    -0.225 N 
ATOM     30  H3  UNL     1       1.636   1.812   1.325  1.00  0.00     0.177 HD
BRANCH  29  31
HETATM   31  C9  UNL     1       3.339   0.946   0.391  1.00  0.00     0.138 C 
BRANCH  31  32
HETATM   32  C10 UNL     1       4.318   0.808   1.502  1.00  0.00     0.020 C 
BRANCH  32  33
HETATM   33  C11 UNL     1       5.738   0.672   1.134  1.00  0.00     0.002 C 
BRANCH  33  34
HETATM   34  C12 UNL     1       6.373   1.763   0.334  1.00  0.00     0.000 C 
BRANCH  34  35
HETATM   35  C13 UNL     1       7.843   1.579   0.172  1.00  0.00     0.008 C 
BRANCH  35  36
HETATM   36  C14 UNL     1       8.338   0.348  -0.503  1.00  0.00     0.086 C 
BRANCH  36  37
HETATM   37  C15 UNL     1       9.820   0.362  -0.448  1.00  0.00     0.135 C 
HETATM   38  N4  UNL     1      10.520  -0.734  -0.432  1.00  0.00    -0.251 N 
ATOM     39  H4  UNL     1      11.537  -0.664  -0.399  1.00  0.00     0.196 HD
BRANCH  37  40
HETATM   40  O2  UNL     1      10.544   1.554  -0.408  1.00  0.00    -0.348 OA
ATOM     41  H2  UNL     1      11.493   1.563  -0.373  1.00  0.00     0.219 HD
ENDBRANCH  37  40
BRANCH  38  42
HETATM   42  O3  UNL     1       9.950  -1.975  -0.458  1.00  0.00    -0.288 OA
ATOM     43  H3  UNL     1      10.461  -2.776  -0.446  1.00  0.00     0.244 HD
ENDBRANCH  38  42
ENDBRANCH  36  37
ENDBRANCH  35  36
ENDBRANCH  34  35
ENDBRANCH  33  34
ENDBRANCH  32  33
ENDBRANCH  31  32
ENDBRANCH  29  31
ENDBRANCH   4  29
BRANCH   8  44
HETATM   44  C17 UNL     1       0.795  -4.398  -1.285  1.00  0.00     0.099 A 
HETATM   45  C18 UNL     1       2.059  -5.080  -1.895  1.00  0.00     0.028 A 
HETATM   46  C19 UNL     1       1.403  -5.611  -0.686  1.00  0.00     0.028 A 
ENDBRANCH   8  44
TORSDOF 17
