REMARK  18 active torsions:
REMARK  status: ('A' for Active; 'I' for Inactive)
REMARK    1  A    between atoms: C2_2  and  C3_3 
REMARK    2  A    between atoms: C3_3  and  C4_4 
REMARK    3  A    between atoms: C4_4  and  C5_5 
REMARK    4  A    between atoms: C5_5  and  C6_6 
REMARK    5  A    between atoms: C5_5  and  N2_19 
REMARK    6  A    between atoms: C5_5  and  C20_38 
REMARK    7  A    between atoms: C6_6  and  C7_7 
REMARK    8  A    between atoms: C7_7  and  C8_8 
REMARK    9  A    between atoms: C8_8  and  C9_9 
REMARK   10  A    between atoms: C9_9  and  C10_10 
REMARK   11  A    between atoms: C10_10  and  C11_11 
REMARK   12  A    between atoms: C11_11  and  C12_12 
REMARK   13  A    between atoms: C12_12  and  O1_13 
REMARK   14  A    between atoms: N1_15  and  O2_17 
REMARK   15  A    between atoms: N2_19  and  C13_21 
REMARK   16  A    between atoms: C13_21  and  C15_30 
REMARK       I    between atoms: N3_22  and  C14_24 
REMARK   17  A    between atoms: N5_26  and  O3_28 
REMARK   18  A    between atoms: C20_38  and  O5_40 
ROOT
HETATM    1  C5  UNL     1      -0.518  -0.827   0.340  1.00  0.00     0.119 C 
ENDROOT
BRANCH   1   2
HETATM    2  C4  UNL     1       0.030  -1.954  -0.551  1.00  0.00     0.041 C 
BRANCH   2   3
HETATM    3  C3  UNL     1      -0.859  -3.114  -0.749  1.00  0.00     0.002 C 
BRANCH   3   4
HETATM    4  C2  UNL     1      -2.197  -2.939  -1.363  1.00  0.00    -0.004 C 
HETATM    5  C1  UNL     1      -2.817  -4.358  -1.431  1.00  0.00     0.005 C 
ENDBRANCH   3   4
ENDBRANCH   2   3
ENDBRANCH   1   2
BRANCH   1   6
HETATM    6  C6  UNL     1       0.645   0.168   0.473  1.00  0.00     0.041 C 
BRANCH   6   7
HETATM    7  C7  UNL     1       1.082   0.719  -0.830  1.00  0.00     0.003 C 
BRANCH   7   8
HETATM    8  C8  UNL     1       2.187   1.747  -0.689  1.00  0.00     0.000 C 
BRANCH   8   9
HETATM    9  C9  UNL     1       3.384   1.097  -0.033  1.00  0.00     0.000 C 
BRANCH   9  10
HETATM   10  C10 UNL     1       4.529   2.064   0.104  1.00  0.00     0.008 C 
BRANCH  10  11
HETATM   11  C11 UNL     1       5.726   1.492   0.754  1.00  0.00     0.086 C 
BRANCH  11  12
HETATM   12  C12 UNL     1       6.389   0.368   0.075  1.00  0.00     0.135 C 
HETATM   13  N1  UNL     1       6.123  -0.042  -1.097  1.00  0.00    -0.251 N 
ATOM     14  H1  UNL     1       5.393   0.435  -1.625  1.00  0.00     0.196 HD
BRANCH  12  15
HETATM   15  O1  UNL     1       7.414  -0.334   0.751  1.00  0.00    -0.348 OA
ATOM     16  H1  UNL     1       7.842  -1.060   0.313  1.00  0.00     0.219 HD
ENDBRANCH  12  15
BRANCH  13  17
HETATM   17  O2  UNL     1       6.767  -1.087  -1.679  1.00  0.00    -0.288 OA
ATOM     18  H2  UNL     1       6.568  -1.394  -2.556  1.00  0.00     0.244 HD
ENDBRANCH  13  17
ENDBRANCH  11  12
ENDBRANCH  10  11
ENDBRANCH   9  10
ENDBRANCH   8   9
ENDBRANCH   7   8
ENDBRANCH   6   7
ENDBRANCH   1   6
BRANCH   1  19
HETATM   19  N2  UNL     1      -1.565  -0.083  -0.303  1.00  0.00    -0.360 N 
ATOM     20  H2  UNL     1      -1.801  -0.432  -1.232  1.00  0.00     0.162 HD
BRANCH  19  21
HETATM   21  C13 UNL     1      -2.311   1.002   0.080  1.00  0.00     0.096 C 
HETATM   22  N3  UNL     1      -3.085   1.581  -0.830  1.00  0.00    -0.318 N 
HETATM   23  C14 UNL     1      -3.213   1.185  -2.153  1.00  0.00     0.213 C 
ATOM     24  H3  UNL     1      -3.633   2.387  -0.530  1.00  0.00     0.170 HD
HETATM   25  N4  UNL     1      -2.494   1.954  -3.147  1.00  0.00    -0.061 NA
HETATM   26  N5  UNL     1      -3.904   0.208  -2.597  1.00  0.00    -0.241 N 
ATOM     27  H5  UNL     1      -4.428  -0.358  -1.929  1.00  0.00     0.197 HD
BRANCH  26  28
HETATM   28  O3  UNL     1      -3.978  -0.120  -3.927  1.00  0.00    -0.287 OA
ATOM     29  H3  UNL     1      -4.492  -0.847  -4.257  1.00  0.00     0.244 HD
ENDBRANCH  26  28
BRANCH  21  30
HETATM   30  C15 UNL     1      -2.366   1.645   1.424  1.00  0.00     0.148 A 
HETATM   31  C16 UNL     1      -2.354   3.101   1.383  1.00  0.00     0.033 A 
HETATM   32  C17 UNL     1      -1.527   4.090   1.015  1.00  0.00     0.082 C 
HETATM   33  N6  UNL     1      -3.608   3.090   1.906  1.00  0.00    -0.364 N 
HETATM   34 BR1  UNL     1      -2.009   5.925   1.170  1.00  0.00    -0.061 Br
HETATM   35  C18 UNL     1      -3.692   1.847   1.971  1.00  0.00    -0.000 A 
ATOM     36  H6  UNL     1      -4.255   3.837   2.158  1.00  0.00     0.165 HD
HETATM   37  C19 UNL     1      -4.826   0.938   2.462  1.00  0.00     0.064 C 
ENDBRANCH  21  30
ENDBRANCH  19  21
ENDBRANCH   1  19
BRANCH   1  38
HETATM   38  C20 UNL     1      -0.967  -1.398   1.612  1.00  0.00     0.287 C 
HETATM   39  O4  UNL     1      -2.140  -1.404   2.048  1.00  0.00    -0.262 OA
BRANCH  38  40
HETATM   40  O5  UNL     1      -0.040  -2.024   2.490  1.00  0.00    -0.325 OA
HETATM   41  C21 UNL     1      -0.465  -2.577   3.721  1.00  0.00     0.213 C 
ENDBRANCH  38  40
ENDBRANCH   1  38
TORSDOF 18
