REMARK  15 active torsions:
REMARK  status: ('A' for Active; 'I' for Inactive)
REMARK    1  A    between atoms: C2_2  and  C3_3 
REMARK    2  A    between atoms: C2_2  and  C7_9 
REMARK    3  A    between atoms: C3_3  and  C4_4 
REMARK    4  A    between atoms: C4_4  and  C5_5 
REMARK    5  A    between atoms: C5_5  and  C6_6 
REMARK    6  A    between atoms: C6_6  and  O1_7 
REMARK    7  A    between atoms: C8_10  and  O2_11 
REMARK    8  A    between atoms: C14_18  and  C15_19 
REMARK    9  A    between atoms: C16_20  and  C17_21 
REMARK   10  A    between atoms: C17_21  and  O3_22 
REMARK   11  A    between atoms: C17_21  and  C18_24 
REMARK   12  A    between atoms: C18_24  and  C20_27 
REMARK   13  A    between atoms: C20_27  and  C21_28 
REMARK   14  A    between atoms: C21_28  and  C22_29 
REMARK   15  A    between atoms: C22_29  and  C23_30 
ROOT
HETATM    1  C18 UNL     1      -6.715  -1.024  -0.641  1.00  0.00     0.125 C 
HETATM    2  C19 UNL     1      -6.628  -2.474  -0.282  1.00  0.00     0.067 C 
HETATM    3  N1  UNL     1      -6.540  -3.593  -0.007  1.00  0.00    -0.197 NA
ENDROOT
BRANCH   1   4
HETATM    4  C17 UNL     1      -5.319  -0.436  -0.577  1.00  0.00     0.158 C 
BRANCH   4   5
HETATM    5  C16 UNL     1      -4.731  -0.532   0.761  1.00  0.00     0.003 C 
HETATM    6  C15 UNL     1      -3.505  -0.700   1.155  1.00  0.00    -0.016 C 
BRANCH   6   7
HETATM    7  C14 UNL     1      -2.229  -0.862   0.494  1.00  0.00     0.078 C 
HETATM    8  C13 UNL     1      -2.146  -0.940  -0.976  1.00  0.00     0.016 C 
HETATM    9  C12 UNL     1      -0.688  -0.810  -1.380  1.00  0.00     0.007 C 
HETATM   10  C11 UNL     1       0.284  -1.213  -0.289  1.00  0.00     0.002 C 
HETATM   11  C10 UNL     1       1.644  -1.046  -0.886  1.00  0.00     0.001 C 
HETATM   12  C25 UNL     1       0.175  -0.217   0.874  1.00  0.00     0.060 C 
HETATM   13  C9  UNL     1       2.150  -2.185  -1.700  1.00  0.00     0.038 C 
HETATM   14  C28 UNL     1       2.763  -0.869   0.136  1.00  0.00    -0.034 C 
HETATM   15  C8  UNL     1       3.582  -1.670  -1.946  1.00  0.00     0.123 C 
HETATM   16  C7  UNL     1       4.017  -1.185  -0.549  1.00  0.00     0.026 C 
HETATM   17  C27 UNL     1       2.554   0.481   0.720  1.00  0.00     0.011 C 
HETATM   18  C29 UNL     1       2.575  -1.922   1.241  1.00  0.00     0.016 C 
HETATM   19  C26 UNL     1       1.086   0.935   0.649  1.00  0.00     0.013 C 
HETATM   20  C24 UNL     1      -1.245   0.237   0.890  1.00  0.00     0.139 C 
HETATM   21  O4  UNL     1      -1.611   1.344   1.178  1.00  0.00    -0.297 OA
BRANCH  15  22
HETATM   22  O2  UNL     1       3.464  -0.634  -2.851  1.00  0.00    -0.395 OA
ATOM     23  H2  UNL     1       3.196  -0.933  -3.712  1.00  0.00     0.210 HD
ENDBRANCH  15  22
BRANCH  16  24
HETATM   24  C2  UNL     1       5.091  -0.159  -0.646  1.00  0.00    -0.011 C 
HETATM   25  C1  UNL     1       6.237  -0.880  -1.411  1.00  0.00     0.010 C 
BRANCH  24  26
HETATM   26  C3  UNL     1       5.711   0.091   0.718  1.00  0.00     0.005 C 
BRANCH  26  27
HETATM   27  C4  UNL     1       6.950   0.945   0.626  1.00  0.00     0.002 C 
BRANCH  27  28
HETATM   28  C5  UNL     1       6.709   2.291   0.032  1.00  0.00     0.026 C 
BRANCH  28  29
HETATM   29  C6  UNL     1       8.031   3.031   0.002  1.00  0.00     0.164 C 
BRANCH  29  30
HETATM   30  O1  UNL     1       8.940   2.313  -0.775  1.00  0.00    -0.401 OA
ATOM     31  H1  UNL     1       9.769   2.777  -0.794  1.00  0.00     0.209 HD
ENDBRANCH  29  30
ENDBRANCH  28  29
ENDBRANCH  27  28
ENDBRANCH  26  27
ENDBRANCH  24  26
ENDBRANCH  16  24
ENDBRANCH   6   7
ENDBRANCH   4   5
BRANCH   4  32
HETATM   32  O3  UNL     1      -5.284   0.860  -1.055  1.00  0.00    -0.390 OA
ATOM     33  H3  UNL     1      -5.665   0.922  -1.923  1.00  0.00     0.210 HD
ENDBRANCH   4  32
ENDBRANCH   1   4
BRANCH   1  34
HETATM   34  C20 UNL     1      -7.731  -0.382   0.223  1.00  0.00     0.022 C 
BRANCH  34  35
HETATM   35  C21 UNL     1      -7.994   1.075  -0.030  1.00  0.00     0.007 C 
BRANCH  35  36
HETATM   36  C22 UNL     1      -9.089   1.572   0.913  1.00  0.00     0.071 C 
BRANCH  36  37
HETATM   37  C23 UNL     1      -9.337   3.035   0.643  1.00  0.00     0.353 C 
HETATM   38  F1  UNL     1     -10.313   3.504   1.475  1.00  0.00    -0.214 F 
HETATM   39  F2  UNL     1      -8.134   3.700   0.846  1.00  0.00    -0.214 F 
ENDBRANCH  36  37
ENDBRANCH  35  36
ENDBRANCH  34  35
ENDBRANCH   1  34
TORSDOF 15
