REMARK  12 active torsions:
REMARK  status: ('A' for Active; 'I' for Inactive)
REMARK    1  A    between atoms: C4_4  and  C5_5 
REMARK       I    between atoms: C5_5  and  N1_7 
REMARK    2  A    between atoms: N1_7  and  C6_9 
REMARK    3  A    between atoms: C6_9  and  C7_12 
REMARK       I    between atoms: C7_12  and  N2_14 
REMARK    4  A    between atoms: N2_14  and  C8_16 
REMARK    5  A    between atoms: C8_16  and  C9_17 
REMARK    6  A    between atoms: C8_16  and  C14_26 
REMARK    7  A    between atoms: C9_17  and  C10_18 
REMARK    8  A    between atoms: C10_18  and  C11_19 
REMARK    9  A    between atoms: C14_26  and  S1_27 
REMARK   10  A    between atoms: S1_27  and  C15_28 
REMARK   11  A    between atoms: C15_28  and  C16_29 
REMARK   12  A    between atoms: C16_29  and  C17_30 
ROOT
HETATM    1  C8  UNL     1      -0.298  -0.700   0.470  1.00  0.00     0.094 C 
ENDROOT
BRANCH   1   2
HETATM    2  N2  UNL     1       0.457   0.244   1.195  1.00  0.00    -0.351 N 
HETATM    3  C7  UNL     1       1.328   1.223   0.697  1.00  0.00     0.278 C 
HETATM    4  O2  UNL     1       1.568   1.356  -0.515  1.00  0.00    -0.268 OA
ATOM      5  H2  UNL     1       0.357   0.211   2.210  1.00  0.00     0.163 HD
BRANCH   3   6
HETATM    6  C6  UNL     1       2.030   2.179   1.628  1.00  0.00     0.271 C 
HETATM    7 CL1  UNL     1       0.951   3.512   2.111  1.00  0.00    -0.068 Cl
HETATM    8 CL2  UNL     1       2.559   1.293   3.061  1.00  0.00    -0.068 Cl
BRANCH   6   9
HETATM    9  N1  UNL     1       3.139   2.749   0.893  1.00  0.00    -0.315 N 
HETATM   10  C5  UNL     1       4.191   1.855   0.496  1.00  0.00     0.244 C 
HETATM   11  O1  UNL     1       4.046   0.649   0.830  1.00  0.00    -0.269 OA
ATOM     12  H1  UNL     1       3.172   3.743   0.667  1.00  0.00     0.166 HD
BRANCH  10  13
HETATM   13  C4  UNL     1       5.307   2.394  -0.231  1.00  0.00     0.076 C 
HETATM   14  C2  UNL     1       6.318   1.675  -0.605  1.00  0.00    -0.082 C 
HETATM   15  C1  UNL     1       6.398   0.235  -0.306  1.00  0.00     0.043 C 
HETATM   16  C3  UNL     1       7.449   2.326  -1.359  1.00  0.00     0.043 C 
ENDBRANCH  10  13
ENDBRANCH   6   9
ENDBRANCH   3   6
ENDBRANCH   1   2
BRANCH   1  17
HETATM   17  C9  UNL     1       0.085  -2.120   0.548  1.00  0.00     0.032 C 
BRANCH  17  18
HETATM   18  C10 UNL     1       1.473  -2.443   0.090  1.00  0.00     0.060 C 
BRANCH  18  19
HETATM   19  C11 UNL     1       1.719  -3.913   0.191  1.00  0.00     0.025 A 
HETATM   20  C12 UNL     1       2.178  -4.639   1.263  1.00  0.00     0.114 A 
HETATM   21  N3  UNL     1       2.258  -5.935   0.892  1.00  0.00    -0.360 N 
HETATM   22  C13 UNL     1       1.869  -6.058  -0.367  1.00  0.00     0.180 A 
ATOM     23  H3  UNL     1       2.570  -6.701   1.490  1.00  0.00     0.166 HD
HETATM   24  N4  UNL     1       1.540  -4.830  -0.799  1.00  0.00    -0.355 N 
ATOM     25  H4  UNL     1       1.203  -4.614  -1.737  1.00  0.00     0.166 HD
ENDBRANCH  18  19
ENDBRANCH  17  18
ENDBRANCH   1  17
BRANCH   1  26
HETATM   26  C14 UNL     1      -0.512  -0.293  -0.984  1.00  0.00     0.099 C 
BRANCH  26  27
HETATM   27  S1  UNL     1      -1.411   1.192  -1.187  1.00  0.00    -0.166 SA
BRANCH  27  28
HETATM   28  C15 UNL     1      -3.106   1.200  -1.441  1.00  0.00     0.084 C 
BRANCH  28  29
HETATM   29  C16 UNL     1      -4.060   0.585  -0.519  1.00  0.00    -0.023 C 
HETATM   30  C18 UNL     1      -3.839   1.229   0.864  1.00  0.00     0.011 C 
HETATM   31  C19 UNL     1      -4.424   2.621   0.912  1.00  0.00     0.001 C 
HETATM   32  C20 UNL     1      -5.936   2.519   0.832  1.00  0.00     0.000 C 
HETATM   33  C21 UNL     1      -6.321   1.178   0.196  1.00  0.00     0.001 C 
HETATM   34  C22 UNL     1      -5.470   0.976  -1.009  1.00  0.00     0.011 C 
BRANCH  29  35
HETATM   35  C17 UNL     1      -4.058  -0.876  -0.315  1.00  0.00     0.096 C 
HETATM   36  S2  UNL     1      -4.364  -1.774  -1.886  1.00  0.00    -0.097 SA
ENDBRANCH  29  35
ENDBRANCH  28  29
ENDBRANCH  27  28
ENDBRANCH  26  27
ENDBRANCH   1  26
TORSDOF 12
