REMARK  14 active torsions:
REMARK  status: ('A' for Active; 'I' for Inactive)
REMARK    1  A    between atoms: C2_2  and  O1_3 
REMARK    2  A    between atoms: C2_2  and  C3_5 
REMARK    3  A    between atoms: C3_5  and  N1_6 
REMARK    4  A    between atoms: C3_5  and  C15_20 
REMARK       I    between atoms: N1_6  and  C4_8 
REMARK    5  A    between atoms: C4_8  and  C5_10 
REMARK    6  A    between atoms: C5_10  and  C6_11 
REMARK    7  A    between atoms: C6_11  and  C7_12 
REMARK    8  A    between atoms: C7_12  and  C8_13 
REMARK    9  A    between atoms: C8_13  and  C9_14 
REMARK   10  A    between atoms: C15_20  and  O3_21 
REMARK   11  A    between atoms: C15_20  and  C16_23 
REMARK   12  A    between atoms: C16_23  and  N2_24 
REMARK   13  A    between atoms: C19_27  and  N3_28 
REMARK   14  A    between atoms: N3_28  and  C20_30 
ROOT
HETATM    1  C20 UNL     1      -8.228   1.068   1.749  1.00  0.00     0.178 C 
HETATM    2  C21 UNL     1      -7.873   0.711   3.097  1.00  0.00     0.104 C 
HETATM    3  N4  UNL     1      -7.604   0.448   4.194  1.00  0.00    -0.191 NA
ENDROOT
BRANCH   1   4
HETATM    4  N3  UNL     1      -7.211   1.139   0.796  1.00  0.00    -0.385 N 
ATOM      5  H3  UNL     1      -6.920   2.057   0.460  1.00  0.00     0.160 HD
BRANCH   4   6
HETATM    6  C19 UNL     1      -6.573   0.002   0.281  1.00  0.00     0.093 C 
HETATM    7  C18 UNL     1      -5.797  -0.867   1.215  1.00  0.00     0.056 C 
HETATM    8  C17 UNL     1      -4.591  -0.102   1.698  1.00  0.00     0.274 C 
HETATM    9  N2  UNL     1      -3.643   0.121   0.602  1.00  0.00     0.091 N 
HETATM   10  C27 UNL     1      -4.230  -0.094  -0.671  1.00  0.00     0.284 C 
HETATM   11  C22 UNL     1      -5.638   0.430  -0.852  1.00  0.00     0.012 C 
HETATM   12  C23 UNL     1      -6.159  -0.142  -2.149  1.00  0.00     0.019 C 
HETATM   13  C26 UNL     1      -5.649   1.895  -1.116  1.00  0.00     0.092 C 
HETATM   14  C24 UNL     1      -5.340   0.623  -3.167  1.00  0.00     0.080 C 
HETATM   15  C25 UNL     1      -5.309   2.013  -2.603  1.00  0.00     0.244 C 
HETATM   16  F1  UNL     1      -4.088   2.577  -2.808  1.00  0.00    -0.206 F 
HETATM   17  F2  UNL     1      -6.347   2.712  -3.227  1.00  0.00    -0.206 F 
BRANCH   9  18
HETATM   18  C16 UNL     1      -2.470  -0.695   0.788  1.00  0.00     0.306 C 
BRANCH  18  19
HETATM   19  C15 UNL     1      -1.394  -0.433  -0.189  1.00  0.00     0.171 C 
BRANCH  19  20
HETATM   20  C3  UNL     1      -0.015  -0.909   0.250  1.00  0.00     0.143 C 
BRANCH  20  21
HETATM   21  C2  UNL     1       0.073  -2.399   0.037  1.00  0.00     0.139 C 
HETATM   22  C1  UNL     1       1.387  -2.944   0.587  1.00  0.00     0.041 C 
BRANCH  21  23
HETATM   23  O1  UNL     1      -0.119  -2.793  -1.279  1.00  0.00    -0.394 OA
ATOM     24  H1  UNL     1      -0.937  -2.454  -1.622  1.00  0.00     0.210 HD
ENDBRANCH  21  23
ENDBRANCH  20  21
BRANCH  20  25
HETATM   25  N1  UNL     1       0.938  -0.179  -0.529  1.00  0.00    -0.351 N 
HETATM   26  C4  UNL     1       1.965   0.634   0.010  1.00  0.00     0.218 C 
HETATM   27  O2  UNL     1       2.053   0.718   1.253  1.00  0.00    -0.274 OA
ATOM     28  H1  UNL     1       0.873  -0.249  -1.545  1.00  0.00     0.163 HD
BRANCH  26  29
HETATM   29  C5  UNL     1       2.919   1.379  -0.835  1.00  0.00     0.103 C 
BRANCH  29  30
HETATM   30  C6  UNL     1       3.989   2.104  -0.115  1.00  0.00     0.009 C 
BRANCH  30  31
HETATM   31  C7  UNL     1       4.944   1.299   0.695  1.00  0.00     0.001 C 
BRANCH  31  32
HETATM   32  C8  UNL     1       5.678   0.330  -0.176  1.00  0.00     0.004 C 
BRANCH  32  33
HETATM   33  C9  UNL     1       6.665  -0.547   0.498  1.00  0.00    -0.014 C 
HETATM   34  C10 UNL     1       7.343  -1.477  -0.515  1.00  0.00     0.004 C 
HETATM   35  C11 UNL     1       8.321  -0.637  -1.296  1.00  0.00     0.000 C 
HETATM   36  C12 UNL     1       9.356  -0.033  -0.431  1.00  0.00     0.000 C 
HETATM   37  C13 UNL     1       8.873   0.639   0.803  1.00  0.00     0.000 C 
HETATM   38  C14 UNL     1       7.628   0.096   1.400  1.00  0.00     0.004 C 
ENDBRANCH  32  33
ENDBRANCH  31  32
ENDBRANCH  30  31
ENDBRANCH  29  30
ENDBRANCH  26  29
ENDBRANCH  20  25
ENDBRANCH  19  20
BRANCH  19  39
HETATM   39  O3  UNL     1      -1.646  -0.675  -1.517  1.00  0.00    -0.392 OA
ATOM     40  H3  UNL     1      -2.506  -0.378  -1.791  1.00  0.00     0.210 HD
ENDBRANCH  19  39
ENDBRANCH  18  19
ENDBRANCH   9  18
ENDBRANCH   4   6
ENDBRANCH   1   4
TORSDOF 14
