REMARK  13 active torsions:
REMARK  status: ('A' for Active; 'I' for Inactive)
REMARK    1  A    between atoms: O1_2  and  C2_3 
REMARK    2  A    between atoms: C7_9  and  O2_10 
REMARK    3  A    between atoms: N1_14  and  C10_15 
REMARK    4  A    between atoms: C10_15  and  C11_16 
REMARK    5  A    between atoms: C11_16  and  C12_17 
REMARK    6  A    between atoms: C12_17  and  C13_18 
REMARK    7  A    between atoms: C13_18  and  C14_19 
REMARK    8  A    between atoms: C14_19  and  C15_21 
REMARK    9  A    between atoms: C15_21  and  N2_22 
REMARK   10  A    between atoms: C15_21  and  C16_26 
REMARK   11  A    between atoms: C16_26  and  C17_27 
REMARK   12  A    between atoms: C17_27  and  C18_28 
REMARK   13  A    between atoms: C18_28  and  N3_29 
REMARK       I    between atoms: N3_29  and  C19_31 
ROOT
HETATM    1  C12 UNL     1       1.392  -1.519   0.296  1.00  0.00     0.003 C 
ENDROOT
BRANCH   1   2
HETATM    2  C11 UNL     1       0.172  -0.746  -0.154  1.00  0.00     0.020 C 
BRANCH   2   3
HETATM    3  C10 UNL     1      -0.980  -0.907   0.809  1.00  0.00     0.125 C 
BRANCH   3   4
HETATM    4  N1  UNL     1      -2.090  -0.155   0.320  1.00  0.00    -0.360 N 
HETATM    5  C9  UNL     1      -2.723  -0.615  -0.831  1.00  0.00     0.307 C 
HETATM    6  C5  UNL     1      -4.156  -0.148  -0.807  1.00  0.00     0.022 A 
HETATM    7  F1  UNL     1      -2.133  -0.054  -1.959  1.00  0.00    -0.221 F 
HETATM    8  C4  UNL     1      -4.315   1.197  -0.448  1.00  0.00    -0.038 A 
HETATM    9  C6  UNL     1      -5.220  -0.923  -1.109  1.00  0.00     0.058 A 
HETATM   10  C3  UNL     1      -5.576   1.718  -0.408  1.00  0.00     0.047 A 
HETATM   11  C21 UNL     1      -3.081   1.993  -0.113  1.00  0.00     0.083 C 
HETATM   12  C2  UNL     1      -6.675   0.919  -0.721  1.00  0.00     0.103 A 
HETATM   13  C7  UNL     1      -6.505  -0.429  -1.079  1.00  0.00     0.119 A 
HETATM   14  C20 UNL     1      -2.253   1.134   0.810  1.00  0.00     0.066 C 
HETATM   15 BR1  UNL     1      -4.935  -2.756  -1.590  1.00  0.00    -0.047 Br
BRANCH  12  16
HETATM   16  O1  UNL     1      -7.974   1.370  -0.706  1.00  0.00    -0.353 OA
HETATM   17  C1  UNL     1      -8.347   2.679  -0.389  1.00  0.00     0.210 C 
ENDBRANCH  12  16
BRANCH  13  18
HETATM   18  O2  UNL     1      -7.597  -1.224  -1.389  1.00  0.00    -0.352 OA
HETATM   19  C8  UNL     1      -8.223  -1.942  -0.321  1.00  0.00     0.210 C 
ENDBRANCH  13  18
ENDBRANCH   3   4
ENDBRANCH   2   3
ENDBRANCH   1   2
BRANCH   1  20
HETATM   20  C13 UNL     1       1.866  -1.102   1.654  1.00  0.00     0.018 C 
BRANCH  20  21
HETATM   21  C14 UNL     1       3.095  -1.841   2.092  1.00  0.00     0.089 C 
HETATM   22  S1  UNL     1       3.614  -1.312   3.765  1.00  0.00    -0.090 SA
BRANCH  21  23
HETATM   23  C15 UNL     1       4.271  -1.544   1.164  1.00  0.00     0.198 C 
BRANCH  23  24
HETATM   24  N2  UNL     1       5.416  -2.291   1.649  1.00  0.00    -0.074 N 
ATOM     25  H23 UNL     1       5.627  -2.101   2.629  1.00  0.00     0.274 HD
ATOM     26  H22 UNL     1       5.227  -3.289   1.742  1.00  0.00     0.274 HD
ATOM     27  H21 UNL     1       6.201  -2.093   1.029  1.00  0.00     0.274 HD
ENDBRANCH  23  24
BRANCH  23  28
HETATM   28  C16 UNL     1       4.628  -0.074   1.248  1.00  0.00     0.035 C 
BRANCH  28  29
HETATM   29  C17 UNL     1       5.785   0.271   0.355  1.00  0.00     0.022 C 
BRANCH  29  30
HETATM   30  C18 UNL     1       5.510  -0.021  -1.104  1.00  0.00     0.122 C 
BRANCH  30  31
HETATM   31  N3  UNL     1       6.629   0.333  -1.947  1.00  0.00    -0.365 N 
HETATM   32  C19 UNL     1       7.024   1.695  -2.165  1.00  0.00     0.181 C 
HETATM   33  N4  UNL     1       6.186   2.602  -2.531  1.00  0.00    -0.374 N 
HETATM   34  N5  UNL     1       8.387   2.106  -1.979  1.00  0.00    -0.064 NA
ATOM     35  H42 UNL     1       5.218   2.310  -2.663  1.00  0.00     0.158 HD
ATOM     36  H41 UNL     1       6.467   3.570  -2.686  1.00  0.00     0.158 HD
ATOM     37  H3  UNL     1       7.157  -0.411  -2.403  1.00  0.00     0.162 HD
ENDBRANCH  30  31
ENDBRANCH  29  30
ENDBRANCH  28  29
ENDBRANCH  23  28
ENDBRANCH  21  23
ENDBRANCH  20  21
ENDBRANCH   1  20
TORSDOF 13
