REMARK  14 active torsions:
REMARK  status: ('A' for Active; 'I' for Inactive)
REMARK    1  A    between atoms: C1_2  and  C2_3 
REMARK    2  A    between atoms: C2_3  and  C3_4 
REMARK    3  A    between atoms: C3_4  and  C4_5 
REMARK    4  A    between atoms: C4_5  and  C5_6 
REMARK    5  A    between atoms: C5_6  and  C6_7 
REMARK    6  A    between atoms: C6_7  and  C7_8 
REMARK    7  A    between atoms: C7_8  and  C8_9 
REMARK    8  A    between atoms: C8_9  and  C9_10 
REMARK    9  A    between atoms: C9_10  and  O1_11 
REMARK   10  A    between atoms: O1_11  and  C10_12 
REMARK   11  A    between atoms: C13_15  and  N2_16 
REMARK   12  A    between atoms: N2_16  and  S1_18 
REMARK   13  A    between atoms: S1_18  and  C14_21 
REMARK   14  A    between atoms: N6_37  and  O4_39 
ROOT
HETATM    1  C10 UNL     1       1.025   1.045  -0.986  1.00  0.00     0.144 A 
HETATM    2  C11 UNL     1       2.023   0.266  -0.443  1.00  0.00     0.075 A 
HETATM    3  C12 UNL     1       3.181   0.370  -1.206  1.00  0.00     0.057 A 
HETATM    4  C13 UNL     1       4.447  -0.201  -1.093  1.00  0.00     0.130 A 
HETATM    5  N3  UNL     1       5.338   0.134  -2.031  1.00  0.00    -0.337 N 
ATOM      6  H3  UNL     1       6.278  -0.260  -1.992  1.00  0.00     0.168 HD
HETATM    7  C20 UNL     1       5.017   0.982  -3.027  1.00  0.00     0.183 A 
HETATM    8  N4  UNL     1       3.789   1.541  -3.143  1.00  0.00    -0.338 N 
ATOM      9  H4  UNL     1       3.578   2.179  -3.910  1.00  0.00     0.168 HD
HETATM   10  C21 UNL     1       2.852   1.237  -2.225  1.00  0.00     0.122 A 
HETATM   11  N5  UNL     1       1.570   1.619  -2.067  1.00  0.00    -0.322 N 
ATOM     12  H5  UNL     1       1.079   2.261  -2.689  1.00  0.00     0.169 HD
ENDROOT
BRANCH   1  13
HETATM   13  O1  UNL     1      -0.258   1.172  -0.476  1.00  0.00    -0.336 OA
BRANCH  13  14
HETATM   14  C9  UNL     1      -0.629   0.468   0.692  1.00  0.00     0.177 C 
BRANCH  14  15
HETATM   15  C8  UNL     1      -2.080   0.823   0.977  1.00  0.00     0.027 C 
BRANCH  15  16
HETATM   16  C7  UNL     1      -2.975   0.421  -0.177  1.00  0.00     0.002 C 
BRANCH  16  17
HETATM   17  C6  UNL     1      -4.389   0.812   0.198  1.00  0.00     0.000 C 
BRANCH  17  18
HETATM   18  C5  UNL     1      -5.378   0.457  -0.888  1.00  0.00     0.000 C 
BRANCH  18  19
HETATM   19  C4  UNL     1      -5.446  -0.980  -1.198  1.00  0.00     0.000 C 
BRANCH  19  20
HETATM   20  C3  UNL     1      -5.890  -1.946  -0.183  1.00  0.00     0.007 C 
BRANCH  20  21
HETATM   21  C2  UNL     1      -7.264  -1.924   0.325  1.00  0.00     0.075 C 
BRANCH  21  22
HETATM   22  C1  UNL     1      -7.803  -0.774   1.020  1.00  0.00     0.113 C 
HETATM   23  N1  UNL     1      -7.309  -0.305   2.275  1.00  0.00    -0.086 NA
HETATM   24  N6  UNL     1      -8.813  -0.117   0.519  1.00  0.00    -0.260 N 
ATOM     25  H6  UNL     1      -9.209  -0.406  -0.375  1.00  0.00     0.195 HD
BRANCH  24  26
HETATM   26  O4  UNL     1      -9.338   0.940   1.172  1.00  0.00    -0.289 OA
ATOM     27  H4  UNL     1     -10.073   1.418   0.807  1.00  0.00     0.244 HD
ENDBRANCH  24  26
ENDBRANCH  21  22
ENDBRANCH  20  21
ENDBRANCH  19  20
ENDBRANCH  18  19
ENDBRANCH  17  18
ENDBRANCH  16  17
ENDBRANCH  15  16
ENDBRANCH  14  15
ENDBRANCH  13  14
ENDBRANCH   1  13
BRANCH   4  28
HETATM   28  N2  UNL     1       4.643  -0.984  -0.119  1.00  0.00    -0.265 N 
ATOM     29  H2  UNL     1       3.850  -1.131   0.506  1.00  0.00     0.180 HD
BRANCH  28  30
HETATM   30  S1  UNL     1       6.063  -1.816   0.270  1.00  0.00     0.266 S 
HETATM   31  O2  UNL     1       6.514  -2.627  -0.917  1.00  0.00    -0.200 OA
HETATM   32  O3  UNL     1       5.736  -2.818   1.368  1.00  0.00    -0.200 OA
BRANCH  30  33
HETATM   33  C14 UNL     1       7.333  -0.801   0.872  1.00  0.00     0.101 A 
HETATM   34  C15 UNL     1       7.207   0.554   1.023  1.00  0.00     0.029 A 
HETATM   35  C16 UNL     1       8.243   1.347   1.509  1.00  0.00     0.025 A 
HETATM   36  C17 UNL     1       9.449   0.763   1.857  1.00  0.00     0.035 A 
HETATM   37 CL1  UNL     1      10.789   1.708   2.473  1.00  0.00    -0.084 Cl
HETATM   38  C18 UNL     1       9.565  -0.613   1.699  1.00  0.00     0.049 A 
HETATM   39  C19 UNL     1       8.529  -1.387   1.216  1.00  0.00     0.059 A 
HETATM   40 CL2  UNL     1       8.756  -3.131   1.046  1.00  0.00    -0.083 Cl
ENDBRANCH  30  33
ENDBRANCH  28  30
ENDBRANCH   4  28
TORSDOF 14
