REMARK  15 active torsions:
REMARK  status: ('A' for Active; 'I' for Inactive)
REMARK    1  A    between atoms: C2_2  and  C3_3 
REMARK    2  A    between atoms: C3_3  and  C4_4 
REMARK    3  A    between atoms: C4_4  and  C6_6 
REMARK    4  A    between atoms: C4_4  and  C7_9 
REMARK    5  A    between atoms: C6_6  and  O1_7 
REMARK    6  A    between atoms: C7_9  and  C8_10 
REMARK    7  A    between atoms: C8_10  and  C9_11 
REMARK    8  A    between atoms: C9_11  and  C10_13 
REMARK    9  A    between atoms: C10_13  and  C11_14 
REMARK   10  A    between atoms: C11_14  and  C12_15 
REMARK   11  A    between atoms: C12_15  and  C13_16 
REMARK   12  A    between atoms: C13_16  and  C14_17 
REMARK   13  A    between atoms: C17_20  and  O3_22 
REMARK   14  A    between atoms: C23_28  and  O4_29 
REMARK   15  A    between atoms: C27_34  and  O5_35 
ROOT
HETATM    1  C14 UNL     1      -1.842   0.075   0.760  1.00  0.00    -0.005 C 
HETATM    2  C15 UNL     1      -2.199  -1.389   0.327  1.00  0.00    -0.003 C 
HETATM    3  C16 UNL     1      -1.187  -2.355   0.960  1.00  0.00     0.043 C 
HETATM    4  C17 UNL     1      -1.689  -3.745   0.717  1.00  0.00     0.054 C 
HETATM    5  C18 UNL     1      -2.069  -3.976  -0.706  1.00  0.00     0.045 C 
HETATM    6  C19 UNL     1      -2.914  -3.967   1.585  1.00  0.00     0.038 C 
HETATM    7  C20 UNL     1      -3.524  -2.659   2.024  1.00  0.00     0.008 C 
HETATM    8  C21 UNL     1      -3.535  -1.639   0.893  1.00  0.00    -0.003 C 
HETATM    9  C22 UNL     1      -3.924  -0.313   1.517  1.00  0.00     0.024 C 
HETATM   10  C23 UNL     1      -5.395  -0.164   1.522  1.00  0.00     0.123 C 
HETATM   11  C24 UNL     1      -5.813   0.143   0.083  1.00  0.00     0.037 C 
HETATM   12  C25 UNL     1      -5.262   1.502  -0.140  1.00  0.00    -0.001 C 
HETATM   13  C26 UNL     1      -5.939   2.203  -1.263  1.00  0.00     0.037 C 
HETATM   14  C27 UNL     1      -5.254   3.396  -1.803  1.00  0.00     0.118 C 
HETATM   15  C28 UNL     1      -4.111   3.924  -1.031  1.00  0.00     0.032 C 
HETATM   16  C29 UNL     1      -3.600   3.095   0.092  1.00  0.00     0.012 C 
HETATM   17  C30 UNL     1      -3.735   1.572  -0.186  1.00  0.00    -0.036 C 
HETATM   18  C31 UNL     1      -3.366   1.269  -1.608  1.00  0.00     0.016 C 
HETATM   19  C32 UNL     1      -3.106   0.783   0.854  1.00  0.00     0.005 C 
ENDROOT
BRANCH   1  20
HETATM   20  C13 UNL     1      -0.590   0.407   0.165  1.00  0.00     0.005 C 
BRANCH  20  21
HETATM   21  C12 UNL     1       0.031   1.748   0.412  1.00  0.00     0.001 C 
BRANCH  21  22
HETATM   22  C11 UNL     1       1.386   1.913  -0.264  1.00  0.00     0.007 C 
BRANCH  22  23
HETATM   23  C10 UNL     1       2.372   0.892   0.230  1.00  0.00     0.078 C 
BRANCH  23  24
HETATM   24  C9  UNL     1       3.687   1.150  -0.477  1.00  0.00     0.127 C 
HETATM   25  O2  UNL     1       3.775   2.047  -1.265  1.00  0.00    -0.298 OA
BRANCH  24  26
HETATM   26  C8  UNL     1       4.863   0.296  -0.195  1.00  0.00     0.079 C 
BRANCH  26  27
HETATM   27  C7  UNL     1       6.030   0.765  -1.025  1.00  0.00     0.019 C 
BRANCH  27  28
HETATM   28  C4  UNL     1       7.267  -0.045  -0.802  1.00  0.00    -0.019 C 
HETATM   29  C5  UNL     1       8.347   0.496  -1.724  1.00  0.00     0.018 C 
BRANCH  28  30
HETATM   30  C3  UNL     1       7.084  -1.503  -1.140  1.00  0.00     0.037 C 
BRANCH  30  31
HETATM   31  C2  UNL     1       8.372  -2.190  -0.916  1.00  0.00    -0.036 C 
HETATM   32  C1  UNL     1       8.533  -3.182  -0.062  1.00  0.00     0.007 C 
ENDBRANCH  30  31
ENDBRANCH  28  30
BRANCH  28  33
HETATM   33  C6  UNL     1       7.764   0.125   0.610  1.00  0.00     0.173 C 
BRANCH  33  34
HETATM   34  O1  UNL     1       7.918   1.482   0.876  1.00  0.00    -0.400 OA
ATOM     35  H1  UNL     1       8.231   1.589   1.766  1.00  0.00     0.209 HD
ENDBRANCH  33  34
ENDBRANCH  28  33
ENDBRANCH  27  28
ENDBRANCH  26  27
ENDBRANCH  24  26
ENDBRANCH  23  24
ENDBRANCH  22  23
ENDBRANCH  21  22
ENDBRANCH  20  21
ENDBRANCH   1  20
BRANCH   4  36
HETATM   36  O3  UNL     1      -0.660  -4.622   1.063  1.00  0.00    -0.390 OA
ATOM     37  H3  UNL     1      -0.978  -5.504   0.909  1.00  0.00     0.210 HD
ENDBRANCH   4  36
BRANCH  10  38
HETATM   38  O4  UNL     1      -5.872   0.816   2.347  1.00  0.00    -0.395 OA
ATOM     39  H4  UNL     1      -6.817   0.912   2.350  1.00  0.00     0.210 HD
ENDBRANCH  10  38
BRANCH  14  40
HETATM   40  O5  UNL     1      -6.205   4.428  -1.938  1.00  0.00    -0.396 OA
ATOM     41  H5  UNL     1      -5.765   5.195  -2.285  1.00  0.00     0.210 HD
ENDBRANCH  14  40
TORSDOF 15
