REMARK  14 active torsions:
REMARK  status: ('A' for Active; 'I' for Inactive)
REMARK    1  A    between atoms: N1_2  and  C2_5 
REMARK    2  A    between atoms: C2_5  and  C3_6 
REMARK    3  A    between atoms: C3_6  and  C4_7 
REMARK    4  A    between atoms: C4_7  and  O1_8 
REMARK    5  A    between atoms: C9_14  and  C10_15 
REMARK    6  A    between atoms: C11_16  and  C12_17 
REMARK    7  A    between atoms: C12_17  and  C13_18 
REMARK    8  A    between atoms: C18_24  and  C19_25 
REMARK    9  A    between atoms: C19_25  and  C21_27 
REMARK   10  A    between atoms: C21_27  and  C22_28 
REMARK   11  A    between atoms: C22_28  and  C23_29 
REMARK   12  A    between atoms: C23_29  and  C24_30 
REMARK   13  A    between atoms: C24_30  and  O3_33 
REMARK   14  A    between atoms: C27_35  and  O4_36 
ROOT
HETATM    1  C12 UNL     1       0.112  -0.995   0.127  1.00  0.00    -0.122 C 
ENDROOT
BRANCH   1   2
HETATM    2  C11 UNL     1      -1.268  -0.587  -0.025  1.00  0.00     0.050 C 
HETATM    3  C10 UNL     1      -1.825  -0.499  -1.219  1.00  0.00    -0.013 C 
BRANCH   3   4
HETATM    4  C9  UNL     1      -3.185  -0.105  -1.482  1.00  0.00     0.017 C 
HETATM    5  C7  UNL     1      -4.132  -0.062  -0.388  1.00  0.00    -0.029 C 
HETATM    6  C6  UNL     1      -4.284   1.018   0.565  1.00  0.00     0.011 C 
HETATM    7  C8  UNL     1      -4.179  -1.385   0.307  1.00  0.00     0.016 C 
HETATM    8  C31 UNL     1      -5.431   0.170  -1.226  1.00  0.00    -0.025 C 
HETATM    9  C5  UNL     1      -5.701   0.631   1.040  1.00  0.00     0.015 C 
HETATM   10  C3  UNL     1      -6.484   0.509  -0.308  1.00  0.00     0.013 C 
HETATM   11  C30 UNL     1      -5.370  -1.105  -1.975  1.00  0.00     0.011 C 
HETATM   12  C32 UNL     1      -5.195   1.252  -2.262  1.00  0.00     0.017 C 
HETATM   13  C29 UNL     1      -3.894  -1.216  -2.304  1.00  0.00     0.010 C 
BRANCH  10  14
HETATM   14  C2  UNL     1      -7.100   1.905  -0.381  1.00  0.00     0.244 C 
BRANCH  14  15
HETATM   15  N1  UNL     1      -8.107   2.116  -1.346  1.00  0.00    -0.078 N 
HETATM   16  C1  UNL     1      -8.524   3.524  -1.213  1.00  0.00     0.267 C 
ATOM     17  H12 UNL     1      -8.882   1.456  -1.273  1.00  0.00     0.276 HD
ATOM     18  H11 UNL     1      -7.818   1.868  -2.292  1.00  0.00     0.276 HD
ENDBRANCH  14  15
ENDBRANCH  10  14
BRANCH  10  19
HETATM   19  C4  UNL     1      -7.586  -0.471  -0.030  1.00  0.00     0.176 C 
BRANCH  19  20
HETATM   20  O1  UNL     1      -8.190  -0.141   1.203  1.00  0.00    -0.400 OA
ATOM     21  H1  UNL     1      -8.888  -0.761   1.379  1.00  0.00     0.209 HD
ENDBRANCH  19  20
ENDBRANCH  10  19
ENDBRANCH   3   4
ENDBRANCH   1   2
BRANCH   1  22
HETATM   22  C13 UNL     1       1.283  -1.340   0.259  1.00  0.00     0.222 C 
HETATM   23  O2  UNL     1       2.207  -1.698  -0.793  1.00  0.00    -0.365 OA
HETATM   24  C14 UNL     1       3.523  -1.532  -0.403  1.00  0.00     0.135 C 
HETATM   25  C15 UNL     1       4.290  -2.834  -0.302  1.00  0.00     0.033 C 
HETATM   26  C18 UNL     1       3.479  -0.942   0.983  1.00  0.00     0.019 C 
HETATM   27  C16 UNL     1       4.931  -2.871   1.051  1.00  0.00     0.004 C 
HETATM   28  C17 UNL     1       4.569  -1.586   1.767  1.00  0.00     0.015 C 
HETATM   29  C27 UNL     1       2.140  -1.515   1.477  1.00  0.00     0.172 C 
BRANCH  26  30
HETATM   30  C19 UNL     1       3.443   0.533   0.941  1.00  0.00    -0.005 C 
HETATM   31  C20 UNL     1       3.418   1.173   2.318  1.00  0.00     0.011 C 
BRANCH  30  32
HETATM   32  C21 UNL     1       4.388   1.167   0.011  1.00  0.00     0.005 C 
BRANCH  32  33
HETATM   33  C22 UNL     1       5.843   0.926   0.203  1.00  0.00     0.003 C 
BRANCH  33  34
HETATM   34  C23 UNL     1       6.685   1.673  -0.845  1.00  0.00     0.037 C 
BRANCH  34  35
HETATM   35  C24 UNL     1       8.156   1.407  -0.533  1.00  0.00     0.051 C 
HETATM   36  C25 UNL     1       9.035   2.101  -1.524  1.00  0.00     0.045 C 
HETATM   37  C26 UNL     1       8.482  -0.063  -0.486  1.00  0.00     0.045 C 
BRANCH  35  38
HETATM   38  O3  UNL     1       8.444   1.978   0.731  1.00  0.00    -0.391 OA
ATOM     39  H3  UNL     1       9.359   1.813   0.925  1.00  0.00     0.210 HD
ENDBRANCH  35  38
ENDBRANCH  34  35
ENDBRANCH  33  34
ENDBRANCH  32  33
ENDBRANCH  30  32
ENDBRANCH  26  30
BRANCH  29  40
HETATM   40  O4  UNL     1       2.318  -2.786   1.861  1.00  0.00    -0.386 OA
HETATM   41  C28 UNL     1       1.859  -3.154   3.097  1.00  0.00     0.202 C 
ENDBRANCH  29  40
ENDBRANCH   1  22
TORSDOF 14
