REMARK  15 active torsions:
REMARK  status: ('A' for Active; 'I' for Inactive)
REMARK    1  A    between atoms: C4_4  and  C5_5 
REMARK    2  A    between atoms: C5_5  and  C6_6 
REMARK    3  A    between atoms: C9_9  and  O1_10 
REMARK    4  A    between atoms: C11_13  and  O2_14 
REMARK    5  A    between atoms: C21_25  and  C22_26 
REMARK    6  A    between atoms: C22_26  and  O3_28 
REMARK    7  A    between atoms: C22_26  and  C24_30 
REMARK    8  A    between atoms: C24_30  and  C25_31 
REMARK    9  A    between atoms: C25_31  and  C26_32 
REMARK   10  A    between atoms: C26_32  and  C27_33 
REMARK   11  A    between atoms: C26_32  and  C28_36 
REMARK   12  A    between atoms: C27_33  and  O4_34 
REMARK   13  A    between atoms: C28_36  and  C29_37 
REMARK   14  A    between atoms: C29_37  and  C30_38 
REMARK   15  A    between atoms: C30_38  and  O5_39 
ROOT
HETATM    1  C1  UNL     1      -0.412  -1.095   0.164  1.00  0.00     0.015 C 
HETATM    2  C2  UNL     1      -0.554   0.100  -0.396  1.00  0.00    -0.079 C 
HETATM    3  C3  UNL     1      -1.879   0.767  -0.297  1.00  0.00     0.027 C 
HETATM    4  C4  UNL     1      -2.996   0.216  -1.071  1.00  0.00    -0.002 C 
HETATM    5  C13 UNL     1      -2.473   0.270  -2.483  1.00  0.00     0.006 C 
HETATM    6  C14 UNL     1      -1.967   1.720  -2.484  1.00  0.00     0.011 C 
HETATM    7  C15 UNL     1      -1.673   2.063  -1.045  1.00  0.00    -0.028 C 
HETATM    8  C16 UNL     1      -2.573   3.159  -0.558  1.00  0.00     0.016 C 
HETATM    9  C17 UNL     1      -0.241   2.316  -0.822  1.00  0.00    -0.028 C 
HETATM   10  C18 UNL     1       0.324   3.405  -1.712  1.00  0.00     0.016 C 
HETATM   11  C19 UNL     1       0.166   2.491   0.609  1.00  0.00     0.011 C 
HETATM   12  C20 UNL     1       1.341   1.538   0.884  1.00  0.00     0.009 C 
HETATM   13  C21 UNL     1       1.723   1.240  -0.525  1.00  0.00     0.028 C 
HETATM   14  C32 UNL     1       0.426   0.947  -1.135  1.00  0.00     0.030 C 
ENDROOT
BRANCH  13  15
HETATM   15  C22 UNL     1       2.977   0.601  -0.845  1.00  0.00     0.058 C 
HETATM   16  C23 UNL     1       4.078   1.542  -0.303  1.00  0.00     0.046 C 
BRANCH  15  17
HETATM   17  O3  UNL     1       3.146   0.698  -2.253  1.00  0.00    -0.390 OA
ATOM     18  H3  UNL     1       3.971   0.277  -2.464  1.00  0.00     0.210 HD
ENDBRANCH  15  17
BRANCH  15  19
HETATM   19  C24 UNL     1       3.358  -0.745  -0.452  1.00  0.00     0.038 C 
BRANCH  19  20
HETATM   20  C25 UNL     1       4.749  -1.049  -0.988  1.00  0.00     0.010 C 
BRANCH  20  21
HETATM   21  C26 UNL     1       5.265  -2.394  -0.688  1.00  0.00     0.009 C 
BRANCH  21  22
HETATM   22  C27 UNL     1       4.351  -3.467  -1.331  1.00  0.00     0.168 C 
BRANCH  22  23
HETATM   23  O4  UNL     1       4.967  -4.688  -0.976  1.00  0.00    -0.400 OA
ATOM     24  H4  UNL     1       4.407  -5.346  -1.370  1.00  0.00     0.209 HD
ENDBRANCH  22  23
ENDBRANCH  21  22
BRANCH  21  25
HETATM   25  C28 UNL     1       5.627  -2.796   0.676  1.00  0.00     0.009 C 
BRANCH  25  26
HETATM   26  C29 UNL     1       6.687  -2.127   1.448  1.00  0.00     0.027 C 
BRANCH  26  27
HETATM   27  C30 UNL     1       6.574  -0.707   1.821  1.00  0.00     0.167 C 
BRANCH  27  28
HETATM   28  O5  UNL     1       7.696  -0.293   2.599  1.00  0.00    -0.396 OA
HETATM   29  C31 UNL     1       7.450   1.062   2.875  1.00  0.00     0.201 C 
ENDBRANCH  27  28
ENDBRANCH  26  27
ENDBRANCH  25  26
ENDBRANCH  21  25
ENDBRANCH  20  21
ENDBRANCH  19  20
ENDBRANCH  15  19
ENDBRANCH  13  15
BRANCH   4  30
HETATM   30  C5  UNL     1      -3.670  -1.012  -0.676  1.00  0.00     0.032 C 
BRANCH  30  31
HETATM   31  C6  UNL     1      -4.272  -0.882   0.703  1.00  0.00    -0.023 C 
HETATM   32  C7  UNL     1      -5.552  -1.014   0.936  1.00  0.00    -0.079 C 
HETATM   33  C8  UNL     1      -6.097  -0.879   2.297  1.00  0.00     0.065 C 
HETATM   34  C12 UNL     1      -6.473  -1.302  -0.180  1.00  0.00     0.065 C 
HETATM   35  C9  UNL     1      -7.396  -0.148   2.366  1.00  0.00     0.124 C 
HETATM   36  C10 UNL     1      -8.200  -0.168   1.108  1.00  0.00     0.064 C 
HETATM   37  C11 UNL     1      -7.914  -1.372   0.277  1.00  0.00     0.124 C 
BRANCH  35  38
HETATM   38  O1  UNL     1      -7.186   1.155   2.818  1.00  0.00    -0.395 OA
ATOM     39  H1  UNL     1      -8.013   1.620   2.862  1.00  0.00     0.210 HD
ENDBRANCH  35  38
BRANCH  37  40
HETATM   40  O2  UNL     1      -8.223  -2.524   0.953  1.00  0.00    -0.395 OA
ATOM     41  H2  UNL     1      -8.041  -3.291   0.423  1.00  0.00     0.210 HD
ENDBRANCH  37  40
ENDBRANCH  30  31
ENDBRANCH   4  30
TORSDOF 15
