REMARK  13 active torsions:
REMARK  status: ('A' for Active; 'I' for Inactive)
REMARK    1  A    between atoms: C2_2  and  C3_3 
REMARK    2  A    between atoms: C3_3  and  C4_4 
REMARK    3  A    between atoms: C4_4  and  C5_5 
REMARK    4  A    between atoms: C5_5  and  O1_6 
REMARK    5  A    between atoms: O1_6  and  C6_7 
REMARK    6  A    between atoms: C8_12  and  C9_13 
REMARK    7  A    between atoms: C9_13  and  C10_14 
REMARK    8  A    between atoms: C10_14  and  C11_15 
REMARK    9  A    between atoms: C11_15  and  C12_16 
REMARK   10  A    between atoms: C14_18  and  C15_19 
REMARK   11  A    between atoms: C22_26  and  O2_27 
REMARK   12  A    between atoms: C29_35  and  O3_36 
REMARK   13  A    between atoms: C31_39  and  O4_40 
ROOT
HETATM    1  C15 UNL     1      -0.555  -0.760  -0.187  1.00  0.00     0.001 C 
HETATM    2  C16 UNL     1      -0.484  -0.650  -1.673  1.00  0.00     0.006 C 
HETATM    3  C17 UNL     1       0.657   0.309  -1.873  1.00  0.00     0.010 C 
HETATM    4  C18 UNL     1       1.674   0.006  -0.747  1.00  0.00    -0.032 C 
HETATM    5  C19 UNL     1       2.425   1.267  -0.494  1.00  0.00     0.010 C 
HETATM    6  C20 UNL     1       3.829   1.340  -0.958  1.00  0.00     0.009 C 
HETATM    7  C21 UNL     1       4.868   0.507  -0.441  1.00  0.00     0.023 C 
HETATM    8  C22 UNL     1       6.142   1.346  -0.159  1.00  0.00     0.123 C 
HETATM    9  C23 UNL     1       7.076   0.277   0.299  1.00  0.00     0.033 C 
HETATM   10  C24 UNL     1       6.217  -0.862   0.804  1.00  0.00     0.012 C 
HETATM   11  C25 UNL     1       4.788  -0.263   0.794  1.00  0.00    -0.032 C 
HETATM   12  C26 UNL     1       4.821   0.585   2.070  1.00  0.00     0.016 C 
HETATM   13  C27 UNL     1       3.742  -1.337   0.913  1.00  0.00     0.025 C 
HETATM   14  C28 UNL     1       2.660  -1.048   1.883  1.00  0.00     0.040 C 
HETATM   15  C29 UNL     1       1.242  -1.194   1.453  1.00  0.00     0.123 C 
HETATM   16  C30 UNL     1       0.750  -0.289   0.392  1.00  0.00     0.028 C 
HETATM   17  C31 UNL     1       3.288  -1.922  -0.382  1.00  0.00     0.123 C 
HETATM   18  C32 UNL     1       2.460  -1.127  -1.263  1.00  0.00     0.042 C 
ENDROOT
BRANCH   1  19
HETATM   19  C14 UNL     1      -1.786  -0.289   0.454  1.00  0.00     0.051 C 
HETATM   20  C6  UNL     1      -2.990  -1.144  -0.032  1.00  0.00     0.153 C 
HETATM   21  C7  UNL     1      -4.081  -0.402   0.700  1.00  0.00     0.265 C 
HETATM   22  N1  UNL     1      -3.672   0.956   0.768  1.00  0.00    -0.068 N 
HETATM   23  C8  UNL     1      -2.355   1.039   0.090  1.00  0.00     0.193 C 
ATOM     24  H12 UNL     1      -4.362   1.604   0.388  1.00  0.00     0.277 HD
ATOM     25  H11 UNL     1      -3.659   1.326   1.719  1.00  0.00     0.277 HD
BRANCH  20  26
HETATM   26  O1  UNL     1      -2.918  -2.423   0.422  1.00  0.00    -0.384 OA
BRANCH  26  27
HETATM   27  C5  UNL     1      -2.907  -3.419  -0.516  1.00  0.00     0.168 C 
BRANCH  27  28
HETATM   28  C4  UNL     1      -4.094  -3.526  -1.403  1.00  0.00     0.026 C 
BRANCH  28  29
HETATM   29  C3  UNL     1      -5.357  -3.801  -0.624  1.00  0.00     0.002 C 
BRANCH  29  30
HETATM   30  C2  UNL     1      -6.507  -3.889  -1.632  1.00  0.00    -0.004 C 
HETATM   31  C1  UNL     1      -7.777  -4.163  -0.868  1.00  0.00     0.005 C 
ENDBRANCH  29  30
ENDBRANCH  28  29
ENDBRANCH  27  28
ENDBRANCH  26  27
ENDBRANCH  20  26
BRANCH  23  32
HETATM   32  C9  UNL     1      -1.721   2.249   0.653  1.00  0.00     0.033 C 
BRANCH  32  33
HETATM   33  C10 UNL     1      -2.644   3.439   0.332  1.00  0.00     0.002 C 
BRANCH  33  34
HETATM   34  C11 UNL     1      -2.039   4.719   0.894  1.00  0.00    -0.000 C 
BRANCH  34  35
HETATM   35  C12 UNL     1      -3.016   5.832   0.530  1.00  0.00    -0.005 C 
HETATM   36  C13 UNL     1      -2.459   7.126   1.068  1.00  0.00     0.005 C 
ENDBRANCH  34  35
ENDBRANCH  33  34
ENDBRANCH  32  33
ENDBRANCH  23  32
ENDBRANCH   1  19
BRANCH  15  37
HETATM   37  O3  UNL     1       0.836  -2.542   1.308  1.00  0.00    -0.395 OA
ATOM     38  H3  UNL     1      -0.069  -2.635   1.034  1.00  0.00     0.210 HD
ENDBRANCH  15  37
BRANCH  17  39
HETATM   39  O4  UNL     1       4.378  -2.446  -1.123  1.00  0.00    -0.395 OA
ATOM     40  H4  UNL     1       4.089  -2.819  -1.948  1.00  0.00     0.210 HD
ENDBRANCH  17  39
BRANCH   8  41
HETATM   41  O2  UNL     1       6.586   1.795  -1.406  1.00  0.00    -0.395 OA
ATOM     42  H2  UNL     1       7.366   2.309  -1.233  1.00  0.00     0.210 HD
ENDBRANCH   8  41
TORSDOF 13
