REMARK  13 active torsions:
REMARK  status: ('A' for Active; 'I' for Inactive)
REMARK    1  A    between atoms: S1_2  and  C2_3 
REMARK    2  A    between atoms: C8_9  and  O1_10 
REMARK    3  A    between atoms: O1_10  and  C9_11 
REMARK    4  A    between atoms: C12_14  and  O2_15 
REMARK    5  A    between atoms: C15_19  and  C16_20 
REMARK    6  A    between atoms: C16_20  and  C17_21 
REMARK    7  A    between atoms: C17_21  and  C18_22 
REMARK    8  A    between atoms: C22_26  and  C23_27 
REMARK    9  A    between atoms: C23_27  and  C24_28 
REMARK   10  A    between atoms: C24_28  and  O3_29 
REMARK   11  A    between atoms: C25_31  and  N1_32 
REMARK       I    between atoms: N1_32  and  C26_34 
REMARK   12  A    between atoms: C26_34  and  C27_36 
REMARK   13  A    between atoms: C27_36  and  N2_37 
ROOT
HETATM    1  C9  UNL     1      -2.651  -0.348   0.764  1.00  0.00     0.132 C 
HETATM    2  C10 UNL     1      -2.475  -1.454   1.738  1.00  0.00     0.040 C 
HETATM    3  C11 UNL     1      -2.421  -1.155   3.165  1.00  0.00     0.015 C 
HETATM    4  C12 UNL     1      -1.298  -2.284   1.275  1.00  0.00     0.128 C 
HETATM    5  C13 UNL     1      -0.055  -1.484   1.024  1.00  0.00     0.015 C 
HETATM    6  C14 UNL     1       0.735  -1.332   2.289  1.00  0.00     0.013 C 
HETATM    7  C15 UNL     1      -0.267  -0.242   0.230  1.00  0.00    -0.002 C 
HETATM    8  C28 UNL     1      -1.492   0.551   0.524  1.00  0.00     0.015 C 
HETATM    9  C29 UNL     1      -1.260   1.639   1.505  1.00  0.00     0.013 C 
ENDROOT
BRANCH   7  10
HETATM   10  C16 UNL     1       0.950   0.657   0.246  1.00  0.00     0.006 C 
BRANCH  10  11
HETATM   11  C17 UNL     1       2.124  -0.060  -0.336  1.00  0.00     0.007 C 
BRANCH  11  12
HETATM   12  C18 UNL     1       3.394   0.727  -0.358  1.00  0.00     0.009 C 
HETATM   13  C19 UNL     1       3.884   1.146   0.995  1.00  0.00     0.007 C 
HETATM   14  C20 UNL     1       4.576   0.012   1.726  1.00  0.00     0.001 C 
HETATM   15  C21 UNL     1       5.797  -0.325   0.894  1.00  0.00     0.007 C 
HETATM   16  C22 UNL     1       5.410  -0.804  -0.456  1.00  0.00     0.011 C 
HETATM   17  C25 UNL     1       4.437   0.071  -1.200  1.00  0.00     0.092 C 
BRANCH  16  18
HETATM   18  C23 UNL     1       5.043  -2.256  -0.472  1.00  0.00     0.032 C 
BRANCH  18  19
HETATM   19  C24 UNL     1       6.170  -3.157  -0.034  1.00  0.00     0.164 C 
BRANCH  19  20
HETATM   20  O3  UNL     1       7.269  -2.986  -0.881  1.00  0.00    -0.401 OA
ATOM     21  H3  UNL     1       7.979  -3.554  -0.605  1.00  0.00     0.209 HD
ENDBRANCH  19  20
ENDBRANCH  18  19
ENDBRANCH  16  18
BRANCH  17  22
HETATM   22  N1  UNL     1       5.149   1.100  -1.973  1.00  0.00    -0.354 N 
HETATM   23  C26 UNL     1       5.138   1.201  -3.363  1.00  0.00     0.243 C 
HETATM   24  O4  UNL     1       4.486   0.376  -4.053  1.00  0.00    -0.272 OA
ATOM     25  H1  UNL     1       5.691   1.791  -1.453  1.00  0.00     0.162 HD
BRANCH  23  26
HETATM   26  C27 UNL     1       5.893   2.278  -4.038  1.00  0.00     0.332 C 
BRANCH  26  27
HETATM   27  N2  UNL     1       5.785   2.243  -5.463  1.00  0.00    -0.071 N 
ATOM     28  H23 UNL     1       6.059   1.329  -5.824  1.00  0.00     0.274 HD
ATOM     29  H22 UNL     1       4.807   2.252  -5.751  1.00  0.00     0.274 HD
ATOM     30  H21 UNL     1       6.306   2.986  -5.929  1.00  0.00     0.274 HD
ENDBRANCH  26  27
ENDBRANCH  23  26
ENDBRANCH  17  22
ENDBRANCH  11  12
ENDBRANCH  10  11
ENDBRANCH   7  10
BRANCH   4  31
HETATM   31  O2  UNL     1      -0.980  -3.305   2.169  1.00  0.00    -0.395 OA
ATOM     32  H2  UNL     1      -0.241  -3.826   1.878  1.00  0.00     0.210 HD
ENDBRANCH   4  31
BRANCH   1  33
HETATM   33  O1  UNL     1      -3.880   0.239   0.704  1.00  0.00    -0.379 OA
BRANCH  33  34
HETATM   34  C8  UNL     1      -4.731   0.010  -0.279  1.00  0.00     0.136 C 
HETATM   35  C2  UNL     1      -6.004  -0.561   0.340  1.00  0.00     0.076 C 
HETATM   36  C3  UNL     1      -7.243  -0.349  -0.430  1.00  0.00     0.018 C 
HETATM   37  C4  UNL     1      -7.358   0.902  -1.214  1.00  0.00     0.005 C 
HETATM   38  C5  UNL     1      -6.076   1.070  -2.001  1.00  0.00    -0.016 C 
HETATM   39  C6  UNL     1      -6.183   2.158  -3.034  1.00  0.00     0.010 C 
HETATM   40  C7  UNL     1      -5.002   1.354  -0.975  1.00  0.00     0.037 C 
BRANCH  35  41
HETATM   41  S1  UNL     1      -6.137  -0.125   2.090  1.00  0.00    -0.166 SA
HETATM   42  C1  UNL     1      -6.381   1.613   2.403  1.00  0.00     0.090 C 
ENDBRANCH  35  41
ENDBRANCH  33  34
ENDBRANCH   1  33
TORSDOF 13
