REMARK  14 active torsions:
REMARK  status: ('A' for Active; 'I' for Inactive)
REMARK    1  A    between atoms: C2_2  and  C3_3 
REMARK    2  A    between atoms: C3_3  and  C4_4 
REMARK    3  A    between atoms: C4_4  and  C5_5 
REMARK    4  A    between atoms: C5_5  and  C6_6 
REMARK    5  A    between atoms: C6_6  and  C7_7 
REMARK    6  A    between atoms: C7_7  and  C8_8 
REMARK    7  A    between atoms: C8_8  and  O1_9 
REMARK    8  A    between atoms: C8_8  and  C9_11 
REMARK    9  A    between atoms: C9_11  and  C11_13 
REMARK   10  A    between atoms: C20_22  and  O2_23 
REMARK   11  A    between atoms: C22_27  and  O3_28 
REMARK   12  A    between atoms: O3_28  and  C23_29 
REMARK   13  A    between atoms: C23_29  and  C24_30 
REMARK   14  A    between atoms: C24_30  and  N2_31 
ROOT
HETATM    1  C11 UNL     1       1.773  -0.269  -0.512  1.00  0.00     0.000 C 
HETATM    2  C12 UNL     1       1.195  -0.743  -1.857  1.00  0.00     0.006 C 
HETATM    3  C13 UNL     1       0.254   0.287  -2.287  1.00  0.00     0.006 C 
HETATM    4  C14 UNL     1      -0.484   0.579  -1.027  1.00  0.00    -0.002 C 
HETATM    5  C15 UNL     1      -1.763  -0.090  -0.802  1.00  0.00    -0.005 C 
HETATM    6  C16 UNL     1      -1.927  -1.516  -1.152  1.00  0.00     0.006 C 
HETATM    7  C17 UNL     1      -3.449  -1.777  -1.180  1.00  0.00     0.006 C 
HETATM    8  C18 UNL     1      -3.847  -1.743   0.296  1.00  0.00    -0.002 C 
HETATM    9  C19 UNL     1      -5.227  -2.230   0.535  1.00  0.00     0.061 C 
HETATM   10  C20 UNL     1      -6.311  -1.349   0.032  1.00  0.00     0.172 C 
HETATM   11  C21 UNL     1      -6.533  -1.476  -1.418  1.00  0.00     0.100 C 
HETATM   12  N1  UNL     1      -6.726  -1.584  -2.557  1.00  0.00    -0.194 NA
HETATM   13  C22 UNL     1      -6.091   0.083   0.449  1.00  0.00     0.171 C 
HETATM   14  C25 UNL     1      -4.675   0.552   0.276  1.00  0.00     0.046 C 
HETATM   15  C26 UNL     1      -3.641  -0.361   0.869  1.00  0.00    -0.034 C 
HETATM   16  C27 UNL     1      -3.820  -0.453   2.366  1.00  0.00     0.016 C 
HETATM   17  C28 UNL     1      -2.282   0.188   0.594  1.00  0.00    -0.001 C 
HETATM   18  C29 UNL     1      -1.283  -0.105   1.657  1.00  0.00     0.006 C 
HETATM   19  C30 UNL     1       0.078  -0.439   1.193  1.00  0.00     0.010 C 
HETATM   20  C31 UNL     1       0.585   0.455   0.042  1.00  0.00    -0.036 C 
HETATM   21  C32 UNL     1       0.758   1.794   0.667  1.00  0.00     0.016 C 
ENDROOT
BRANCH  10  22
HETATM   22  O2  UNL     1      -7.512  -1.767   0.656  1.00  0.00    -0.373 OA
ATOM     23  H2  UNL     1      -8.206  -1.203   0.334  1.00  0.00     0.212 HD
ENDBRANCH  10  22
BRANCH  13  24
HETATM   24  O3  UNL     1      -6.896   0.948  -0.291  1.00  0.00    -0.380 OA
BRANCH  24  25
HETATM   25  C23 UNL     1      -7.833   1.596   0.511  1.00  0.00     0.195 C 
BRANCH  25  26
HETATM   26  C24 UNL     1      -8.710   2.528  -0.255  1.00  0.00     0.255 C 
BRANCH  26  27
HETATM   27  N2  UNL     1      -9.455   1.808  -1.287  1.00  0.00    -0.077 N 
ATOM     28  H23 UNL     1      -8.835   1.281  -1.902  1.00  0.00     0.274 HD
ATOM     29  H22 UNL     1      -9.983   1.028  -0.897  1.00  0.00     0.274 HD
ATOM     30  H21 UNL     1     -10.055   2.445  -1.811  1.00  0.00     0.274 HD
ENDBRANCH  26  27
ENDBRANCH  25  26
ENDBRANCH  24  25
ENDBRANCH  13  24
BRANCH   1  31
HETATM   31  C9  UNL     1       3.044   0.409  -0.706  1.00  0.00     0.015 C 
HETATM   32  C10 UNL     1       3.898   0.020  -1.888  1.00  0.00     0.013 C 
BRANCH  31  33
HETATM   33  C8  UNL     1       3.934   0.811   0.424  1.00  0.00     0.122 C 
BRANCH  33  34
HETATM   34  C7  UNL     1       4.897  -0.363   0.757  1.00  0.00     0.032 C 
BRANCH  34  35
HETATM   35  C6  UNL     1       5.805   0.091   1.848  1.00  0.00     0.002 C 
BRANCH  35  36
HETATM   36  C5  UNL     1       6.642   1.279   1.468  1.00  0.00     0.000 C 
BRANCH  36  37
HETATM   37  C4  UNL     1       7.480   0.952   0.274  1.00  0.00     0.000 C 
BRANCH  37  38
HETATM   38  C3  UNL     1       8.387  -0.214   0.594  1.00  0.00    -0.000 C 
BRANCH  38  39
HETATM   39  C2  UNL     1       9.204  -0.453  -0.685  1.00  0.00    -0.005 C 
HETATM   40  C1  UNL     1      10.136  -1.600  -0.457  1.00  0.00     0.005 C 
ENDBRANCH  38  39
ENDBRANCH  37  38
ENDBRANCH  36  37
ENDBRANCH  35  36
ENDBRANCH  34  35
ENDBRANCH  33  34
BRANCH  33  41
HETATM   41  O1  UNL     1       3.339   0.991   1.666  1.00  0.00    -0.395 OA
ATOM     42  H1  UNL     1       2.750   1.708   1.462  1.00  0.00     0.210 HD
ENDBRANCH  33  41
ENDBRANCH  31  33
ENDBRANCH   1  31
TORSDOF 14
