REMARK  13 active torsions:
REMARK  status: ('A' for Active; 'I' for Inactive)
REMARK    1  A    between atoms: C2_2  and  C3_3 
REMARK    2  A    between atoms: C2_2  and  C26_36 
REMARK    3  A    between atoms: C3_3  and  C4_4 
REMARK    4  A    between atoms: C4_4  and  C5_5 
REMARK    5  A    between atoms: C5_5  and  C6_6 
REMARK    6  A    between atoms: C12_14  and  C13_15 
REMARK    7  A    between atoms: C13_15  and  C14_16 
REMARK    8  A    between atoms: C14_16  and  C15_17 
REMARK    9  A    between atoms: C15_17  and  C16_18 
REMARK   10  A    between atoms: C16_18  and  C17_19 
REMARK       I    between atoms: C17_19  and  N1_21 
REMARK       I    between atoms: C18_23  and  N2_24 
REMARK       I    between atoms: C18_23  and  N3_27 
REMARK   11  A    between atoms: N3_27  and  C19_29 
REMARK   12  A    between atoms: C28_38  and  C29_39 
REMARK   13  A    between atoms: C29_39  and  O4_41 
ROOT
HETATM    1  C6  UNL     1       1.523   0.069  -1.372  1.00  0.00     0.065 C 
HETATM    2  C7  UNL     1       1.792  -1.047  -0.387  1.00  0.00     0.147 C 
HETATM    3  O1  UNL     1       2.745  -1.171   0.268  1.00  0.00    -0.296 OA
HETATM    4  C8  UNL     1       0.677  -2.050  -0.299  1.00  0.00     0.074 C 
HETATM    5  C9  UNL     1       0.816  -2.971   0.867  1.00  0.00     0.031 C 
HETATM    6  C10 UNL     1       0.553  -2.743  -1.607  1.00  0.00     0.031 C 
HETATM    7  C11 UNL     1      -0.507  -1.104  -0.172  1.00  0.00     0.147 C 
HETATM    8  O2  UNL     1      -1.600  -1.397  -0.468  1.00  0.00    -0.296 OA
HETATM    9  C12 UNL     1      -0.130   0.237   0.368  1.00  0.00     0.065 C 
HETATM   10  C23 UNL     1       0.658   1.045  -0.614  1.00  0.00    -0.027 C 
HETATM   11  C24 UNL     1       1.408   2.093   0.160  1.00  0.00     0.016 C 
HETATM   12  C25 UNL     1      -0.246   1.726  -1.625  1.00  0.00     0.016 C 
ENDROOT
BRANCH   9  13
HETATM   13  C13 UNL     1      -1.310   0.826   1.082  1.00  0.00     0.013 C 
BRANCH  13  14
HETATM   14  C14 UNL     1      -1.645  -0.114   2.213  1.00  0.00     0.001 C 
BRANCH  14  15
HETATM   15  C15 UNL     1      -2.825   0.115   3.047  1.00  0.00     0.009 C 
BRANCH  15  16
HETATM   16  C16 UNL     1      -4.152   0.112   2.336  1.00  0.00     0.103 C 
BRANCH  16  17
HETATM   17  C17 UNL     1      -5.160   0.049   3.927  1.00  0.00     0.235 C 
HETATM   18  O3  UNL     1      -4.312   0.333   4.451  1.00  0.00    -0.273 OA
HETATM   19  N1  UNL     1      -6.313  -0.340   3.180  1.00  0.00    -0.160 N 
HETATM   20  C18 UNL     1      -6.795  -0.502   1.954  1.00  0.00     0.674 C 
ATOM     21  H1  UNL     1      -7.048  -0.589   3.842  1.00  0.00     0.187 HD
HETATM   22  N2  UNL     1      -8.059  -1.020   1.909  1.00  0.00    -0.235 N 
HETATM   23  N3  UNL     1      -6.319  -0.194   0.668  1.00  0.00    -0.218 N 
ATOM     24  H22 UNL     1      -8.404  -1.244   2.842  1.00  0.00     0.174 HD
ATOM     25  H21 UNL     1      -8.429  -1.144   0.967  1.00  0.00     0.174 HD
ATOM     26  H3  UNL     1      -5.576  -0.792   0.306  1.00  0.00     0.178 HD
BRANCH  23  27
HETATM   27  C19 UNL     1      -6.756   0.859  -0.188  1.00  0.00     0.036 C 
HETATM   28  C20 UNL     1      -8.172   0.616  -0.694  1.00  0.00     0.038 C 
HETATM   29  C21 UNL     1      -6.755   2.220   0.436  1.00  0.00     0.038 C 
HETATM   30  C22 UNL     1      -5.904   0.897  -1.468  1.00  0.00     0.038 C 
ENDBRANCH  23  27
ENDBRANCH  16  17
ENDBRANCH  15  16
ENDBRANCH  14  15
ENDBRANCH  13  14
ENDBRANCH   9  13
BRANCH   1  31
HETATM   31  C5  UNL     1       2.738   0.470  -2.077  1.00  0.00     0.013 C 
BRANCH  31  32
HETATM   32  C4  UNL     1       3.876   1.080  -1.367  1.00  0.00     0.005 C 
BRANCH  32  33
HETATM   33  C3  UNL     1       5.184   0.966  -2.204  1.00  0.00     0.038 C 
BRANCH  33  34
HETATM   34  C2  UNL     1       5.593  -0.486  -2.110  1.00  0.00    -0.062 C 
HETATM   35  C1  UNL     1       5.288  -1.292  -3.095  1.00  0.00     0.019 C 
BRANCH  34  36
HETATM   36  C26 UNL     1       6.170  -1.047  -0.880  1.00  0.00    -0.058 C 
HETATM   37  C27 UNL     1       6.234  -2.599  -0.875  1.00  0.00     0.048 C 
HETATM   38  C28 UNL     1       6.611  -0.494   0.161  1.00  0.00     0.011 C 
BRANCH  38  39
HETATM   39  C29 UNL     1       6.784   0.841   0.674  1.00  0.00     0.137 C 
HETATM   40  C30 UNL     1       8.194   1.309   0.251  1.00  0.00     0.043 C 
BRANCH  39  41
HETATM   41  O4  UNL     1       6.782   0.818   2.103  1.00  0.00    -0.392 OA
ATOM     42  H4  UNL     1       6.896   1.698   2.441  1.00  0.00     0.210 HD
ENDBRANCH  39  41
ENDBRANCH  38  39
ENDBRANCH  34  36
ENDBRANCH  33  34
ENDBRANCH  32  33
ENDBRANCH  31  32
ENDBRANCH   1  31
TORSDOF 13
