REMARK  13 active torsions:
REMARK  status: ('A' for Active; 'I' for Inactive)
REMARK    1  A    between atoms: N1_1  and  C1_5 
REMARK    2  A    between atoms: C1_5  and  C2_6 
REMARK    3  A    between atoms: C2_6  and  C3_7 
REMARK    4  A    between atoms: C3_7  and  C4_8 
REMARK    5  A    between atoms: C4_8  and  C5_9 
REMARK    6  A    between atoms: C5_9  and  C6_10 
REMARK    7  A    between atoms: C6_10  and  N2_11 
REMARK       I    between atoms: N2_11  and  C7_13 
REMARK       I    between atoms: C7_13  and  N6_41 
REMARK       I    between atoms: N3_14  and  C8_16 
REMARK    8  A    between atoms: C8_16  and  C9_18 
REMARK    9  A    between atoms: C9_18  and  S1_19 
REMARK   10  A    between atoms: S1_19  and  C10_20 
REMARK   11  A    between atoms: C18_32  and  N5_33 
REMARK   12  A    between atoms: N5_33  and  C19_35 
REMARK   13  A    between atoms: N6_41  and  C25_43 
ROOT
HETATM    1  N2  UNL     1      -3.827  -0.094   0.779  1.00  0.00    -0.226 N 
ATOM      2  H2  UNL     1      -3.997   0.270   1.717  1.00  0.00     0.177 HD
HETATM    3  C7  UNL     1      -2.587  -0.745   0.562  1.00  0.00     0.676 C 
HETATM    4  N3  UNL     1      -1.643  -0.072   0.017  1.00  0.00    -0.159 N 
ATOM      5  H3  UNL     1      -1.848   0.897  -0.227  1.00  0.00     0.187 HD
HETATM    6  C8  UNL     1      -0.356  -0.540  -0.275  1.00  0.00     0.245 C 
HETATM    7  O1  UNL     1      -0.099  -0.789  -1.502  1.00  0.00    -0.272 OA
HETATM    8  N6  UNL     1      -2.460  -2.093   0.959  1.00  0.00    -0.222 N 
ATOM      9  H6  UNL     1      -1.774  -2.314   1.681  1.00  0.00     0.178 HD
ENDROOT
BRANCH   6  10
HETATM   10  C9  UNL     1       0.718  -0.770   0.696  1.00  0.00     0.184 C 
BRANCH  10  11
HETATM   11  S1  UNL     1       1.777   0.659   0.967  1.00  0.00    -0.101 SA
BRANCH  11  12
HETATM   12  C10 UNL     1       2.704   1.046  -0.505  1.00  0.00     0.098 A 
HETATM   13  N4  UNL     1       2.237   1.886  -1.452  1.00  0.00    -0.348 N 
HETATM   14  C11 UNL     1       3.121   1.999  -2.455  1.00  0.00     0.045 A 
ATOM     15  H4  UNL     1       1.339   2.367  -1.411  1.00  0.00     0.166 HD
HETATM   16  C12 UNL     1       2.964   2.774  -3.582  1.00  0.00     0.033 C 
HETATM   17  C17 UNL     1       4.232   1.139  -2.072  1.00  0.00     0.023 A 
HETATM   18  C13 UNL     1       3.794   2.877  -4.678  1.00  0.00     0.048 C 
HETATM   19  C14 UNL     1       5.082   2.351  -4.825  1.00  0.00     0.154 C 
HETATM   20  F1  UNL     1       5.748   2.725  -5.937  1.00  0.00    -0.203 F 
HETATM   21  C15 UNL     1       5.761   1.496  -3.975  1.00  0.00     0.155 C 
HETATM   22  F2  UNL     1       7.012   1.169  -4.389  1.00  0.00    -0.203 F 
HETATM   23  C16 UNL     1       5.384   0.913  -2.770  1.00  0.00     0.061 C 
HETATM   24  C18 UNL     1       3.941   0.547  -0.832  1.00  0.00     0.075 A 
BRANCH  24  25
HETATM   25  N5  UNL     1       4.775  -0.351  -0.118  1.00  0.00    -0.382 N 
ATOM     26  H5  UNL     1       4.661  -1.356  -0.247  1.00  0.00     0.160 HD
BRANCH  25  27
HETATM   27  C19 UNL     1       5.780   0.142   0.787  1.00  0.00     0.082 C 
HETATM   28  C20 UNL     1       6.593  -0.954   1.431  1.00  0.00     0.025 C 
HETATM   29  C21 UNL     1       6.458  -0.958   2.930  1.00  0.00     0.002 C 
HETATM   30  C22 UNL     1       6.703   0.338   3.605  1.00  0.00     0.000 C 
HETATM   31  C23 UNL     1       6.384   1.493   2.692  1.00  0.00     0.002 C 
HETATM   32  C24 UNL     1       5.183   1.058   1.838  1.00  0.00     0.025 C 
ENDBRANCH  25  27
ENDBRANCH  24  25
ENDBRANCH  11  12
ENDBRANCH  10  11
ENDBRANCH   6  10
BRANCH   1  33
HETATM   33  C6  UNL     1      -4.861   0.103  -0.184  1.00  0.00     0.138 C 
BRANCH  33  34
HETATM   34  C5  UNL     1      -4.597   1.042  -1.281  1.00  0.00     0.020 C 
BRANCH  34  35
HETATM   35  C4  UNL     1      -4.242   2.434  -0.969  1.00  0.00     0.002 C 
BRANCH  35  36
HETATM   36  C3  UNL     1      -5.146   3.329  -0.227  1.00  0.00     0.002 C 
BRANCH  36  37
HETATM   37  C2  UNL     1      -5.468   3.011   1.192  1.00  0.00     0.027 C 
BRANCH  37  38
HETATM   38  C1  UNL     1      -6.399   4.141   1.696  1.00  0.00     0.229 C 
BRANCH  38  39
HETATM   39  N1  UNL     1      -5.672   5.390   1.573  1.00  0.00    -0.079 N 
ATOM     40  H13 UNL     1      -4.770   5.375   2.050  1.00  0.00     0.274 HD
ATOM     41  H12 UNL     1      -5.320   5.555   0.630  1.00  0.00     0.274 HD
ATOM     42  H11 UNL     1      -6.285   6.134   1.905  1.00  0.00     0.274 HD
ENDBRANCH  38  39
ENDBRANCH  37  38
ENDBRANCH  36  37
ENDBRANCH  35  36
ENDBRANCH  34  35
ENDBRANCH  33  34
ENDBRANCH   1  33
BRANCH   8  43
HETATM   43  C25 UNL     1      -3.236  -3.182   0.411  1.00  0.00     0.099 C 
HETATM   44  C26 UNL     1      -3.049  -3.372  -1.062  1.00  0.00     0.026 C 
HETATM   45  C27 UNL     1      -2.914  -4.806  -1.480  1.00  0.00     0.002 C 
HETATM   46  C28 UNL     1      -3.993  -5.584  -0.743  1.00  0.00     0.000 C 
HETATM   47  C29 UNL     1      -3.547  -5.665   0.694  1.00  0.00     0.002 C 
HETATM   48  C30 UNL     1      -3.023  -4.389   1.237  1.00  0.00     0.026 C 
ENDBRANCH   8  43
TORSDOF 13
