REMARK  16 active torsions:
REMARK  status: ('A' for Active; 'I' for Inactive)
REMARK    1  A    between atoms: C2_2  and  C3_3 
REMARK    2  A    between atoms: C2_2  and  C18_19 
REMARK    3  A    between atoms: C3_3  and  C4_4 
REMARK    4  A    between atoms: C4_4  and  C5_5 
REMARK    5  A    between atoms: C18_19  and  C19_20 
REMARK    6  A    between atoms: C19_20  and  O2_21 
REMARK    7  A    between atoms: C19_20  and  C20_23 
REMARK    8  A    between atoms: C20_23  and  C21_24 
REMARK    9  A    between atoms: C21_24  and  C22_25 
REMARK   10  A    between atoms: C21_24  and  C30_35 
REMARK   11  A    between atoms: C22_25  and  C23_26 
REMARK   12  A    between atoms: C23_26  and  C24_27 
REMARK   13  A    between atoms: C30_35  and  C31_36 
REMARK   14  A    between atoms: C31_36  and  O3_37 
REMARK   15  A    between atoms: C31_36  and  C32_39 
REMARK   16  A    between atoms: C32_39  and  O4_40 
ROOT
HETATM    1  C19 UNL     1       1.215   0.624  -0.007  1.00  0.00     0.118 C 
ENDROOT
BRANCH   1   2
HETATM    2  C18 UNL     1       0.573  -0.090  -1.103  1.00  0.00     0.035 C 
BRANCH   2   3
HETATM    3  C2  UNL     1      -0.623  -0.921  -0.853  1.00  0.00    -0.016 C 
HETATM    4  C1  UNL     1      -0.493  -2.050   0.099  1.00  0.00     0.010 C 
BRANCH   3   5
HETATM    5  C3  UNL     1      -1.862  -0.112  -0.503  1.00  0.00     0.005 C 
BRANCH   5   6
HETATM    6  C4  UNL     1      -3.046  -1.045  -0.613  1.00  0.00     0.011 C 
BRANCH   6   7
HETATM    7  C5  UNL     1      -4.358  -0.383  -0.302  1.00  0.00    -0.028 C 
HETATM    8  C6  UNL     1      -4.725   0.756  -1.165  1.00  0.00     0.027 C 
HETATM    9  C7  UNL     1      -6.227   1.003  -1.187  1.00  0.00     0.018 C 
HETATM   10  C8  UNL     1      -6.570   2.387  -1.675  1.00  0.00     0.023 C 
HETATM   11  C9  UNL     1      -6.762   0.722   0.181  1.00  0.00     0.022 C 
HETATM   12  C14 UNL     1      -6.778   0.046  -2.209  1.00  0.00     0.135 C 
HETATM   13  C10 UNL     1      -5.979  -0.266   0.972  1.00  0.00    -0.000 C 
HETATM   14  C11 UNL     1      -5.401  -1.353   0.052  1.00  0.00    -0.000 C 
HETATM   15  C15 UNL     1      -4.507   0.128   1.141  1.00  0.00    -0.036 C 
HETATM   16  C12 UNL     1      -6.311  -1.914  -0.902  1.00  0.00     0.013 C 
HETATM   17  C13 UNL     1      -6.354  -1.385  -2.293  1.00  0.00     0.079 C 
HETATM   18  C16 UNL     1      -4.246   1.569   1.339  1.00  0.00     0.016 C 
HETATM   19  C17 UNL     1      -3.893  -0.724   2.198  1.00  0.00     0.016 C 
HETATM   20  O1  UNL     1      -7.600   0.452  -2.998  1.00  0.00    -0.297 OA
ENDBRANCH   6   7
ENDBRANCH   5   6
ENDBRANCH   3   5
ENDBRANCH   2   3
ENDBRANCH   1   2
BRANCH   1  21
HETATM   21  O2  UNL     1       0.409   1.532   0.689  1.00  0.00    -0.396 OA
ATOM     22  H2  UNL     1       0.828   1.998   1.404  1.00  0.00     0.210 HD
ENDBRANCH   1  21
BRANCH   1  23
HETATM   23  C20 UNL     1       2.069  -0.109   0.971  1.00  0.00     0.036 C 
BRANCH  23  24
HETATM   24  C21 UNL     1       3.247  -0.788   0.427  1.00  0.00    -0.010 C 
BRANCH  24  25
HETATM   25  C22 UNL     1       4.229   0.137  -0.310  1.00  0.00     0.005 C 
BRANCH  25  26
HETATM   26  C23 UNL     1       4.740   1.198   0.524  1.00  0.00     0.013 C 
BRANCH  26  27
HETATM   27  C24 UNL     1       5.692   2.216   0.014  1.00  0.00     0.002 A 
HETATM   28  C25 UNL     1       6.016   3.190   1.187  1.00  0.00     0.019 C 
HETATM   29  C26 UNL     1       6.883   1.959  -0.805  1.00  0.00    -0.001 A 
HETATM   30  C27 UNL     1       7.123   0.696  -1.574  1.00  0.00     0.019 C 
HETATM   31  C28 UNL     1       8.192   2.727  -0.555  1.00  0.00     0.019 C 
HETATM   32  C29 UNL     1       5.713   2.861  -1.282  1.00  0.00     0.129 A 
HETATM   33 CL1  UNL     1       6.097   4.624  -1.387  1.00  0.00    -0.100 Cl
HETATM   34 CL2  UNL     1       4.838   2.333  -2.719  1.00  0.00    -0.100 Cl
ENDBRANCH  26  27
ENDBRANCH  25  26
ENDBRANCH  24  25
BRANCH  24  35
HETATM   35  C30 UNL     1       4.051  -1.552   1.419  1.00  0.00     0.038 C 
BRANCH  35  36
HETATM   36  C31 UNL     1       3.404  -2.711   2.112  1.00  0.00     0.142 C 
BRANCH  36  37
HETATM   37  O3  UNL     1       2.295  -2.477   2.852  1.00  0.00    -0.393 OA
ATOM     38  H3  UNL     1       1.885  -3.212   3.292  1.00  0.00     0.210 HD
ENDBRANCH  36  37
BRANCH  36  39
HETATM   39  C32 UNL     1       3.235  -3.808   1.049  1.00  0.00     0.195 C 
BRANCH  39  40
HETATM   40  O4  UNL     1       2.885  -4.967   1.712  1.00  0.00    -0.398 OA
ATOM     41  H4  UNL     1       2.781  -5.645   1.055  1.00  0.00     0.209 HD
ENDBRANCH  39  40
ENDBRANCH  36  39
ENDBRANCH  35  36
ENDBRANCH  24  35
ENDBRANCH  23  24
ENDBRANCH   1  23
TORSDOF 16
