REMARK  14 active torsions:
REMARK  status: ('A' for Active; 'I' for Inactive)
REMARK    1  A    between atoms: C2_2  and  C3_3 
REMARK    2  A    between atoms: C3_3  and  C4_4 
REMARK    3  A    between atoms: C4_4  and  O1_5 
REMARK    4  A    between atoms: O1_5  and  C5_6 
REMARK    5  A    between atoms: C5_6  and  C6_7 
REMARK    6  A    between atoms: C6_7  and  C7_8 
REMARK    7  A    between atoms: C7_8  and  C8_9 
REMARK    8  A    between atoms: C8_9  and  N1_10 
REMARK       I    between atoms: N1_10  and  C9_11 
REMARK    9  A    between atoms: C9_11  and  O3_13 
REMARK   10  A    between atoms: O3_13  and  C10_14 
REMARK   11  A    between atoms: C13_17  and  N2_18 
REMARK       I    between atoms: N2_18  and  C14_20 
REMARK       I    between atoms: C14_20  and  N4_22 
REMARK   12  A    between atoms: N4_22  and  C15_23 
REMARK   13  A    between atoms: C15_23  and  C16_24 
REMARK   14  A    between atoms: N5_31  and  C21_33 
ROOT
HETATM    1  N1  UNL     1      -0.056   1.977   0.923  1.00  0.00    -0.362 NA
HETATM    2  C9  UNL     1       0.931   1.353   0.150  1.00  0.00     0.444 C 
HETATM    3  O2  UNL     1       0.812   0.882  -0.984  1.00  0.00    -0.221 OA
ENDROOT
BRANCH   2   4
HETATM    4  O3  UNL     1       2.240   1.233   0.710  1.00  0.00    -0.250 OA
BRANCH   4   5
HETATM    5  C10 UNL     1       3.288   0.640   0.058  1.00  0.00     0.083 A 
HETATM    6  C11 UNL     1       3.730  -0.615   0.444  1.00  0.00     0.040 A 
HETATM    7  C12 UNL     1       4.788  -1.259  -0.170  1.00  0.00     0.034 A 
HETATM    8  C13 UNL     1       5.441  -0.613  -1.231  1.00  0.00     0.053 A 
HETATM    9  C19 UNL     1       5.034   0.630  -1.649  1.00  0.00     0.040 A 
HETATM   10 BR1  UNL     1       5.912   1.540  -3.105  1.00  0.00    -0.049 Br
HETATM   11  C20 UNL     1       3.965   1.223  -0.990  1.00  0.00     0.058 A 
BRANCH   8  12
HETATM   12  N2  UNL     1       6.575  -1.244  -1.864  1.00  0.00    -0.318 N 
HETATM   13  C14 UNL     1       6.992  -2.496  -1.340  1.00  0.00     0.262 C 
HETATM   14  N3  UNL     1       6.198  -3.635  -1.736  1.00  0.00    -0.049 NA
HETATM   15  N4  UNL     1       7.933  -2.652  -0.611  1.00  0.00    -0.415 NA
ATOM     16  H2  UNL     1       7.055  -0.810  -2.652  1.00  0.00     0.169 HD
BRANCH  15  17
HETATM   17  C15 UNL     1       9.010  -2.426   0.154  1.00  0.00     0.264 C 
BRANCH  17  18
HETATM   18  C16 UNL     1       9.255  -0.938   0.441  1.00  0.00     0.123 C 
HETATM   19  C17 UNL     1      10.495  -0.856   1.321  1.00  0.00     0.054 C 
HETATM   20  C18 UNL     1       9.497  -0.138  -0.787  1.00  0.00     0.054 C 
HETATM   21  F1  UNL     1       8.160  -0.428   1.120  1.00  0.00    -0.241 F 
ENDBRANCH  17  18
ENDBRANCH  15  17
ENDBRANCH   8  12
ENDBRANCH   4   5
ENDBRANCH   2   4
BRANCH   1  22
HETATM   22  C8  UNL     1      -0.998   2.572   1.658  1.00  0.00     0.162 C 
BRANCH  22  23
HETATM   23  C7  UNL     1      -2.243   1.797   1.986  1.00  0.00     0.067 C 
BRANCH  23  24
HETATM   24  C6  UNL     1      -2.963   1.401   0.731  1.00  0.00     0.090 C 
BRANCH  24  25
HETATM   25  C5  UNL     1      -4.269   0.770   1.108  1.00  0.00     0.114 C 
HETATM   26  N5  UNL     1      -4.741  -0.310   0.654  1.00  0.00    -0.370 N 
ATOM     27  H5  UNL     1      -5.650  -0.581   1.029  1.00  0.00     0.161 HD
BRANCH  25  28
HETATM   28  O1  UNL     1      -5.056   1.421   2.048  1.00  0.00    -0.339 OA
BRANCH  28  29
HETATM   29  C4  UNL     1      -6.388   1.779   1.903  1.00  0.00     0.177 C 
BRANCH  29  30
HETATM   30  C3  UNL     1      -6.582   2.762   0.790  1.00  0.00     0.026 C 
BRANCH  30  31
HETATM   31  C2  UNL     1      -8.016   3.207   0.626  1.00  0.00    -0.002 C 
HETATM   32  C1  UNL     1      -8.130   4.222  -0.511  1.00  0.00     0.005 C 
ENDBRANCH  30  31
ENDBRANCH  29  30
ENDBRANCH  28  29
ENDBRANCH  25  28
BRANCH  26  33
HETATM   33  C21 UNL     1      -4.185  -1.207  -0.310  1.00  0.00     0.083 C 
HETATM   34  C22 UNL     1      -4.161  -2.639   0.223  1.00  0.00     0.025 C 
HETATM   35  C23 UNL     1      -5.373  -3.407  -0.219  1.00  0.00     0.002 C 
HETATM   36  C24 UNL     1      -6.637  -2.596  -0.276  1.00  0.00     0.000 C 
HETATM   37  C25 UNL     1      -6.488  -1.335  -1.098  1.00  0.00     0.002 C 
HETATM   38  C26 UNL     1      -5.054  -1.162  -1.567  1.00  0.00     0.025 C 
ENDBRANCH  26  33
ENDBRANCH  24  25
ENDBRANCH  23  24
ENDBRANCH  22  23
ENDBRANCH   1  22
TORSDOF 14
