REMARK  16 active torsions:
REMARK  status: ('A' for Active; 'I' for Inactive)
REMARK    1  A    between atoms: C2_2  and  C3_3 
REMARK    2  A    between atoms: C3_3  and  C4_4 
REMARK    3  A    between atoms: C4_4  and  O1_5 
REMARK    4  A    between atoms: O1_5  and  C5_6 
REMARK    5  A    between atoms: C5_6  and  C6_7 
REMARK    6  A    between atoms: C7_8  and  C8_9 
REMARK    7  A    between atoms: C8_9  and  C9_10 
REMARK    8  A    between atoms: C10_11  and  O2_12 
REMARK    9  A    between atoms: C12_15  and  O3_16 
REMARK   10  A    between atoms: C13_18  and  C14_19 
REMARK   11  A    between atoms: C15_20  and  C16_21 
REMARK   12  A    between atoms: C16_21  and  O4_23 
REMARK   13  A    between atoms: C16_21  and  C18_25 
REMARK   14  A    between atoms: C21_28  and  C22_29 
REMARK   15  A    between atoms: C23_30  and  C24_31 
REMARK   16  A    between atoms: C32_41  and  O5_42 
ROOT
HETATM    1  C16 UNL     1      -0.404   1.410   0.191  1.00  0.00     0.102 C 
HETATM    2  C17 UNL     1       0.560   1.064   1.285  1.00  0.00     0.056 C 
ENDROOT
BRANCH   1   3
HETATM    3  C15 UNL     1      -0.031   0.625  -1.018  1.00  0.00     0.012 C 
HETATM    4  C14 UNL     1       0.480  -0.595  -0.938  1.00  0.00    -0.020 C 
BRANCH   4   5
HETATM    5  C13 UNL     1       0.871  -1.427  -2.077  1.00  0.00     0.043 C 
HETATM    6  C9  UNL     1       2.371  -1.754  -2.092  1.00  0.00     0.028 C 
HETATM    7  C10 UNL     1       2.452  -2.488  -3.399  1.00  0.00     0.125 C 
HETATM    8  C11 UNL     1       1.531  -1.682  -4.333  1.00  0.00     0.064 C 
HETATM    9  C12 UNL     1       0.670  -0.822  -3.425  1.00  0.00     0.128 C 
BRANCH   6  10
HETATM   10  C8  UNL     1       3.223  -0.519  -2.138  1.00  0.00     0.035 C 
BRANCH  10  11
HETATM   11  C7  UNL     1       4.625  -0.872  -2.365  1.00  0.00    -0.028 C 
HETATM   12  C6  UNL     1       5.593  -0.616  -1.546  1.00  0.00    -0.005 C 
BRANCH  12  13
HETATM   13  C5  UNL     1       5.418   0.070  -0.258  1.00  0.00     0.194 C 
BRANCH  13  14
HETATM   14  O1  UNL     1       6.154   1.256  -0.184  1.00  0.00    -0.387 OA
BRANCH  14  15
HETATM   15  C4  UNL     1       7.507   1.075  -0.331  1.00  0.00     0.168 C 
BRANCH  15  16
HETATM   16  C3  UNL     1       8.088   0.180   0.716  1.00  0.00     0.026 C 
BRANCH  16  17
HETATM   17  C2  UNL     1       7.860   0.757   2.102  1.00  0.00    -0.002 C 
HETATM   18  C1  UNL     1       8.480  -0.210   3.108  1.00  0.00     0.005 C 
ENDBRANCH  16  17
ENDBRANCH  15  16
ENDBRANCH  14  15
ENDBRANCH  13  14
ENDBRANCH  12  13
ENDBRANCH  10  11
ENDBRANCH   6  10
BRANCH   7  19
HETATM   19  O2  UNL     1       1.921  -3.784  -3.242  1.00  0.00    -0.395 OA
ATOM     20  H2  UNL     1       1.972  -4.248  -4.069  1.00  0.00     0.210 HD
ENDBRANCH   7  19
BRANCH   9  21
HETATM   21  O3  UNL     1      -0.669  -0.853  -3.833  1.00  0.00    -0.395 OA
ATOM     22  H3  UNL     1      -1.208  -0.315  -3.265  1.00  0.00     0.210 HD
ENDBRANCH   9  21
ENDBRANCH   4   5
ENDBRANCH   1   3
BRANCH   1  23
HETATM   23  O4  UNL     1      -0.230   2.780  -0.092  1.00  0.00    -0.381 OA
ATOM     24  H4  UNL     1      -0.468   3.281   0.679  1.00  0.00     0.211 HD
ENDBRANCH   1  23
BRANCH   1  25
HETATM   25  C18 UNL     1      -1.808   1.193   0.530  1.00  0.00     0.013 A 
HETATM   26  C19 UNL     1      -2.571   0.337  -0.219  1.00  0.00     0.014 A 
HETATM   27  C20 UNL     1      -3.921   0.097   0.067  1.00  0.00     0.013 A 
HETATM   28  C21 UNL     1      -4.530   0.724   1.126  1.00  0.00    -0.028 A 
HETATM   29  C30 UNL     1      -3.769   1.599   1.901  1.00  0.00    -0.018 A 
HETATM   30  C31 UNL     1      -4.449   2.257   3.040  1.00  0.00     0.052 C 
HETATM   31  C32 UNL     1      -2.427   1.829   1.605  1.00  0.00     0.082 A 
BRANCH  28  32
HETATM   32  C22 UNL     1      -5.946   0.523   1.485  1.00  0.00     0.013 C 
HETATM   33  C23 UNL     1      -6.741  -0.265   0.841  1.00  0.00     0.012 C 
BRANCH  33  34
HETATM   34  C24 UNL     1      -8.136  -0.450   1.210  1.00  0.00    -0.035 A 
HETATM   35  C25 UNL     1      -8.759   0.176   2.266  1.00  0.00     0.013 A 
HETATM   36  C26 UNL     1     -10.099  -0.032   2.584  1.00  0.00     0.026 A 
HETATM   37  C27 UNL     1     -10.865  -0.889   1.838  1.00  0.00     0.055 A 
HETATM   38 CL1  UNL     1     -12.567  -1.178   2.211  1.00  0.00    -0.083 Cl
HETATM   39  C28 UNL     1     -10.260  -1.524   0.780  1.00  0.00     0.056 A 
HETATM   40 CL2  UNL     1     -11.253  -2.634  -0.186  1.00  0.00    -0.083 Cl
HETATM   41  C29 UNL     1      -8.945  -1.323   0.464  1.00  0.00     0.037 A 
ENDBRANCH  33  34
ENDBRANCH  28  32
BRANCH  31  42
HETATM   42  O5  UNL     1      -1.649   2.671   2.330  1.00  0.00    -0.359 OA
ATOM     43  H5  UNL     1      -2.071   3.104   3.063  1.00  0.00     0.217 HD
ENDBRANCH  31  42
ENDBRANCH   1  25
TORSDOF 16
