REMARK  18 active torsions:
REMARK  status: ('A' for Active; 'I' for Inactive)
REMARK    1  A    between atoms: C2_2  and  O1_3 
REMARK    2  A    between atoms: O1_3  and  C3_4 
REMARK    3  A    between atoms: C3_4  and  C4_6 
REMARK    4  A    between atoms: C4_6  and  C5_7 
REMARK    5  A    between atoms: C4_6  and  N1_11 
REMARK    6  A    between atoms: C5_7  and  C6_8 
REMARK    7  A    between atoms: C6_8  and  S1_9 
REMARK    8  A    between atoms: N1_11  and  C8_13 
REMARK    9  A    between atoms: C8_13  and  O3_14 
REMARK   10  A    between atoms: C9_16  and  C10_17 
REMARK   11  A    between atoms: C9_16  and  N3_36 
REMARK   12  A    between atoms: C10_17  and  C11_18 
REMARK   13  A    between atoms: C14_22  and  O4_23 
REMARK   14  A    between atoms: C15_25  and  N2_26 
REMARK   15  A    between atoms: N2_26  and  C16_28 
REMARK   16  A    between atoms: C16_28  and  C19_31 
REMARK       I    between atoms: N3_36  and  C24_38 
REMARK       I    between atoms: C24_38  and  N4_40 
REMARK   17  A    between atoms: N4_40  and  C25_42 
REMARK   18  A    between atoms: C25_42  and  C28_45 
ROOT
HETATM    1  C8  UNL     1       0.960   0.774  -1.720  1.00  0.00     0.160 C 
HETATM    2  C9  UNL     1       0.629   2.007  -1.049  1.00  0.00     0.068 C 
ENDROOT
BRANCH   2   3
HETATM    3  C10 UNL     1      -0.231   2.053   0.147  1.00  0.00     0.100 C 
BRANCH   3   4
HETATM    4  C11 UNL     1      -1.601   1.528  -0.070  1.00  0.00    -0.049 A 
HETATM    5  C12 UNL     1      -2.415   2.306  -0.900  1.00  0.00     0.029 A 
HETATM    6  C13 UNL     1      -3.740   2.015  -1.143  1.00  0.00     0.046 A 
HETATM    7 BR1  UNL     1      -4.865   3.047  -2.278  1.00  0.00    -0.048 Br
HETATM    8  C14 UNL     1      -4.265   0.891  -0.519  1.00  0.00     0.109 A 
HETATM    9  C15 UNL     1      -3.494   0.081   0.321  1.00  0.00     0.064 A 
HETATM   10  C23 UNL     1      -2.186   0.448   0.502  1.00  0.00     0.039 A 
BRANCH   8  11
HETATM   11  O4  UNL     1      -5.597   0.598  -0.762  1.00  0.00    -0.357 OA
ATOM     12  H4  UNL     1      -5.956  -0.171  -0.335  1.00  0.00     0.217 HD
ENDBRANCH   8  11
BRANCH   9  13
HETATM   13  N2  UNL     1      -4.084  -1.036   0.940  1.00  0.00    -0.378 N 
ATOM     14  H2  UNL     1      -5.053  -1.233   0.691  1.00  0.00     0.160 HD
BRANCH  13  15
HETATM   15  C16 UNL     1      -3.477  -1.927   1.880  1.00  0.00     0.029 C 
HETATM   16  C17 UNL     1      -2.299  -2.668   1.304  1.00  0.00     0.039 C 
HETATM   17  C18 UNL     1      -2.959  -1.188   3.108  1.00  0.00     0.039 C 
BRANCH  15  18
HETATM   18  C19 UNL     1      -4.483  -2.942   2.407  1.00  0.00    -0.027 C 
HETATM   19  C20 UNL     1      -3.842  -3.868   3.394  1.00  0.00     0.017 C 
HETATM   20  C21 UNL     1      -5.609  -2.198   3.100  1.00  0.00     0.017 C 
HETATM   21  C22 UNL     1      -5.075  -3.756   1.305  1.00  0.00     0.017 C 
ENDBRANCH  15  18
ENDBRANCH  13  15
ENDBRANCH   9  13
ENDBRANCH   3   4
ENDBRANCH   2   3
BRANCH   2  22
HETATM   22  N3  UNL     1       1.778   2.896  -1.061  1.00  0.00    -0.308 N 
HETATM   23  C24 UNL     1       2.252   3.766  -0.109  1.00  0.00     0.321 C 
HETATM   24  O5  UNL     1       1.711   3.880   1.029  1.00  0.00    -0.247 OA
HETATM   25  N4  UNL     1       3.386   4.615  -0.296  1.00  0.00    -0.334 N 
ATOM     26  H4  UNL     1       3.841   4.593  -1.209  1.00  0.00     0.165 HD
ATOM     27  H3  UNL     1       2.325   2.870  -1.921  1.00  0.00     0.170 HD
BRANCH  25  28
HETATM   28  C25 UNL     1       3.933   5.488   0.684  1.00  0.00     0.027 C 
HETATM   29  C26 UNL     1       2.852   6.453   1.115  1.00  0.00     0.038 C 
HETATM   30  C27 UNL     1       4.477   4.789   1.886  1.00  0.00     0.038 C 
BRANCH  28  31
HETATM   31  C28 UNL     1       5.070   6.322   0.105  1.00  0.00     0.026 C 
HETATM   32  C29 UNL     1       5.654   7.238   1.152  1.00  0.00     0.007 C 
ENDBRANCH  28  31
ENDBRANCH  25  28
ENDBRANCH   2  22
BRANCH   1  33
HETATM   33  N1  UNL     1       0.715  -0.520  -1.312  1.00  0.00    -0.356 N 
ATOM     34  H1  UNL     1       0.244  -0.709  -0.427  1.00  0.00     0.162 HD
BRANCH  33  35
HETATM   35  C4  UNL     1       1.158  -1.642  -2.201  1.00  0.00     0.184 C 
BRANCH  35  36
HETATM   36  C3  UNL     1       2.192  -2.340  -1.449  1.00  0.00     0.281 C 
HETATM   37  O2  UNL     1       2.490  -2.042  -0.284  1.00  0.00    -0.263 OA
BRANCH  36  38
HETATM   38  O1  UNL     1       2.901  -3.392  -2.040  1.00  0.00    -0.320 OA
BRANCH  38  39
HETATM   39  C2  UNL     1       3.913  -4.094  -1.341  1.00  0.00     0.174 C 
HETATM   40  C1  UNL     1       3.439  -4.779  -0.102  1.00  0.00     0.034 C 
ENDBRANCH  38  39
ENDBRANCH  36  38
ENDBRANCH  35  36
BRANCH  35  41
HETATM   41  C5  UNL     1      -0.060  -2.500  -2.382  1.00  0.00     0.045 C 
BRANCH  41  42
HETATM   42  C6  UNL     1       0.260  -3.759  -3.122  1.00  0.00     0.076 C 
BRANCH  42  43
HETATM   43  S1  UNL     1       0.977  -3.328  -4.737  1.00  0.00    -0.173 SA
HETATM   44  C7  UNL     1       1.427  -4.849  -5.635  1.00  0.00     0.089 C 
ENDBRANCH  42  43
ENDBRANCH  41  42
ENDBRANCH  35  41
ENDBRANCH  33  35
ENDBRANCH   1  33
BRANCH   1  45
HETATM   45  O3  UNL     1       1.580   0.920  -2.863  1.00  0.00    -0.345 OA
ATOM     46  H3  UNL     1       1.749   1.812  -3.144  1.00  0.00     0.219 HD
ENDBRANCH   1  45
TORSDOF 18
