REMARK  14 active torsions:
REMARK  status: ('A' for Active; 'I' for Inactive)
REMARK    1  A    between atoms: C2_2  and  N1_3 
REMARK    2  A    between atoms: N1_3  and  C3_4 
REMARK    3  A    between atoms: N1_3  and  C9_10 
REMARK    4  A    between atoms: C3_4  and  C4_5 
REMARK    5  A    between atoms: C9_10  and  C10_11 
REMARK    6  A    between atoms: C12_13  and  N2_14 
REMARK    7  A    between atoms: N2_14  and  C13_16 
REMARK    8  A    between atoms: C19_24  and  O1_25 
REMARK       I    between atoms: N4_32  and  C25_33 
REMARK       I    between atoms: C25_33  and  N5_35 
REMARK    9  A    between atoms: N5_35  and  C26_37 
REMARK   10  A    between atoms: C26_37  and  C28_39 
REMARK   11  A    between atoms: C26_37  and  C31_44 
REMARK   12  A    between atoms: C28_39  and  C29_40 
REMARK   13  A    between atoms: C29_40  and  C30_41 
REMARK   14  A    between atoms: C31_44  and  C32_45 
ROOT
HETATM    1  C10 UNL     1      -0.718   0.152   0.308  1.00  0.00     0.136 C 
HETATM    2  C11 UNL     1      -1.581   1.308   0.112  1.00  0.00     0.077 C 
HETATM    3  C12 UNL     1      -0.839   2.412  -0.676  1.00  0.00     0.179 C 
HETATM    4  N3  UNL     1      -0.723   3.536   0.251  1.00  0.00    -0.368 N 
ATOM      5  H3  UNL     1      -1.050   4.445  -0.076  1.00  0.00     0.161 HD
HETATM    6  C17 UNL     1      -0.183   3.470   1.596  1.00  0.00     0.045 A 
HETATM    7  C18 UNL     1      -0.612   4.558   2.276  1.00  0.00     0.066 A 
HETATM    8  C19 UNL     1      -0.246   4.718   3.613  1.00  0.00     0.072 A 
HETATM    9  C21 UNL     1       0.548   3.767   4.227  1.00  0.00     0.061 A 
HETATM   10  C22 UNL     1       0.990   2.655   3.536  1.00  0.00     0.050 A 
HETATM   11 CL1  UNL     1       1.991   1.476   4.342  1.00  0.00    -0.083 Cl
HETATM   12  C23 UNL     1       0.611   2.520   2.207  1.00  0.00     0.028 A 
HETATM   13  C24 UNL     1       1.251   1.292   1.751  1.00  0.00     0.112 C 
HETATM   14  N4  UNL     1       0.594   0.425   0.867  1.00  0.00    -0.299 N 
HETATM   15  C25 UNL     1       1.520  -0.566   0.302  1.00  0.00     0.323 C 
HETATM   16  O2  UNL     1       1.089  -1.342  -0.580  1.00  0.00    -0.247 OA
HETATM   17  N5  UNL     1       2.855  -0.666   0.727  1.00  0.00    -0.333 N 
ATOM     18  H5  UNL     1       3.135  -0.012   1.458  1.00  0.00     0.165 HD
ENDROOT
BRANCH   1  19
HETATM   19  C9  UNL     1      -1.254  -0.989   1.136  1.00  0.00     0.093 C 
BRANCH  19  20
HETATM   20  N1  UNL     1      -2.434  -1.646   0.760  1.00  0.00    -0.352 N 
BRANCH  20  21
HETATM   21  C2  UNL     1      -3.620  -0.994   0.989  1.00  0.00     0.064 C 
HETATM   22  C1  UNL     1      -4.699  -0.832  -0.027  1.00  0.00     0.055 C 
ENDBRANCH  20  21
BRANCH  20  23
HETATM   23  C3  UNL     1      -2.284  -3.001   0.603  1.00  0.00     0.072 C 
BRANCH  23  24
HETATM   24  C4  UNL     1      -2.705  -3.793  -0.574  1.00  0.00     0.024 C 
HETATM   25  C5  UNL     1      -2.254  -5.249  -0.247  1.00  0.00     0.010 C 
HETATM   26  C6  UNL     1      -3.412  -6.134  -0.547  1.00  0.00     0.001 C 
HETATM   27  C7  UNL     1      -4.313  -5.372  -1.474  1.00  0.00     0.001 C 
HETATM   28  C8  UNL     1      -4.136  -3.950  -0.888  1.00  0.00     0.010 C 
ENDBRANCH  23  24
ENDBRANCH  20  23
ENDBRANCH  19  20
ENDBRANCH   1  19
BRANCH  17  29
HETATM   29  C26 UNL     1       3.885  -1.568   0.270  1.00  0.00     0.041 C 
HETATM   30  C27 UNL     1       5.086  -1.351   1.260  1.00  0.00     0.039 C 
BRANCH  29  31
HETATM   31  C28 UNL     1       4.493  -1.204  -1.044  1.00  0.00     0.041 C 
BRANCH  31  32
HETATM   32  C29 UNL     1       3.640  -1.113  -2.246  1.00  0.00     0.116 C 
BRANCH  32  33
HETATM   33  C30 UNL     1       4.566  -0.798  -3.397  1.00  0.00     0.172 C 
HETATM   34  O3  UNL     1       5.160  -1.728  -3.991  1.00  0.00    -0.648 OA
HETATM   35  O4  UNL     1       4.729   0.512  -3.762  1.00  0.00    -0.648 OA
ENDBRANCH  32  33
ENDBRANCH  31  32
ENDBRANCH  29  31
BRANCH  29  36
HETATM   36  C31 UNL     1       3.430  -2.955   0.468  1.00  0.00     0.143 C 
BRANCH  36  37
HETATM   37  C32 UNL     1       4.330  -4.052   0.117  1.00  0.00     0.174 C 
HETATM   38  O5  UNL     1       5.498  -3.895  -0.246  1.00  0.00    -0.648 OA
HETATM   39  O6  UNL     1       3.836  -5.347   0.199  1.00  0.00    -0.648 OA
ENDBRANCH  36  37
ENDBRANCH  29  36
ENDBRANCH  17  29
BRANCH   3  40
HETATM   40  N2  UNL     1      -1.559   2.796  -1.817  1.00  0.00    -0.394 N 
ATOM     41  H2  UNL     1      -2.553   2.583  -1.896  1.00  0.00     0.156 HD
BRANCH  40  42
HETATM   42  C13 UNL     1      -0.889   3.482  -2.858  1.00  0.00     0.016 C 
HETATM   43  C14 UNL     1      -0.357   4.853  -2.495  1.00  0.00     0.037 C 
HETATM   44  C15 UNL     1       0.307   2.716  -3.409  1.00  0.00     0.037 C 
HETATM   45  C16 UNL     1      -1.845   3.644  -4.027  1.00  0.00     0.037 C 
ENDBRANCH  40  42
ENDBRANCH   3  40
BRANCH   8  46
HETATM   46  O1  UNL     1      -0.663   5.812   4.345  1.00  0.00    -0.356 OA
HETATM   47  C20 UNL     1      -0.278   5.936   5.691  1.00  0.00     0.210 C 
ENDBRANCH   8  46
TORSDOF 14
