REMARK  19 active torsions:
REMARK  status: ('A' for Active; 'I' for Inactive)
REMARK    1  A    between atoms: C2_2  and  O1_3 
REMARK    2  A    between atoms: C2_2  and  C3_5 
REMARK    3  A    between atoms: C3_5  and  C4_7 
REMARK    4  A    between atoms: C4_7  and  C5_8 
REMARK    5  A    between atoms: C4_7  and  C27_39 
REMARK    6  A    between atoms: C5_8  and  C6_9 
REMARK    7  A    between atoms: C6_9  and  O3_10 
REMARK    8  A    between atoms: C6_9  and  C7_12 
REMARK    9  A    between atoms: C12_17  and  O4_18 
REMARK   10  A    between atoms: C14_21  and  C15_22 
REMARK   11  A    between atoms: C15_22  and  O5_23 
REMARK   12  A    between atoms: C15_22  and  C16_25 
REMARK   13  A    between atoms: C16_25  and  C17_26 
REMARK   14  A    between atoms: C17_26  and  C18_27 
REMARK   15  A    between atoms: C18_27  and  O6_29 
REMARK   16  A    between atoms: O6_29  and  C20_30 
REMARK   17  A    between atoms: C27_39  and  C29_41 
REMARK   18  A    between atoms: C29_41  and  C30_43 
REMARK   19  A    between atoms: C32_45  and  C33_47 
ROOT
HETATM    1  C7  UNL     1       1.054  -2.201   0.213  1.00  0.00     0.023 C 
HETATM    2  C8  UNL     1       1.456  -1.257   1.255  1.00  0.00     0.008 C 
HETATM    3  C9  UNL     1       0.163  -0.849   1.946  1.00  0.00     0.006 C 
HETATM    4  C10 UNL     1      -0.952  -1.616   1.267  1.00  0.00     0.001 C 
HETATM    5  C11 UNL     1      -2.214  -0.871   1.369  1.00  0.00     0.028 C 
HETATM    6  C12 UNL     1      -3.360  -1.721   1.838  1.00  0.00     0.123 C 
HETATM    7  C13 UNL     1      -4.508  -1.329   0.977  1.00  0.00     0.040 C 
HETATM    8  C14 UNL     1      -3.860  -0.801  -0.296  1.00  0.00     0.025 C 
HETATM    9  C21 UNL     1      -2.673  -0.088   0.165  1.00  0.00    -0.032 C 
HETATM   10  C22 UNL     1      -3.014   1.319   0.617  1.00  0.00     0.016 C 
HETATM   11  C23 UNL     1      -1.572   0.087  -0.840  1.00  0.00     0.011 C 
HETATM   12  C24 UNL     1      -0.781  -1.128  -1.180  1.00  0.00     0.011 C 
HETATM   13  C25 UNL     1      -0.444  -2.025  -0.070  1.00  0.00    -0.034 C 
HETATM   14  C26 UNL     1      -0.924  -3.435  -0.454  1.00  0.00     0.016 C 
ENDROOT
BRANCH   1  15
HETATM   15  C6  UNL     1       1.871  -2.376  -1.003  1.00  0.00     0.123 C 
BRANCH  15  16
HETATM   16  C5  UNL     1       3.256  -2.868  -0.740  1.00  0.00     0.045 C 
BRANCH  16  17
HETATM   17  C4  UNL     1       4.231  -2.027  -0.041  1.00  0.00     0.076 C 
BRANCH  17  18
HETATM   18  C3  UNL     1       5.550  -2.773   0.107  1.00  0.00     0.186 C 
HETATM   19  O2  UNL     1       6.582  -2.329  -0.504  1.00  0.00    -0.290 OA
BRANCH  18  20
HETATM   20  C2  UNL     1       5.715  -3.959   0.896  1.00  0.00     0.102 C 
HETATM   21  C1  UNL     1       6.879  -4.562   0.980  1.00  0.00     0.054 C 
BRANCH  20  22
HETATM   22  O1  UNL     1       4.660  -4.505   1.594  1.00  0.00    -0.358 OA
ATOM     23  H1  UNL     1       3.818  -4.069   1.533  1.00  0.00     0.217 HD
ENDBRANCH  20  22
ENDBRANCH  18  20
ENDBRANCH  17  18
BRANCH  17  24
HETATM   24  C27 UNL     1       4.532  -0.722  -0.802  1.00  0.00     0.063 C 
HETATM   25  C28 UNL     1       5.115  -0.971  -2.148  1.00  0.00     0.018 C 
BRANCH  24  26
HETATM   26  C29 UNL     1       5.310   0.143   0.086  1.00  0.00     0.137 C 
HETATM   27  O8  UNL     1       5.595  -0.235   1.208  1.00  0.00    -0.297 OA
BRANCH  26  28
HETATM   28  C30 UNL     1       5.791   1.505  -0.314  1.00  0.00     0.081 A 
HETATM   29  C31 UNL     1       7.144   1.860   0.257  1.00  0.00     0.041 A 
HETATM   30  C32 UNL     1       5.902   2.527   0.744  1.00  0.00     0.051 A 
HETATM   31 CL1  UNL     1       5.313   2.174   2.386  1.00  0.00    -0.118 Cl
BRANCH  30  32
HETATM   32  C33 UNL     1       5.780   4.001   0.380  1.00  0.00     0.002 C 
HETATM   33  C34 UNL     1       5.932   4.826   1.649  1.00  0.00     0.011 C 
HETATM   34  C35 UNL     1       4.446   4.268  -0.285  1.00  0.00     0.011 C 
ENDBRANCH  30  32
ENDBRANCH  26  28
ENDBRANCH  24  26
ENDBRANCH  17  24
ENDBRANCH  16  17
ENDBRANCH  15  16
BRANCH  15  35
HETATM   35  O3  UNL     1       1.301  -3.451  -1.774  1.00  0.00    -0.395 OA
ATOM     36  H3  UNL     1       0.420  -3.138  -1.941  1.00  0.00     0.210 HD
ENDBRANCH  15  35
ENDBRANCH   1  15
BRANCH   6  37
HETATM   37  O4  UNL     1      -3.742  -1.439   3.174  1.00  0.00    -0.395 OA
ATOM     38  H4  UNL     1      -4.467  -1.977   3.471  1.00  0.00     0.210 HD
ENDBRANCH   6  37
BRANCH   8  39
HETATM   39  C15 UNL     1      -4.827  -0.213  -1.231  1.00  0.00     0.123 C 
BRANCH  39  40
HETATM   40  O5  UNL     1      -4.312   0.310  -2.393  1.00  0.00    -0.395 OA
ATOM     41  H5  UNL     1      -4.938   0.691  -2.998  1.00  0.00     0.210 HD
ENDBRANCH  39  40
BRANCH  39  42
HETATM   42  C16 UNL     1      -5.854   0.735  -0.682  1.00  0.00     0.034 C 
BRANCH  42  43
HETATM   43  C17 UNL     1      -6.776   1.233  -1.817  1.00  0.00     0.035 C 
BRANCH  43  44
HETATM   44  C18 UNL     1      -7.771   2.178  -1.145  1.00  0.00     0.129 C 
HETATM   45  C19 UNL     1      -8.541   1.408  -0.094  1.00  0.00     0.040 C 
BRANCH  44  46
HETATM   46  O6  UNL     1      -7.118   3.261  -0.512  1.00  0.00    -0.301 OA
BRANCH  46  47
HETATM   47  C20 UNL     1      -7.431   4.541  -0.914  1.00  0.00     0.373 C 
HETATM   48  N1  UNL     1      -6.811   5.695  -0.320  1.00  0.00    -0.032 NA
HETATM   49  O7  UNL     1      -8.282   4.706  -1.826  1.00  0.00    -0.242 OA
ENDBRANCH  46  47
ENDBRANCH  44  46
ENDBRANCH  43  44
ENDBRANCH  42  43
ENDBRANCH  39  42
ENDBRANCH   8  39
TORSDOF 19
