REMARK  6 active torsions:
REMARK  status: ('A' for Active; 'I' for Inactive)
REMARK    1  A    between atoms: C2_2  and  O1_5 
REMARK    2  A    between atoms: O1_5  and  C5_6 
REMARK    3  A    between atoms: C7_8  and  C8_9 
REMARK    4  A    between atoms: C9_10  and  O2_11 
REMARK    5  A    between atoms: C10_15  and  N2_16 
REMARK    6  A    between atoms: N2_16  and  O3_18 
ROOT
HETATM    1  C8  UNL     1       2.142  -0.062  -0.774  1.00  0.00     0.082 A 
HETATM    2  C9  UNL     1       2.884   0.726  -1.630  1.00  0.00     0.171 A 
HETATM    3  N1  UNL     1       4.207   0.859  -1.459  1.00  0.00    -0.168 N 
ATOM      4  H1  UNL     1       4.738   1.446  -2.103  1.00  0.00     0.186 HD
HETATM    5  C10 UNL     1       4.848   0.235  -0.456  1.00  0.00     0.705 A 
HETATM    6  N3  UNL     1       4.128  -0.525   0.368  1.00  0.00    -0.179 N 
ATOM      7  H3  UNL     1       4.614  -0.999   1.129  1.00  0.00     0.185 HD
HETATM    8  C11 UNL     1       2.794  -0.706   0.258  1.00  0.00     0.133 A 
HETATM    9  S1  UNL     1       1.980  -1.655   1.310  1.00  0.00    -0.059 SA
ENDROOT
BRANCH   1  10
HETATM   10  C7  UNL     1       0.695  -0.231  -0.929  1.00  0.00     0.077 A 
HETATM   11  C6  UNL     1      -0.317   0.520  -0.384  1.00  0.00     0.098 A 
HETATM   12  C5  UNL     1      -1.485  -0.038  -0.827  1.00  0.00     0.209 A 
HETATM   13  O4  UNL     1      -1.190  -1.047  -1.581  1.00  0.00    -0.212 OA
HETATM   14  N4  UNL     1       0.083  -1.172  -1.650  1.00  0.00    -0.258 N 
ATOM     15  H4  UNL     1       0.565  -1.895  -2.185  1.00  0.00     0.195 HD
BRANCH  12  16
HETATM   16  O1  UNL     1      -2.744   0.405  -0.518  1.00  0.00    -0.319 OA
BRANCH  16  17
HETATM   17  C2  UNL     1      -3.526   0.004   0.560  1.00  0.00     0.059 C 
HETATM   18  C1  UNL     1      -2.910   0.268   1.905  1.00  0.00     0.045 C 
HETATM   19  C3  UNL     1      -3.909  -1.458   0.509  1.00  0.00     0.045 C 
HETATM   20  C4  UNL     1      -4.843   0.788   0.478  1.00  0.00     0.045 C 
ENDBRANCH  16  17
ENDBRANCH  12  16
ENDBRANCH   1  10
BRANCH   2  21
HETATM   21  O2  UNL     1       2.205   1.363  -2.658  1.00  0.00    -0.345 OA
ATOM     22  H2  UNL     1       2.716   1.905  -3.247  1.00  0.00     0.219 HD
ENDBRANCH   2  21
BRANCH   5  23
HETATM   23  N2  UNL     1       6.112   0.367  -0.300  1.00  0.00    -0.098 N 
ATOM     24  H2  UNL     1       6.649   0.952  -0.940  1.00  0.00     0.213 HD
BRANCH  23  25
HETATM   25  O3  UNL     1       6.742  -0.283   0.733  1.00  0.00    -0.276 OA
ATOM     26  H3  UNL     1       7.680  -0.185   0.849  1.00  0.00     0.245 HD
ENDBRANCH  23  25
ENDBRANCH   5  23
TORSDOF 6
