REMARK  3 active torsions:
REMARK  status: ('A' for Active; 'I' for Inactive)
REMARK    1  A    between atoms: C4_5  and  O1_6 
REMARK    2  A    between atoms: C9_19  and  C10_20 
REMARK    3  A    between atoms: C13_24  and  O3_25 
ROOT
HETATM    1  C1  UNL     1       0.220  -1.244  -1.504  1.00  0.00     0.041 C 
HETATM    2  C2  UNL     1       0.044  -1.410   0.030  1.00  0.00     0.120 C 
HETATM    3  C3  UNL     1       0.494  -2.721   0.361  1.00  0.00     0.078 C 
HETATM    4  N1  UNL     1       0.878  -3.790   0.624  1.00  0.00    -0.196 NA
HETATM    5  C4  UNL     1      -1.453  -1.279   0.229  1.00  0.00     0.198 C 
HETATM    6  C5  UNL     1      -2.007   0.057   0.186  1.00  0.00     0.071 A 
HETATM    7  N2  UNL     1      -3.285   0.264  -0.198  1.00  0.00    -0.332 N 
ATOM      8  H2  UNL     1      -3.886  -0.522  -0.447  1.00  0.00     0.168 HD
HETATM    9  C6  UNL     1      -3.755   1.534  -0.246  1.00  0.00     0.176 A 
HETATM   10  S1  UNL     1      -5.322   1.796  -0.696  1.00  0.00    -0.041 SA
HETATM   11  N3  UNL     1      -3.002   2.575   0.076  1.00  0.00    -0.341 N 
ATOM     12  H3  UNL     1      -3.403   3.512   0.027  1.00  0.00     0.167 HD
HETATM   13  C7  UNL     1      -1.718   2.430   0.467  1.00  0.00     0.122 A 
HETATM   14  C8  UNL     1      -1.204   1.164   0.525  1.00  0.00     0.073 A 
HETATM   15  N4  UNL     1       0.093   0.896   0.955  1.00  0.00    -0.354 N 
ATOM     16  H4  UNL     1       0.577   1.624   1.480  1.00  0.00     0.166 HD
HETATM   17  C9  UNL     1       0.792  -0.318   0.716  1.00  0.00     0.050 C 
ENDROOT
BRANCH   5  18
HETATM   18  O1  UNL     1      -1.785  -1.880   1.466  1.00  0.00    -0.387 OA
ATOM     19  H1  UNL     1      -2.723  -1.798   1.591  1.00  0.00     0.210 HD
ENDBRANCH   5  18
BRANCH  17  20
HETATM   20  C10 UNL     1       2.136  -0.068   0.251  1.00  0.00     0.046 A 
HETATM   21  C11 UNL     1       3.277  -0.858   0.490  1.00  0.00     0.157 A 
HETATM   22  O2  UNL     1       4.328  -0.183   0.065  1.00  0.00    -0.331 OA
HETATM   23  C12 UNL     1       4.028   0.980  -0.441  1.00  0.00     0.178 A 
HETATM   24  C13 UNL     1       2.637   1.086  -0.346  1.00  0.00     0.102 A 
BRANCH  24  25
HETATM   25  O3  UNL     1       1.872   2.163  -0.789  1.00  0.00    -0.358 OA
ATOM     26  H3  UNL     1       2.214   2.950  -1.196  1.00  0.00     0.217 HD
ENDBRANCH  24  25
ENDBRANCH  17  20
TORSDOF 3
