REMARK  7 active torsions:
REMARK  status: ('A' for Active; 'I' for Inactive)
REMARK    1  A    between atoms: O1_2  and  C2_3 
REMARK    2  A    between atoms: C2_3  and  O3_5 
REMARK    3  A    between atoms: O3_5  and  C3_6 
REMARK    4  A    between atoms: C8_11  and  O4_12 
REMARK    5  A    between atoms: C9_16  and  C11_18 
REMARK    6  A    between atoms: C11_18  and  O5_19 
REMARK    7  A    between atoms: N2_21  and  O6_23 
ROOT
HETATM    1  C3  UNL     1       2.169   0.420  -1.005  1.00  0.00     0.115 A 
HETATM    2  C4  UNL     1       1.434  -0.714  -0.738  1.00  0.00     0.049 A 
HETATM    3  C5  UNL     1       0.065  -0.618  -0.510  1.00  0.00    -0.029 A 
HETATM    4  C6  UNL     1      -0.614   0.573  -0.538  1.00  0.00     0.038 A 
HETATM    5  C7  UNL     1       0.134   1.708  -0.808  1.00  0.00     0.069 A 
HETATM    6  C8  UNL     1       1.488   1.621  -1.034  1.00  0.00     0.101 A 
HETATM    7  N1  UNL     1      -2.007   0.635  -0.303  1.00  0.00    -0.373 N 
ATOM      8  H1  UNL     1      -2.494   1.524  -0.413  1.00  0.00     0.161 HD
HETATM    9  C9  UNL     1      -2.744  -0.525   0.086  1.00  0.00     0.093 C 
HETATM   10  C10 UNL     1      -3.542  -0.996  -1.134  1.00  0.00     0.048 C 
HETATM   11  C12 UNL     1      -1.905  -1.672   0.571  1.00  0.00     0.044 C 
HETATM   12  C13 UNL     1      -0.647  -1.862  -0.232  1.00  0.00     0.044 C 
ENDROOT
BRANCH   9  13
HETATM   13  C11 UNL     1      -3.707  -0.109   1.128  1.00  0.00     0.164 C 
HETATM   14  N2  UNL     1      -4.968  -0.249   0.968  1.00  0.00    -0.249 N 
ATOM     15  H2  UNL     1      -5.290  -0.660   0.092  1.00  0.00     0.196 HD
BRANCH  13  16
HETATM   16  O5  UNL     1      -3.212   0.439   2.290  1.00  0.00    -0.346 OA
ATOM     17  H5  UNL     1      -3.831   0.706   2.959  1.00  0.00     0.219 HD
ENDBRANCH  13  16
BRANCH  14  18
HETATM   18  O6  UNL     1      -5.908   0.108   1.877  1.00  0.00    -0.288 OA
ATOM     19  H6  UNL     1      -6.845   0.004   1.758  1.00  0.00     0.244 HD
ENDBRANCH  14  18
ENDBRANCH   9  13
BRANCH   6  20
HETATM   20  O4  UNL     1       2.204   2.804  -1.304  1.00  0.00    -0.358 OA
ATOM     21  H4  UNL     1       1.736   3.630  -1.324  1.00  0.00     0.217 HD
ENDBRANCH   6  20
BRANCH   1  22
HETATM   22  O3  UNL     1       3.540   0.394  -1.242  1.00  0.00    -0.253 OA
BRANCH  22  23
HETATM   23  C2  UNL     1       4.470   0.521  -0.224  1.00  0.00     0.411 C 
HETATM   24  O2  UNL     1       4.015   0.663   0.944  1.00  0.00    -0.229 OA
BRANCH  23  25
HETATM   25  O1  UNL     1       5.829   0.503  -0.397  1.00  0.00    -0.303 OA
HETATM   26  C1  UNL     1       6.675   0.642   0.725  1.00  0.00     0.215 C 
ENDBRANCH  23  25
ENDBRANCH  22  23
ENDBRANCH   1  22
TORSDOF 7
