REMARK  2 active torsions:
REMARK  status: ('A' for Active; 'I' for Inactive)
REMARK    1  A    between atoms: C7_7  and  C8_8 
REMARK    2  A    between atoms: C8_8  and  C9_9 
ROOT
HETATM    1  C1  UNL     1      -1.286   3.034  -0.164  1.00  0.00     0.043 C 
HETATM    2  C2  UNL     1      -1.412   1.561   0.019  1.00  0.00    -0.087 C 
HETATM    3  C3  UNL     1      -0.376   0.838  -0.364  1.00  0.00    -0.009 C 
HETATM    4  C4  UNL     1      -0.081  -0.621  -0.364  1.00  0.00     0.043 C 
HETATM    5  C5  UNL     1       0.445  -0.953   1.024  1.00  0.00     0.049 C 
HETATM    6  C6  UNL     1       1.790  -0.316   1.206  1.00  0.00     0.007 C 
HETATM    7  C7  UNL     1       2.528   0.115   0.218  1.00  0.00     0.047 C 
HETATM    8  O1  UNL     1       2.063  -0.015  -1.080  1.00  0.00    -0.315 OA
HETATM    9  C10 UNL     1       1.009  -0.910  -1.327  1.00  0.00     0.203 A 
HETATM   10  C11 UNL     1       1.017  -1.727  -2.454  1.00  0.00     0.241 A 
HETATM   11  O2  UNL     1       1.394  -2.343  -1.215  1.00  0.00    -0.346 OA
HETATM   12  C12 UNL     1      -1.340  -1.411  -0.644  1.00  0.00    -0.001 C 
HETATM   13  C13 UNL     1      -1.824  -2.169   0.586  1.00  0.00     0.011 C 
HETATM   14  C14 UNL     1      -2.435  -0.581  -1.246  1.00  0.00     0.006 C 
HETATM   15  C15 UNL     1      -3.351   0.022  -0.211  1.00  0.00     0.005 C 
HETATM   16  C16 UNL     1      -2.668   1.095   0.601  1.00  0.00     0.033 C 
ENDROOT
BRANCH   7  17
HETATM   17  C8  UNL     1       3.844   0.740   0.404  1.00  0.00     0.075 C 
BRANCH  17  18
HETATM   18  C9  UNL     1       4.266   1.004   1.804  1.00  0.00     0.091 C 
HETATM   19 BR1  UNL     1       3.022   2.264   2.606  1.00  0.00    -0.096 Br
ENDBRANCH  17  18
ENDBRANCH   7  17
TORSDOF 2
