REMARK  2 active torsions:
REMARK  status: ('A' for Active; 'I' for Inactive)
REMARK    1  A    between atoms: C2_3  and  N1_4 
REMARK    2  A    between atoms: N2_7  and  C5_8 
ROOT
HETATM    1  N1  UNL     1       1.848  -0.204   0.508  1.00  0.00    -0.380 N 
HETATM    2  C3  UNL     1       1.082   0.150   1.702  1.00  0.00     0.153 C 
HETATM    3  C4  UNL     1      -0.261   0.757   1.291  1.00  0.00     0.292 C 
HETATM    4  N2  UNL     1      -0.879  -0.218   0.414  1.00  0.00     0.096 N 
HETATM    5  C13 UNL     1      -0.195  -0.184  -0.836  1.00  0.00     0.292 C 
HETATM    6  C14 UNL     1       1.165  -0.870  -0.613  1.00  0.00     0.153 C 
ENDROOT
BRANCH   1   7
HETATM    7  C2  UNL     1       3.219   0.084   0.384  1.00  0.00     0.025 C 
HETATM    8  C1  UNL     1       4.041  -0.553   1.186  1.00  0.00     0.034 C 
HETATM    9 CL1  UNL     1       3.273  -1.671   2.288  1.00  0.00    -0.087 Cl
HETATM   10  C19 UNL     1       5.545  -0.458   1.293  1.00  0.00     0.053 C 
HETATM   11  C18 UNL     1       6.121  -0.870  -0.030  1.00  0.00     0.006 C 
HETATM   12  C17 UNL     1       6.026   0.321  -0.962  1.00  0.00     0.001 C 
HETATM   13  C16 UNL     1       4.661   0.448  -1.586  1.00  0.00     0.006 C 
HETATM   14  C15 UNL     1       3.649   1.079  -0.647  1.00  0.00     0.058 C 
ENDBRANCH   1   7
BRANCH   4  15
HETATM   15  C5  UNL     1      -2.299  -0.156   0.360  1.00  0.00     0.223 C 
HETATM   16  C6  UNL     1      -2.768   1.167  -0.188  1.00  0.00     0.036 C 
HETATM   17  C7  UNL     1      -4.102   1.582   0.385  1.00  0.00     0.002 C 
HETATM   18  C8  UNL     1      -5.182   1.397  -0.668  1.00  0.00     0.000 C 
HETATM   19  C9  UNL     1      -5.884   0.095  -0.427  1.00  0.00     0.000 C 
HETATM   20  C10 UNL     1      -5.200  -1.093  -1.019  1.00  0.00     0.000 C 
HETATM   21  C11 UNL     1      -4.194  -1.733  -0.086  1.00  0.00     0.002 C 
HETATM   22  C12 UNL     1      -2.795  -1.321  -0.465  1.00  0.00     0.036 C 
ENDBRANCH   4  15
TORSDOF 2
