REMARK  3 active torsions:
REMARK  status: ('A' for Active; 'I' for Inactive)
REMARK    1  A    between atoms: C5_5  and  C6_6 
REMARK    2  A    between atoms: C7_7  and  C8_8 
REMARK    3  A    between atoms: C14_15  and  C15_16 
ROOT
HETATM    1  C8  UNL     1      -1.909  -1.238   0.281  1.00  0.00     0.032 A 
HETATM    2  C9  UNL     1      -2.169  -2.596   0.486  1.00  0.00     0.044 A 
HETATM    3  C10 UNL     1      -3.419  -3.108   0.733  1.00  0.00     0.046 A 
HETATM    4  C11 UNL     1      -3.651  -4.509   0.938  1.00  0.00     0.099 C 
HETATM    5  N1  UNL     1      -3.844  -5.638   1.122  1.00  0.00    -0.191 NA
HETATM    6  C12 UNL     1      -4.447  -2.199   0.773  1.00  0.00     0.024 A 
HETATM    7  C13 UNL     1      -4.230  -0.872   0.577  1.00  0.00     0.017 A 
HETATM    8  C14 UNL     1      -2.929  -0.350   0.320  1.00  0.00     0.011 A 
ENDROOT
BRANCH   1   9
HETATM    9  C7  UNL     1      -0.551  -0.813   0.098  1.00  0.00    -0.060 C 
HETATM   10  C6  UNL     1       0.627  -0.490  -0.030  1.00  0.00    -0.061 C 
BRANCH  10  11
HETATM   11  C5  UNL     1       2.004  -0.106  -0.172  1.00  0.00     0.021 A 
HETATM   12  C4  UNL     1       2.468   1.081   0.330  1.00  0.00     0.021 A 
HETATM   13  C3  UNL     1       3.790   1.444   0.190  1.00  0.00     0.011 A 
HETATM   14  C2  UNL     1       4.685   0.625  -0.459  1.00  0.00    -0.023 A 
HETATM   15  C1  UNL     1       6.112   1.023  -0.607  1.00  0.00     0.051 C 
HETATM   16  C19 UNL     1       4.244  -0.568  -0.970  1.00  0.00     0.123 A 
HETATM   17  C18 UNL     1       2.925  -0.916  -0.823  1.00  0.00     0.063 A 
HETATM   18  F1  UNL     1       5.133  -1.360  -1.604  1.00  0.00    -0.206 F 
ENDBRANCH  10  11
ENDBRANCH   1   9
BRANCH   8  19
HETATM   19  C15 UNL     1      -2.792   1.069   0.153  1.00  0.00     0.060 A 
HETATM   20  C16 UNL     1      -1.903   1.847  -0.499  1.00  0.00     0.119 A 
HETATM   21  N2  UNL     1      -2.273   3.172  -0.413  1.00  0.00    -0.360 N 
HETATM   22  C17 UNL     1      -3.410   3.203   0.305  1.00  0.00     0.180 A 
ATOM     23  H2  UNL     1      -1.782   3.971  -0.814  1.00  0.00     0.166 HD
HETATM   24  N3  UNL     1      -3.718   1.957   0.640  1.00  0.00    -0.351 N 
ATOM     25  H3  UNL     1      -4.537   1.693   1.188  1.00  0.00     0.166 HD
ENDBRANCH   8  19
TORSDOF 3
