REMARK  1 active torsions:
REMARK  status: ('A' for Active; 'I' for Inactive)
REMARK    1  A    between atoms: C8_8  and  C9_9 
ROOT
HETATM    1  C1  UNL     1       3.741  -2.326   0.812  1.00  0.00     0.048 C 
HETATM    2  C2  UNL     1       3.213  -0.933   0.673  1.00  0.00    -0.061 A 
HETATM    3  C3  UNL     1       3.972   0.143   1.081  1.00  0.00     0.009 A 
HETATM    4  C4  UNL     1       3.495   1.431   0.958  1.00  0.00     0.031 A 
HETATM    5  C5  UNL     1       2.251   1.703   0.428  1.00  0.00     0.045 A 
HETATM    6  C6  UNL     1       1.486   0.631   0.018  1.00  0.00     0.006 A 
HETATM    7  C7  UNL     1       1.969  -0.670   0.143  1.00  0.00     0.021 A 
HETATM    8  C8  UNL     1       0.316   1.055  -0.469  1.00  0.00     0.031 A 
HETATM    9  C19 UNL     1       0.339   2.510  -0.360  1.00  0.00     0.111 A 
HETATM   10  N1  UNL     1      -0.619   3.292  -0.729  1.00  0.00    -0.385 N 
ATOM     11  H11 UNL     1      -0.603   4.309  -0.653  1.00  0.00     0.157 HD
ATOM     12  H12 UNL     1      -1.524   3.070  -1.143  1.00  0.00     0.157 HD
HETATM   13  N2  UNL     1       1.602   2.820   0.218  1.00  0.00    -0.341 N 
ATOM     14  H2  UNL     1       1.944   3.757   0.433  1.00  0.00     0.167 HD
ENDROOT
BRANCH   8  15
HETATM   15  C9  UNL     1      -0.759   0.242  -0.998  1.00  0.00    -0.010 A 
HETATM   16  C10 UNL     1      -0.647  -0.314  -2.246  1.00  0.00     0.013 A 
HETATM   17  C11 UNL     1      -1.665  -1.079  -2.737  1.00  0.00     0.002 A 
HETATM   18  C12 UNL     1      -2.788  -1.278  -1.967  1.00  0.00     0.012 A 
HETATM   19  C13 UNL     1      -2.906  -0.725  -0.718  1.00  0.00    -0.025 A 
HETATM   20  C14 UNL     1      -4.041  -0.921   0.071  1.00  0.00     0.014 A 
HETATM   21  C18 UNL     1      -1.893   0.048  -0.205  1.00  0.00    -0.013 A 
HETATM   22  C15 UNL     1      -4.155  -0.368   1.316  1.00  0.00     0.024 A 
HETATM   23  C16 UNL     1      -3.116   0.401   1.794  1.00  0.00     0.035 A 
HETATM   24 CL1  UNL     1      -3.306   1.092   3.398  1.00  0.00    -0.084 Cl
HETATM   25  C17 UNL     1      -1.980   0.618   1.046  1.00  0.00     0.037 A 
ENDBRANCH   8  15
TORSDOF 1
