REMARK  6 active torsions:
REMARK  status: ('A' for Active; 'I' for Inactive)
REMARK    1  A    between atoms: N1_1  and  C1_5 
REMARK    2  A    between atoms: C1_5  and  C2_6 
REMARK    3  A    between atoms: C2_6  and  C3_7 
REMARK    4  A    between atoms: C2_6  and  C8_19 
REMARK    5  A    between atoms: C2_6  and  C14_26 
REMARK       I    between atoms: C3_7  and  N2_9 
REMARK    6  A    between atoms: C17_29  and  C18_30 
ROOT
HETATM    1  C2  UNL     1      -1.088  -0.951  -0.221  1.00  0.00     0.119 C 
ENDROOT
BRANCH   1   2
HETATM    2  C1  UNL     1      -1.540  -0.905  -1.672  1.00  0.00     0.258 C 
BRANCH   2   3
HETATM    3  N1  UNL     1      -2.929  -1.331  -1.832  1.00  0.00    -0.077 N 
ATOM      4  H13 UNL     1      -3.080  -2.255  -1.428  1.00  0.00     0.274 HD
ATOM      5  H12 UNL     1      -3.552  -0.788  -1.234  1.00  0.00     0.274 HD
ATOM      6  H11 UNL     1      -3.232  -1.300  -2.805  1.00  0.00     0.274 HD
ENDBRANCH   2   3
ENDBRANCH   1   2
BRANCH   1   7
HETATM    7  C3  UNL     1      -1.969  -0.028   0.527  1.00  0.00     0.242 C 
HETATM    8  O1  UNL     1      -2.795  -0.526   1.340  1.00  0.00    -0.271 OA
HETATM    9  N2  UNL     1      -1.969   1.367   0.416  1.00  0.00    -0.312 N 
HETATM   10  C4  UNL     1      -2.939   2.132   0.179  1.00  0.00     0.109 A 
ATOM     11  H2  UNL     1      -1.065   1.822   0.544  1.00  0.00     0.170 HD
HETATM   12  C5  UNL     1      -4.231   1.706  -0.021  1.00  0.00     0.065 A 
HETATM   13  N4  UNL     1      -2.762   3.490   0.112  1.00  0.00    -0.339 N 
HETATM   14  C6  UNL     1      -5.289   2.576  -0.274  1.00  0.00     0.092 A 
HETATM   15  N3  UNL     1      -5.045   3.891  -0.326  1.00  0.00    -0.362 N 
HETATM   16  C7  UNL     1      -3.785   4.324  -0.132  1.00  0.00     0.181 A 
ATOM     17  H3  UNL     1      -5.799   4.553  -0.509  1.00  0.00     0.165 HD
ATOM     18  H4  UNL     1      -1.828   3.877   0.251  1.00  0.00     0.168 HD
ENDBRANCH   1   7
BRANCH   1  19
HETATM   19  C8  UNL     1      -1.205  -2.352   0.263  1.00  0.00    -0.034 A 
HETATM   20  C9  UNL     1      -1.251  -2.707   1.587  1.00  0.00     0.012 A 
HETATM   21  C10 UNL     1      -1.364  -4.009   2.019  1.00  0.00     0.043 A 
HETATM   22  C11 UNL     1      -1.435  -5.024   1.084  1.00  0.00     0.116 A 
HETATM   23  F1  UNL     1      -1.545  -6.296   1.495  1.00  0.00    -0.206 F 
HETATM   24  C12 UNL     1      -1.392  -4.726  -0.262  1.00  0.00     0.043 A 
HETATM   25  C13 UNL     1      -1.278  -3.404  -0.641  1.00  0.00     0.012 A 
ENDBRANCH   1  19
BRANCH   1  26
HETATM   26  C14 UNL     1       0.300  -0.426  -0.180  1.00  0.00    -0.034 A 
HETATM   27  C15 UNL     1       1.324  -1.086   0.460  1.00  0.00     0.010 A 
HETATM   28  C16 UNL     1       2.591  -0.551   0.470  1.00  0.00     0.013 A 
HETATM   29  C17 UNL     1       2.911   0.638  -0.138  1.00  0.00    -0.026 A 
HETATM   30  C24 UNL     1       1.875   1.286  -0.774  1.00  0.00     0.013 A 
HETATM   31  C25 UNL     1       0.581   0.766  -0.798  1.00  0.00     0.010 A 
BRANCH  29  32
HETATM   32  C18 UNL     1       4.277   1.176  -0.116  1.00  0.00    -0.026 A 
HETATM   33  C19 UNL     1       5.335   0.269  -0.107  1.00  0.00     0.012 A 
HETATM   34  C20 UNL     1       6.642   0.710  -0.089  1.00  0.00     0.001 A 
HETATM   35  C21 UNL     1       6.908   2.068  -0.079  1.00  0.00     0.000 A 
HETATM   36  C22 UNL     1       5.843   2.943  -0.088  1.00  0.00     0.001 A 
HETATM   37  C23 UNL     1       4.527   2.522  -0.106  1.00  0.00     0.012 A 
ENDBRANCH  29  32
ENDBRANCH   1  26
TORSDOF 6
