REMARK  4 active torsions:
REMARK  status: ('A' for Active; 'I' for Inactive)
REMARK       I    between atoms: C1_2  and  N1_3 
REMARK    1  A    between atoms: C1_2  and  C12_20 
REMARK    2  A    between atoms: N3_10  and  C5_11 
REMARK    3  A    between atoms: C12_20  and  C13_21 
REMARK    4  A    between atoms: C12_20  and  C19_27 
ROOT
HETATM    1  O1  UNL     1      -1.231   0.833  -2.068  1.00  0.00    -0.272 OA
HETATM    2  C1  UNL     1      -1.114   0.436  -0.883  1.00  0.00     0.235 C 
HETATM    3  N1  UNL     1       0.133  -0.228  -0.592  1.00  0.00    -0.322 N 
ATOM      4  H1  UNL     1       0.136  -1.230  -0.399  1.00  0.00     0.169 HD
HETATM    5  C2  UNL     1       1.247   0.428  -0.572  1.00  0.00     0.106 A 
HETATM    6  C3  UNL     1       1.355   1.770  -0.817  1.00  0.00     0.054 A 
HETATM    7  C4  UNL     1       2.585   2.405  -0.779  1.00  0.00     0.110 A 
HETATM    8  N2  UNL     1       3.655   1.643  -0.491  1.00  0.00    -0.302 N 
ATOM      9  H2  UNL     1       4.571   2.091  -0.457  1.00  0.00     0.186 HD
HETATM   10  N3  UNL     1       3.586   0.346  -0.250  1.00  0.00    -0.216 N 
HETATM   11  C11 UNL     1       2.386  -0.288  -0.285  1.00  0.00     0.293 A 
HETATM   12  O2  UNL     1       2.315  -1.525  -0.055  1.00  0.00    -0.264 OA
ENDROOT
BRANCH   2  13
HETATM   13  C12 UNL     1      -2.140   0.609   0.171  1.00  0.00     0.144 C 
BRANCH  13  14
HETATM   14  C13 UNL     1      -2.603  -0.642   0.782  1.00  0.00    -0.041 A 
HETATM   15  C14 UNL     1      -2.549  -1.806   0.056  1.00  0.00     0.008 A 
HETATM   16  C15 UNL     1      -2.985  -2.971   0.631  1.00  0.00     0.001 A 
HETATM   17  C16 UNL     1      -3.479  -2.979   1.937  1.00  0.00     0.000 A 
HETATM   18  C17 UNL     1      -3.534  -1.814   2.665  1.00  0.00     0.001 A 
HETATM   19  C18 UNL     1      -3.097  -0.637   2.094  1.00  0.00     0.008 A 
ENDBRANCH  13  14
BRANCH  13  20
HETATM   20  C19 UNL     1      -3.340   1.271  -0.409  1.00  0.00    -0.041 A 
HETATM   21  C20 UNL     1      -3.866   0.753  -1.569  1.00  0.00     0.008 A 
HETATM   22  C21 UNL     1      -4.972   1.322  -2.163  1.00  0.00     0.001 A 
HETATM   23  C22 UNL     1      -5.547   2.425  -1.575  1.00  0.00     0.000 A 
HETATM   24  C23 UNL     1      -5.015   2.933  -0.419  1.00  0.00     0.001 A 
HETATM   25  C24 UNL     1      -3.915   2.383   0.191  1.00  0.00     0.008 A 
ENDBRANCH  13  20
ENDBRANCH   2  13
BRANCH  10  26
HETATM   26  C5  UNL     1       4.728  -0.442   0.052  1.00  0.00     0.098 A 
HETATM   27  C6  UNL     1       5.430  -0.258   1.213  1.00  0.00     0.035 A 
HETATM   28  C7  UNL     1       6.533  -1.015   1.511  1.00  0.00     0.002 A 
HETATM   29  C8  UNL     1       6.978  -1.996   0.646  1.00  0.00     0.003 A 
HETATM   30  C9  UNL     1       6.288  -2.196  -0.525  1.00  0.00     0.045 A 
HETATM   31  C10 UNL     1       5.187  -1.432  -0.810  1.00  0.00     0.145 A 
HETATM   32  F1  UNL     1       4.515  -1.637  -1.965  1.00  0.00    -0.204 F 
ENDBRANCH  10  26
TORSDOF 4
