REMARK  5 active torsions:
REMARK  status: ('A' for Active; 'I' for Inactive)
REMARK    1  A    between atoms: N1_2  and  C3_4 
REMARK    2  A    between atoms: C6_7  and  C7_8 
REMARK    3  A    between atoms: C10_11  and  C11_12 
REMARK    4  A    between atoms: C11_12  and  C12_13 
REMARK    5  A    between atoms: N4_24  and  C17_26 
ROOT
HETATM    1  C11 UNL     1       3.097   0.831   0.385  1.00  0.00     0.065 C 
ENDROOT
BRANCH   1   2
HETATM    2  C10 UNL     1       1.599   0.708   0.387  1.00  0.00    -0.057 A 
HETATM    3  C9  UNL     1       1.021  -0.092   1.338  1.00  0.00     0.008 A 
HETATM    4  C8  UNL     1      -0.363  -0.211   1.341  1.00  0.00     0.013 A 
HETATM    5  C7  UNL     1      -1.154   0.439   0.436  1.00  0.00    -0.026 A 
HETATM    6  C19 UNL     1      -0.549   1.232  -0.504  1.00  0.00     0.013 A 
HETATM    7  C18 UNL     1       0.836   1.379  -0.542  1.00  0.00     0.008 A 
BRANCH   5   8
HETATM    8  C6  UNL     1      -2.591   0.308   0.449  1.00  0.00    -0.026 A 
HETATM    9  C5  UNL     1      -3.416   1.360   0.033  1.00  0.00     0.014 A 
HETATM   10  C4  UNL     1      -4.790   1.250   0.038  1.00  0.00     0.030 A 
HETATM   11  C3  UNL     1      -5.425   0.102   0.453  1.00  0.00     0.029 A 
HETATM   12  C21 UNL     1      -4.612  -0.954   0.870  1.00  0.00     0.030 A 
HETATM   13  C20 UNL     1      -3.239  -0.838   0.862  1.00  0.00     0.014 A 
BRANCH  11  14
HETATM   14  N1  UNL     1      -6.824  -0.052   0.474  1.00  0.00    -0.390 N 
HETATM   15  C1  UNL     1      -7.659   1.043   0.037  1.00  0.00     0.149 C 
HETATM   16  C2  UNL     1      -7.473  -1.268   0.919  1.00  0.00     0.149 C 
ENDBRANCH  11  14
ENDBRANCH   5   8
ENDBRANCH   1   2
BRANCH   1  17
HETATM   17  C12 UNL     1       3.756  -0.179  -0.506  1.00  0.00     0.100 C 
HETATM   18  C13 UNL     1       3.295  -0.036  -1.949  1.00  0.00     0.034 C 
HETATM   19  C14 UNL     1       3.409  -1.546  -0.059  1.00  0.00     0.240 C 
HETATM   20  O1  UNL     1       2.552  -2.260  -0.666  1.00  0.00    -0.272 OA
HETATM   21  N2  UNL     1       4.053  -2.078   1.085  1.00  0.00    -0.303 N 
HETATM   22  C15 UNL     1       5.306  -1.561   1.492  1.00  0.00     0.179 C 
ATOM     23  H2  UNL     1       3.615  -2.832   1.614  1.00  0.00     0.171 HD
HETATM   24  S1  UNL     1       6.062  -2.163   2.809  1.00  0.00    -0.040 SA
HETATM   25  N3  UNL     1       5.893  -0.513   0.737  1.00  0.00    -0.322 N 
HETATM   26  C16 UNL     1       5.218  -0.009  -0.402  1.00  0.00     0.098 C 
ATOM     27  H3  UNL     1       6.795  -0.125   1.012  1.00  0.00     0.169 HD
HETATM   28  N4  UNL     1       5.920   0.586  -1.315  1.00  0.00    -0.366 N 
ATOM     29  H4  UNL     1       5.443   0.952  -2.139  1.00  0.00     0.162 HD
BRANCH  28  30
HETATM   30  C17 UNL     1       7.346   0.750  -1.211  1.00  0.00     0.236 C 
HETATM   31 CL1  UNL     1       8.222  -0.791  -1.171  1.00  0.00    -0.109 Cl
ENDBRANCH  28  30
ENDBRANCH   1  17
TORSDOF 5
