REMARK  6 active torsions:
REMARK  status: ('A' for Active; 'I' for Inactive)
REMARK    1  A    between atoms: C5_5  and  C6_6 
REMARK    2  A    between atoms: C7_9  and  N2_10 
REMARK    3  A    between atoms: N2_10  and  S1_12 
REMARK    4  A    between atoms: S1_12  and  C8_15 
REMARK    5  A    between atoms: C11_18  and  S2_19 
REMARK    6  A    between atoms: S2_19  and  N3_22 
ROOT
HETATM    1  N2  UNL     1      -0.163  -1.374  -1.101  1.00  0.00    -0.266 N 
ATOM      2  H2  UNL     1       0.509  -1.999  -1.546  1.00  0.00     0.180 HD
ENDROOT
BRANCH   1   3
HETATM    3  C7  UNL     1      -1.420  -1.622  -1.265  1.00  0.00     0.115 A 
HETATM    4  N1  UNL     1      -2.339  -0.827  -0.699  1.00  0.00    -0.341 N 
HETATM    5  C6  UNL     1      -3.695  -1.026  -0.826  1.00  0.00     0.050 A 
ATOM      6  H1  UNL     1      -2.017  -0.033  -0.145  1.00  0.00     0.167 HD
HETATM    7  C18 UNL     1      -4.064  -2.095  -1.571  1.00  0.00    -0.034 A 
HETATM    8  C17 UNL     1      -3.112  -2.946  -2.179  1.00  0.00     0.013 A 
HETATM    9  C19 UNL     1      -5.485  -2.467  -1.740  1.00  0.00     0.050 C 
HETATM   10  C16 UNL     1      -1.780  -2.715  -2.029  1.00  0.00     0.050 A 
BRANCH   5  11
HETATM   11  C5  UNL     1      -4.564  -0.132  -0.107  1.00  0.00    -0.007 A 
HETATM   12  C4  UNL     1      -4.079   0.503   1.052  1.00  0.00     0.014 A 
HETATM   13  C3  UNL     1      -4.809   1.433   1.755  1.00  0.00     0.009 A 
HETATM   14  C2  UNL     1      -6.072   1.799   1.358  1.00  0.00    -0.040 A 
HETATM   15  C1  UNL     1      -6.874   2.795   2.099  1.00  0.00     0.050 C 
HETATM   16  C21 UNL     1      -6.579   1.201   0.232  1.00  0.00     0.040 A 
HETATM   17  C20 UNL     1      -5.825   0.264  -0.466  1.00  0.00     0.038 A 
HETATM   18 CL1  UNL     1      -8.190   1.640  -0.308  1.00  0.00    -0.084 Cl
ENDBRANCH   5  11
ENDBRANCH   1   3
BRANCH   1  19
HETATM   19  S1  UNL     1       0.446  -0.066  -0.187  1.00  0.00     0.264 S 
HETATM   20  O1  UNL     1       0.006   1.238  -0.776  1.00  0.00    -0.200 OA
HETATM   21  O2  UNL     1      -0.000  -0.145   1.246  1.00  0.00    -0.200 OA
BRANCH  19  22
HETATM   22  C8  UNL     1       2.212  -0.152  -0.283  1.00  0.00     0.080 A 
HETATM   23  C9  UNL     1       2.911   0.491  -1.280  1.00  0.00     0.027 A 
HETATM   24  C10 UNL     1       4.306   0.417  -1.347  1.00  0.00     0.026 A 
HETATM   25  C11 UNL     1       4.952  -0.317  -0.389  1.00  0.00     0.074 A 
HETATM   26  C14 UNL     1       4.271  -0.962   0.610  1.00  0.00     0.026 A 
HETATM   27  C15 UNL     1       2.882  -0.886   0.673  1.00  0.00     0.027 A 
BRANCH  25  28
HETATM   28  S2  UNL     1       6.686  -0.427  -0.446  1.00  0.00     0.242 S 
HETATM   29  O3  UNL     1       7.183  -0.312  -1.873  1.00  0.00    -0.206 OA
HETATM   30  O4  UNL     1       7.138  -1.739   0.072  1.00  0.00    -0.206 OA
BRANCH  28  31
HETATM   31  N3  UNL     1       7.327   0.881   0.485  1.00  0.00    -0.215 NA
HETATM   32  C12 UNL     1       6.954   2.156  -0.044  1.00  0.00     0.129 C 
HETATM   33  C13 UNL     1       8.756   0.742   0.685  1.00  0.00     0.129 C 
ENDBRANCH  28  31
ENDBRANCH  25  28
ENDBRANCH  19  22
ENDBRANCH   1  19
TORSDOF 6
