REMARK  5 active torsions:
REMARK  status: ('A' for Active; 'I' for Inactive)
REMARK    1  A    between atoms: S1_2  and  C2_4 
REMARK    2  A    between atoms: C5_7  and  C6_8 
REMARK    3  A    between atoms: C6_8  and  C7_9 
REMARK    4  A    between atoms: C11_13  and  C12_14 
REMARK    5  A    between atoms: C15_17  and  S2_18 
ROOT
HETATM    1  C7  UNL     1       0.719   0.735   0.772  1.00  0.00     0.051 C 
HETATM    2  C8  UNL     1       1.497   1.820   1.573  1.00  0.00     0.043 C 
HETATM    3  C9  UNL     1      -0.702   1.081   0.990  1.00  0.00     0.008 C 
HETATM    4  C10 UNL     1      -1.666   0.231   1.258  1.00  0.00    -0.055 C 
HETATM    5  C11 UNL     1      -3.087  -0.186   1.566  1.00  0.00     0.050 C 
HETATM    6  C18 UNL     1      -2.601  -1.516   1.999  1.00  0.00     0.037 C 
HETATM    7  C19 UNL     1      -1.338  -1.235   1.278  1.00  0.00     0.062 C 
HETATM    8  C20 UNL     1      -1.273  -1.894  -0.084  1.00  0.00     0.030 C 
HETATM    9  C21 UNL     1      -0.040  -1.310   2.012  1.00  0.00     0.231 C 
HETATM   10  O4  UNL     1       0.151  -1.971   3.035  1.00  0.00    -0.272 OA
HETATM   11  N1  UNL     1       1.022  -0.525   1.421  1.00  0.00    -0.348 N 
ATOM     12  H1  UNL     1       1.985  -0.859   1.461  1.00  0.00     0.163 HD
ENDROOT
BRANCH   1  13
HETATM   13  C6  UNL     1       1.185   0.746  -0.633  1.00  0.00     0.073 C 
BRANCH  13  14
HETATM   14  C5  UNL     1       2.635   0.457  -0.774  1.00  0.00    -0.055 A 
HETATM   15  C4  UNL     1       3.567   1.468  -0.743  1.00  0.00     0.009 A 
HETATM   16  C3  UNL     1       4.924   1.220  -0.876  1.00  0.00     0.021 A 
HETATM   17  C2  UNL     1       5.395  -0.067  -1.047  1.00  0.00     0.031 A 
HETATM   18  C23 UNL     1       4.441  -1.063  -1.075  1.00  0.00     0.021 A 
HETATM   19  C22 UNL     1       3.094  -0.830  -0.944  1.00  0.00     0.009 A 
BRANCH  17  20
HETATM   20  S1  UNL     1       7.107  -0.396  -1.217  1.00  0.00     0.045 S 
HETATM   21  C1  UNL     1       7.850  -0.684   0.374  1.00  0.00     0.133 C 
HETATM   22  O1  UNL     1       7.273  -1.843  -2.089  1.00  0.00    -0.253 OA
ENDBRANCH  17  20
ENDBRANCH  13  14
ENDBRANCH   1  13
BRANCH   5  23
HETATM   23  C12 UNL     1      -3.956  -0.002   0.437  1.00  0.00    -0.050 A 
HETATM   24  C13 UNL     1      -4.565  -0.966  -0.327  1.00  0.00     0.009 A 
HETATM   25  C14 UNL     1      -5.382  -0.713  -1.402  1.00  0.00     0.025 A 
HETATM   26  C15 UNL     1      -5.627   0.580  -1.764  1.00  0.00     0.074 A 
HETATM   27  C16 UNL     1      -5.042   1.590  -1.031  1.00  0.00     0.025 A 
HETATM   28  C17 UNL     1      -4.226   1.316   0.043  1.00  0.00     0.009 A 
BRANCH  26  29
HETATM   29  S2  UNL     1      -6.655   1.011  -3.120  1.00  0.00     0.262 S 
HETATM   30  O2  UNL     1      -7.742   0.014  -3.304  1.00  0.00    -0.206 OA
HETATM   31  O3  UNL     1      -7.211   2.391  -2.895  1.00  0.00    -0.206 OA
HETATM   32 CL1  UNL     1      -5.435   1.121  -4.790  1.00  0.00     0.024 Cl
ENDBRANCH  26  29
ENDBRANCH   5  23
TORSDOF 5
