REMARK  5 active torsions:
REMARK  status: ('A' for Active; 'I' for Inactive)
REMARK    1  A    between atoms: C2_2  and  S1_3 
REMARK    2  A    between atoms: S1_3  and  C3_5 
REMARK    3  A    between atoms: C6_8  and  C7_9 
REMARK    4  A    between atoms: C10_15  and  C11_16 
REMARK    5  A    between atoms: C15_20  and  C16_21 
ROOT
HETATM    1  C7  UNL     1      -2.772  -0.208  -2.422  1.00  0.00     0.032 C 
HETATM    2  C8  UNL     1      -1.461  -0.202  -2.310  1.00  0.00     0.085 A 
HETATM    3  C9  UNL     1      -0.524  -0.253  -3.466  1.00  0.00     0.260 A 
HETATM    4  O2  UNL     1      -0.924  -0.270  -4.655  1.00  0.00    -0.267 OA
HETATM    5  N1  UNL     1       0.759  -0.273  -2.939  1.00  0.00    -0.319 N 
ATOM      6  H1  UNL     1       1.596  -0.307  -3.521  1.00  0.00     0.169 HD
HETATM    7  C10 UNL     1       0.803  -0.245  -1.643  1.00  0.00     0.103 A 
HETATM    8  C23 UNL     1      -0.561  -0.199  -1.157  1.00  0.00     0.215 A 
HETATM    9  O4  UNL     1      -0.964  -0.166   0.031  1.00  0.00    -0.285 OA
ENDROOT
BRANCH   7  10
HETATM   10  C11 UNL     1       2.096  -0.261  -0.924  1.00  0.00     0.069 A 
HETATM   11  C12 UNL     1       3.279  -0.311  -1.651  1.00  0.00    -0.042 A 
HETATM   12  C13 UNL     1       3.309  -0.355  -3.139  1.00  0.00     0.049 C 
HETATM   13  C14 UNL     1       4.502  -0.321  -0.954  1.00  0.00     0.038 A 
HETATM   14  C15 UNL     1       4.599  -0.286   0.410  1.00  0.00     0.045 A 
HETATM   15  N2  UNL     1       3.441  -0.239   1.077  1.00  0.00    -0.322 N 
HETATM   16  C22 UNL     1       2.218  -0.226   0.438  1.00  0.00     0.259 A 
ATOM     17  H2  UNL     1       3.462  -0.212   2.096  1.00  0.00     0.169 HD
HETATM   18  O3  UNL     1       1.198  -0.181   1.163  1.00  0.00    -0.267 OA
BRANCH  14  19
HETATM   19  C16 UNL     1       5.879  -0.299   1.109  1.00  0.00    -0.009 A 
HETATM   20  C17 UNL     1       5.965  -0.268   2.487  1.00  0.00     0.015 A 
HETATM   21  C18 UNL     1       7.188  -0.281   3.166  1.00  0.00     0.024 A 
HETATM   22  C19 UNL     1       8.361  -0.327   2.470  1.00  0.00     0.034 A 
HETATM   23 CL1  UNL     1       9.927  -0.346   3.279  1.00  0.00    -0.084 Cl
HETATM   24  C20 UNL     1       8.309  -0.359   1.099  1.00  0.00     0.024 A 
HETATM   25  C21 UNL     1       7.073  -0.345   0.428  1.00  0.00     0.015 A 
ENDBRANCH  14  19
ENDBRANCH   7  10
BRANCH   1  26
HETATM   26  C6  UNL     1      -3.665  -0.151  -1.294  1.00  0.00    -0.035 A 
HETATM   27  C5  UNL     1      -4.606  -1.171  -1.102  1.00  0.00     0.013 A 
HETATM   28  C4  UNL     1      -5.509  -1.121  -0.077  1.00  0.00     0.022 A 
HETATM   29  C3  UNL     1      -5.496  -0.045   0.791  1.00  0.00     0.031 A 
HETATM   30  C25 UNL     1      -4.585   0.990   0.644  1.00  0.00     0.022 A 
HETATM   31  C24 UNL     1      -3.685   0.906  -0.406  1.00  0.00     0.013 A 
BRANCH  29  32
HETATM   32  S1  UNL     1      -6.642   0.003   2.084  1.00  0.00     0.049 S 
HETATM   33  O1  UNL     1      -7.019  -1.561   2.535  1.00  0.00    -0.253 OA
BRANCH  32  34
HETATM   34  C2  UNL     1      -8.107   0.841   1.492  1.00  0.00     0.109 C 
HETATM   35  C1  UNL     1      -7.799   2.246   1.080  1.00  0.00     0.019 C 
ENDBRANCH  32  34
ENDBRANCH  29  32
ENDBRANCH   1  26
TORSDOF 5
