REMARK  6 active torsions:
REMARK  status: ('A' for Active; 'I' for Inactive)
REMARK    1  A    between atoms: C2_2  and  N1_4 
REMARK    2  A    between atoms: C5_6  and  C6_7 
REMARK    3  A    between atoms: C14_16  and  C15_17 
REMARK    4  A    between atoms: C15_17  and  C16_18 
REMARK    5  A    between atoms: C16_18  and  C17_19 
REMARK    6  A    between atoms: C18_22  and  C19_23 
ROOT
HETATM    1  C19 UNL     1       5.028   0.138   0.383  1.00  0.00    -0.034 A 
HETATM    2  C20 UNL     1       6.297   0.673   0.324  1.00  0.00     0.011 A 
HETATM    3  C21 UNL     1       7.451  -0.070   0.441  1.00  0.00     0.023 A 
HETATM    4  C22 UNL     1       7.326  -1.438   0.630  1.00  0.00     0.044 A 
HETATM    5  C23 UNL     1       8.532  -2.189   0.748  1.00  0.00     0.099 C 
HETATM    6  N3  UNL     1       9.515  -2.797   0.851  1.00  0.00    -0.191 NA
HETATM    7  C24 UNL     1       6.068  -1.989   0.692  1.00  0.00     0.023 A 
HETATM    8  C25 UNL     1       4.915  -1.215   0.571  1.00  0.00     0.011 A 
ENDROOT
BRANCH   1   9
HETATM    9  C18 UNL     1       3.881   1.072   0.262  1.00  0.00     0.145 A 
HETATM   10  N2  UNL     1       2.728   0.752   0.950  1.00  0.00    -0.384 N 
HETATM   11  C17 UNL     1       2.039   0.591  -0.074  1.00  0.00     0.011 A 
ATOM     12  H2  UNL     1       2.516   0.675   1.945  1.00  0.00     0.160 HD
HETATM   13  C26 UNL     1       3.117   0.917  -0.963  1.00  0.00     0.165 A 
HETATM   14  C27 UNL     1       2.937   2.175  -1.781  1.00  0.00     0.170 C 
HETATM   15  C29 UNL     1       3.540  -0.075  -1.981  1.00  0.00     0.242 C 
HETATM   16  O1  UNL     1       2.116   3.014  -1.577  1.00  0.00    -0.294 OA
HETATM   17  C28 UNL     1       3.992   2.071  -2.828  1.00  0.00     0.202 C 
HETATM   18  N4  UNL     1       4.380   0.671  -2.864  1.00  0.00    -0.353 N 
ATOM     19  H4  UNL     1       5.134   0.282  -3.431  1.00  0.00     0.162 HD
HETATM   20  O2  UNL     1       3.250  -1.281  -2.076  1.00  0.00    -0.272 OA
BRANCH  11  21
HETATM   21  C16 UNL     1       0.595   0.213  -0.395  1.00  0.00     0.060 C 
BRANCH  21  22
HETATM   22  C15 UNL     1      -0.174  -0.043   0.856  1.00  0.00     0.063 C 
BRANCH  22  23
HETATM   23  C14 UNL     1      -1.573  -0.409   0.634  1.00  0.00     0.012 A 
HETATM   24  N1  UNL     1      -2.524   0.532   0.590  1.00  0.00    -0.355 N 
HETATM   25  C4  UNL     1      -3.802   0.167   0.378  1.00  0.00     0.103 A 
HETATM   26  C5  UNL     1      -4.178  -1.163   0.201  1.00  0.00    -0.010 A 
HETATM   27  C12 UNL     1      -3.206  -2.141   0.244  1.00  0.00     0.015 A 
HETATM   28  C13 UNL     1      -1.891  -1.761   0.462  1.00  0.00     0.026 A 
BRANCH  24  29
HETATM   29  C2  UNL     1      -2.170   1.903   0.774  1.00  0.00     0.081 C 
HETATM   30  C1  UNL     1      -2.526   2.407   2.168  1.00  0.00     0.032 C 
HETATM   31  C3  UNL     1      -3.042   2.729  -0.184  1.00  0.00     0.032 C 
ENDBRANCH  24  29
BRANCH  26  32
HETATM   32  C6  UNL     1      -5.568  -1.538  -0.028  1.00  0.00    -0.024 A 
HETATM   33  C7  UNL     1      -6.006  -2.760   0.428  1.00  0.00     0.015 A 
HETATM   34  C8  UNL     1      -7.316  -3.176   0.242  1.00  0.00     0.043 A 
HETATM   35  C9  UNL     1      -8.215  -2.362  -0.412  1.00  0.00     0.116 A 
HETATM   36  F1  UNL     1      -9.496  -2.759  -0.599  1.00  0.00    -0.206 F 
HETATM   37  C10 UNL     1      -7.758  -1.140  -0.863  1.00  0.00     0.043 A 
HETATM   38  C11 UNL     1      -6.465  -0.731  -0.678  1.00  0.00     0.015 A 
ENDBRANCH  26  32
ENDBRANCH  22  23
ENDBRANCH  21  22
ENDBRANCH  11  21
ENDBRANCH   1   9
TORSDOF 6
