REMARK  5 active torsions:
REMARK  status: ('A' for Active; 'I' for Inactive)
REMARK    1  A    between atoms: C2_5  and  C3_6 
REMARK    2  A    between atoms: C11_16  and  C12_17 
REMARK    3  A    between atoms: C19_25  and  C20_26 
REMARK    4  A    between atoms: C20_26  and  O2_27 
REMARK    5  A    between atoms: O2_27  and  C21_28 
ROOT
HETATM    1  O1  UNL     1      -2.891  -2.393  -0.358  1.00  0.00    -0.267 OA
HETATM    2  C1  UNL     1      -2.402  -1.259  -0.116  1.00  0.00     0.261 A 
HETATM    3  N1  UNL     1      -3.191  -0.172  -0.246  1.00  0.00    -0.308 N 
ATOM      4  H1  UNL     1      -4.158  -0.314  -0.537  1.00  0.00     0.170 HD
HETATM    5  C2  UNL     1      -2.779   1.083  -0.016  1.00  0.00     0.119 A 
HETATM    6  N2  UNL     1      -1.521   1.254   0.362  1.00  0.00    -0.327 N 
ATOM      7  H2  UNL     1      -1.197   2.205   0.541  1.00  0.00     0.169 HD
HETATM    8  C9  UNL     1      -0.630   0.226   0.526  1.00  0.00     0.119 A 
HETATM    9  C10 UNL     1      -1.087  -1.049   0.281  1.00  0.00     0.083 A 
HETATM   10  C11 UNL     1      -0.278  -2.060   0.424  1.00  0.00    -0.026 A 
HETATM   11  C18 UNL     1       1.137  -1.873   0.848  1.00  0.00     0.068 A 
HETATM   12  C19 UNL     1       1.576  -0.493   1.097  1.00  0.00     0.111 A 
HETATM   13  N3  UNL     1       0.575   0.511   0.899  1.00  0.00    -0.368 N 
ATOM     14  H3  UNL     1       0.821   1.488   1.058  1.00  0.00     0.161 HD
ENDROOT
BRANCH  12  15
HETATM   15  C20 UNL     1       2.752  -0.101   0.192  1.00  0.00     0.201 C 
BRANCH  15  16
HETATM   16  O2  UNL     1       3.201   1.188   0.600  1.00  0.00    -0.349 OA
BRANCH  16  17
HETATM   17  C21 UNL     1       4.264   1.785  -0.057  1.00  0.00     0.068 A 
HETATM   18  C22 UNL     1       4.885   1.141  -1.098  1.00  0.00     0.037 A 
HETATM   19  C23 UNL     1       5.938   1.762  -1.729  1.00  0.00     0.003 A 
HETATM   20  C24 UNL     1       6.405   3.005  -1.370  1.00  0.00     0.000 A 
HETATM   21  C25 UNL     1       5.763   3.629  -0.322  1.00  0.00     0.003 A 
HETATM   22  C26 UNL     1       4.710   3.025   0.321  1.00  0.00     0.037 A 
ENDBRANCH  16  17
ENDBRANCH  15  16
ENDBRANCH  12  15
BRANCH  10  23
HETATM   23  C12 UNL     1      -0.671  -3.448   0.187  1.00  0.00    -0.029 A 
HETATM   24  C13 UNL     1      -1.161  -4.173   1.248  1.00  0.00     0.013 A 
HETATM   25  C14 UNL     1      -1.501  -5.499   1.051  1.00  0.00     0.020 A 
HETATM   26  C15 UNL     1      -1.352  -6.078  -0.176  1.00  0.00     0.011 A 
HETATM   27 BR1  UNL     1      -1.821  -7.922  -0.465  1.00  0.00    -0.051 Br
HETATM   28  C16 UNL     1      -0.858  -5.318  -1.215  1.00  0.00     0.020 A 
HETATM   29  C17 UNL     1      -0.514  -4.003  -1.047  1.00  0.00     0.013 A 
ENDBRANCH  10  23
BRANCH   5  30
HETATM   30  C3  UNL     1      -3.711   2.171  -0.187  1.00  0.00     0.008 A 
HETATM   31  C4  UNL     1      -3.380   3.481   0.025  1.00  0.00     0.015 A 
HETATM   32  C5  UNL     1      -4.305   4.518  -0.149  1.00  0.00     0.001 A 
HETATM   33  C6  UNL     1      -5.572   4.202  -0.541  1.00  0.00     0.000 A 
HETATM   34  C7  UNL     1      -5.964   2.896  -0.771  1.00  0.00     0.001 A 
HETATM   35  C8  UNL     1      -5.029   1.918  -0.589  1.00  0.00     0.015 A 
ENDBRANCH   5  30
TORSDOF 5
