REMARK  11 active torsions:
REMARK  status: ('A' for Active; 'I' for Inactive)
REMARK    1  A    between atoms: N1_1  and  C1_4 
REMARK    2  A    between atoms: C6_17  and  O3_18 
REMARK    3  A    between atoms: C6_17  and  C13_36 
REMARK    4  A    between atoms: O3_18  and  C7_19 
REMARK    5  A    between atoms: C7_19  and  C8_20 
REMARK    6  A    between atoms: C8_20  and  O4_21 
REMARK    7  A    between atoms: O4_21  and  C9_22 
REMARK    8  A    between atoms: C10_27  and  O5_28 
REMARK    9  A    between atoms: C11_30  and  O6_31 
REMARK   10  A    between atoms: C12_33  and  O7_34 
REMARK   11  A    between atoms: N8_43  and  O11_44 
ROOT
HETATM    1  C1  UNL     1      -3.397   4.411   0.015  1.00  0.00     0.679 A 
HETATM    2  N2  UNL     1      -3.044   4.020   1.252  1.00  0.00    -0.154 N 
ATOM      3  H2  UNL     1      -3.124   4.675   2.030  1.00  0.00     0.187 HD
HETATM    4  C2  UNL     1      -2.578   2.752   1.481  1.00  0.00     0.290 A 
HETATM    5  O1  UNL     1      -2.261   2.404   2.633  1.00  0.00    -0.265 OA
HETATM    6  C3  UNL     1      -2.473   1.885   0.443  1.00  0.00     0.156 A 
HETATM    7  C4  UNL     1      -2.846   2.330  -0.792  1.00  0.00     0.152 A 
HETATM    8  N3  UNL     1      -3.308   3.577  -1.042  1.00  0.00    -0.184 N 
ATOM      9  H3  UNL     1      -3.575   3.871  -1.981  1.00  0.00     0.184 HD
HETATM   10  C5  UNL     1      -2.695   1.301  -1.660  1.00  0.00     0.295 A 
HETATM   11  O2  UNL     1      -2.897   1.203  -2.879  1.00  0.00    -0.264 OA
HETATM   12  N4  UNL     1      -2.224   0.252  -0.889  1.00  0.00    -0.199 N 
HETATM   13  N5  UNL     1      -2.077   0.558   0.332  1.00  0.00    -0.226 N 
HETATM   14  C6  UNL     1      -1.582  -0.684   0.741  1.00  0.00     0.308 A 
HETATM   15  C14 UNL     1      -1.867  -1.094  -0.707  1.00  0.00     0.306 A 
HETATM   16  O10 UNL     1      -0.751  -1.480  -1.420  1.00  0.00    -0.345 OA
HETATM   17  C15 UNL     1      -0.353  -2.769  -1.255  1.00  0.00     0.194 C 
HETATM   18  C16 UNL     1      -1.377  -3.823  -1.116  1.00  0.00     0.185 C 
HETATM   19  N8  UNL     1      -2.681  -3.411  -0.697  1.00  0.00    -0.222 N 
HETATM   20  C17 UNL     1      -2.990  -2.017  -0.845  1.00  0.00     0.307 C 
HETATM   21  O12 UNL     1      -4.161  -1.650  -1.079  1.00  0.00    -0.265 OA
ENDROOT
BRANCH  14  22
HETATM   22  O3  UNL     1      -0.331  -0.974   1.061  1.00  0.00    -0.344 OA
BRANCH  22  23
HETATM   23  C7  UNL     1       0.416  -0.406   1.969  1.00  0.00     0.198 C 
BRANCH  23  24
HETATM   24  C8  UNL     1       1.004   0.960   1.777  1.00  0.00     0.197 C 
BRANCH  24  25
HETATM   25  O4  UNL     1       1.837   1.043   0.687  1.00  0.00    -0.361 OA
BRANCH  25  26
HETATM   26  C9  UNL     1       2.993   0.277   0.730  1.00  0.00     0.267 C 
HETATM   27  N6  UNL     1       4.177   1.088   0.814  1.00  0.00    -0.307 N 
HETATM   28  N7  UNL     1       4.993   1.159  -0.262  1.00  0.00    -0.307 N 
ATOM     29  H6  UNL     1       4.397   1.600   1.668  1.00  0.00     0.183 HD
HETATM   30  C10 UNL     1       5.286  -0.111  -0.888  1.00  0.00     0.264 C 
ATOM     31  H7  UNL     1       5.373   2.041  -0.606  1.00  0.00     0.182 HD
HETATM   32  C11 UNL     1       3.990  -0.618  -1.428  1.00  0.00     0.201 C 
HETATM   33  C12 UNL     1       3.008  -0.765  -0.329  1.00  0.00     0.201 C 
BRANCH  30  34
HETATM   34  O5  UNL     1       6.240   0.115  -1.876  1.00  0.00    -0.373 OA
ATOM     35  H5  UNL     1       6.433  -0.719  -2.287  1.00  0.00     0.212 HD
ENDBRANCH  30  34
BRANCH  32  36
HETATM   36  O6  UNL     1       3.524   0.189  -2.461  1.00  0.00    -0.388 OA
ATOM     37  H6  UNL     1       2.699  -0.134  -2.805  1.00  0.00     0.210 HD
ENDBRANCH  32  36
BRANCH  33  38
HETATM   38  O7  UNL     1       3.145  -2.060   0.201  1.00  0.00    -0.388 OA
ATOM     39  H7  UNL     1       3.155  -2.726  -0.476  1.00  0.00     0.210 HD
ENDBRANCH  33  38
ENDBRANCH  25  26
ENDBRANCH  24  25
ENDBRANCH  23  24
ENDBRANCH  22  23
ENDBRANCH  14  22
BRANCH  14  40
HETATM   40  C13 UNL     1      -2.515  -1.406   1.702  1.00  0.00     0.239 C 
HETATM   41  O8  UNL     1      -1.986  -2.160   2.545  1.00  0.00    -0.644 OA
HETATM   42  O9  UNL     1      -3.868  -1.277   1.696  1.00  0.00    -0.644 OA
ENDBRANCH  14  40
BRANCH  19  43
HETATM   43  O11 UNL     1      -3.581  -4.280  -0.193  1.00  0.00    -0.285 OA
ATOM     44  H11 UNL     1      -4.447  -4.006   0.085  1.00  0.00     0.245 HD
ENDBRANCH  19  43
BRANCH   1  45
HETATM   45  N1  UNL     1      -3.833   5.596  -0.212  1.00  0.00    -0.234 N 
ATOM     46  H12 UNL     1      -3.900   6.226   0.587  1.00  0.00     0.174 HD
ATOM     47  H11 UNL     1      -4.101   5.893  -1.150  1.00  0.00     0.174 HD
ENDBRANCH   1  45
TORSDOF 11
