REMARK  17 active torsions:
REMARK  status: ('A' for Active; 'I' for Inactive)
REMARK    1  A    between atoms: N1_1  and  C1_5 
REMARK    2  A    between atoms: C1_5  and  N2_6 
REMARK    3  A    between atoms: C1_5  and  C2_10 
REMARK    4  A    between atoms: C4_16  and  C5_17 
REMARK    5  A    between atoms: C5_17  and  O4_19 
REMARK    6  A    between atoms: O4_19  and  C6_20 
REMARK    7  A    between atoms: C6_20  and  C7_22 
REMARK    8  A    between atoms: C7_22  and  N4_23 
REMARK    9  A    between atoms: C7_22  and  C15_43 
REMARK   10  A    between atoms: N4_23  and  C8_25 
REMARK   11  A    between atoms: C9_27  and  C10_28 
REMARK   12  A    between atoms: C10_28  and  O7_29 
REMARK   13  A    between atoms: C10_28  and  C11_31 
REMARK   14  A    between atoms: C12_34  and  O10_35 
REMARK   15  A    between atoms: C13_37  and  O11_38 
REMARK   16  A    between atoms: C14_40  and  O12_41 
REMARK   17  A    between atoms: C16_46  and  O15_47 
ROOT
HETATM    1  C6  UNL     1       0.355  -1.060  -0.883  1.00  0.00     0.299 C 
HETATM    2  O5  UNL     1       0.145  -0.208  -1.772  1.00  0.00    -0.262 OA
ENDROOT
BRANCH   1   3
HETATM    3  O4  UNL     1       1.589  -0.999  -0.240  1.00  0.00    -0.237 OA
BRANCH   3   4
HETATM    4  C5  UNL     1       2.576  -0.062  -0.530  1.00  0.00     0.328 C 
HETATM    5  O3  UNL     1       2.301   0.760  -1.430  1.00  0.00    -0.256 OA
BRANCH   4   6
HETATM    6  C4  UNL     1       3.835  -0.072   0.193  1.00  0.00     0.191 A 
HETATM    7  O2  UNL     1       3.996  -1.007   1.134  1.00  0.00    -0.252 OA
HETATM    8  C3  UNL     1       5.083  -1.119   1.854  1.00  0.00     0.370 A 
HETATM    9  N3  UNL     1       6.103  -0.258   1.651  1.00  0.00    -0.300 N 
HETATM   10  O1  UNL     1       5.191  -2.031   2.743  1.00  0.00    -0.238 OA
HETATM   11  C2  UNL     1       6.047   0.715   0.736  1.00  0.00     0.108 A 
ATOM     12  H3  UNL     1       6.947  -0.353   2.216  1.00  0.00     0.171 HD
HETATM   13  C16 UNL     1       4.868   0.808  -0.018  1.00  0.00     0.133 A 
BRANCH  11  14
HETATM   14  C1  UNL     1       7.147   1.631   0.524  1.00  0.00     0.430 C 
BRANCH  14  15
HETATM   15  N1  UNL     1       8.403   0.860   0.497  1.00  0.00    -0.045 N 
ATOM     16  H13 UNL     1       8.499   0.260  -0.322  1.00  0.00     0.277 HD
ATOM     17  H12 UNL     1       9.231   1.430   0.325  1.00  0.00     0.277 HD
ATOM     18  H11 UNL     1       8.430   0.354   1.382  1.00  0.00     0.277 HD
ENDBRANCH  14  15
BRANCH  14  19
HETATM   19  N2  UNL     1       7.109   2.344  -0.723  1.00  0.00    -0.045 N 
ATOM     20  H23 UNL     1       7.937   2.914  -0.895  1.00  0.00     0.277 HD
ATOM     21  H22 UNL     1       7.205   1.744  -1.542  1.00  0.00     0.277 HD
ATOM     22  H21 UNL     1       6.240   2.878  -0.704  1.00  0.00     0.277 HD
ENDBRANCH  14  19
ENDBRANCH  11  14
BRANCH  13  23
HETATM   23  O15 UNL     1       4.830   1.793  -0.935  1.00  0.00    -0.356 OA
ATOM     24  H15 UNL     1       4.031   1.856  -1.446  1.00  0.00     0.218 HD
ENDBRANCH  13  23
ENDBRANCH   4   6
ENDBRANCH   3   4
ENDBRANCH   1   3
BRANCH   1  25
HETATM   25  C7  UNL     1      -0.629  -2.081  -0.515  1.00  0.00     0.282 C 
BRANCH  25  26
HETATM   26  N4  UNL     1      -1.981  -1.786  -0.395  1.00  0.00    -0.373 N 
ATOM     27  H4  UNL     1      -2.647  -2.181  -1.059  1.00  0.00     0.157 HD
BRANCH  26  28
HETATM   28  C8  UNL     1      -2.437  -0.944   0.638  1.00  0.00     0.249 C 
HETATM   29  O6  UNL     1      -3.843  -1.010   0.745  1.00  0.00    -0.353 OA
HETATM   30  C9  UNL     1      -4.512  -0.129  -0.067  1.00  0.00     0.194 C 
HETATM   31  C12 UNL     1      -4.372   1.286   0.451  1.00  0.00     0.181 C 
HETATM   32  C13 UNL     1      -3.117   1.334   1.303  1.00  0.00     0.182 C 
HETATM   33  C14 UNL     1      -2.025   0.480   0.565  1.00  0.00     0.197 C 
BRANCH  30  34
HETATM   34  C10 UNL     1      -5.973  -0.572  -0.149  1.00  0.00     0.250 C 
BRANCH  34  35
HETATM   35  O7  UNL     1      -5.927  -1.875  -0.693  1.00  0.00    -0.382 OA
ATOM     36  H7  UNL     1      -6.835  -2.150  -0.744  1.00  0.00     0.210 HD
ENDBRANCH  34  35
BRANCH  34  37
HETATM   37  C11 UNL     1      -6.762   0.321  -0.995  1.00  0.00     0.205 C 
HETATM   38  O8  UNL     1      -7.239  -0.131  -2.089  1.00  0.00    -0.646 OA
HETATM   39  O9  UNL     1      -6.989   1.630  -0.620  1.00  0.00    -0.646 OA
ENDBRANCH  34  37
ENDBRANCH  30  34
BRANCH  31  40
HETATM   40  O10 UNL     1      -4.192   2.177  -0.630  1.00  0.00    -0.390 OA
ATOM     41  H10 UNL     1      -4.104   3.065  -0.305  1.00  0.00     0.210 HD
ENDBRANCH  31  40
BRANCH  32  42
HETATM   42  O11 UNL     1      -3.279   0.769   2.555  1.00  0.00    -0.390 OA
ATOM     43  H11 UNL     1      -2.493   0.799   3.088  1.00  0.00     0.210 HD
ENDBRANCH  32  42
BRANCH  33  44
HETATM   44  O12 UNL     1      -0.864   0.803   1.255  1.00  0.00    -0.389 OA
ATOM     45  H12 UNL     1      -0.600   1.714   1.208  1.00  0.00     0.210 HD
ENDBRANCH  33  44
ENDBRANCH  26  28
ENDBRANCH  25  26
BRANCH  25  46
HETATM   46  C15 UNL     1      -0.410  -3.321  -1.388  1.00  0.00     0.206 C 
HETATM   47  O13 UNL     1      -1.385  -3.919  -1.901  1.00  0.00    -0.646 OA
HETATM   48  O14 UNL     1       0.865  -3.805  -1.626  1.00  0.00    -0.646 OA
ENDBRANCH  25  46
ENDBRANCH   1  25
TORSDOF 17
