REMARK  15 active torsions:
REMARK  status: ('A' for Active; 'I' for Inactive)
REMARK    1  A    between atoms: N1_1  and  C1_5 
REMARK    2  A    between atoms: C1_5  and  C2_6 
REMARK    3  A    between atoms: C2_6  and  C3_7 
REMARK    4  A    between atoms: C3_7  and  C4_8 
REMARK    5  A    between atoms: C4_8  and  C5_9 
REMARK    6  A    between atoms: C5_9  and  C6_10 
REMARK    7  A    between atoms: C6_10  and  N2_11 
REMARK    8  A    between atoms: C6_10  and  C16_30 
REMARK    9  A    between atoms: N2_11  and  C7_13 
REMARK   10  A    between atoms: C7_13  and  O1_14 
REMARK   11  A    between atoms: C7_13  and  C8_16 
REMARK   12  A    between atoms: C8_16  and  N3_17 
REMARK   13  A    between atoms: C8_16  and  C9_21 
REMARK   14  A    between atoms: C9_21  and  S1_22 
REMARK   15  A    between atoms: S1_22  and  C10_23 
ROOT
HETATM    1  N2  UNL     1       0.254  -0.395   0.932  1.00  0.00    -0.363 N 
ATOM      2  H2  UNL     1       0.672  -1.260   0.589  1.00  0.00     0.162 HD
ENDROOT
BRANCH   1   3
HETATM    3  C6  UNL     1      -1.111  -0.419   0.835  1.00  0.00     0.043 C 
BRANCH   3   4
HETATM    4  C5  UNL     1      -1.795   0.660   0.045  1.00  0.00     0.060 C 
BRANCH   4   5
HETATM    5  C4  UNL     1      -3.283   0.455  -0.037  1.00  0.00     0.006 C 
BRANCH   5   6
HETATM    6  C3  UNL     1      -3.619  -0.777  -0.831  1.00  0.00     0.002 C 
BRANCH   6   7
HETATM    7  C2  UNL     1      -5.122  -0.940  -0.880  1.00  0.00     0.027 C 
BRANCH   7   8
HETATM    8  C1  UNL     1      -5.801   0.250  -1.520  1.00  0.00     0.229 C 
BRANCH   8   9
HETATM    9  N1  UNL     1      -5.365   0.475  -2.872  1.00  0.00    -0.079 N 
ATOM     10  H13 UNL     1      -4.350   0.563  -2.920  1.00  0.00     0.274 HD
ATOM     11  H12 UNL     1      -5.484  -0.364  -3.440  1.00  0.00     0.274 HD
ATOM     12  H11 UNL     1      -5.823   1.278  -3.304  1.00  0.00     0.274 HD
ENDBRANCH   8   9
ENDBRANCH   7   8
ENDBRANCH   6   7
ENDBRANCH   5   6
ENDBRANCH   4   5
ENDBRANCH   3   4
BRANCH   3  13
HETATM   13  C16 UNL     1      -1.850  -0.703   2.107  1.00  0.00     0.118 A 
HETATM   14  C17 UNL     1      -1.700  -0.147   3.353  1.00  0.00     0.132 A 
HETATM   15  N4  UNL     1      -2.597  -0.722   4.213  1.00  0.00    -0.310 N 
HETATM   16  C18 UNL     1      -3.272  -1.620   3.462  1.00  0.00     0.370 A 
ATOM     17  H4  UNL     1      -2.727  -0.517   5.204  1.00  0.00     0.170 HD
HETATM   18  O2  UNL     1      -4.190  -2.374   3.850  1.00  0.00    -0.238 OA
HETATM   19  O3  UNL     1      -2.814  -1.579   2.257  1.00  0.00    -0.258 OA
ENDBRANCH   3  13
ENDBRANCH   1   3
BRANCH   1  20
HETATM   20  C7  UNL     1       1.185   0.469   1.360  1.00  0.00     0.249 C 
BRANCH  20  21
HETATM   21  O1  UNL     1       0.977   1.623   2.053  1.00  0.00    -0.375 OA
ATOM     22  H1  UNL     1       1.637   2.235   2.356  1.00  0.00     0.212 HD
ENDBRANCH  20  21
BRANCH  20  23
HETATM   23  C8  UNL     1       2.150   0.891   0.207  1.00  0.00     0.241 C 
BRANCH  23  24
HETATM   24  N3  UNL     1       1.647   1.993  -0.550  1.00  0.00    -0.070 N 
ATOM     25  H33 UNL     1       0.712   1.797  -0.907  1.00  0.00     0.274 HD
ATOM     26  H32 UNL     1       1.429   2.785   0.055  1.00  0.00     0.274 HD
ATOM     27  H31 UNL     1       2.277   2.269  -1.303  1.00  0.00     0.274 HD
ENDBRANCH  23  24
BRANCH  23  28
HETATM   28  C9  UNL     1       2.170  -0.282  -0.785  1.00  0.00     0.116 C 
BRANCH  28  29
HETATM   29  S1  UNL     1       3.281   0.006  -2.173  1.00  0.00    -0.128 SA
BRANCH  29  30
HETATM   30  C10 UNL     1       4.993  -0.112  -1.708  1.00  0.00     0.000 A 
HETATM   31  C11 UNL     1       5.440  -0.435  -0.444  1.00  0.00     0.020 A 
HETATM   32  C12 UNL     1       6.771  -0.543  -0.154  1.00  0.00     0.025 A 
HETATM   33  C13 UNL     1       7.721  -0.333  -1.122  1.00  0.00     0.034 A 
HETATM   34 CL1  UNL     1       9.434  -0.472  -0.793  1.00  0.00    -0.084 Cl
HETATM   35  C14 UNL     1       7.307  -0.011  -2.385  1.00  0.00     0.025 A 
HETATM   36  C15 UNL     1       5.954   0.099  -2.673  1.00  0.00     0.020 A 
ENDBRANCH  29  30
ENDBRANCH  28  29
ENDBRANCH  23  28
ENDBRANCH  20  23
ENDBRANCH   1  20
TORSDOF 15
