REMARK  12 active torsions:
REMARK  status: ('A' for Active; 'I' for Inactive)
REMARK       I    between atoms: N1_1  and  C1_5 
REMARK       I    between atoms: C1_5  and  N2_6 
REMARK       I    between atoms: C1_5  and  N3_10 
REMARK    1  A    between atoms: N3_10  and  C2_12 
REMARK    2  A    between atoms: C2_12  and  C3_13 
REMARK    3  A    between atoms: C3_13  and  C4_14 
REMARK    4  A    between atoms: C4_14  and  C5_15 
REMARK    5  A    between atoms: C5_15  and  C6_16 
REMARK    6  A    between atoms: C6_16  and  C7_17 
REMARK    7  A    between atoms: C7_17  and  C8_18 
REMARK    8  A    between atoms: C8_18  and  C9_19 
REMARK    9  A    between atoms: C9_19  and  N4_20 
REMARK   10  A    between atoms: N4_20  and  C10_23 
REMARK   11  A    between atoms: C10_23  and  C11_24 
REMARK   12  A    between atoms: C12_29  and  C13_30 
ROOT
HETATM    1  N4  UNL     1       1.031   0.787  -0.577  1.00  0.00    -0.069 N 
ATOM      2  H41 UNL     1       0.621  -0.104  -0.857  1.00  0.00     0.277 HD
ATOM      3  H42 UNL     1       0.792   0.735   0.413  1.00  0.00     0.277 HD
ENDROOT
BRANCH   1   4
HETATM    4  C9  UNL     1       0.433   1.926  -1.249  1.00  0.00     0.232 C 
BRANCH   4   5
HETATM    5  C8  UNL     1      -1.078   1.831  -0.976  1.00  0.00     0.027 C 
BRANCH   5   6
HETATM    6  C7  UNL     1      -1.733   2.971  -1.642  1.00  0.00     0.002 C 
BRANCH   6   7
HETATM    7  C6  UNL     1      -3.195   3.118  -1.584  1.00  0.00     0.000 C 
BRANCH   7   8
HETATM    8  C5  UNL     1      -3.899   3.322  -0.321  1.00  0.00     0.000 C 
BRANCH   8   9
HETATM    9  C4  UNL     1      -3.864   2.288   0.737  1.00  0.00     0.005 C 
BRANCH   9  10
HETATM   10  C3  UNL     1      -4.407   0.936   0.297  1.00  0.00     0.044 C 
BRANCH  10  11
HETATM   11  C2  UNL     1      -4.327  -0.036   1.430  1.00  0.00     0.059 C 
BRANCH  11  12
HETATM   12  N3  UNL     1      -4.812  -1.334   1.218  1.00  0.00    -0.354 N 
HETATM   13  C1  UNL     1      -4.155  -2.228   0.355  1.00  0.00     0.479 C 
HETATM   14  N1  UNL     1      -4.195  -1.916  -1.043  1.00  0.00    -0.033 N 
HETATM   15  N2  UNL     1      -4.602  -3.614   0.536  1.00  0.00    -0.033 N 
ATOM     16  H13 UNL     1      -3.660  -2.577  -1.607  1.00  0.00     0.278 HD
ATOM     17  H12 UNL     1      -5.111  -2.089  -1.457  1.00  0.00     0.278 HD
ATOM     18  H11 UNL     1      -3.884  -0.953  -1.169  1.00  0.00     0.278 HD
ATOM     19  H23 UNL     1      -5.518  -3.787   0.122  1.00  0.00     0.278 HD
ATOM     20  H22 UNL     1      -4.067  -4.275  -0.028  1.00  0.00     0.278 HD
ATOM     21  H21 UNL     1      -4.574  -3.836   1.531  1.00  0.00     0.278 HD
ATOM     22  H3  UNL     1      -5.659  -1.636   1.700  1.00  0.00     0.162 HD
ENDBRANCH  11  12
ENDBRANCH  10  11
ENDBRANCH   9  10
ENDBRANCH   8   9
ENDBRANCH   7   8
ENDBRANCH   6   7
ENDBRANCH   5   6
ENDBRANCH   4   5
ENDBRANCH   1   4
BRANCH   1  23
HETATM   23  C10 UNL     1       2.452   0.857  -0.814  1.00  0.00     0.309 C 
BRANCH  23  24
HETATM   24  C11 UNL     1       3.172  -0.273  -0.166  1.00  0.00     0.123 A 
HETATM   25  N5  UNL     1       2.704  -1.304   0.523  1.00  0.00    -0.286 N 
HETATM   26  N6  UNL     1       3.705  -2.056   0.912  1.00  0.00    -0.283 N 
ATOM     27  H5  UNL     1       1.719  -1.484   0.720  1.00  0.00     0.188 HD
HETATM   28  C12 UNL     1       4.904  -1.528   0.477  1.00  0.00     0.134 A 
ATOM     29  H6  UNL     1       3.611  -2.911   1.459  1.00  0.00     0.188 HD
HETATM   30  N8  UNL     1       4.533  -0.432  -0.182  1.00  0.00    -0.328 N 
ATOM     31  H8  UNL     1       5.180   0.209  -0.641  1.00  0.00     0.169 HD
BRANCH  28  32
HETATM   32  C13 UNL     1       6.196  -2.127   0.745  1.00  0.00     0.046 A 
HETATM   33  C14 UNL     1       6.249  -3.314   1.484  1.00  0.00     0.106 A 
HETATM   34  N7  UNL     1       7.416  -3.920   1.768  1.00  0.00    -0.356 N 
HETATM   35  C15 UNL     1       8.604  -3.450   1.377  1.00  0.00     0.104 A 
ATOM     36  H7  UNL     1       7.393  -4.784   2.310  1.00  0.00     0.166 HD
HETATM   37 CL1  UNL     1      10.109  -4.278   1.772  1.00  0.00    -0.065 Cl
HETATM   38  C16 UNL     1       8.605  -2.286   0.648  1.00  0.00     0.067 A 
HETATM   39  C17 UNL     1       7.396  -1.634   0.339  1.00  0.00     0.052 A 
HETATM   40 CL2  UNL     1       7.548  -0.165  -0.593  1.00  0.00    -0.083 Cl
ENDBRANCH  28  32
ENDBRANCH  23  24
ENDBRANCH   1  23
TORSDOF 12
