REMARK  15 active torsions:
REMARK  status: ('A' for Active; 'I' for Inactive)
REMARK    1  A    between atoms: C2_2  and  C4_4 
REMARK    2  A    between atoms: C4_4  and  C5_5 
REMARK    3  A    between atoms: C5_5  and  N1_6 
REMARK    4  A    between atoms: C5_5  and  C6_10 
REMARK       I    between atoms: C6_10  and  N2_12 
REMARK    5  A    between atoms: C10_16  and  C11_17 
REMARK    6  A    between atoms: C11_17  and  N3_18 
REMARK    7  A    between atoms: C15_22  and  C16_23 
REMARK       I    between atoms: C16_23  and  N4_25 
REMARK    8  A    between atoms: N4_25  and  C17_27 
REMARK    9  A    between atoms: C17_27  and  C18_28 
REMARK   10  A    between atoms: C17_27  and  C31_44 
REMARK   11  A    between atoms: C18_28  and  C19_29 
REMARK   12  A    between atoms: C19_29  and  C20_30 
REMARK   13  A    between atoms: C20_30  and  C21_31 
REMARK   14  A    between atoms: C21_31  and  N5_32 
REMARK   15  A    between atoms: N5_32  and  C22_35 
ROOT
HETATM    1  C16 UNL     1      -0.680  -1.944   0.666  1.00  0.00     0.252 C 
HETATM    2  O2  UNL     1      -0.177  -2.719   1.508  1.00  0.00    -0.271 OA
HETATM    3  N4  UNL     1       0.082  -0.839   0.220  1.00  0.00    -0.346 N 
ATOM      4  H4  UNL     1      -0.337  -0.210  -0.465  1.00  0.00     0.163 HD
ENDROOT
BRANCH   1   5
HETATM    5  C15 UNL     1      -2.065  -2.170   0.132  1.00  0.00     0.314 C 
HETATM    6  N3  UNL     1      -2.357  -1.207  -0.876  1.00  0.00     0.104 N 
HETATM    7  C12 UNL     1      -2.132  -1.863  -2.167  1.00  0.00     0.273 C 
HETATM    8  C13 UNL     1      -2.005  -3.326  -1.920  1.00  0.00     0.033 C 
HETATM    9  C14 UNL     1      -2.162  -3.547  -0.448  1.00  0.00     0.047 C 
BRANCH   6  10
HETATM   10  C11 UNL     1      -3.740  -0.754  -0.905  1.00  0.00     0.298 C 
BRANCH  10  11
HETATM   11  C10 UNL     1      -4.145  -0.022   0.314  1.00  0.00     0.115 C 
HETATM   12  N2  UNL     1      -5.508   0.428   0.224  1.00  0.00    -0.344 N 
HETATM   13  C6  UNL     1      -6.533   0.226  -0.723  1.00  0.00     0.250 C 
HETATM   14  C7  UNL     1      -5.656   1.248   1.455  1.00  0.00     0.126 C 
HETATM   15  O1  UNL     1      -6.323  -0.453  -1.741  1.00  0.00    -0.271 OA
HETATM   16  C8  UNL     1      -4.388   2.092   1.395  1.00  0.00     0.022 C 
HETATM   17  C9  UNL     1      -3.430   1.301   0.520  1.00  0.00     0.029 C 
BRANCH  13  18
HETATM   18  C5  UNL     1      -7.900   0.825  -0.528  1.00  0.00     0.275 C 
BRANCH  18  19
HETATM   19  C4  UNL     1      -8.635   0.151   0.611  1.00  0.00     0.046 C 
BRANCH  19  20
HETATM   20  C2  UNL     1     -10.021   0.664   0.804  1.00  0.00    -0.020 C 
HETATM   21  C1  UNL     1     -10.062   2.147   1.107  1.00  0.00     0.009 C 
HETATM   22  C3  UNL     1     -10.970   0.316  -0.295  1.00  0.00     0.009 C 
ENDBRANCH  19  20
ENDBRANCH  18  19
BRANCH  18  23
HETATM   23  N1  UNL     1      -8.645   0.581  -1.754  1.00  0.00    -0.066 N 
ATOM     24  H13 UNL     1      -8.810  -0.411  -1.924  1.00  0.00     0.275 HD
ATOM     25  H12 UNL     1      -9.620   0.873  -1.687  1.00  0.00     0.275 HD
ATOM     26  H11 UNL     1      -8.150   1.035  -2.521  1.00  0.00     0.275 HD
ENDBRANCH  18  23
ENDBRANCH  13  18
ENDBRANCH  10  11
ENDBRANCH   6  10
ENDBRANCH   1   5
BRANCH   3  27
HETATM   27  C17 UNL     1       1.438  -0.548   0.687  1.00  0.00     0.173 C 
BRANCH  27  28
HETATM   28  C18 UNL     1       2.309  -0.521  -0.516  1.00  0.00     0.034 C 
BRANCH  28  29
HETATM   29  C19 UNL     1       3.750  -0.244  -0.295  1.00  0.00     0.004 C 
BRANCH  29  30
HETATM   30  C20 UNL     1       4.450  -1.248   0.590  1.00  0.00     0.027 C 
BRANCH  30  31
HETATM   31  C21 UNL     1       5.905  -0.895   0.781  1.00  0.00     0.232 C 
BRANCH  31  32
HETATM   32  N5  UNL     1       6.659  -0.837  -0.444  1.00  0.00    -0.070 N 
ATOM     33  H52 UNL     1       6.587  -1.697  -0.988  1.00  0.00     0.277 HD
ATOM     34  H51 UNL     1       6.245  -0.203  -1.128  1.00  0.00     0.277 HD
BRANCH  32  35
HETATM   35  C22 UNL     1       8.023  -0.495  -0.131  1.00  0.00     0.191 C 
HETATM   36  C23 UNL     1       8.275   0.822   0.505  1.00  0.00     0.043 C 
HETATM   37  C24 UNL     1       9.169   1.293  -0.658  1.00  0.00    -0.028 A 
HETATM   38  C25 UNL     1      10.177   2.218  -0.185  1.00  0.00     0.015 C 
HETATM   39  C29 UNL     1      10.177   0.196  -1.217  1.00  0.00     0.006 A 
HETATM   40  C30 UNL     1       8.777   0.166  -1.299  1.00  0.00     0.030 A 
HETATM   41  C26 UNL     1      11.551   1.706  -0.403  1.00  0.00    -0.009 A 
HETATM   42  C27 UNL     1      12.379   0.746   0.181  1.00  0.00     0.010 A 
HETATM   43  C28 UNL     1      11.096   0.216  -0.079  1.00  0.00    -0.005 A 
ENDBRANCH  32  35
ENDBRANCH  31  32
ENDBRANCH  30  31
ENDBRANCH  29  30
ENDBRANCH  28  29
ENDBRANCH  27  28
BRANCH  27  44
HETATM   44  C31 UNL     1       1.458   0.699   1.490  1.00  0.00     0.254 C 
HETATM   45  N6  UNL     1       2.587   1.267   2.085  1.00  0.00    -0.060 NA
HETATM   46  O3  UNL     1       0.357   1.330   1.668  1.00  0.00    -0.275 OA
ENDBRANCH  27  44
ENDBRANCH   3  27
TORSDOF 15
