REMARK  16 active torsions:
REMARK  status: ('A' for Active; 'I' for Inactive)
REMARK    1  A    between atoms: C2_2  and  C3_3 
REMARK    2  A    between atoms: C2_2  and  C8_9 
REMARK    3  A    between atoms: C3_3  and  C4_4 
REMARK    4  A    between atoms: C4_4  and  N1_5 
REMARK       I    between atoms: C8_9  and  N2_11 
REMARK    5  A    between atoms: N2_11  and  C9_13 
REMARK    6  A    between atoms: C9_13  and  C10_14 
REMARK       I    between atoms: C10_14  and  N3_16 
REMARK    7  A    between atoms: N3_16  and  C11_18 
REMARK    8  A    between atoms: C11_18  and  C12_19 
REMARK    9  A    between atoms: C12_19  and  C13_20 
REMARK   10  A    between atoms: C13_20  and  C14_21 
REMARK   11  A    between atoms: C14_21  and  C15_22 
REMARK   12  A    between atoms: C15_22  and  N4_23 
REMARK   13  A    between atoms: C16_27  and  O3_28 
REMARK   14  A    between atoms: C16_27  and  N5_30 
REMARK   15  A    between atoms: C24_38  and  C25_39 
REMARK   16  A    between atoms: C25_39  and  N6_40 
REMARK       I    between atoms: N6_40  and  C26_42 
ROOT
HETATM    1  C9  UNL     1      -2.136   1.495  -1.082  1.00  0.00     0.155 C 
HETATM    2  C16 UNL     1      -1.058   0.764  -1.704  1.00  0.00     0.175 C 
ENDROOT
BRANCH   1   3
HETATM    3  N2  UNL     1      -3.331   0.660  -0.983  1.00  0.00    -0.315 N 
HETATM    4  C8  UNL     1      -3.244  -0.733  -0.933  1.00  0.00     0.251 C 
HETATM    5  O1  UNL     1      -2.174  -1.397  -0.949  1.00  0.00    -0.268 OA
ATOM      6  H2  UNL     1      -4.249   1.104  -0.950  1.00  0.00     0.169 HD
BRANCH   4   7
HETATM    7  C2  UNL     1      -4.470  -1.547  -0.852  1.00  0.00     0.002 C 
HETATM    8  C1  UNL     1      -5.647  -0.993  -0.822  1.00  0.00     0.024 C 
BRANCH   7   9
HETATM    9  C3  UNL     1      -4.363  -3.021  -0.790  1.00  0.00     0.071 C 
BRANCH   9  10
HETATM   10  C4  UNL     1      -3.795  -3.663  -2.009  1.00  0.00     0.240 C 
BRANCH  10  11
HETATM   11  N1  UNL     1      -3.753  -5.116  -1.802  1.00  0.00    -0.078 N 
HETATM   12  C5  UNL     1      -2.636  -5.477  -0.955  1.00  0.00     0.271 C 
HETATM   13  C6  UNL     1      -4.984  -5.522  -1.195  1.00  0.00     0.271 C 
HETATM   14  C7  UNL     1      -3.614  -5.730  -3.110  1.00  0.00     0.271 C 
ENDBRANCH  10  11
ENDBRANCH   9  10
ENDBRANCH   7   9
ENDBRANCH   4   7
ENDBRANCH   1   3
BRANCH   1  15
HETATM   15  C10 UNL     1      -1.869   2.375   0.003  1.00  0.00     0.272 C 
HETATM   16  O2  UNL     1      -2.488   2.176   1.106  1.00  0.00    -0.266 OA
HETATM   17  N3  UNL     1      -0.972   3.476  -0.035  1.00  0.00    -0.356 N 
ATOM     18  H3  UNL     1      -0.466   3.649  -0.904  1.00  0.00     0.162 HD
BRANCH  17  19
HETATM   19  C11 UNL     1      -0.733   4.352   1.059  1.00  0.00     0.123 C 
BRANCH  19  20
HETATM   20  C12 UNL     1      -1.955   5.101   1.517  1.00  0.00     0.020 C 
BRANCH  20  21
HETATM   21  C13 UNL     1      -1.577   6.009   2.674  1.00  0.00     0.003 C 
BRANCH  21  22
HETATM   22  C14 UNL     1      -2.759   6.784   3.180  1.00  0.00     0.027 C 
BRANCH  22  23
HETATM   23  C15 UNL     1      -3.355   7.660   2.090  1.00  0.00     0.229 C 
BRANCH  23  24
HETATM   24  N4  UNL     1      -4.485   8.354   2.702  1.00  0.00    -0.079 N 
ATOM     25  H43 UNL     1      -5.162   7.726   3.134  1.00  0.00     0.274 HD
ATOM     26  H42 UNL     1      -4.237   8.869   3.547  1.00  0.00     0.274 HD
ATOM     27  H41 UNL     1      -4.885   8.942   1.971  1.00  0.00     0.274 HD
ENDBRANCH  23  24
ENDBRANCH  22  23
ENDBRANCH  21  22
ENDBRANCH  20  21
ENDBRANCH  19  20
ENDBRANCH  17  19
ENDBRANCH   1  15
BRANCH   2  28
HETATM   28  O3  UNL     1      -1.383   0.219  -2.901  1.00  0.00    -0.344 OA
ATOM     29  H3  UNL     1      -0.673  -0.262  -3.310  1.00  0.00     0.219 HD
ENDBRANCH   2  28
BRANCH   2  30
HETATM   30  N5  UNL     1       0.245   0.509  -1.308  1.00  0.00    -0.340 N 
HETATM   31  C17 UNL     1       0.831   0.802  -0.063  1.00  0.00     0.067 C 
HETATM   32  C18 UNL     1       1.845  -0.224   0.446  1.00  0.00     0.054 C 
HETATM   33  C19 UNL     1       2.625  -0.906  -0.612  1.00  0.00    -0.030 C 
HETATM   34  C20 UNL     1       1.737  -1.318  -1.745  1.00  0.00     0.030 C 
HETATM   35  C22 UNL     1       3.847  -0.081  -0.970  1.00  0.00     0.015 C 
HETATM   36  C30 UNL     1       3.587  -1.944  -0.089  1.00  0.00    -0.001 C 
HETATM   37  C21 UNL     1       1.123  -0.097  -2.332  1.00  0.00     0.131 C 
HETATM   38  C23 UNL     1       4.516  -0.780   0.216  1.00  0.00    -0.003 C 
HETATM   39  C24 UNL     1       5.911  -1.278  -0.073  1.00  0.00     0.008 C 
HETATM   40  C28 UNL     1       5.733  -2.288  -1.193  1.00  0.00     0.007 C 
HETATM   41  C29 UNL     1       4.306  -2.773  -1.083  1.00  0.00     0.006 C 
BRANCH  39  42
HETATM   42  C25 UNL     1       6.386  -2.064   1.129  1.00  0.00     0.127 C 
BRANCH  42  43
HETATM   43  N6  UNL     1       6.430  -1.305   2.339  1.00  0.00    -0.361 N 
HETATM   44  C26 UNL     1       7.243  -0.156   2.453  1.00  0.00     0.213 C 
HETATM   45  C27 UNL     1       7.278   0.632   3.738  1.00  0.00     0.117 C 
HETATM   46  O4  UNL     1       7.974   0.287   1.535  1.00  0.00    -0.274 OA
ATOM     47  H6  UNL     1       5.864  -1.599   3.135  1.00  0.00     0.162 HD
ENDBRANCH  42  43
ENDBRANCH  39  42
ENDBRANCH   2  30
TORSDOF 16
