REMARK  14 active torsions:
REMARK  status: ('A' for Active; 'I' for Inactive)
REMARK    1  A    between atoms: C2_2  and  C4_4 
REMARK    2  A    between atoms: C4_4  and  C5_5 
REMARK    3  A    between atoms: C5_5  and  C6_6 
REMARK    4  A    between atoms: C6_6  and  C7_7 
REMARK       I    between atoms: C7_7  and  N1_9 
REMARK    5  A    between atoms: N1_9  and  C8_10 
REMARK    6  A    between atoms: C8_10  and  C10_12 
REMARK       I    between atoms: N3_15  and  C11_17 
REMARK    7  A    between atoms: C11_17  and  C12_19 
REMARK    8  A    between atoms: N4_24  and  C17_25 
REMARK    9  A    between atoms: C17_25  and  O4_26 
REMARK   10  A    between atoms: C18_28  and  C19_29 
REMARK   11  A    between atoms: C18_28  and  N8_39 
REMARK   12  A    between atoms: C19_29  and  C20_30 
REMARK   13  A    between atoms: C20_30  and  C21_31 
REMARK   14  A    between atoms: C21_31  and  N5_32 
REMARK       I    between atoms: C22_34  and  N6_35 
ROOT
HETATM    1  C12 UNL     1       0.381  -0.814  -0.542  1.00  0.00     0.178 C 
HETATM    2  C13 UNL     1       1.157  -1.508   0.500  1.00  0.00     0.035 C 
HETATM    3  C14 UNL     1       1.023  -0.835   1.860  1.00  0.00     0.004 C 
HETATM    4  C15 UNL     1      -0.373  -0.455   2.194  1.00  0.00     0.020 C 
HETATM    5  C16 UNL     1      -1.040   0.312   1.037  1.00  0.00     0.126 C 
HETATM    6  N4  UNL     1      -1.011  -0.548  -0.067  1.00  0.00    -0.347 N 
ENDROOT
BRANCH   6   7
HETATM    7  C17 UNL     1      -2.005  -1.281  -0.685  1.00  0.00     0.156 C 
HETATM    8  C18 UNL     1      -3.397  -1.130  -0.941  1.00  0.00     0.039 C 
BRANCH   7   9
HETATM    9  O4  UNL     1      -1.545  -2.435  -1.181  1.00  0.00    -0.345 OA
ATOM     10  H4  UNL     1      -2.229  -2.939  -1.606  1.00  0.00     0.219 HD
ENDBRANCH   7   9
BRANCH   8  11
HETATM   11  C19 UNL     1      -4.185   0.057  -0.720  1.00  0.00     0.057 C 
BRANCH  11  12
HETATM   12  C20 UNL     1      -3.642   1.359  -1.374  1.00  0.00     0.025 C 
BRANCH  12  13
HETATM   13  C21 UNL     1      -4.916   2.282  -1.274  1.00  0.00     0.122 C 
BRANCH  13  14
HETATM   14  N5  UNL     1      -5.599   1.875  -0.072  1.00  0.00    -0.365 N 
HETATM   15  C22 UNL     1      -6.799   2.112   0.228  1.00  0.00     0.181 C 
HETATM   16  N6  UNL     1      -7.791   2.795  -0.433  1.00  0.00    -0.374 N 
HETATM   17  N7  UNL     1      -7.227   1.356   1.427  1.00  0.00    -0.064 NA
ATOM     18  H62 UNL     1      -7.496   3.316  -1.259  1.00  0.00     0.158 HD
ATOM     19  H61 UNL     1      -8.763   2.987  -0.190  1.00  0.00     0.158 HD
ATOM     20  H5  UNL     1      -5.055   1.340   0.605  1.00  0.00     0.162 HD
ENDBRANCH  13  14
ENDBRANCH  12  13
ENDBRANCH  11  12
ENDBRANCH   8  11
BRANCH   8  21
HETATM   21  N8  UNL     1      -4.137  -2.357  -0.682  1.00  0.00    -0.283 NA
HETATM   22  C23 UNL     1      -4.122  -2.845   0.650  1.00  0.00     0.095 C 
HETATM   23  C24 UNL     1      -5.514  -3.252   1.153  1.00  0.00     0.015 C 
HETATM   24  C25 UNL     1      -6.196  -4.118   0.134  1.00  0.00     0.002 C 
HETATM   25  C26 UNL     1      -6.039  -3.626  -1.294  1.00  0.00     0.015 C 
HETATM   26  C27 UNL     1      -5.511  -2.206  -1.167  1.00  0.00     0.095 C 
ENDBRANCH   8  21
ENDBRANCH   6   7
BRANCH   1  27
HETATM   27  C11 UNL     1       0.992   0.522  -0.848  1.00  0.00     0.244 C 
HETATM   28  N3  UNL     1       2.351   0.680  -0.754  1.00  0.00    -0.332 N 
HETATM   29  C4  UNL     1       3.100   1.671  -0.582  1.00  0.00    -0.007 C 
ATOM     30  H3  UNL     1       2.863  -0.198  -0.843  1.00  0.00     0.168 HD
HETATM   31  O3  UNL     1       0.261   1.467  -1.185  1.00  0.00    -0.271 OA
BRANCH  29  32
HETATM   32  C2  UNL     1       2.751   3.080  -0.405  1.00  0.00     0.023 C 
HETATM   33  C1  UNL     1       2.131   3.462   0.934  1.00  0.00     0.016 C 
HETATM   34  C3  UNL     1       4.065   3.933  -0.406  1.00  0.00     0.016 C 
ENDBRANCH  29  32
BRANCH  29  35
HETATM   35  C5  UNL     1       4.550   1.315  -0.624  1.00  0.00     0.063 C 
BRANCH  35  36
HETATM   36  C6  UNL     1       4.836  -0.166  -0.754  1.00  0.00     0.125 C 
BRANCH  36  37
HETATM   37  C7  UNL     1       6.354  -0.022  -1.320  1.00  0.00     0.292 C 
HETATM   38  O1  UNL     1       6.204   0.156  -2.496  1.00  0.00    -0.257 OA
HETATM   39  N1  UNL     1       7.247  -0.074  -0.328  1.00  0.00    -0.370 NA
BRANCH  39  40
HETATM   40  C8  UNL     1       8.236  -0.111   0.644  1.00  0.00     0.149 C 
HETATM   41  C9  UNL     1       9.254   0.979   0.545  1.00  0.00     0.090 C 
BRANCH  40  42
HETATM   42  C10 UNL     1       8.611  -1.448   1.089  1.00  0.00     0.290 C 
HETATM   43  N2  UNL     1       9.184  -2.421   0.219  1.00  0.00    -0.055 NA
HETATM   44  O2  UNL     1       8.440  -1.865   2.277  1.00  0.00    -0.269 OA
ENDBRANCH  40  42
ENDBRANCH  39  40
ENDBRANCH  36  37
ENDBRANCH  35  36
ENDBRANCH  29  35
ENDBRANCH   1  27
TORSDOF 14
