REMARK  14 active torsions:
REMARK  status: ('A' for Active; 'I' for Inactive)
REMARK    1  A    between atoms: C2_2  and  C3_3 
REMARK    2  A    between atoms: C3_3  and  C4_4 
REMARK       I    between atoms: N1_10  and  C10_12 
REMARK    3  A    between atoms: C10_12  and  C11_14 
REMARK    4  A    between atoms: N2_18  and  C15_19 
REMARK    5  A    between atoms: C15_19  and  C16_20 
REMARK    6  A    between atoms: C15_19  and  C28_40 
REMARK    7  A    between atoms: C16_20  and  C17_21 
REMARK    8  A    between atoms: C17_21  and  C18_22 
REMARK    9  A    between atoms: C18_22  and  N3_23 
REMARK       I    between atoms: N3_23  and  C19_25 
REMARK   10  A    between atoms: C19_25  and  C20_27 
REMARK   11  A    between atoms: C20_27  and  C25_37 
REMARK       I    between atoms: N4_28  and  C21_30 
REMARK   12  A    between atoms: C21_30  and  C22_32 
REMARK   13  A    between atoms: C22_32  and  C23_33 
REMARK   14  A    between atoms: C23_33  and  C24_34 
ROOT
HETATM    1  C15 UNL     1       0.430   0.453   1.757  1.00  0.00     0.312 C 
ENDROOT
BRANCH   1   2
HETATM    2  N2  UNL     1      -0.885   0.414   2.432  1.00  0.00     0.115 N 
HETATM    3  C11 UNL     1      -1.978   0.761   1.601  1.00  0.00     0.315 A 
HETATM    4  C12 UNL     1      -2.867   1.700   2.356  1.00  0.00     0.047 A 
HETATM    5  C13 UNL     1      -2.175   1.939   3.665  1.00  0.00     0.033 A 
HETATM    6  C14 UNL     1      -0.911   1.142   3.651  1.00  0.00     0.275 A 
BRANCH   3   7
HETATM    7  C10 UNL     1      -2.799  -0.487   1.370  1.00  0.00     0.255 C 
HETATM    8  N1  UNL     1      -3.789  -0.563   0.369  1.00  0.00    -0.333 N 
HETATM    9  C2  UNL     1      -4.803  -1.361   0.361  1.00  0.00    -0.014 C 
ATOM     10  H1  UNL     1      -3.695   0.073  -0.423  1.00  0.00     0.168 HD
HETATM   11  C1  UNL     1      -5.024  -2.326   1.477  1.00  0.00     0.063 C 
HETATM   12  O1  UNL     1      -2.585  -1.485   2.092  1.00  0.00    -0.271 OA
BRANCH   9  13
HETATM   13  C3  UNL     1      -5.758  -1.319  -0.747  1.00  0.00     0.056 C 
BRANCH  13  14
HETATM   14  C4  UNL     1      -7.006  -0.545  -0.481  1.00  0.00    -0.009 C 
HETATM   15  C5  UNL     1      -7.763  -1.068   0.679  1.00  0.00     0.005 C 
HETATM   16  C6  UNL     1      -9.048  -0.280   0.873  1.00  0.00     0.000 C 
HETATM   17  C7  UNL     1      -9.184   0.813  -0.154  1.00  0.00     0.000 C 
HETATM   18  C8  UNL     1      -9.089   0.251  -1.561  1.00  0.00     0.000 C 
HETATM   19  C9  UNL     1      -7.859  -0.567  -1.754  1.00  0.00     0.005 C 
ENDBRANCH  13  14
ENDBRANCH   9  13
ENDBRANCH   3   7
ENDBRANCH   1   2
BRANCH   1  20
HETATM   20  C16 UNL     1       0.394  -0.523   0.646  1.00  0.00     0.047 C 
BRANCH  20  21
HETATM   21  C17 UNL     1       1.613  -0.724  -0.194  1.00  0.00     0.022 C 
BRANCH  21  22
HETATM   22  C18 UNL     1       2.730  -1.260   0.642  1.00  0.00     0.123 C 
BRANCH  22  23
HETATM   23  N3  UNL     1       3.906  -1.587  -0.083  1.00  0.00    -0.356 N 
HETATM   24  C19 UNL     1       4.737  -0.737  -0.856  1.00  0.00     0.264 C 
HETATM   25  O2  UNL     1       4.372   0.485  -0.886  1.00  0.00    -0.266 OA
ATOM     26  H3  UNL     1       4.192  -2.565  -0.042  1.00  0.00     0.162 HD
BRANCH  24  27
HETATM   27  C20 UNL     1       5.914  -1.186  -1.570  1.00  0.00     0.083 C 
HETATM   28  N4  UNL     1       6.653  -0.477  -2.255  1.00  0.00    -0.326 N 
HETATM   29  C21 UNL     1       6.782   0.824  -2.654  1.00  0.00     0.222 C 
ATOM     30  H4  UNL     1       7.408  -1.039  -2.649  1.00  0.00     0.168 HD
HETATM   31  O3  UNL     1       5.805   1.548  -2.950  1.00  0.00    -0.273 OA
BRANCH  29  32
HETATM   32  C22 UNL     1       8.135   1.473  -2.767  1.00  0.00     0.112 C 
BRANCH  32  33
HETATM   33  C23 UNL     1       7.969   2.987  -2.808  1.00  0.00     0.109 C 
BRANCH  33  34
HETATM   34  C24 UNL     1       7.327   3.463  -1.557  1.00  0.00     0.231 C 
HETATM   35  N5  UNL     1       6.986   4.815  -1.412  1.00  0.00    -0.062 NA
HETATM   36  O4  UNL     1       7.094   2.650  -0.634  1.00  0.00    -0.277 OA
ENDBRANCH  33  34
ENDBRANCH  32  33
ENDBRANCH  29  32
BRANCH  27  37
HETATM   37  C25 UNL     1       6.296  -2.646  -1.450  1.00  0.00     0.033 C 
HETATM   38  C26 UNL     1       6.761  -2.975  -0.067  1.00  0.00     0.016 C 
HETATM   39  C27 UNL     1       7.266  -3.052  -2.534  1.00  0.00     0.016 C 
ENDBRANCH  27  37
ENDBRANCH  24  27
ENDBRANCH  22  23
ENDBRANCH  21  22
ENDBRANCH  20  21
ENDBRANCH   1  20
BRANCH   1  40
HETATM   40  C28 UNL     1       0.768   1.831   1.398  1.00  0.00     0.264 C 
HETATM   41  N6  UNL     1       2.027   2.239   0.893  1.00  0.00    -0.060 NA
HETATM   42  O5  UNL     1      -0.086   2.735   1.534  1.00  0.00    -0.274 OA
ENDBRANCH   1  40
TORSDOF 14
