REMARK  10 active torsions:
REMARK  status: ('A' for Active; 'I' for Inactive)
REMARK    1  A    between atoms: C2_2  and  C3_3 
REMARK    2  A    between atoms: C3_3  and  N1_4 
REMARK       I    between atoms: N1_4  and  C4_5 
REMARK    3  A    between atoms: C4_5  and  C5_7 
REMARK    4  A    between atoms: C5_7  and  N2_8 
REMARK       I    between atoms: N2_8  and  C6_10 
REMARK       I    between atoms: C6_10  and  N3_12 
REMARK    5  A    between atoms: N3_12  and  N4_14 
REMARK       I    between atoms: N4_14  and  C7_16 
REMARK    6  A    between atoms: C7_16  and  C8_18 
REMARK       I    between atoms: C8_18  and  N5_20 
REMARK    7  A    between atoms: N5_20  and  C9_22 
REMARK    8  A    between atoms: C9_22  and  C10_23 
REMARK       I    between atoms: C10_23  and  N6_25 
REMARK    9  A    between atoms: C11_27  and  N7_28 
REMARK   10  A    between atoms: N7_28  and  N8_30 
ROOT
HETATM    1  N4  UNL     1       0.026  -0.813  -1.936  1.00  0.00    -0.258 N 
ATOM      2  H4  UNL     1       0.103  -1.732  -1.500  1.00  0.00     0.190 HD
HETATM    3  C7  UNL     1      -1.140  -0.078  -1.705  1.00  0.00     0.327 C 
HETATM    4  O3  UNL     1      -1.347   1.046  -2.199  1.00  0.00    -0.261 OA
ENDROOT
BRANCH   3   5
HETATM    5  C8  UNL     1      -2.200  -0.633  -0.824  1.00  0.00     0.311 C 
HETATM    6  O4  UNL     1      -1.977  -1.806  -0.376  1.00  0.00    -0.262 OA
HETATM    7  N5  UNL     1      -3.352   0.095  -0.516  1.00  0.00    -0.344 N 
ATOM      8  H5  UNL     1      -3.502   1.029  -0.897  1.00  0.00     0.163 HD
BRANCH   7   9
HETATM    9  C9  UNL     1      -4.323  -0.517   0.359  1.00  0.00     0.226 C 
BRANCH   9  10
HETATM   10  C10 UNL     1      -5.520   0.307   0.610  1.00  0.00     0.240 C 
HETATM   11  O5  UNL     1      -5.745   1.439   0.129  1.00  0.00    -0.271 OA
HETATM   12  N6  UNL     1      -6.494  -0.261   1.480  1.00  0.00    -0.321 N 
HETATM   13  C11 UNL     1      -7.236   0.507   2.170  1.00  0.00     0.199 C 
ATOM     14  H6  UNL     1      -6.595  -1.274   1.549  1.00  0.00     0.169 HD
BRANCH  13  15
HETATM   15  N7  UNL     1      -7.142   1.907   2.110  1.00  0.00    -0.303 N 
ATOM     16  H7  UNL     1      -6.252   2.365   2.305  1.00  0.00     0.187 HD
BRANCH  15  17
HETATM   17  N8  UNL     1      -8.283   2.688   1.779  1.00  0.00    -0.344 N 
ATOM     18  H82 UNL     1      -9.166   2.214   1.587  1.00  0.00     0.176 HD
ATOM     19  H81 UNL     1      -8.215   3.705   1.735  1.00  0.00     0.176 HD
ENDBRANCH  15  17
ENDBRANCH  13  15
ENDBRANCH   9  10
ENDBRANCH   7   9
ENDBRANCH   3   5
BRANCH   1  20
HETATM   20  N3  UNL     1       1.091  -0.376  -2.722  1.00  0.00    -0.249 N 
HETATM   21  C6  UNL     1       2.385  -0.629  -2.165  1.00  0.00     0.335 C 
HETATM   22  N2  UNL     1       3.629  -0.291  -2.717  1.00  0.00    -0.332 N 
HETATM   23  O2  UNL     1       2.364  -1.241  -1.032  1.00  0.00    -0.246 OA
ATOM     24  H2  UNL     1       3.687   0.194  -3.612  1.00  0.00     0.164 HD
ATOM     25  H3  UNL     1       0.959   0.087  -3.621  1.00  0.00     0.192 HD
BRANCH  22  26
HETATM   26  C5  UNL     1       4.816  -0.642  -1.996  1.00  0.00     0.243 C 
BRANCH  26  27
HETATM   27  C4  UNL     1       4.826   0.138  -0.652  1.00  0.00     0.304 C 
HETATM   28  N1  UNL     1       5.742  -0.110   0.218  1.00  0.00    -0.410 NA
HETATM   29  O1  UNL     1       3.850   0.983  -0.569  1.00  0.00    -0.256 OA
BRANCH  28  30
HETATM   30  C3  UNL     1       6.770  -0.387   1.196  1.00  0.00     0.248 C 
BRANCH  30  31
HETATM   31  C2  UNL     1       6.194  -0.917   2.456  1.00  0.00    -0.004 C 
HETATM   32  C1  UNL     1       4.887  -1.086   2.557  1.00  0.00     0.009 C 
ENDBRANCH  30  31
ENDBRANCH  28  30
ENDBRANCH  26  27
ENDBRANCH  22  26
ENDBRANCH   1  20
TORSDOF 10
