REMARK  12 active torsions:
REMARK  status: ('A' for Active; 'I' for Inactive)
REMARK    1  A    between atoms: C3_3  and  N1_4 
REMARK    2  A    between atoms: N1_4  and  S1_6 
REMARK    3  A    between atoms: S1_6  and  N2_9 
REMARK    4  A    between atoms: N2_9  and  C4_11 
REMARK    5  A    between atoms: C4_11  and  C5_12 
REMARK    6  A    between atoms: C5_12  and  N4_16 
REMARK    7  A    between atoms: N4_16  and  N5_18 
REMARK    8  A    between atoms: N5_18  and  C6_19 
REMARK    9  A    between atoms: C6_19  and  O3_20 
REMARK   10  A    between atoms: C6_19  and  N6_22 
REMARK   11  A    between atoms: N6_22  and  N7_23 
REMARK       I    between atoms: N7_23  and  C7_24 
REMARK   12  A    between atoms: C7_24  and  C8_26 
ROOT
HETATM    1  C1  UNL     1      -7.908  -0.080   0.733  1.00  0.00     0.014 C 
HETATM    2  C2  UNL     1      -6.889  -0.481   0.273  1.00  0.00    -0.097 C 
HETATM    3  C3  UNL     1      -5.586  -0.962  -0.254  1.00  0.00     0.226 C 
ENDROOT
BRANCH   3   4
HETATM    4  N1  UNL     1      -4.715  -1.152   0.876  1.00  0.00    -0.292 N 
ATOM      5  H1  UNL     1      -5.010  -0.974   1.836  1.00  0.00     0.174 HD
BRANCH   4   6
HETATM    6  S1  UNL     1      -3.157  -1.696   0.481  1.00  0.00     0.316 S 
HETATM    7  O1  UNL     1      -3.100  -2.122  -0.969  1.00  0.00    -0.183 OA
HETATM    8  O2  UNL     1      -2.720  -2.824   1.406  1.00  0.00    -0.183 OA
BRANCH   6   9
HETATM    9  N2  UNL     1      -2.023  -0.386   0.637  1.00  0.00    -0.296 N 
ATOM     10  H2  UNL     1      -1.437  -0.176   1.445  1.00  0.00     0.174 HD
BRANCH   9  11
HETATM   11  C4  UNL     1      -2.077   0.338  -0.596  1.00  0.00     0.211 C 
BRANCH  11  12
HETATM   12  C5  UNL     1      -1.160   1.484  -0.713  1.00  0.00     0.120 C 
HETATM   13  N3  UNL     1      -1.613   2.648  -0.427  1.00  0.00    -0.386 N 
ATOM     14  H32 UNL     1      -2.582   2.810  -0.153  1.00  0.00     0.157 HD
ATOM     15  H31 UNL     1      -0.978   3.442  -0.508  1.00  0.00     0.157 HD
BRANCH  12  16
HETATM   16  N4  UNL     1       0.196   1.258  -1.097  1.00  0.00    -0.217 N 
ATOM     17  H4  UNL     1       0.468   1.659  -1.995  1.00  0.00     0.203 HD
BRANCH  16  18
HETATM   18  N5  UNL     1       1.142   0.610  -0.463  1.00  0.00    -0.263 NA
BRANCH  18  19
HETATM   19  C6  UNL     1       2.059  -0.134   0.261  1.00  0.00     0.427 C 
BRANCH  19  20
HETATM   20  O3  UNL     1       1.543  -0.956   1.206  1.00  0.00    -0.307 OA
ATOM     21  H3  UNL     1       2.172  -1.466   1.703  1.00  0.00     0.223 HD
ENDBRANCH  19  20
BRANCH  19  22
HETATM   22  N6  UNL     1       3.381  -0.064   0.045  1.00  0.00    -0.181 NA
BRANCH  22  23
HETATM   23  N7  UNL     1       4.725  -0.153  -0.002  1.00  0.00    -0.194 NA
HETATM   24  C7  UNL     1       6.017  -0.253  -0.051  1.00  0.00     0.414 C 
HETATM   25  O4  UNL     1       6.730  -1.302  -0.332  1.00  0.00    -0.243 OA
BRANCH  24  26
HETATM   26  C8  UNL     1       6.948   0.921   0.233  1.00  0.00     0.340 C 
HETATM   27  N8  UNL     1       8.339   0.703   0.251  1.00  0.00    -0.051 NA
HETATM   28  O5  UNL     1       6.399   2.011   0.419  1.00  0.00    -0.264 OA
ENDBRANCH  24  26
ENDBRANCH  22  23
ENDBRANCH  19  22
ENDBRANCH  18  19
ENDBRANCH  16  18
ENDBRANCH  12  16
ENDBRANCH  11  12
ENDBRANCH   9  11
ENDBRANCH   6   9
ENDBRANCH   4   6
ENDBRANCH   3   4
TORSDOF 12
