REMARK  6 active torsions:
REMARK  status: ('A' for Active; 'I' for Inactive)
REMARK    1  A    between atoms: N1_2  and  C3_4 
REMARK    2  A    between atoms: N1_2  and  C11_16 
REMARK    3  A    between atoms: C3_4  and  C4_5 
REMARK    4  A    between atoms: C4_5  and  C5_6 
REMARK    5  A    between atoms: C5_6  and  N2_7 
REMARK    6  A    between atoms: C11_16  and  C12_17 
ROOT
HETATM    1  C1  UNL     1      -1.187  -1.682  -0.704  1.00  0.00     0.272 C 
HETATM    2  N1  UNL     1      -1.126  -0.694   0.387  1.00  0.00    -0.074 N 
HETATM    3  C2  UNL     1      -0.336  -1.356   1.441  1.00  0.00     0.272 C 
ENDROOT
BRANCH   2   4
HETATM    4  C3  UNL     1      -0.558   0.513  -0.091  1.00  0.00     0.238 C 
BRANCH   4   5
HETATM    5  C4  UNL     1       0.887   0.770   0.098  1.00  0.00     0.058 C 
BRANCH   5   6
HETATM    6  C5  UNL     1       1.774  -0.240  -0.579  1.00  0.00     0.274 C 
BRANCH   6   7
HETATM    7  N2  UNL     1       3.181   0.052  -0.372  1.00  0.00     0.090 N 
HETATM    8  C6  UNL     1       4.026  -0.928  -1.029  1.00  0.00     0.274 C 
HETATM    9  C7  UNL     1       5.325  -0.340  -1.482  1.00  0.00     0.057 C 
HETATM   10  C8  UNL     1       5.466   1.115  -1.103  1.00  0.00     0.234 C 
HETATM   11  N3  UNL     1       5.478   1.315   0.325  1.00  0.00    -0.073 N 
HETATM   12  C9  UNL     1       5.079   0.150   1.065  1.00  0.00     0.262 C 
ATOM     13  H32 UNL     1       6.391   1.647   0.637  1.00  0.00     0.277 HD
ATOM     14  H31 UNL     1       4.908   2.121   0.583  1.00  0.00     0.277 HD
HETATM   15  C10 UNL     1       3.554   0.089   1.013  1.00  0.00     0.299 C 
ENDBRANCH   6   7
ENDBRANCH   5   6
ENDBRANCH   4   5
ENDBRANCH   2   4
BRANCH   2  16
HETATM   16  C11 UNL     1      -2.427  -0.520   0.987  1.00  0.00     0.242 C 
BRANCH  16  17
HETATM   17  C12 UNL     1      -3.414   0.346   0.352  1.00  0.00     0.037 C 
HETATM   18  C13 UNL     1      -3.808  -0.087  -1.011  1.00  0.00     0.009 C 
HETATM   19  C14 UNL     1      -4.910   0.783  -1.602  1.00  0.00     0.028 C 
HETATM   20  C15 UNL     1      -5.625   1.578  -0.529  1.00  0.00     0.232 C 
HETATM   21  N4  UNL     1      -5.835   0.718   0.601  1.00  0.00    -0.075 N 
HETATM   22  C16 UNL     1      -4.628   0.372   1.298  1.00  0.00     0.238 C 
ATOM     23  H42 UNL     1      -6.516   1.126   1.242  1.00  0.00     0.277 HD
ATOM     24  H41 UNL     1      -6.343  -0.122   0.324  1.00  0.00     0.277 HD
ENDBRANCH  16  17
ENDBRANCH   2  16
TORSDOF 6
