REMARK  9 active torsions:
REMARK  status: ('A' for Active; 'I' for Inactive)
REMARK    1  A    between atoms: C2_5  and  N2_6 
REMARK    2  A    between atoms: N2_6  and  C3_8 
REMARK    3  A    between atoms: C3_8  and  C4_9 
REMARK    4  A    between atoms: C4_9  and  C5_10 
REMARK    5  A    between atoms: C5_10  and  C6_11 
REMARK    6  A    between atoms: C6_11  and  C7_12 
REMARK    7  A    between atoms: C7_12  and  N3_13 
REMARK    8  A    between atoms: N3_13  and  C8_15 
REMARK    9  A    between atoms: C14_25  and  O2_26 
ROOT
HETATM    1  C3  UNL     1      -1.891  -0.803  -0.438  1.00  0.00     0.138 C 
ENDROOT
BRANCH   1   2
HETATM    2  N2  UNL     1      -3.083  -0.344  -1.139  1.00  0.00    -0.226 N 
ATOM      3  H2  UNL     1      -3.160  -0.438  -2.152  1.00  0.00     0.177 HD
BRANCH   2   4
HETATM    4  C2  UNL     1      -4.038   0.184  -0.452  1.00  0.00     0.680 A 
HETATM    5  N1  UNL     1      -3.959   0.319   0.878  1.00  0.00    -0.154 N 
HETATM    6  C1  UNL     1      -4.961   0.871   1.578  1.00  0.00     0.294 A 
ATOM      7  H1  UNL     1      -3.123  -0.003   1.366  1.00  0.00     0.187 HD
HETATM    8  O1  UNL     1      -4.893   1.002   2.838  1.00  0.00    -0.265 OA
HETATM    9  C14 UNL     1      -6.105   1.317   0.945  1.00  0.00     0.150 A 
HETATM   10  C13 UNL     1      -6.166   1.169  -0.424  1.00  0.00     0.148 A 
HETATM   11  N5  UNL     1      -5.147   0.613  -1.092  1.00  0.00    -0.199 N 
ATOM     12  H5  UNL     1      -5.210   0.512  -2.105  1.00  0.00     0.183 HD
BRANCH   9  13
HETATM   13  O2  UNL     1      -7.144   1.886   1.648  1.00  0.00    -0.355 OA
ATOM     14  H2  UNL     1      -7.931   2.193   1.213  1.00  0.00     0.218 HD
ENDBRANCH   9  13
ENDBRANCH   2   4
ENDBRANCH   1   2
BRANCH   1  15
HETATM   15  C4  UNL     1      -0.939  -1.436  -1.457  1.00  0.00     0.020 C 
BRANCH  15  16
HETATM   16  C5  UNL     1       0.297  -1.921  -0.777  1.00  0.00     0.003 C 
BRANCH  16  17
HETATM   17  C6  UNL     1       1.109  -0.928  -0.067  1.00  0.00     0.020 C 
BRANCH  17  18
HETATM   18  C7  UNL     1       1.668   0.203  -0.847  1.00  0.00     0.121 C 
BRANCH  18  19
HETATM   19  N3  UNL     1       2.432   1.057   0.038  1.00  0.00    -0.376 N 
ATOM     20  H3  UNL     1       1.997   1.878   0.458  1.00  0.00     0.161 HD
BRANCH  19  21
HETATM   21  C8  UNL     1       3.656   0.778   0.292  1.00  0.00     0.100 A 
HETATM   22  C9  UNL     1       4.372   1.619   1.150  1.00  0.00     0.048 A 
HETATM   23  C10 UNL     1       5.686   1.386   1.469  1.00  0.00     0.005 A 
HETATM   24  C11 UNL     1       6.345   0.294   0.940  1.00  0.00     0.017 A 
HETATM   25  C12 UNL     1       5.633  -0.519   0.103  1.00  0.00     0.089 A 
HETATM   26  N4  UNL     1       4.341  -0.263  -0.191  1.00  0.00    -0.353 N 
ATOM     27  H4  UNL     1       3.857  -0.903  -0.821  1.00  0.00     0.166 HD
ENDBRANCH  19  21
ENDBRANCH  18  19
ENDBRANCH  17  18
ENDBRANCH  16  17
ENDBRANCH  15  16
ENDBRANCH   1  15
TORSDOF 9
