REMARK  10 active torsions:
REMARK  status: ('A' for Active; 'I' for Inactive)
REMARK    1  A    between atoms: C2_2  and  C3_3 
REMARK    2  A    between atoms: C4_4  and  C5_5 
REMARK    3  A    between atoms: C5_5  and  C6_6 
REMARK    4  A    between atoms: C14_18  and  C15_19 
REMARK    5  A    between atoms: C15_19  and  C16_20 
REMARK    6  A    between atoms: C16_20  and  C17_21 
REMARK    7  A    between atoms: C17_21  and  N3_22 
REMARK    8  A    between atoms: N4_25  and  C20_26 
REMARK    9  A    between atoms: C24_36  and  C25_37 
REMARK   10  A    between atoms: C25_37  and  C26_38 
ROOT
HETATM    1  C3  UNL     1      -0.159   2.107   0.532  1.00  0.00    -0.008 A 
HETATM    2  C4  UNL     1      -0.524   0.794   0.568  1.00  0.00     0.006 A 
HETATM    3  C14 UNL     1      -1.648   0.290  -0.134  1.00  0.00     0.047 A 
HETATM    4  N5  UNL     1      -2.367   1.162  -0.856  1.00  0.00    -0.316 N 
HETATM    5  C22 UNL     1      -3.404   0.852  -1.536  1.00  0.00     0.130 C 
HETATM    6  C23 UNL     1      -2.030   2.509  -0.920  1.00  0.00     0.139 A 
HETATM    7  N6  UNL     1      -2.592   3.543  -1.568  1.00  0.00    -0.284 N 
ATOM      8  H6  UNL     1      -3.420   3.491  -2.162  1.00  0.00     0.188 HD
HETATM    9  N7  UNL     1      -1.907   4.626  -1.315  1.00  0.00    -0.302 N 
ATOM     10  H7  UNL     1      -2.119   5.554  -1.682  1.00  0.00     0.186 HD
HETATM   11  C24 UNL     1      -0.865   4.328  -0.485  1.00  0.00     0.041 A 
HETATM   12  C29 UNL     1      -0.923   2.960  -0.217  1.00  0.00     0.045 A 
ENDROOT
BRANCH   2  13
HETATM   13  C5  UNL     1       0.270  -0.183   1.345  1.00  0.00     0.063 C 
BRANCH  13  14
HETATM   14  C6  UNL     1       1.410  -0.564   0.826  1.00  0.00     0.109 A 
HETATM   15  N1  UNL     1       2.135  -0.326  -0.273  1.00  0.00    -0.328 N 
HETATM   16  C7  UNL     1       3.101  -1.162   0.116  1.00  0.00     0.110 A 
ATOM     17  H1  UNL     1       2.001   0.266  -1.093  1.00  0.00     0.169 HD
HETATM   18  C8  UNL     1       4.262  -1.567  -0.379  1.00  0.00    -0.036 C 
HETATM   19  N2  UNL     1       2.380  -1.408   1.224  1.00  0.00    -0.328 N 
HETATM   20  C9  UNL     1       4.780  -1.075  -1.679  1.00  0.00     0.038 C 
HETATM   21  C13 UNL     1       5.106  -2.542   0.359  1.00  0.00     0.038 C 
HETATM   22  C10 UNL     1       6.294  -1.098  -1.637  1.00  0.00     0.004 C 
HETATM   23  C11 UNL     1       6.735  -0.738  -0.242  1.00  0.00     0.001 C 
HETATM   24  C12 UNL     1       6.392  -1.830   0.751  1.00  0.00     0.004 C 
ATOM     25  H2  UNL     1       2.515  -2.001   2.043  1.00  0.00     0.169 HD
ENDBRANCH  13  14
ENDBRANCH   2  13
BRANCH   1  26
HETATM   26  C2  UNL     1       0.997   2.570   1.275  1.00  0.00     0.003 C 
HETATM   27  C1  UNL     1       1.242   2.259   2.543  1.00  0.00     0.012 C 
ENDBRANCH   1  26
BRANCH   3  28
HETATM   28  C15 UNL     1      -1.916  -0.971  -0.040  1.00  0.00     0.006 C 
BRANCH  28  29
HETATM   29  C16 UNL     1      -2.904  -1.895  -0.546  1.00  0.00     0.049 C 
BRANCH  29  30
HETATM   30  C17 UNL     1      -2.627  -3.338  -0.028  1.00  0.00     0.133 C 
BRANCH  30  31
HETATM   31  N3  UNL     1      -3.674  -4.201  -0.582  1.00  0.00    -0.351 N 
HETATM   32  C18 UNL     1      -3.672  -4.877  -1.739  1.00  0.00     0.109 A 
HETATM   33  C19 UNL     1      -4.871  -5.559  -1.848  1.00  0.00     0.117 A 
HETATM   34  N4  UNL     1      -5.608  -5.295  -0.748  1.00  0.00    -0.295 N 
HETATM   35  C21 UNL     1      -4.857  -4.471  -0.001  1.00  0.00     0.192 A 
BRANCH  34  36
HETATM   36  C20 UNL     1      -6.911  -5.786  -0.438  1.00  0.00     0.360 C 
HETATM   37  O1  UNL     1      -7.467  -6.552  -1.258  1.00  0.00    -0.283 OA
ENDBRANCH  34  36
ENDBRANCH  30  31
ENDBRANCH  29  30
ENDBRANCH  28  29
ENDBRANCH   3  28
BRANCH  11  38
HETATM   38  C25 UNL     1       0.072   5.330   0.042  1.00  0.00     0.064 C 
BRANCH  38  39
HETATM   39  C26 UNL     1      -0.308   5.870   1.419  1.00  0.00    -0.009 A 
HETATM   40  C27 UNL     1      -1.640   6.594   1.504  1.00  0.00     0.005 A 
HETATM   41  C28 UNL     1      -1.406   5.305   2.214  1.00  0.00     0.005 A 
ENDBRANCH  38  39
ENDBRANCH  11  38
TORSDOF 10
