REMARK  12 active torsions:
REMARK  status: ('A' for Active; 'I' for Inactive)
REMARK    1  A    between atoms: C2_2  and  C3_3 
REMARK    2  A    between atoms: C4_4  and  C5_5 
REMARK    3  A    between atoms: C5_5  and  O1_7 
REMARK    4  A    between atoms: C5_5  and  C7_9 
REMARK    5  A    between atoms: C8_10  and  C9_11 
REMARK    6  A    between atoms: C9_11  and  N1_12 
REMARK    7  A    between atoms: C10_13  and  C11_14 
REMARK    8  A    between atoms: C13_19  and  C14_20 
REMARK    9  A    between atoms: C21_27  and  C22_28 
REMARK   10  A    between atoms: C22_28  and  C23_29 
REMARK   11  A    between atoms: C23_29  and  C24_30 
REMARK   12  A    between atoms: C24_30  and  N3_31 
ROOT
HETATM    1  N1  UNL     1       3.219  -1.010   1.144  1.00  0.00    -0.324 N 
HETATM    2  C10 UNL     1       2.924  -0.273   2.158  1.00  0.00     0.147 A 
HETATM    3  N2  UNL     1       1.544   0.128   2.397  1.00  0.00    -0.340 N 
ATOM      4  H2  UNL     1       1.321   0.710   3.204  1.00  0.00     0.167 HD
HETATM    5  C12 UNL     1       0.512  -0.279   1.526  1.00  0.00     0.037 A 
HETATM    6  C13 UNL     1      -0.702   0.106   1.721  1.00  0.00     0.059 C 
HETATM    7  C27 UNL     1       0.926  -1.099   0.415  1.00  0.00     0.054 A 
HETATM    8  C28 UNL     1       2.191  -1.457   0.213  1.00  0.00     0.012 A 
HETATM    9  C29 UNL     1       2.524  -2.328  -0.948  1.00  0.00     0.068 C 
ENDROOT
BRANCH   6  10
HETATM   10  C14 UNL     1      -1.908  -0.166   1.001  1.00  0.00     0.043 A 
HETATM   11  C15 UNL     1      -2.440  -1.420   0.915  1.00  0.00    -0.029 A 
HETATM   12  C16 UNL     1      -1.844  -2.567   1.633  1.00  0.00     0.051 C 
HETATM   13  C17 UNL     1      -3.585  -1.666   0.187  1.00  0.00    -0.046 A 
HETATM   14  C18 UNL     1      -4.145  -3.031   0.120  1.00  0.00     0.049 C 
HETATM   15  C19 UNL     1      -4.208  -0.602  -0.474  1.00  0.00    -0.033 A 
HETATM   16  C20 UNL     1      -5.375  -0.990  -1.307  1.00  0.00     0.050 C 
HETATM   17  C21 UNL     1      -3.684   0.657  -0.389  1.00  0.00     0.018 A 
HETATM   18  N6  UNL     1      -2.542   0.835   0.348  1.00  0.00    -0.354 N 
HETATM   19  C26 UNL     1      -1.966   2.135   0.432  1.00  0.00     0.156 C 
BRANCH  17  20
HETATM   20  C22 UNL     1      -4.346   1.848  -0.969  1.00  0.00     0.059 C 
BRANCH  20  21
HETATM   21  C23 UNL     1      -5.229   2.522   0.026  1.00  0.00     0.026 C 
BRANCH  21  22
HETATM   22  C24 UNL     1      -6.421   1.886   0.575  1.00  0.00     0.122 C 
BRANCH  22  23
HETATM   23  N3  UNL     1      -7.518   1.628  -0.327  1.00  0.00    -0.367 N 
HETATM   24  C25 UNL     1      -8.512   0.865   0.057  1.00  0.00     0.196 C 
HETATM   25  N4  UNL     1      -8.520   0.286   1.361  1.00  0.00    -0.067 NA
HETATM   26  N5  UNL     1      -9.572   0.629  -0.849  1.00  0.00    -0.067 NA
ATOM     27  H3  UNL     1      -7.520   2.038  -1.261  1.00  0.00     0.161 HD
ENDBRANCH  22  23
ENDBRANCH  21  22
ENDBRANCH  20  21
ENDBRANCH  17  20
ENDBRANCH   6  10
BRANCH   2  28
HETATM   28  C11 UNL     1       3.939   0.219   3.073  1.00  0.00     0.307 C 
HETATM   29  O2  UNL     1       5.153   0.049   3.039  1.00  0.00    -0.298 OA
ENDBRANCH   2  28
BRANCH   1  30
HETATM   30  C9  UNL     1       4.573  -1.413   0.828  1.00  0.00     0.224 C 
BRANCH  30  31
HETATM   31  C8  UNL     1       5.151  -0.658  -0.293  1.00  0.00    -0.082 C 
HETATM   32  C7  UNL     1       5.648  -0.021  -1.201  1.00  0.00    -0.053 C 
BRANCH  32  33
HETATM   33  C5  UNL     1       6.278   0.749  -2.289  1.00  0.00     0.181 C 
HETATM   34  C6  UNL     1       5.748   2.166  -2.191  1.00  0.00     0.075 C 
BRANCH  33  35
HETATM   35  C4  UNL     1       7.740   0.835  -2.058  1.00  0.00    -0.055 C 
HETATM   36  C3  UNL     1       8.925   0.892  -1.850  1.00  0.00    -0.103 C 
BRANCH  36  37
HETATM   37  C2  UNL     1      10.380   0.951  -1.568  1.00  0.00     0.089 C 
HETATM   38  C1  UNL     1      10.657   0.265  -0.222  1.00  0.00     0.018 C 
ENDBRANCH  36  37
ENDBRANCH  33  35
BRANCH  33  39
HETATM   39  O1  UNL     1       5.988   0.185  -3.510  1.00  0.00    -0.367 OA
ATOM     40  H1  UNL     1       5.051   0.130  -3.658  1.00  0.00     0.212 HD
ENDBRANCH  33  39
ENDBRANCH  32  33
ENDBRANCH  30  31
ENDBRANCH   1  30
TORSDOF 12
