REMARK  8 active torsions:
REMARK  status: ('A' for Active; 'I' for Inactive)
REMARK    1  A    between atoms: C2_2  and  C3_3 
REMARK    2  A    between atoms: C4_4  and  C5_5 
REMARK    3  A    between atoms: C5_5  and  C6_6 
REMARK    4  A    between atoms: C6_6  and  C7_7 
REMARK    5  A    between atoms: C7_7  and  N1_8 
REMARK    6  A    between atoms: C9_15  and  C10_16 
REMARK    7  A    between atoms: C10_16  and  N5_17 
REMARK    8  A    between atoms: C19_28  and  C20_29 
REMARK       I    between atoms: C20_29  and  N7_31 
REMARK       I    between atoms: C21_33  and  N9_35 
ROOT
HETATM    1  N5  UNL     1       0.775  -0.673  -1.236  1.00  0.00    -0.309 N 
HETATM    2  C11 UNL     1       0.909  -2.086  -1.374  1.00  0.00     0.275 A 
HETATM    3  O1  UNL     1      -0.059  -2.690  -1.934  1.00  0.00    -0.265 OA
HETATM    4  C12 UNL     1       2.068  -2.823  -0.914  1.00  0.00     0.100 A 
HETATM    5  C13 UNL     1       2.389  -4.122  -0.948  1.00  0.00     0.010 A 
HETATM    6  C14 UNL     1       3.712  -4.356  -0.333  1.00  0.00     0.049 A 
HETATM    7  C15 UNL     1       4.184  -3.010   0.104  1.00  0.00     0.133 A 
HETATM    8  N6  UNL     1       3.119  -2.091  -0.295  1.00  0.00    -0.343 N 
HETATM    9  C16 UNL     1       2.953  -0.686  -0.177  1.00  0.00     0.048 A 
HETATM   10  C17 UNL     1       1.907  -0.012  -0.590  1.00  0.00     0.040 A 
HETATM   11  C18 UNL     1       2.464   1.305  -0.167  1.00  0.00     0.080 A 
HETATM   12  C19 UNL     1       3.684   0.551   0.308  1.00  0.00     0.136 A 
ENDROOT
BRANCH   1  13
HETATM   13  C10 UNL     1      -0.290   0.083  -1.782  1.00  0.00     0.189 C 
BRANCH  13  14
HETATM   14  C9  UNL     1      -1.575   0.158  -1.038  1.00  0.00     0.034 A 
HETATM   15  N4  UNL     1      -2.765  -0.027  -1.694  1.00  0.00    -0.361 N 
HETATM   16  C4  UNL     1      -3.802   0.200  -0.835  1.00  0.00     0.016 A 
ATOM     17  H4  UNL     1      -2.861  -0.293  -2.674  1.00  0.00     0.165 HD
HETATM   18  C3  UNL     1      -3.243   0.528   0.379  1.00  0.00    -0.028 A 
HETATM   19  C24 UNL     1      -1.837   0.501   0.254  1.00  0.00    -0.029 A 
HETATM   20  C25 UNL     1      -0.915   0.749   1.383  1.00  0.00     0.051 C 
BRANCH  16  21
HETATM   21  C5  UNL     1      -5.228   0.163  -1.237  1.00  0.00     0.059 C 
BRANCH  21  22
HETATM   22  C6  UNL     1      -6.044  -0.998  -0.830  1.00  0.00     0.026 C 
BRANCH  22  23
HETATM   23  C7  UNL     1      -7.465  -0.791  -1.428  1.00  0.00     0.122 C 
BRANCH  23  24
HETATM   24  N1  UNL     1      -8.027   0.416  -1.031  1.00  0.00    -0.367 N 
HETATM   25  C8  UNL     1      -8.771   0.904  -0.191  1.00  0.00     0.196 C 
HETATM   26  N2  UNL     1      -9.008   2.343  -0.276  1.00  0.00    -0.067 NA
HETATM   27  N3  UNL     1      -9.460   0.272   0.868  1.00  0.00    -0.067 NA
ATOM     28  H1  UNL     1      -7.708   1.153  -1.660  1.00  0.00     0.161 HD
ENDBRANCH  23  24
ENDBRANCH  22  23
ENDBRANCH  21  22
ENDBRANCH  16  21
BRANCH  18  29
HETATM   29  C2  UNL     1      -3.941   0.841   1.642  1.00  0.00     0.036 C 
HETATM   30  C1  UNL     1      -4.305  -0.390   2.450  1.00  0.00     0.010 C 
ENDBRANCH  18  29
ENDBRANCH  13  14
ENDBRANCH   1  13
BRANCH  12  31
HETATM   31  C20 UNL     1       4.914   0.795  -0.472  1.00  0.00     0.234 C 
HETATM   32  O2  UNL     1       5.125   0.134  -1.519  1.00  0.00    -0.272 OA
HETATM   33  N7  UNL     1       5.888   1.755  -0.091  1.00  0.00    -0.301 N 
HETATM   34  C21 UNL     1       7.090   1.291   0.089  1.00  0.00     0.192 C 
ATOM     35  H7  UNL     1       5.661   2.742   0.033  1.00  0.00     0.171 HD
HETATM   36  N8  UNL     1       7.386  -0.102  -0.089  1.00  0.00    -0.063 NA
HETATM   37  N9  UNL     1       8.130   2.170   0.451  1.00  0.00    -0.364 N 
HETATM   38  C22 UNL     1       7.816   3.464   1.023  1.00  0.00     0.151 C 
HETATM   39  C23 UNL     1       9.510   1.759   0.226  1.00  0.00     0.151 C 
ENDBRANCH  12  31
TORSDOF 8
