REMARK  10 active torsions:
REMARK  status: ('A' for Active; 'I' for Inactive)
REMARK    1  A    between atoms: C5_7  and  C6_8 
REMARK    2  A    between atoms: C6_8  and  C7_9 
REMARK    3  A    between atoms: C8_12  and  C9_13 
REMARK    4  A    between atoms: C9_13  and  C10_14 
REMARK    5  A    between atoms: C10_14  and  C11_15 
REMARK    6  A    between atoms: C11_15  and  C12_16 
REMARK    7  A    between atoms: C15_19  and  C16_20 
REMARK    8  A    between atoms: C16_20  and  C17_21 
REMARK    9  A    between atoms: C19_23  and  O1_24 
REMARK   10  A    between atoms: N3_34  and  C27_35 
ROOT
HETATM    1  C1  UNL     1      -4.453  -3.264   0.869  1.00  0.00     0.019 C 
HETATM    2  C2  UNL     1      -5.033  -2.233   0.581  1.00  0.00    -0.057 C 
HETATM    3  C3  UNL     1      -5.736  -1.030   0.220  1.00  0.00     0.116 C 
HETATM    4  C4  UNL     1      -4.937  -0.048  -0.214  1.00  0.00     0.084 A 
HETATM    5  N1  UNL     1      -3.620  -0.284  -0.263  1.00  0.00    -0.353 N 
ATOM      6  H1  UNL     1      -3.179  -1.161   0.013  1.00  0.00     0.166 HD
HETATM    7  C5  UNL     1      -2.950   0.802  -0.729  1.00  0.00     0.035 A 
HETATM    8  C24 UNL     1      -3.909   1.748  -0.978  1.00  0.00     0.049 A 
HETATM    9  C25 UNL     1      -5.142   1.228  -0.660  1.00  0.00     0.064 A 
HETATM   10  C26 UNL     1      -6.341   2.044  -0.828  1.00  0.00     0.262 C 
HETATM   11  O2  UNL     1      -6.139   2.931  -1.727  1.00  0.00    -0.267 OA
HETATM   12  N3  UNL     1      -7.646   2.111  -0.271  1.00  0.00    -0.282 N 
HETATM   13  C28 UNL     1      -8.365   1.261   0.649  1.00  0.00     0.237 C 
HETATM   14  C29 UNL     1      -8.239  -0.174   0.384  1.00  0.00     0.241 C 
HETATM   15  O4  UNL     1      -9.342  -0.744   0.081  1.00  0.00    -0.271 OA
HETATM   16  N4  UNL     1      -7.154  -1.089   0.386  1.00  0.00    -0.317 N 
ATOM     17  H4  UNL     1      -7.471  -2.044   0.550  1.00  0.00     0.169 HD
ENDROOT
BRANCH   7  18
HETATM   18  C6  UNL     1      -1.640   0.900  -0.887  1.00  0.00     0.059 C 
BRANCH  18  19
HETATM   19  C7  UNL     1      -0.811  -0.245  -0.534  1.00  0.00     0.040 A 
HETATM   20  N2  UNL     1      -0.102  -0.387   0.607  1.00  0.00    -0.359 N 
HETATM   21  C8  UNL     1       0.551  -1.584   0.607  1.00  0.00     0.010 A 
ATOM     22  H2  UNL     1      -0.061   0.301   1.359  1.00  0.00     0.166 HD
HETATM   23  C21 UNL     1       0.220  -2.187  -0.581  1.00  0.00     0.034 A 
HETATM   24  C22 UNL     1      -0.638  -1.362  -1.317  1.00  0.00    -0.033 A 
HETATM   25  C23 UNL     1      -1.211  -1.673  -2.656  1.00  0.00     0.050 C 
BRANCH  21  26
HETATM   26  C9  UNL     1       1.429  -2.051   1.720  1.00  0.00     0.057 C 
BRANCH  26  27
HETATM   27  C10 UNL     1       2.851  -1.616   1.450  1.00  0.00     0.011 C 
BRANCH  27  28
HETATM   28  C11 UNL     1       2.973  -0.121   1.326  1.00  0.00     0.039 C 
BRANCH  28  29
HETATM   29  C12 UNL     1       4.380   0.277   1.072  1.00  0.00    -0.056 A 
HETATM   30  C13 UNL     1       5.216   0.581   2.135  1.00  0.00     0.008 A 
HETATM   31  C14 UNL     1       6.510   0.940   1.817  1.00  0.00     0.011 A 
HETATM   32  C15 UNL     1       6.988   1.005   0.516  1.00  0.00    -0.022 A 
HETATM   33  C19 UNL     1       6.126   0.694  -0.507  1.00  0.00     0.072 A 
HETATM   34  C20 UNL     1       4.811   0.327  -0.236  1.00  0.00     0.044 A 
BRANCH  32  35
HETATM   35  C16 UNL     1       8.415   1.398   0.295  1.00  0.00     0.067 C 
BRANCH  35  36
HETATM   36  C17 UNL     1       9.306   0.265   0.027  1.00  0.00    -0.032 C 
HETATM   37  C18 UNL     1      10.023   0.129  -1.062  1.00  0.00     0.007 C 
ENDBRANCH  35  36
ENDBRANCH  32  35
BRANCH  33  38
HETATM   38  O1  UNL     1       6.580   0.752  -1.807  1.00  0.00    -0.360 OA
ATOM     39  H1  UNL     1       5.984   0.537  -2.515  1.00  0.00     0.217 HD
ENDBRANCH  33  38
ENDBRANCH  28  29
ENDBRANCH  27  28
ENDBRANCH  26  27
ENDBRANCH  21  26
ENDBRANCH  18  19
ENDBRANCH   7  18
BRANCH  12  40
HETATM   40  C27 UNL     1      -8.356   3.245  -0.721  1.00  0.00     0.358 C 
HETATM   41  O3  UNL     1      -9.543   3.402  -0.276  1.00  0.00    -0.283 OA
ENDBRANCH  12  40
TORSDOF 10
