REMARK  8 active torsions:
REMARK  status: ('A' for Active; 'I' for Inactive)
REMARK    1  A    between atoms: C3_3  and  C4_4 
REMARK    2  A    between atoms: C6_9  and  C7_10 
REMARK    3  A    between atoms: C7_10  and  C8_11 
REMARK    4  A    between atoms: C12_18  and  C13_19 
REMARK    5  A    between atoms: C13_19  and  C14_20 
REMARK    6  A    between atoms: C14_20  and  N3_21 
REMARK    7  A    between atoms: C19_29  and  C20_30 
REMARK    8  A    between atoms: C22_32  and  C23_33 
ROOT
HETATM    1  C4  UNL     1      -2.907   0.007   0.914  1.00  0.00     0.199 C 
HETATM    2  N1  UNL     1      -2.959   1.199   0.084  1.00  0.00    -0.343 N 
ATOM      3  H1  UNL     1      -3.862   1.672   0.053  1.00  0.00     0.163 HD
HETATM    4  C5  UNL     1      -1.957   1.782  -0.670  1.00  0.00     0.241 C 
HETATM    5  O1  UNL     1      -2.187   1.864  -1.940  1.00  0.00    -0.271 OA
HETATM    6  C6  UNL     1      -0.646   2.335  -0.249  1.00  0.00     0.177 C 
HETATM    7  N2  UNL     1      -0.188   1.870   1.034  1.00  0.00    -0.346 N 
ATOM      8  H2  UNL     1      -0.665   2.237   1.858  1.00  0.00     0.163 HD
HETATM    9  C11 UNL     1       0.865   0.948   1.257  1.00  0.00     0.241 C 
HETATM   10  O2  UNL     1       1.412   0.984   2.384  1.00  0.00    -0.271 OA
HETATM   11  C12 UNL     1       1.346  -0.027   0.284  1.00  0.00     0.178 C 
HETATM   12  N4  UNL     1       1.267  -1.323   0.931  1.00  0.00    -0.347 N 
ATOM     13  H4  UNL     1       2.020  -1.555   1.578  1.00  0.00     0.163 HD
HETATM   14  C18 UNL     1       0.271  -2.287   0.763  1.00  0.00     0.224 C 
HETATM   15  O3  UNL     1      -0.263  -2.761   1.839  1.00  0.00    -0.273 OA
HETATM   16  C19 UNL     1      -0.274  -2.856  -0.470  1.00  0.00     0.100 C 
HETATM   17  C22 UNL     1      -1.499  -2.256  -1.021  1.00  0.00     0.099 C 
HETATM   18  N5  UNL     1      -2.707  -2.309  -0.252  1.00  0.00    -0.349 N 
HETATM   19  C25 UNL     1      -3.239  -3.618   0.060  1.00  0.00     0.153 C 
HETATM   20  C26 UNL     1      -3.447  -1.198   0.217  1.00  0.00     0.246 C 
HETATM   21  O4  UNL     1      -4.725  -1.152   0.060  1.00  0.00    -0.271 OA
ENDROOT
BRANCH  11  22
HETATM   22  C13 UNL     1       2.739   0.271  -0.147  1.00  0.00     0.063 C 
BRANCH  22  23
HETATM   23  C14 UNL     1       3.761   0.273   0.938  1.00  0.00     0.238 C 
BRANCH  23  24
HETATM   24  N3  UNL     1       5.089   0.542   0.379  1.00  0.00    -0.079 N 
HETATM   25  C15 UNL     1       5.743  -0.680  -0.049  1.00  0.00     0.271 C 
HETATM   26  C16 UNL     1       5.950   1.184   1.356  1.00  0.00     0.271 C 
HETATM   27  C17 UNL     1       5.005   1.415  -0.769  1.00  0.00     0.271 C 
ENDBRANCH  23  24
ENDBRANCH  22  23
ENDBRANCH  11  22
BRANCH   6  28
HETATM   28  C7  UNL     1      -0.683   3.854  -0.131  1.00  0.00     0.038 C 
BRANCH  28  29
HETATM   29  C8  UNL     1      -1.021   4.570  -1.389  1.00  0.00    -0.020 C 
HETATM   30  C9  UNL     1      -0.052   4.322  -2.523  1.00  0.00     0.009 C 
HETATM   31  C10 UNL     1      -0.946   6.084  -1.129  1.00  0.00     0.009 C 
ENDBRANCH  28  29
ENDBRANCH   6  28
BRANCH  16  32
HETATM   32  C20 UNL     1      -0.276  -4.357  -0.290  1.00  0.00     0.012 C 
HETATM   33  C21 UNL     1       1.183  -4.787  -0.052  1.00  0.00     0.006 C 
ENDBRANCH  16  32
BRANCH  17  34
HETATM   34  C23 UNL     1      -1.723  -2.848  -2.428  1.00  0.00     0.022 C 
HETATM   35  C24 UNL     1      -2.989  -2.197  -2.953  1.00  0.00     0.007 C 
ENDBRANCH  17  34
BRANCH   1  36
HETATM   36  C3  UNL     1      -3.854   0.223   2.082  1.00  0.00     0.003 C 
HETATM   37  C2  UNL     1      -3.881  -0.635   3.072  1.00  0.00    -0.033 C 
HETATM   38  C1  UNL     1      -4.771  -0.501   4.245  1.00  0.00     0.036 C 
ENDBRANCH   1  36
TORSDOF 8
