REMARK  10 active torsions:
REMARK  status: ('A' for Active; 'I' for Inactive)
REMARK    1  A    between atoms: C2_5  and  C3_6 
REMARK    2  A    between atoms: C3_6  and  O1_7 
REMARK    3  A    between atoms: O1_7  and  C4_8 
REMARK    4  A    between atoms: C4_8  and  C5_9 
REMARK    5  A    between atoms: C6_10  and  C7_11 
REMARK    6  A    between atoms: C10_16  and  N4_17 
REMARK    7  A    between atoms: N6_27  and  N7_29 
REMARK    8  A    between atoms: C17_34  and  C18_35 
REMARK    9  A    between atoms: C18_35  and  N10_36 
REMARK   10  A    between atoms: C18_35  and  N11_40 
ROOT
HETATM    1  C4  UNL     1      -1.193  -0.597  -0.171  1.00  0.00     0.157 C 
HETATM    2  N6  UNL     1      -1.999  -1.603  -0.466  1.00  0.00    -0.278 N 
ATOM      3  H6  UNL     1      -3.009  -1.521  -0.348  1.00  0.00     0.189 HD
ENDROOT
BRANCH   1   4
HETATM    4  O1  UNL     1      -1.770   0.466   0.250  1.00  0.00    -0.329 OA
BRANCH   4   5
HETATM    5  C3  UNL     1      -2.796   0.985   0.919  1.00  0.00     0.238 C 
BRANCH   5   6
HETATM    6  C2  UNL     1      -4.136   0.588   0.388  1.00  0.00     0.079 A 
HETATM    7  N2  UNL     1      -4.619  -0.640   0.456  1.00  0.00    -0.284 N 
HETATM    8  N1  UNL     1      -5.921  -0.619   0.130  1.00  0.00    -0.238 N 
ATOM      9  H2  UNL     1      -4.087  -1.471   0.715  1.00  0.00     0.188 HD
HETATM   10  C1  UNL     1      -6.844  -1.745   0.043  1.00  0.00     0.200 C 
HETATM   11  N12 UNL     1      -6.214   0.667  -0.132  1.00  0.00    -0.283 N 
HETATM   12  C17 UNL     1      -5.153   1.407   0.011  1.00  0.00     0.110 A 
ATOM     13  H12 UNL     1      -7.135   1.012  -0.403  1.00  0.00     0.188 HD
BRANCH  12  14
HETATM   14  C18 UNL     1      -4.847   2.857  -0.324  1.00  0.00     0.430 C 
BRANCH  14  15
HETATM   15  N10 UNL     1      -5.548   3.208  -1.523  1.00  0.00    -0.045 N 
ATOM     16 3H10 UNL     1      -5.340   2.576  -2.296  1.00  0.00     0.277 HD
ATOM     17 2H10 UNL     1      -6.549   3.025  -1.458  1.00  0.00     0.277 HD
ATOM     18 1H10 UNL     1      -5.343   4.181  -1.748  1.00  0.00     0.277 HD
ENDBRANCH  14  15
BRANCH  14  19
HETATM   19  N11 UNL     1      -4.885   3.790   0.703  1.00  0.00    -0.045 N 
ATOM     20 3H11 UNL     1      -5.793   3.739   1.165  1.00  0.00     0.277 HD
ATOM     21 2H11 UNL     1      -4.266   3.484   1.454  1.00  0.00     0.277 HD
ATOM     22 1H11 UNL     1      -4.680   4.763   0.478  1.00  0.00     0.277 HD
ENDBRANCH  14  19
ENDBRANCH  12  14
ENDBRANCH   5   6
ENDBRANCH   4   5
ENDBRANCH   1   4
BRANCH   1  23
HETATM   23  C5  UNL     1       0.239  -0.726  -0.351  1.00  0.00     0.060 C 
HETATM   24  C6  UNL     1       1.083   0.243  -0.153  1.00  0.00     0.039 C 
BRANCH  24  25
HETATM   25  C7  UNL     1       2.533   0.171  -0.313  1.00  0.00     0.101 A 
HETATM   26  N3  UNL     1       3.242   1.352  -0.264  1.00  0.00    -0.350 N 
HETATM   27  C8  UNL     1       4.562   1.305  -0.319  1.00  0.00     0.062 A 
ATOM     28  H3  UNL     1       2.757   2.246  -0.187  1.00  0.00     0.166 HD
HETATM   29  C9  UNL     1       5.279   2.466  -0.225  1.00  0.00     0.068 A 
HETATM   30  C13 UNL     1       5.228   0.114  -0.429  1.00  0.00     0.064 A 
HETATM   31  C10 UNL     1       6.649   2.502  -0.202  1.00  0.00     0.105 A 
HETATM   32  C11 UNL     1       7.322   1.286  -0.301  1.00  0.00     0.038 A 
HETATM   33  C12 UNL     1       6.647   0.101  -0.416  1.00  0.00     0.034 A 
HETATM   34  N5  UNL     1       4.602  -1.040  -0.494  1.00  0.00    -0.315 N 
HETATM   35  C14 UNL     1       5.200  -2.343  -0.606  1.00  0.00     0.160 C 
HETATM   36  C15 UNL     1       3.241  -0.973  -0.432  1.00  0.00     0.274 A 
HETATM   37  O4  UNL     1       2.636  -2.074  -0.481  1.00  0.00    -0.265 OA
BRANCH  31  38
HETATM   38  N4  UNL     1       7.345   3.680  -0.019  1.00  0.00    -0.116 N 
HETATM   39  O2  UNL     1       8.603   3.639   0.216  1.00  0.00    -0.532 OA
HETATM   40  O3  UNL     1       6.829   4.917  -0.008  1.00  0.00    -0.532 OA
ENDBRANCH  31  38
ENDBRANCH  24  25
ENDBRANCH   1  23
BRANCH   2  41
HETATM   41  N7  UNL     1      -1.416  -2.794  -0.950  1.00  0.00    -0.274 N 
HETATM   42  C16 UNL     1      -1.365  -3.806  -0.079  1.00  0.00     0.215 C 
HETATM   43  N8  UNL     1      -0.816  -5.032  -0.425  1.00  0.00    -0.065 NA
HETATM   44  N9  UNL     1      -1.934  -3.564   1.197  1.00  0.00    -0.065 NA
ATOM     45  H7  UNL     1      -1.058  -2.877  -1.901  1.00  0.00     0.189 HD
ENDBRANCH   2  41
TORSDOF 10
