REMARK  7 active torsions:
REMARK  status: ('A' for Active; 'I' for Inactive)
REMARK    1  A    between atoms: C4_12  and  N5_13 
REMARK    2  A    between atoms: N5_13  and  C5_15 
REMARK    3  A    between atoms: C5_15  and  C6_16 
REMARK    4  A    between atoms: N8_22  and  C8_23 
REMARK    5  A    between atoms: C8_23  and  C9_24 
REMARK    6  A    between atoms: C9_24  and  N9_25 
REMARK    7  A    between atoms: C10_29  and  C11_30 
ROOT
HETATM    1  C6  UNL     1      -1.395  -1.120   0.613  1.00  0.00     0.155 A 
HETATM    2  N6  UNL     1      -0.594  -2.171   0.734  1.00  0.00    -0.271 N 
ATOM      3  H6  UNL     1      -0.869  -3.113   1.011  1.00  0.00     0.189 HD
HETATM    4  N7  UNL     1       0.626  -1.769   0.428  1.00  0.00    -0.128 N 
ATOM      5  H7  UNL     1       1.454  -2.365   0.433  1.00  0.00     0.205 HD
HETATM    6  C7  UNL     1       0.623  -0.465   0.110  1.00  0.00     0.737 A 
HETATM    7  N8  UNL     1       1.357   0.589  -0.272  1.00  0.00    -0.008 N 
HETATM    8  C15 UNL     1       0.537   1.674  -0.398  1.00  0.00     0.708 A 
HETATM    9  N14 UNL     1       0.860   2.857  -0.742  1.00  0.00    -0.233 N 
ATOM     10 1H14 UNL     1       0.248   3.667  -0.836  1.00  0.00     0.174 HD
ATOM     11 2H14 UNL     1       1.788   3.203  -0.985  1.00  0.00     0.174 HD
HETATM   12  N15 UNL     1      -0.688   1.218  -0.078  1.00  0.00    -0.109 N 
ATOM     13  H15 UNL     1      -1.534   1.788  -0.073  1.00  0.00     0.207 HD
HETATM   14  N16 UNL     1      -0.649  -0.054   0.226  1.00  0.00    -0.054 N 
ENDROOT
BRANCH   1  15
HETATM   15  C5  UNL     1      -2.876  -1.029   0.843  1.00  0.00     0.201 C 
BRANCH  15  16
HETATM   16  N5  UNL     1      -3.519  -1.312  -0.396  1.00  0.00    -0.368 N 
ATOM     17  H5  UNL     1      -2.956  -1.776  -1.109  1.00  0.00     0.161 HD
BRANCH  16  18
HETATM   18  C4  UNL     1      -4.728  -1.044  -0.705  1.00  0.00     0.118 A 
HETATM   19  N4  UNL     1      -5.130  -1.409  -1.953  1.00  0.00    -0.284 N 
HETATM   20  N3  UNL     1      -6.361  -1.180  -2.378  1.00  0.00    -0.282 N 
ATOM     21  H4  UNL     1      -4.466  -1.870  -2.575  1.00  0.00     0.188 HD
HETATM   22  C3  UNL     1      -7.282  -0.574  -1.602  1.00  0.00     0.151 A 
ATOM     23  H3  UNL     1      -6.621  -1.470  -3.320  1.00  0.00     0.188 HD
HETATM   24  N2  UNL     1      -8.562  -0.223  -1.761  1.00  0.00    -0.291 N 
HETATM   25  C17 UNL     1      -6.918  -0.186  -0.328  1.00  0.00     0.087 A 
HETATM   26  C2  UNL     1      -8.981   0.361  -0.631  1.00  0.00     0.328 A 
ATOM     27  H2  UNL     1      -9.123  -0.374  -2.599  1.00  0.00     0.172 HD
HETATM   28  N1  UNL     1      -7.991   0.400   0.276  1.00  0.00    -0.300 N 
HETATM   29  O1  UNL     1     -10.139   0.824  -0.409  1.00  0.00    -0.246 OA
HETATM   30  C1  UNL     1      -8.002   0.939   1.623  1.00  0.00     0.161 C 
HETATM   31  C16 UNL     1      -5.635  -0.431   0.101  1.00  0.00     0.083 A 
ENDBRANCH  16  18
ENDBRANCH  15  16
ENDBRANCH   1  15
BRANCH   7  32
HETATM   32  C8  UNL     1       2.762   0.652  -0.527  1.00  0.00     0.190 C 
BRANCH  32  33
HETATM   33  C9  UNL     1       3.529   1.010   0.747  1.00  0.00     0.188 C 
BRANCH  33  34
HETATM   34  N9  UNL     1       4.942   1.042   0.353  1.00  0.00    -0.215 N 
HETATM   35  N10 UNL     1       5.606   2.104  -0.097  1.00  0.00    -0.003 NA
HETATM   36  N11 UNL     1       6.864   1.771  -0.356  1.00  0.00    -0.265 N 
HETATM   37  C10 UNL     1       7.020   0.462  -0.067  1.00  0.00     0.161 A 
ATOM     38  H11 UNL     1       7.587   2.396  -0.712  1.00  0.00     0.186 HD
HETATM   39  N13 UNL     1       5.817   0.054   0.365  1.00  0.00    -0.268 N 
ATOM     40  H13 UNL     1       5.606  -0.898   0.664  1.00  0.00     0.190 HD
BRANCH  37  41
HETATM   41  C11 UNL     1       8.251  -0.302  -0.210  1.00  0.00     0.079 A 
HETATM   42  C12 UNL     1       8.387  -1.636   0.091  1.00  0.00     0.035 A 
HETATM   43  C13 UNL     1       9.681  -2.017  -0.166  1.00  0.00     0.019 A 
HETATM   44  C14 UNL     1      10.347  -0.909  -0.628  1.00  0.00     0.088 A 
HETATM   45  N12 UNL     1       9.457   0.095  -0.640  1.00  0.00    -0.363 N 
ATOM     46  H12 UNL     1       9.672   1.046  -0.940  1.00  0.00     0.165 HD
ENDBRANCH  37  41
ENDBRANCH  33  34
ENDBRANCH  32  33
ENDBRANCH   7  32
TORSDOF 7
