REMARK  10 active torsions:
REMARK  status: ('A' for Active; 'I' for Inactive)
REMARK    1  A    between atoms: C2_2  and  N1_3 
REMARK    2  A    between atoms: C2_2  and  C3_7 
REMARK    3  A    between atoms: N3_10  and  C4_11 
REMARK    4  A    between atoms: C5_14  and  N5_15 
REMARK    5  A    between atoms: N5_15  and  C6_17 
REMARK    6  A    between atoms: C6_17  and  C7_18 
REMARK    7  A    between atoms: C7_18  and  N6_19 
REMARK    8  A    between atoms: C13_31  and  C14_32 
REMARK    9  A    between atoms: C14_32  and  C15_33 
REMARK   10  A    between atoms: C17_40  and  O2_41 
ROOT
HETATM    1  C4  UNL     1      -1.731  -0.660   0.259  1.00  0.00     0.715 A 
HETATM    2  N4  UNL     1      -0.398  -0.846   0.367  1.00  0.00    -0.019 N 
ATOM      3  H4  UNL     1      -0.045  -1.796   0.483  1.00  0.00     0.203 HD
HETATM    4  C5  UNL     1       0.482   0.167   0.328  1.00  0.00     0.715 A 
HETATM    5  N8  UNL     1      -0.012   1.430   0.173  1.00  0.00    -0.068 N 
HETATM    6  N9  UNL     1       0.577   2.610   0.094  1.00  0.00    -0.288 N 
ATOM      7  H9  UNL     1       1.586   2.753   0.147  1.00  0.00     0.187 HD
HETATM    8  C12 UNL     1      -0.323   3.603  -0.065  1.00  0.00     0.123 A 
HETATM    9  C13 UNL     1      -1.564   3.010  -0.088  1.00  0.00     0.030 A 
HETATM   10  C18 UNL     1      -1.329   1.664   0.062  1.00  0.00     0.172 A 
HETATM   11  N12 UNL     1      -2.145   0.625   0.108  1.00  0.00    -0.171 N 
ATOM     12  H12 UNL     1      -3.147   0.799   0.025  1.00  0.00     0.186 HD
ENDROOT
BRANCH   1  13
HETATM   13  N3  UNL     1      -2.665  -1.730   0.290  1.00  0.00    -0.123 N 
HETATM   14  N2  UNL     1      -2.486  -3.092   0.328  1.00  0.00    -0.290 N 
HETATM   15  C3  UNL     1      -3.507  -3.737  -0.086  1.00  0.00     0.036 C 
ATOM     16  H2  UNL     1      -1.629  -3.540   0.652  1.00  0.00     0.187 HD
HETATM   17  C20 UNL     1      -4.554  -2.763  -0.473  1.00  0.00     0.078 C 
HETATM   18  C19 UNL     1      -4.117  -1.534   0.289  1.00  0.00     0.173 C 
BRANCH  15  19
HETATM   19  C2  UNL     1      -3.734  -5.214  -0.210  1.00  0.00     0.226 C 
HETATM   20  C1  UNL     1      -2.546  -6.012   0.224  1.00  0.00     0.046 C 
BRANCH  19  21
HETATM   21  N1  UNL     1      -4.178  -5.544  -1.529  1.00  0.00    -0.070 N 
ATOM     22  H13 UNL     1      -3.416  -5.458  -2.202  1.00  0.00     0.275 HD
ATOM     23  H12 UNL     1      -4.361  -6.544  -1.612  1.00  0.00     0.275 HD
ATOM     24  H11 UNL     1      -4.988  -5.000  -1.825  1.00  0.00     0.275 HD
ENDBRANCH  19  21
ENDBRANCH  15  19
ENDBRANCH   1  13
BRANCH   4  25
HETATM   25  N5  UNL     1       1.752   0.062   0.415  1.00  0.00    -0.222 N 
ATOM     26  H5  UNL     1       2.268   0.940   0.366  1.00  0.00     0.177 HD
BRANCH  25  27
HETATM   27  C6  UNL     1       2.546  -1.102   0.570  1.00  0.00     0.168 C 
BRANCH  27  28
HETATM   28  C7  UNL     1       3.959  -0.793   1.028  1.00  0.00     0.292 C 
BRANCH  28  29
HETATM   29  N6  UNL     1       4.664   0.051   0.126  1.00  0.00     0.093 N 
HETATM   30  C8  UNL     1       5.001  -0.489  -1.141  1.00  0.00     0.300 C 
HETATM   31  C9  UNL     1       6.022  -1.575  -1.105  1.00  0.00     0.262 C 
HETATM   32  N7  UNL     1       7.031  -1.328  -0.118  1.00  0.00    -0.072 N 
HETATM   33  C10 UNL     1       7.121   0.036   0.298  1.00  0.00     0.262 C 
ATOM     34  H72 UNL     1       6.899  -1.939   0.688  1.00  0.00     0.277 HD
ATOM     35  H71 UNL     1       7.938  -1.663  -0.443  1.00  0.00     0.277 HD
HETATM   36  C11 UNL     1       5.811   0.610   0.761  1.00  0.00     0.300 C 
ENDBRANCH  28  29
ENDBRANCH  27  28
ENDBRANCH  25  27
ENDBRANCH   4  25
BRANCH   9  37
HETATM   37  C14 UNL     1      -2.759   3.555  -0.228  1.00  0.00     0.051 C 
BRANCH  37  38
HETATM   38  C15 UNL     1      -2.915   4.987  -0.392  1.00  0.00     0.088 A 
HETATM   39  N10 UNL     1      -2.616   5.631  -1.556  1.00  0.00    -0.305 N 
HETATM   40  C16 UNL     1      -2.878   6.933  -1.352  1.00  0.00     0.326 A 
ATOM     41  H10 UNL     1      -2.263   5.207  -2.414  1.00  0.00     0.171 HD
HETATM   42  O1  UNL     1      -2.737   7.869  -2.179  1.00  0.00    -0.247 OA
HETATM   43  N11 UNL     1      -3.335   7.100  -0.078  1.00  0.00    -0.287 N 
HETATM   44  C17 UNL     1      -3.360   5.904   0.519  1.00  0.00     0.171 A 
ATOM     45  H11 UNL     1      -3.611   7.986   0.347  1.00  0.00     0.172 HD
BRANCH  44  46
HETATM   46  O2  UNL     1      -3.761   5.648   1.814  1.00  0.00    -0.344 OA
ATOM     47  H2  UNL     1      -4.070   6.285   2.447  1.00  0.00     0.219 HD
ENDBRANCH  44  46
ENDBRANCH  37  38
ENDBRANCH   9  37
TORSDOF 10
