REMARK  10 active torsions:
REMARK  status: ('A' for Active; 'I' for Inactive)
REMARK    1  A    between atoms: C4_4  and  O1_5 
REMARK    2  A    between atoms: O1_5  and  C5_6 
REMARK    3  A    between atoms: C8_11  and  O4_12 
REMARK    4  A    between atoms: C9_14  and  O5_15 
REMARK    5  A    between atoms: C10_17  and  O6_18 
REMARK    6  A    between atoms: C11_20  and  O7_21 
REMARK    7  A    between atoms: O7_21  and  C12_22 
REMARK    8  A    between atoms: C13_23  and  N1_24 
REMARK    9  A    between atoms: C15_29  and  N2_30 
REMARK   10  A    between atoms: C20_36  and  O9_37 
ROOT
HETATM    1  C1  UNL     1      -1.159  -3.277  -1.432  1.00  0.00     0.040 C 
HETATM    2  C2  UNL     1      -2.068  -2.448  -0.575  1.00  0.00     0.123 C 
HETATM    3  C3  UNL     1      -2.819  -1.465  -1.453  1.00  0.00     0.066 C 
HETATM    4  C4  UNL     1      -2.431  -0.056  -1.005  1.00  0.00     0.160 C 
HETATM    5  C10 UNL     1      -0.947  -0.026  -1.021  1.00  0.00     0.202 C 
HETATM    6  C11 UNL     1      -0.398  -0.993  -0.029  1.00  0.00     0.291 C 
HETATM    7  O10 UNL     1      -1.377  -1.829   0.415  1.00  0.00    -0.354 OA
ENDROOT
BRANCH   6   8
HETATM    8  O7  UNL     1       0.686  -1.633  -0.598  1.00  0.00    -0.349 OA
BRANCH   8   9
HETATM    9  C12 UNL     1       1.879  -1.519   0.046  1.00  0.00     0.186 C 
HETATM   10  C13 UNL     1       2.488  -2.786   0.538  1.00  0.00     0.217 C 
HETATM   11  C14 UNL     1       3.977  -2.746   0.231  1.00  0.00     0.074 C 
HETATM   12  C15 UNL     1       4.200  -1.256   0.084  1.00  0.00     0.256 C 
HETATM   13  C20 UNL     1       2.993  -0.879  -0.739  1.00  0.00     0.182 C 
BRANCH  10  14
HETATM   14  N1  UNL     1       2.357  -2.930   1.987  1.00  0.00    -0.072 N 
ATOM     15  H13 UNL     1       2.740  -2.121   2.476  1.00  0.00     0.274 HD
ATOM     16  H12 UNL     1       1.384  -2.849   2.281  1.00  0.00     0.274 HD
ATOM     17  H11 UNL     1       2.774  -3.798   2.324  1.00  0.00     0.274 HD
ENDBRANCH  10  14
BRANCH  12  18
HETATM   18  N2  UNL     1       4.235  -0.648   1.388  1.00  0.00     0.100 N 
HETATM   19  C16 UNL     1       4.210   0.819   1.298  1.00  0.00     0.299 C 
HETATM   20  C17 UNL     1       4.892   1.325   2.563  1.00  0.00     0.198 C 
HETATM   21  O8  UNL     1       4.656   0.430   3.619  1.00  0.00    -0.388 OA
HETATM   22  C18 UNL     1       5.533  -0.631   3.446  1.00  0.00     0.198 C 
HETATM   23  C19 UNL     1       5.555  -0.938   1.959  1.00  0.00     0.299 C 
ENDBRANCH  12  18
BRANCH  13  24
HETATM   24  O9  UNL     1       2.869   0.461  -0.959  1.00  0.00    -0.391 OA
ATOM     25  H9  UNL     1       3.572   0.865  -1.454  1.00  0.00     0.210 HD
ENDBRANCH  13  24
ENDBRANCH   8   9
ENDBRANCH   6   8
BRANCH   5  26
HETATM   26  O6  UNL     1      -0.419   1.258  -0.888  1.00  0.00    -0.388 OA
ATOM     27  H6  UNL     1       0.531   1.277  -0.898  1.00  0.00     0.210 HD
ENDBRANCH   5  26
BRANCH   4  28
HETATM   28  O1  UNL     1      -3.054   0.941  -1.659  1.00  0.00    -0.350 OA
BRANCH  28  29
HETATM   29  C5  UNL     1      -3.909   1.733  -0.953  1.00  0.00     0.294 C 
HETATM   30  O2  UNL     1      -3.401   3.045  -0.995  1.00  0.00    -0.335 OA
HETATM   31  C6  UNL     1      -3.369   3.594   0.288  1.00  0.00     0.341 C 
HETATM   32  O3  UNL     1      -4.691   3.706   0.706  1.00  0.00    -0.364 OA
HETATM   33  C7  UNL     1      -5.541   4.042  -0.346  1.00  0.00     0.205 C 
HETATM   34  C8  UNL     1      -6.164   2.883  -1.038  1.00  0.00     0.175 C 
HETATM   35  C9  UNL     1      -5.315   1.755  -1.427  1.00  0.00     0.204 C 
BRANCH  34  36
HETATM   36  O4  UNL     1      -6.824   3.419  -2.173  1.00  0.00    -0.391 OA
ATOM     37  H4  UNL     1      -7.222   2.678  -2.615  1.00  0.00     0.210 HD
ENDBRANCH  34  36
BRANCH  35  38
HETATM   38  O5  UNL     1      -5.370   1.584  -2.835  1.00  0.00    -0.388 OA
ATOM     39  H5  UNL     1      -6.270   1.598  -3.138  1.00  0.00     0.210 HD
ENDBRANCH  35  38
ENDBRANCH  28  29
ENDBRANCH   4  28
TORSDOF 10
