REMARK  8 active torsions:
REMARK  status: ('A' for Active; 'I' for Inactive)
REMARK    1  A    between atoms: N1_1  and  N2_4 
REMARK       I    between atoms: C1_6  and  N3_7 
REMARK       I    between atoms: C1_6  and  N10_38 
REMARK    2  A    between atoms: N3_7  and  C2_9 
REMARK    3  A    between atoms: C2_9  and  S1_10 
REMARK    4  A    between atoms: C2_9  and  C9_30 
REMARK    5  A    between atoms: S1_10  and  C3_11 
REMARK    6  A    between atoms: N4_13  and  O1_14 
REMARK    7  A    between atoms: C9_30  and  C10_32 
REMARK    8  A    between atoms: N10_38  and  N11_40 
ROOT
HETATM    1  C2  UNL     1      -1.855   0.579   0.810  1.00  0.00     0.245 C 
ENDROOT
BRANCH   1   2
HETATM    2  N3  UNL     1      -2.442  -0.603   0.231  1.00  0.00    -0.202 N 
HETATM    3  C1  UNL     1      -3.292  -1.385   1.069  1.00  0.00     0.712 C 
HETATM    4  N2  UNL     1      -4.358  -1.931   0.581  1.00  0.00    -0.137 N 
HETATM    5  N10 UNL     1      -2.912  -1.528   2.428  1.00  0.00    -0.071 N 
ATOM      6  H2  UNL     1      -4.943  -2.483   1.208  1.00  0.00     0.205 HD
ATOM      7  H10 UNL     1      -2.828  -0.711   3.033  1.00  0.00     0.212 HD
ATOM      8  H3  UNL     1      -2.258  -0.869  -0.736  1.00  0.00     0.179 HD
BRANCH   4   9
HETATM    9  N1  UNL     1      -4.752  -1.813  -0.732  1.00  0.00    -0.331 N 
ATOM     10  H12 UNL     1      -4.155  -1.257  -1.345  1.00  0.00     0.177 HD
ATOM     11  H11 UNL     1      -5.593  -2.244  -1.117  1.00  0.00     0.177 HD
ENDBRANCH   4   9
BRANCH   5  12
HETATM   12  N11 UNL     1      -2.657  -2.802   2.920  1.00  0.00    -0.024 N 
HETATM   13  O5  UNL     1      -1.660  -3.407   2.472  1.00  0.00    -0.516 OA
HETATM   14  O6  UNL     1      -3.452  -3.385   3.855  1.00  0.00    -0.516 OA
ENDBRANCH   5  12
ENDBRANCH   1   2
BRANCH   1  15
HETATM   15  S1  UNL     1      -0.725   1.425  -0.293  1.00  0.00    -0.076 SA
BRANCH  15  16
HETATM   16  C3  UNL     1       0.736   0.417  -0.624  1.00  0.00     0.091 A 
HETATM   17  C4  UNL     1       0.884  -0.830  -0.056  1.00  0.00     0.160 A 
HETATM   18  N4  UNL     1       1.995  -1.575  -0.318  1.00  0.00    -0.224 N 
HETATM   19  C5  UNL     1       2.967  -1.128  -1.125  1.00  0.00     0.175 A 
HETATM   20  C6  UNL     1       2.819   0.117  -1.692  1.00  0.00     0.156 A 
HETATM   21  C8  UNL     1       4.097  -2.066  -1.298  1.00  0.00     0.282 C 
HETATM   22  N5  UNL     1       1.715   0.858  -1.431  1.00  0.00    -0.333 N 
HETATM   23  N6  UNL     1       3.734   0.764  -2.570  1.00  0.00    -0.279 N 
ATOM     24  H5  UNL     1       1.625   1.779  -1.860  1.00  0.00     0.168 HD
HETATM   25  N7  UNL     1       5.064   0.479  -2.892  1.00  0.00    -0.250 N 
ATOM     26  H6  UNL     1       3.352   1.580  -3.049  1.00  0.00     0.189 HD
HETATM   27  C7  UNL     1       5.781  -0.745  -2.710  1.00  0.00     0.341 C 
ATOM     28  H7  UNL     1       5.592   1.244  -3.312  1.00  0.00     0.192 HD
HETATM   29  O2  UNL     1       6.954  -0.788  -3.174  1.00  0.00    -0.245 OA
HETATM   30  N8  UNL     1       5.287  -1.903  -2.059  1.00  0.00    -0.272 N 
ATOM     31  H8  UNL     1       5.867  -2.737  -2.149  1.00  0.00     0.174 HD
HETATM   32  O3  UNL     1       3.954  -3.143  -0.675  1.00  0.00    -0.265 OA
BRANCH  18  33
HETATM   33  O1  UNL     1       2.141  -2.816   0.247  1.00  0.00    -0.283 OA
ATOM     34  H1  UNL     1       2.915  -3.335   0.064  1.00  0.00     0.245 HD
ENDBRANCH  18  33
ENDBRANCH  15  16
ENDBRANCH   1  15
BRANCH   1  35
HETATM   35  C9  UNL     1      -2.880   1.544   1.271  1.00  0.00     0.216 C 
HETATM   36  O4  UNL     1      -4.117   1.354   1.169  1.00  0.00    -0.287 OA
BRANCH  35  37
HETATM   37  C10 UNL     1      -2.424   2.805   1.886  1.00  0.00     0.123 A 
HETATM   38  N9  UNL     1      -1.176   3.200   2.085  1.00  0.00    -0.357 N 
HETATM   39  C11 UNL     1      -0.943   4.344   2.644  1.00  0.00     0.096 A 
ATOM     40  H9  UNL     1      -0.400   2.604   1.798  1.00  0.00     0.166 HD
HETATM   41  C12 UNL     1      -2.029   5.104   3.009  1.00  0.00     0.069 A 
HETATM   42  S2  UNL     1      -3.326   4.108   2.516  1.00  0.00    -0.079 SA
ENDBRANCH  35  37
ENDBRANCH   1  35
TORSDOF 8
