REMARK  11 active torsions:
REMARK  status: ('A' for Active; 'I' for Inactive)
REMARK    1  A    between atoms: O1_2  and  C2_3 
REMARK    2  A    between atoms: C5_7  and  O3_8 
REMARK    3  A    between atoms: O3_8  and  C6_9 
REMARK    4  A    between atoms: C8_12  and  N1_13 
REMARK    5  A    between atoms: N2_16  and  C11_17 
REMARK    6  A    between atoms: C12_18  and  O4_19 
REMARK    7  A    between atoms: C13_21  and  O5_22 
REMARK    8  A    between atoms: C14_24  and  O6_25 
REMARK    9  A    between atoms: C15_27  and  O7_28 
REMARK   10  A    between atoms: C16_30  and  C17_31 
REMARK   11  A    between atoms: C17_31  and  O8_32 
ROOT
HETATM    1  N1  UNL     1      -0.299   1.111  -0.209  1.00  0.00     0.157 N 
HETATM    2  C9  UNL     1      -0.299   1.022  -1.660  1.00  0.00     0.309 C 
HETATM    3  C10 UNL     1      -1.573   0.233  -1.989  1.00  0.00     0.305 C 
HETATM    4  N2  UNL     1      -2.404   0.597  -0.859  1.00  0.00     0.126 N 
HETATM    5  C18 UNL     1      -1.473   0.366   0.227  1.00  0.00     0.547 C 
ENDROOT
BRANCH   4   6
HETATM    6  C11 UNL     1      -3.634  -0.095  -0.776  1.00  0.00     0.265 C 
HETATM    7  C12 UNL     1      -3.518  -1.596  -0.582  1.00  0.00     0.183 C 
HETATM    8  C13 UNL     1      -4.890  -2.203  -0.819  1.00  0.00     0.180 C 
HETATM    9  C14 UNL     1      -5.913  -1.619   0.134  1.00  0.00     0.178 C 
HETATM   10  C15 UNL     1      -5.948  -0.137  -0.057  1.00  0.00     0.157 C 
HETATM   11  C16 UNL     1      -4.555   0.401   0.308  1.00  0.00     0.077 C 
BRANCH   7  12
HETATM   12  O4  UNL     1      -3.216  -1.838   0.759  1.00  0.00    -0.391 OA
ATOM     13  H4  UNL     1      -3.143  -2.777   0.880  1.00  0.00     0.210 HD
ENDBRANCH   7  12
BRANCH   8  14
HETATM   14  O5  UNL     1      -5.308  -1.981  -2.109  1.00  0.00    -0.390 OA
ATOM     15  H5  UNL     1      -6.166  -2.361  -2.257  1.00  0.00     0.210 HD
ENDBRANCH   8  14
BRANCH   9  16
HETATM   16  O6  UNL     1      -7.120  -2.238  -0.102  1.00  0.00    -0.390 OA
ATOM     17  H6  UNL     1      -7.761  -1.872   0.496  1.00  0.00     0.210 HD
ENDBRANCH   9  16
BRANCH  10  18
HETATM   18  O7  UNL     1      -6.938   0.488   0.685  1.00  0.00    -0.392 OA
ATOM     19  H7  UNL     1      -6.960   1.430   0.564  1.00  0.00     0.210 HD
ENDBRANCH  10  18
BRANCH  11  20
HETATM   20  C17 UNL     1      -4.596   1.913   0.369  1.00  0.00     0.173 C 
BRANCH  20  21
HETATM   21  O8  UNL     1      -5.474   2.255   1.402  1.00  0.00    -0.400 OA
ATOM     22  H8  UNL     1      -5.500   3.204   1.440  1.00  0.00     0.209 HD
ENDBRANCH  20  21
ENDBRANCH  11  20
ENDBRANCH   4   6
BRANCH   1  23
HETATM   23  C8  UNL     1       0.940   0.522   0.247  1.00  0.00     0.428 C 
HETATM   24  S1  UNL     1       1.034   0.580   2.085  1.00  0.00    -0.102 SA
HETATM   25  C7  UNL     1       2.745   1.264   2.143  1.00  0.00     0.139 C 
HETATM   26  C6  UNL     1       3.087   1.091   0.655  1.00  0.00     0.276 C 
HETATM   27  O9  UNL     1       1.961   1.388  -0.071  1.00  0.00    -0.318 OA
BRANCH  26  28
HETATM   28  O3  UNL     1       3.644  -0.126   0.388  1.00  0.00    -0.330 OA
BRANCH  28  29
HETATM   29  C5  UNL     1       4.947   0.049  -0.060  1.00  0.00     0.270 C 
HETATM   30  C4  UNL     1       5.179  -0.601  -1.407  1.00  0.00     0.087 C 
HETATM   31  C3  UNL     1       6.459  -1.420  -1.281  1.00  0.00     0.178 C 
HETATM   32  O2  UNL     1       7.423  -0.619  -0.668  1.00  0.00    -0.339 OA
HETATM   33  C2  UNL     1       7.101  -0.315   0.640  1.00  0.00     0.414 C 
HETATM   34  O10 UNL     1       5.769  -0.646   0.850  1.00  0.00    -0.308 OA
BRANCH  33  35
HETATM   35  O1  UNL     1       7.402   0.995   0.986  1.00  0.00    -0.344 OA
HETATM   36  C1  UNL     1       8.332   1.067   2.019  1.00  0.00     0.207 C 
ENDBRANCH  33  35
ENDBRANCH  28  29
ENDBRANCH  26  28
ENDBRANCH   1  23
TORSDOF 11
