REMARK  13 active torsions:
REMARK  status: ('A' for Active; 'I' for Inactive)
REMARK    1  A    between atoms: N2_5  and  C4_6 
REMARK    2  A    between atoms: C5_9  and  N4_10 
REMARK    3  A    between atoms: N4_10  and  C6_11 
REMARK    4  A    between atoms: N4_10  and  C8_15 
REMARK    5  A    between atoms: C6_11  and  C7_12 
REMARK    6  A    between atoms: C7_12  and  O1_13 
REMARK    7  A    between atoms: C8_15  and  C9_16 
REMARK    8  A    between atoms: C9_16  and  O2_17 
REMARK    9  A    between atoms: C12_22  and  C13_23 
REMARK   10  A    between atoms: C13_23  and  O4_24 
REMARK   11  A    between atoms: N5_26  and  O5_28 
REMARK   12  A    between atoms: N6_30  and  C14_31 
REMARK   13  A    between atoms: C14_31  and  O6_32 
ROOT
HETATM    1  C4  UNL     1       1.303   0.062   0.438  1.00  0.00     0.683 A 
HETATM    2  N3  UNL     1       0.429   1.061   0.275  1.00  0.00    -0.175 N 
ATOM      3  H3  UNL     1       0.759   2.018   0.401  1.00  0.00     0.186 HD
HETATM    4  C5  UNL     1      -0.886   0.866  -0.052  1.00  0.00     0.141 A 
HETATM    5  C10 UNL     1      -1.368  -0.377  -0.225  1.00  0.00     0.107 A 
HETATM    6  C11 UNL     1      -2.662  -0.665  -0.533  1.00  0.00     0.222 A 
HETATM    7  O3  UNL     1      -3.505   0.261  -0.685  1.00  0.00    -0.285 OA
HETATM    8  C12 UNL     1      -3.078  -1.999  -0.683  1.00  0.00     0.157 A 
HETATM    9  N6  UNL     1      -2.182  -2.978  -0.514  1.00  0.00    -0.257 N 
HETATM   10  N7  UNL     1      -0.905  -2.682  -0.210  1.00  0.00    -0.275 N 
HETATM   11  C15 UNL     1       0.077  -3.750  -0.036  1.00  0.00     0.180 C 
HETATM   12  C16 UNL     1      -0.457  -1.435  -0.057  1.00  0.00     0.155 A 
HETATM   13  N8  UNL     1       0.839  -1.185   0.266  1.00  0.00    -0.174 N 
ATOM     14  H8  UNL     1       1.479  -1.970   0.381  1.00  0.00     0.186 HD
ENDROOT
BRANCH   4  15
HETATM   15  N4  UNL     1      -1.718   2.042  -0.277  1.00  0.00    -0.342 N 
BRANCH  15  16
HETATM   16  C6  UNL     1      -1.741   2.457  -1.647  1.00  0.00     0.155 C 
BRANCH  16  17
HETATM   17  C7  UNL     1      -0.947   3.644  -2.050  1.00  0.00     0.184 C 
BRANCH  17  18
HETATM   18  O1  UNL     1      -1.185   4.850  -1.515  1.00  0.00    -0.399 OA
ATOM     19  H1  UNL     1      -0.677   5.610  -1.773  1.00  0.00     0.209 HD
ENDBRANCH  17  18
ENDBRANCH  16  17
ENDBRANCH  15  16
BRANCH  15  20
HETATM   20  C8  UNL     1      -2.298   2.591   0.882  1.00  0.00     0.091 C 
BRANCH  20  21
HETATM   21  C9  UNL     1      -1.830   3.861   1.469  1.00  0.00     0.208 C 
BRANCH  21  22
HETATM   22  O2  UNL     1      -0.463   3.825   1.836  1.00  0.00    -0.396 OA
ATOM     23  H2  UNL     1      -0.162   4.643   2.214  1.00  0.00     0.209 HD
ENDBRANCH  21  22
ENDBRANCH  20  21
ENDBRANCH  15  20
ENDBRANCH   4  15
BRANCH   1  24
HETATM   24  N2  UNL     1       2.676   0.294   0.780  1.00  0.00    -0.214 N 
HETATM   25  C3  UNL     1       3.574  -0.862   0.883  1.00  0.00     0.171 C 
HETATM   26  C2  UNL     1       4.800  -0.456   0.055  1.00  0.00     0.292 C 
HETATM   27  N1  UNL     1       5.487   0.588   0.801  1.00  0.00     0.087 N 
HETATM   28  C1  UNL     1       6.527  -0.061   1.569  1.00  0.00     0.310 C 
HETATM   29  C18 UNL     1       4.605   1.325   1.677  1.00  0.00     0.292 C 
HETATM   30  C17 UNL     1       3.251   1.574   1.033  1.00  0.00     0.171 C 
ENDBRANCH   1  24
BRANCH   8  31
HETATM   31  C13 UNL     1      -4.457  -2.193  -1.041  1.00  0.00     0.193 C 
HETATM   32  N5  UNL     1      -5.243  -1.183  -1.176  1.00  0.00    -0.245 N 
ATOM     33  H5  UNL     1      -4.888  -0.238  -1.028  1.00  0.00     0.196 HD
BRANCH  31  34
HETATM   34  O4  UNL     1      -4.999  -3.428  -1.257  1.00  0.00    -0.343 OA
ATOM     35  H4  UNL     1      -5.910  -3.556  -1.494  1.00  0.00     0.219 HD
ENDBRANCH  31  34
BRANCH  32  36
HETATM   36  O5  UNL     1      -6.541  -1.373  -1.514  1.00  0.00    -0.288 OA
ATOM     37  H5  UNL     1      -7.121  -0.627  -1.614  1.00  0.00     0.244 HD
ENDBRANCH  32  36
ENDBRANCH   8  31
BRANCH   9  38
HETATM   38  C14 UNL     1      -2.558  -4.394  -0.602  1.00  0.00     0.314 C 
BRANCH  38  39
HETATM   39  O6  UNL     1      -2.525  -4.872  -1.902  1.00  0.00    -0.380 OA
ATOM     40  H6  UNL     1      -2.768  -5.789  -1.959  1.00  0.00     0.211 HD
ENDBRANCH  38  39
ENDBRANCH   9  38
TORSDOF 13
