REMARK  10 active torsions:
REMARK  status: ('A' for Active; 'I' for Inactive)
REMARK    1  A    between atoms: N2_8  and  C5_9 
REMARK    2  A    between atoms: C5_9  and  C6_10 
REMARK    3  A    between atoms: C6_10  and  O3_11 
REMARK    4  A    between atoms: C6_10  and  C7_13 
REMARK    5  A    between atoms: C7_13  and  O4_14 
REMARK    6  A    between atoms: O4_14  and  C8_15 
REMARK    7  A    between atoms: C11_19  and  C12_20 
REMARK    8  A    between atoms: C12_20  and  C13_21 
REMARK    9  A    between atoms: C13_21  and  O6_22 
REMARK   10  A    between atoms: C14_24  and  O7_25 
ROOT
HETATM    1  C6  UNL     1      -0.089   0.354  -0.617  1.00  0.00     0.162 C 
ENDROOT
BRANCH   1   2
HETATM    2  C5  UNL     1      -0.723  -0.560   0.408  1.00  0.00     0.186 C 
BRANCH   2   3
HETATM    3  N2  UNL     1      -2.165  -0.572   0.121  1.00  0.00    -0.251 N 
HETATM    4  C4  UNL     1      -2.992   0.318   0.695  1.00  0.00     0.280 A 
HETATM    5  C3  UNL     1      -4.335   0.390   0.495  1.00  0.00     0.134 A 
HETATM    6  O2  UNL     1      -2.481   1.170   1.497  1.00  0.00    -0.265 OA
HETATM    7  C2  UNL     1      -5.149   1.332   1.113  1.00  0.00     0.269 A 
HETATM    8  C16 UNL     1      -4.913  -0.536  -0.380  1.00  0.00     0.129 A 
HETATM    9  N1  UNL     1      -6.469   1.334   0.859  1.00  0.00    -0.270 N 
HETATM   10  O1  UNL     1      -4.627   2.161   1.897  1.00  0.00    -0.267 OA
HETATM   11  C1  UNL     1      -7.362   2.314   1.492  1.00  0.00     0.164 C 
HETATM   12  C18 UNL     1      -6.966   0.438   0.023  1.00  0.00     0.331 A 
HETATM   13  N5  UNL     1      -6.229  -0.517  -0.621  1.00  0.00    -0.298 N 
HETATM   14  O9  UNL     1      -8.213   0.451  -0.208  1.00  0.00    -0.246 OA
HETATM   15  C17 UNL     1      -6.809  -1.465  -1.514  1.00  0.00     0.161 C 
HETATM   16  C15 UNL     1      -4.057  -1.436  -0.957  1.00  0.00     0.288 A 
HETATM   17  N4  UNL     1      -2.713  -1.445  -0.705  1.00  0.00    -0.259 N 
HETATM   18  O8  UNL     1      -4.496  -2.288  -1.744  1.00  0.00    -0.264 OA
ATOM     19  H4  UNL     1      -2.123  -2.139  -1.164  1.00  0.00     0.190 HD
ENDBRANCH   2   3
ENDBRANCH   1   2
BRANCH   1  20
HETATM   20  O3  UNL     1      -0.311  -0.097  -1.905  1.00  0.00    -0.392 OA
ATOM     21  H3  UNL     1       0.087   0.477  -2.549  1.00  0.00     0.210 HD
ENDBRANCH   1  20
BRANCH   1  22
HETATM   22  C7  UNL     1       1.369   0.609  -0.336  1.00  0.00     0.210 C 
BRANCH  22  23
HETATM   23  O4  UNL     1       2.172  -0.544  -0.488  1.00  0.00    -0.333 OA
BRANCH  23  24
HETATM   24  C8  UNL     1       3.531  -0.396  -0.252  1.00  0.00     0.147 A 
HETATM   25  C9  UNL     1       4.105   0.806   0.116  1.00  0.00     0.111 A 
HETATM   26  C10 UNL     1       5.463   0.899   0.339  1.00  0.00     0.186 A 
HETATM   27  O5  UNL     1       5.984   1.989   0.673  1.00  0.00    -0.288 OA
HETATM   28  C11 UNL     1       6.273  -0.205   0.198  1.00  0.00     0.045 A 
HETATM   29  C14 UNL     1       5.667  -1.389  -0.170  1.00  0.00     0.152 A 
HETATM   30  N3  UNL     1       4.321  -1.455  -0.385  1.00  0.00    -0.317 N 
ATOM     31  H3  UNL     1       3.908  -2.347  -0.657  1.00  0.00     0.170 HD
BRANCH  28  32
HETATM   32  C12 UNL     1       7.721  -0.173   0.418  1.00  0.00     0.073 C 
BRANCH  32  33
HETATM   33  C13 UNL     1       8.483   0.470  -0.715  1.00  0.00     0.169 C 
BRANCH  33  34
HETATM   34  O6  UNL     1       8.310  -0.174  -1.920  1.00  0.00    -0.401 OA
ATOM     35  H6  UNL     1       8.790   0.231  -2.633  1.00  0.00     0.209 HD
ENDBRANCH  33  34
ENDBRANCH  32  33
ENDBRANCH  28  32
BRANCH  29  36
HETATM   36  O7  UNL     1       6.416  -2.535  -0.330  1.00  0.00    -0.346 OA
ATOM     37  H7  UNL     1       5.999  -3.350  -0.583  1.00  0.00     0.219 HD
ENDBRANCH  29  36
ENDBRANCH  23  24
ENDBRANCH  22  23
ENDBRANCH   1  22
TORSDOF 10
