REMARK  10 active torsions:
REMARK  status: ('A' for Active; 'I' for Inactive)
REMARK    1  A    between atoms: C4_4  and  N1_5 
REMARK    2  A    between atoms: N1_5  and  C5_7 
REMARK    3  A    between atoms: C5_7  and  C6_8 
REMARK    4  A    between atoms: C5_7  and  C8_16 
REMARK    5  A    between atoms: C8_16  and  N6_17 
REMARK    6  A    between atoms: N7_23  and  C11_24 
REMARK    7  A    between atoms: C11_24  and  C12_25 
REMARK    8  A    between atoms: C12_25  and  C13_26 
REMARK    9  A    between atoms: C13_26  and  N8_27 
REMARK   10  A    between atoms: C15_32  and  N10_33 
ROOT
HETATM    1  C8  UNL     1      -1.317  -0.697  -0.618  1.00  0.00     0.178 C 
HETATM    2  C9  UNL     1      -0.548  -1.830  -1.269  1.00  0.00     0.073 C 
HETATM    3  C10 UNL     1       0.886  -1.356  -0.974  1.00  0.00     0.275 C 
HETATM    4  N7  UNL     1       0.830  -0.760   0.319  1.00  0.00     0.091 N 
HETATM    5  C17 UNL     1      -0.556  -0.464   0.637  1.00  0.00     0.313 C 
ENDROOT
BRANCH   1   6
HETATM    6  C5  UNL     1      -2.775  -0.951  -0.483  1.00  0.00     0.191 C 
BRANCH   6   7
HETATM    7  N1  UNL     1      -3.379   0.223   0.087  1.00  0.00    -0.361 N 
ATOM      8  H1  UNL     1      -2.964   0.577   0.949  1.00  0.00     0.162 HD
BRANCH   7   9
HETATM    9  C4  UNL     1      -4.365   0.859  -0.366  1.00  0.00     0.124 A 
HETATM   10  C3  UNL     1      -4.940   1.980   0.182  1.00  0.00     0.084 A 
HETATM   11  C2  UNL     1      -6.012   2.370  -0.635  1.00  0.00     0.076 A 
HETATM   12  C1  UNL     1      -6.902   3.538  -0.401  1.00  0.00     0.079 C 
HETATM   13  O3  UNL     1      -6.029   1.493  -1.605  1.00  0.00    -0.241 OA
HETATM   14  N12 UNL     1      -5.080   0.602  -1.470  1.00  0.00    -0.245 N 
ATOM     15  H12 UNL     1      -4.910  -0.173  -2.110  1.00  0.00     0.196 HD
ENDBRANCH   7   9
ENDBRANCH   6   7
BRANCH   6  16
HETATM   16  C6  UNL     1      -3.093  -2.102   0.390  1.00  0.00     0.137 A 
HETATM   17  N2  UNL     1      -3.118  -2.174   1.732  1.00  0.00    -0.273 N 
HETATM   18  N3  UNL     1      -3.443  -3.352   2.176  1.00  0.00    -0.225 N 
ATOM     19  H2  UNL     1      -2.904  -1.384   2.341  1.00  0.00     0.189 HD
HETATM   20  N4  UNL     1      -3.643  -4.093   1.102  1.00  0.00    -0.003 NA
ATOM     21  H3  UNL     1      -3.526  -3.643   3.150  1.00  0.00     0.205 HD
HETATM   22  N5  UNL     1      -3.439  -3.367   0.000  1.00  0.00    -0.264 N 
HETATM   23  C7  UNL     1      -3.557  -3.815  -1.357  1.00  0.00     0.176 C 
ENDBRANCH   6  16
ENDBRANCH   1   6
BRANCH   1  24
HETATM   24  N6  UNL     1      -1.094   0.467  -1.511  1.00  0.00    -0.066 N 
ATOM     25  H63 UNL     1      -1.549   0.350  -2.416  1.00  0.00     0.275 HD
ATOM     26  H62 UNL     1      -1.601   1.295  -1.198  1.00  0.00     0.275 HD
ATOM     27  H61 UNL     1      -0.093   0.641  -1.604  1.00  0.00     0.275 HD
ENDBRANCH   1  24
BRANCH   4  28
HETATM   28  C11 UNL     1       1.614   0.416   0.510  1.00  0.00     0.274 C 
BRANCH  28  29
HETATM   29  C12 UNL     1       3.108   0.121   0.479  1.00  0.00     0.050 C 
BRANCH  29  30
HETATM   30  C13 UNL     1       3.822   1.451   0.692  1.00  0.00     0.140 C 
BRANCH  30  31
HETATM   31  N8  UNL     1       5.260   1.250   0.677  1.00  0.00    -0.250 N 
HETATM   32  C14 UNL     1       5.960   1.328  -0.466  1.00  0.00     0.344 A 
HETATM   33  O1  UNL     1       5.347   1.580  -1.514  1.00  0.00    -0.246 OA
HETATM   34  N9  UNL     1       7.301   1.127  -0.423  1.00  0.00    -0.141 N 
HETATM   35  C15 UNL     1       7.937   0.853   0.748  1.00  0.00     0.683 A 
ATOM     36  H9  UNL     1       7.843   1.182  -1.285  1.00  0.00     0.189 HD
HETATM   37  N11 UNL     1       7.213   0.783   1.867  1.00  0.00    -0.141 N 
HETATM   38  C16 UNL     1       5.865   0.980   1.849  1.00  0.00     0.344 A 
ATOM     39  H11 UNL     1       7.677   0.578   2.752  1.00  0.00     0.189 HD
HETATM   40  O2  UNL     1       5.249   0.901   2.925  1.00  0.00    -0.246 OA
BRANCH  35  41
HETATM   41  N10 UNL     1       9.211   0.658   0.813  1.00  0.00    -0.234 N 
ATOM     42 2H10 UNL     1       9.764   0.711  -0.042  1.00  0.00     0.174 HD
ATOM     43 1H10 UNL     1       9.688   0.453   1.691  1.00  0.00     0.174 HD
ENDBRANCH  35  41
ENDBRANCH  30  31
ENDBRANCH  29  30
ENDBRANCH  28  29
ENDBRANCH   4  28
TORSDOF 10
