REMARK  4 active torsions:
REMARK  status: ('A' for Active; 'I' for Inactive)
REMARK    1  A    between atoms: N1_1  and  C1_5 
REMARK    2  A    between atoms: C1_5  and  C2_6 
REMARK    3  A    between atoms: C2_6  and  N2_7 
REMARK    4  A    between atoms: N2_7  and  C3_9 
ROOT
HETATM    1  C3  UNL     1       0.056   0.269   0.518  1.00  0.00     0.132 A 
HETATM    2  N3  UNL     1       0.385   1.561   0.376  1.00  0.00    -0.337 N 
ATOM      3  H3  UNL     1       1.361   1.856   0.381  1.00  0.00     0.168 HD
HETATM    4  C4  UNL     1      -0.608   2.459   0.226  1.00  0.00     0.182 A 
HETATM    5  N4  UNL     1      -1.906   2.101   0.214  1.00  0.00    -0.346 N 
ATOM      6  H4  UNL     1      -2.626   2.814   0.097  1.00  0.00     0.167 HD
HETATM    7  C5  UNL     1      -2.259   0.818   0.354  1.00  0.00     0.133 A 
HETATM    8  C6  UNL     1      -3.591   0.415   0.346  1.00  0.00     0.278 A 
HETATM    9  O1  UNL     1      -4.498   1.286   0.202  1.00  0.00    -0.265 OA
HETATM   10  N5  UNL     1      -3.856  -0.886   0.492  1.00  0.00    -0.274 N 
ATOM     11  H5  UNL     1      -4.828  -1.196   0.489  1.00  0.00     0.173 HD
HETATM   12  C7  UNL     1      -2.880  -1.801   0.643  1.00  0.00     0.327 A 
HETATM   13  O2  UNL     1      -3.128  -3.039   0.782  1.00  0.00    -0.247 OA
HETATM   14  N6  UNL     1      -1.593  -1.437   0.654  1.00  0.00    -0.303 N 
ATOM     15  H6  UNL     1      -0.859  -2.135   0.770  1.00  0.00     0.171 HD
HETATM   16  C8  UNL     1      -1.281  -0.135   0.510  1.00  0.00     0.113 A 
ENDROOT
BRANCH   1  17
HETATM   17  N2  UNL     1       0.925  -0.653   0.666  1.00  0.00    -0.373 N 
ATOM     18  H2  UNL     1       0.578  -1.607   0.766  1.00  0.00     0.161 HD
BRANCH  17  19
HETATM   19  C2  UNL     1       2.348  -0.467   0.704  1.00  0.00     0.148 C 
BRANCH  19  20
HETATM   20  C1  UNL     1       2.822  -0.430  -0.755  1.00  0.00     0.249 C 
BRANCH  20  21
HETATM   21  N1  UNL     1       4.273  -0.240  -0.732  1.00  0.00    -0.078 N 
ATOM     22  H13 UNL     1       4.561   0.579  -0.197  1.00  0.00     0.274 HD
ATOM     23  H12 UNL     1       4.759  -0.940  -0.171  1.00  0.00     0.274 HD
ATOM     24  H11 UNL     1       4.588  -0.215  -1.702  1.00  0.00     0.274 HD
ENDBRANCH  20  21
ENDBRANCH  19  20
ENDBRANCH  17  19
ENDBRANCH   1  17
TORSDOF 4
