REMARK  3 active torsions:
REMARK  status: ('A' for Active; 'I' for Inactive)
REMARK    1  A    between atoms: N1_1  and  C1_4 
REMARK    2  A    between atoms: C2_7  and  O1_8 
REMARK    3  A    between atoms: O1_8  and  C3_9 
ROOT
HETATM    1  O1  UNL     1       0.305   0.052   0.914  1.00  0.00    -0.296 OA
ENDROOT
BRANCH   1   2
HETATM    2  C2  UNL     1       1.563  -0.080   0.364  1.00  0.00     0.254 A 
HETATM    3  N2  UNL     1       2.722  -0.082   1.057  1.00  0.00    -0.153 N 
HETATM    4  C1  UNL     1       3.756  -0.230   0.211  1.00  0.00     0.693 A 
ATOM      5  H2  UNL     1       2.801   0.014   2.069  1.00  0.00     0.188 HD
HETATM    6  N6  UNL     1       3.202  -0.317  -1.011  1.00  0.00    -0.129 N 
HETATM    7  N5  UNL     1       1.877  -0.228  -0.935  1.00  0.00    -0.250 N 
ATOM      8  H6  UNL     1       3.726  -0.435  -1.878  1.00  0.00     0.205 HD
ATOM      9  H5  UNL     1       1.222  -0.265  -1.716  1.00  0.00     0.191 HD
BRANCH   4  10
HETATM   10  N1  UNL     1       5.015  -0.276   0.525  1.00  0.00    -0.233 N 
ATOM     11  H12 UNL     1       5.435  -0.210   1.452  1.00  0.00     0.174 HD
ATOM     12  H11 UNL     1       5.800  -0.388  -0.117  1.00  0.00     0.174 HD
ENDBRANCH   4  10
ENDBRANCH   1   2
BRANCH   1  13
HETATM   13  C3  UNL     1      -0.883   0.049   0.141  1.00  0.00     0.316 C 
HETATM   14  C4  UNL     1      -1.565   1.358   0.248  1.00  0.00     0.264 C 
HETATM   15  O2  UNL     1      -0.854   2.385   0.389  1.00  0.00    -0.270 OA
HETATM   16  N3  UNL     1      -2.980   1.467   0.195  1.00  0.00    -0.276 N 
HETATM   17  C5  UNL     1      -3.787   0.307   0.283  1.00  0.00     0.329 C 
ATOM     18  H3  UNL     1      -3.416   2.383   0.093  1.00  0.00     0.173 HD
HETATM   19  O3  UNL     1      -5.031   0.401   0.237  1.00  0.00    -0.247 OA
HETATM   20  N4  UNL     1      -3.156  -0.977   0.426  1.00  0.00    -0.276 N 
HETATM   21  C6  UNL     1      -1.747  -1.099   0.480  1.00  0.00     0.264 C 
ATOM     22  H4  UNL     1      -3.734  -1.815   0.490  1.00  0.00     0.173 HD
HETATM   23  O4  UNL     1      -1.239  -2.181   0.815  1.00  0.00    -0.270 OA
ENDBRANCH   1  13
TORSDOF 3
