REMARK  8 active torsions:
REMARK  status: ('A' for Active; 'I' for Inactive)
REMARK    1  A    between atoms: N2_3  and  S1_4 
REMARK    2  A    between atoms: S1_4  and  N3_5 
REMARK    3  A    between atoms: S1_4  and  N4_8 
REMARK    4  A    between atoms: S1_4  and  N9_21 
REMARK    5  A    between atoms: N4_8  and  C2_10 
REMARK    6  A    between atoms: C2_10  and  N5_11 
REMARK    7  A    between atoms: C4_15  and  N7_16 
REMARK    8  A    between atoms: N9_21  and  N10_22 
ROOT
HETATM    1  N1  UNL     1      -0.526   3.563  -1.181  1.00  0.00    -0.176 NA
HETATM    2  C1  UNL     1      -1.033   2.486  -1.227  1.00  0.00     0.184 C 
HETATM    3  N2  UNL     1      -1.703   1.223  -1.300  1.00  0.00    -0.030 NA
ENDROOT
BRANCH   3   4
HETATM    4  S1  UNL     1      -1.626   0.474   0.111  1.00  0.00     0.089 SA
BRANCH   4   5
HETATM    5  N3  UNL     1      -2.506   1.382   1.254  1.00  0.00    -0.349 N 
ATOM      6  H32 UNL     1      -2.995   2.255   1.056  1.00  0.00     0.166 HD
ATOM      7  H31 UNL     1      -2.457   0.904   2.154  1.00  0.00     0.166 HD
ENDBRANCH   4   5
BRANCH   4   8
HETATM    8  N4  UNL     1      -0.079   0.654   0.422  1.00  0.00    -0.322 N 
ATOM      9  H4  UNL     1       0.270   0.664   1.381  1.00  0.00     0.171 HD
BRANCH   8  10
HETATM   10  C2  UNL     1       0.814   0.803  -0.698  1.00  0.00     0.281 C 
BRANCH  10  11
HETATM   11  N5  UNL     1       1.680  -0.352  -0.439  1.00  0.00    -0.255 N 
HETATM   12  C3  UNL     1       1.531  -1.606  -0.885  1.00  0.00     0.220 A 
HETATM   13  N6  UNL     1       2.509  -2.397  -0.429  1.00  0.00    -0.185 N 
HETATM   14  C4  UNL     1       3.283  -1.586   0.326  1.00  0.00     0.691 A 
ATOM     15  H6  UNL     1       2.641  -3.392  -0.611  1.00  0.00     0.185 HD
HETATM   16  N8  UNL     1       2.764  -0.358   0.305  1.00  0.00    -0.128 N 
ATOM     17  H8  UNL     1       3.149   0.452   0.791  1.00  0.00     0.206 HD
BRANCH  14  18
HETATM   18  N7  UNL     1       4.341  -1.937   0.959  1.00  0.00    -0.233 N 
ATOM     19  H72 UNL     1       4.738  -2.876   0.975  1.00  0.00     0.174 HD
ATOM     20  H71 UNL     1       4.925  -1.325   1.529  1.00  0.00     0.174 HD
ENDBRANCH  14  18
ENDBRANCH  10  11
ENDBRANCH   8  10
ENDBRANCH   4   8
BRANCH   4  21
HETATM   21  N9  UNL     1      -2.081  -1.157   0.005  1.00  0.00    -0.040 NA
BRANCH  21  22
HETATM   22  N10 UNL     1      -3.455  -1.245   0.346  1.00  0.00    -0.335 N 
ATOM     23 2H10 UNL     1      -4.050  -0.459   0.606  1.00  0.00     0.173 HD
ATOM     24 1H10 UNL     1      -3.729  -2.226   0.282  1.00  0.00     0.173 HD
ENDBRANCH  21  22
ENDBRANCH   4  21
ENDBRANCH   3   4
TORSDOF 8
