REMARK  4 active torsions:
REMARK  status: ('A' for Active; 'I' for Inactive)
REMARK    1  A    between atoms: N1_1  and  O1_4 
REMARK    2  A    between atoms: O1_4  and  C1_5 
REMARK    3  A    between atoms: C1_5  and  C2_6 
REMARK    4  A    between atoms: C2_6  and  N2_7 
ROOT
HETATM    1  N2  UNL     1      -0.119   0.445  -0.622  1.00  0.00    -0.281 N 
HETATM    2  C3  UNL     1      -0.303   1.758  -0.738  1.00  0.00     0.331 A 
HETATM    3  O2  UNL     1       0.630   2.443  -1.204  1.00  0.00    -0.246 OA
HETATM    4  N3  UNL     1      -1.433   2.394  -0.385  1.00  0.00    -0.273 N 
ATOM      5  H3  UNL     1      -1.535   3.403  -0.490  1.00  0.00     0.173 HD
HETATM    6  C4  UNL     1      -2.426   1.630   0.116  1.00  0.00     0.280 A 
HETATM    7  O3  UNL     1      -3.501   2.202   0.456  1.00  0.00    -0.265 OA
HETATM    8  C5  UNL     1      -2.311   0.256   0.268  1.00  0.00     0.150 A 
HETATM    9  N4  UNL     1      -3.151  -0.676   0.733  1.00  0.00    -0.301 N 
ATOM     10  H4  UNL     1      -4.097  -0.530   1.085  1.00  0.00     0.171 HD
HETATM   11  C6  UNL     1      -2.492  -1.846   0.642  1.00  0.00     0.326 A 
HETATM   12  O4  UNL     1      -2.943  -2.957   0.980  1.00  0.00    -0.247 OA
HETATM   13  N5  UNL     1      -1.263  -1.634   0.128  1.00  0.00    -0.292 N 
ATOM     14  H5  UNL     1      -0.562  -2.355  -0.044  1.00  0.00     0.172 HD
HETATM   15  C7  UNL     1      -1.107  -0.319  -0.123  1.00  0.00     0.148 A 
ENDROOT
BRANCH   1  16
HETATM   16  C2  UNL     1       1.096  -0.173  -1.011  1.00  0.00     0.164 C 
BRANCH  16  17
HETATM   17  C1  UNL     1       2.136  -0.271   0.065  1.00  0.00     0.220 C 
BRANCH  17  18
HETATM   18  O1  UNL     1       3.254  -0.900  -0.492  1.00  0.00    -0.286 OA
BRANCH  18  19
HETATM   19  N1  UNL     1       4.181  -0.980   0.491  1.00  0.00    -0.311 N 
ATOM     20  H12 UNL     1       4.071  -0.643   1.447  1.00  0.00     0.184 HD
ATOM     21  H11 UNL     1       4.996  -1.439   0.085  1.00  0.00     0.184 HD
ENDBRANCH  18  19
ENDBRANCH  17  18
ENDBRANCH  16  17
ENDBRANCH   1  16
TORSDOF 4
