REMARK  3 active torsions:
REMARK  status: ('A' for Active; 'I' for Inactive)
REMARK    1  A    between atoms: N1_1  and  C1_4 
REMARK       I    between atoms: N4_10  and  C3_12 
REMARK    2  A    between atoms: C3_12  and  C4_14 
REMARK    3  A    between atoms: N6_16  and  N7_18 
ROOT
HETATM    1  C1  UNL     1      -3.207  -0.429   0.001  1.00  0.00     0.693 A 
HETATM    2  N2  UNL     1      -2.313   0.550   0.147  1.00  0.00    -0.131 N 
ATOM      3  H2  UNL     1      -2.619   1.444   0.530  1.00  0.00     0.205 HD
HETATM    4  N3  UNL     1      -1.024   0.397  -0.194  1.00  0.00    -0.267 N 
ATOM      5  H3  UNL     1      -0.367   1.167  -0.068  1.00  0.00     0.189 HD
HETATM    6  C2  UNL     1      -0.602  -0.767  -0.699  1.00  0.00     0.193 A 
HETATM    7  N4  UNL     1       0.648  -0.889  -1.021  1.00  0.00    -0.301 N 
ATOM      8  H4  UNL     1       0.974  -1.776  -1.406  1.00  0.00     0.171 HD
HETATM    9  C3  UNL     1       1.579   0.172  -0.855  1.00  0.00     0.289 C 
HETATM   10  O1  UNL     1       1.480   1.122  -1.697  1.00  0.00    -0.264 OA
HETATM   11  C5  UNL     1      -1.503  -1.792  -0.860  1.00  0.00     0.305 A 
HETATM   12  O2  UNL     1      -1.153  -2.896  -1.327  1.00  0.00    -0.263 OA
HETATM   13  N8  UNL     1      -2.799  -1.602  -0.503  1.00  0.00    -0.152 N 
ATOM     14  H8  UNL     1      -3.470  -2.361  -0.620  1.00  0.00     0.188 HD
ENDROOT
BRANCH   9  15
HETATM   15  C4  UNL     1       2.578   0.187   0.199  1.00  0.00     0.199 C 
HETATM   16  N5  UNL     1       2.642  -0.899   1.110  1.00  0.00    -0.075 NA
HETATM   17  N6  UNL     1       3.423   1.141   0.357  1.00  0.00    -0.290 N 
ATOM     18  H6  UNL     1       4.081   1.047   1.130  1.00  0.00     0.187 HD
BRANCH  17  19
HETATM   19  N7  UNL     1       3.530   2.270  -0.406  1.00  0.00    -0.344 N 
ATOM     20  H72 UNL     1       2.864   2.347  -1.174  1.00  0.00     0.176 HD
ATOM     21  H71 UNL     1       4.201   3.028  -0.281  1.00  0.00     0.176 HD
ENDBRANCH  17  19
ENDBRANCH   9  15
BRANCH   1  22
HETATM   22  N1  UNL     1      -4.439  -0.250   0.339  1.00  0.00    -0.233 N 
ATOM     23  H12 UNL     1      -4.749   0.643   0.723  1.00  0.00     0.174 HD
ATOM     24  H11 UNL     1      -5.123  -0.999   0.227  1.00  0.00     0.174 HD
ENDBRANCH   1  22
TORSDOF 3
