REMARK  3 active torsions:
REMARK  status: ('A' for Active; 'I' for Inactive)
REMARK    1  A    between atoms: N1_1  and  C1_5 
REMARK    2  A    between atoms: C1_5  and  N2_6 
REMARK    3  A    between atoms: C1_5  and  C2_10 
REMARK       I    between atoms: C2_10  and  N3_12 
ROOT
HETATM    1  C2  UNL     1      -1.176  -1.019   0.352  1.00  0.00     0.281 C 
HETATM    2  O1  UNL     1      -1.024  -2.286   0.387  1.00  0.00    -0.269 OA
HETATM    3  N3  UNL     1      -0.349  -0.204   1.129  1.00  0.00    -0.304 N 
ATOM      4  H3  UNL     1      -0.681   0.096   2.046  1.00  0.00     0.170 HD
HETATM    5  C3  UNL     1       0.807   0.183   0.741  1.00  0.00     0.192 A 
HETATM    6  N4  UNL     1       1.551   0.986   1.576  1.00  0.00    -0.277 N 
ATOM      7  H4  UNL     1       1.180   1.262   2.485  1.00  0.00     0.189 HD
HETATM    8  N5  UNL     1       2.742   1.395   1.196  1.00  0.00    -0.250 N 
ATOM      9  H5  UNL     1       3.279   1.989   1.827  1.00  0.00     0.192 HD
HETATM   10  C4  UNL     1       3.280   1.062   0.010  1.00  0.00     0.341 A 
HETATM   11  O2  UNL     1       4.432   1.499  -0.276  1.00  0.00    -0.245 OA
HETATM   12  N6  UNL     1       2.599   0.281  -0.844  1.00  0.00    -0.271 N 
ATOM     13  H6  UNL     1       2.996   0.021  -1.747  1.00  0.00     0.174 HD
HETATM   14  C5  UNL     1       1.363  -0.155  -0.471  1.00  0.00     0.295 A 
HETATM   15  O3  UNL     1       0.747  -0.891  -1.302  1.00  0.00    -0.264 OA
ENDROOT
BRANCH   1  16
HETATM   16  C1  UNL     1      -2.239  -0.466  -0.521  1.00  0.00     0.468 C 
BRANCH  16  17
HETATM   17  N1  UNL     1      -2.915  -1.520  -1.249  1.00  0.00    -0.042 N 
ATOM     18  H13 UNL     1      -3.368  -2.193  -0.630  1.00  0.00     0.277 HD
ATOM     19  H12 UNL     1      -3.750  -1.187  -1.731  1.00  0.00     0.277 HD
ATOM     20  H11 UNL     1      -2.248  -1.960  -1.883  1.00  0.00     0.277 HD
ENDBRANCH  16  17
BRANCH  16  21
HETATM   21  N2  UNL     1      -3.199   0.168   0.391  1.00  0.00    -0.042 N 
ATOM     22  H23 UNL     1      -4.034   0.501  -0.091  1.00  0.00     0.277 HD
ATOM     23  H22 UNL     1      -3.652  -0.505   1.010  1.00  0.00     0.277 HD
ATOM     24  H21 UNL     1      -2.723   0.910   0.904  1.00  0.00     0.277 HD
ENDBRANCH  16  21
ENDBRANCH   1  16
TORSDOF 3
