REMARK  2 active torsions:
REMARK  status: ('A' for Active; 'I' for Inactive)
REMARK    1  A    between atoms: N1_1  and  N2_4 
REMARK       I    between atoms: N2_4  and  C1_6 
REMARK    2  A    between atoms: N4_8  and  N5_10 
ROOT
HETATM    1  N5  UNL     1      -0.028  -1.043   0.657  1.00  0.00    -0.280 N 
ATOM      2  H5  UNL     1      -0.141  -2.042   0.832  1.00  0.00     0.189 HD
HETATM    3  C2  UNL     1       1.110  -0.556   0.250  1.00  0.00     0.181 A 
HETATM    4  N6  UNL     1       1.303   0.829  -0.004  1.00  0.00    -0.290 N 
ATOM      5  H6  UNL     1       0.522   1.469   0.137  1.00  0.00     0.172 HD
HETATM    6  C3  UNL     1       2.543   1.350  -0.446  1.00  0.00     0.328 A 
HETATM    7  O1  UNL     1       2.677   2.579  -0.660  1.00  0.00    -0.247 OA
HETATM    8  N7  UNL     1       3.654   0.481  -0.654  1.00  0.00    -0.272 N 
ATOM      9  H7  UNL     1       4.544   0.863  -0.974  1.00  0.00     0.174 HD
HETATM   10  C4  UNL     1       3.529  -0.898  -0.421  1.00  0.00     0.303 A 
HETATM   11  O2  UNL     1       4.474  -1.691  -0.590  1.00  0.00    -0.263 OA
HETATM   12  C5  UNL     1       2.241  -1.453   0.041  1.00  0.00     0.284 A 
HETATM   13  O3  UNL     1       2.155  -2.685   0.241  1.00  0.00    -0.278 OA
ENDROOT
BRANCH   1  14
HETATM   14  N4  UNL     1      -1.069  -0.170   0.843  1.00  0.00    -0.271 N 
HETATM   15  C1  UNL     1      -2.299  -0.382   0.535  1.00  0.00     0.221 C 
HETATM   16  N2  UNL     1      -3.223   0.648   0.808  1.00  0.00    -0.279 N 
HETATM   17  N3  UNL     1      -2.672  -1.607  -0.050  1.00  0.00    -0.061 NA
ATOM     18  H2  UNL     1      -3.617   0.739   1.745  1.00  0.00     0.189 HD
ATOM     19  H4  UNL     1      -0.847   0.732   1.265  1.00  0.00     0.189 HD
BRANCH  16  20
HETATM   20  N1  UNL     1      -3.602   1.540  -0.188  1.00  0.00    -0.343 N 
ATOM     21  H12 UNL     1      -3.199   1.435  -1.119  1.00  0.00     0.176 HD
ATOM     22  H11 UNL     1      -4.270   2.285   0.009  1.00  0.00     0.176 HD
ENDBRANCH  16  20
ENDBRANCH   1  14
TORSDOF 2
