REMARK  2 active torsions:
REMARK  status: ('A' for Active; 'I' for Inactive)
REMARK    1  A    between atoms: N1_1  and  N2_4 
REMARK       I    between atoms: N2_4  and  C1_6 
REMARK       I    between atoms: C1_6  and  N3_8 
REMARK    2  A    between atoms: N3_8  and  C2_10 
ROOT
HETATM    1  C2  UNL     1      -0.202  -0.158   0.623  1.00  0.00     0.693 C 
HETATM    2  N4  UNL     1      -0.540   0.066  -0.656  1.00  0.00    -0.141 N 
ATOM      3  H4  UNL     1       0.256   0.196  -1.280  1.00  0.00     0.189 HD
HETATM    4  C3  UNL     1      -1.734   0.151  -1.266  1.00  0.00     0.341 C 
HETATM    5  O2  UNL     1      -1.759   0.363  -2.506  1.00  0.00    -0.246 OA
HETATM    6  N5  UNL     1      -2.943   0.031  -0.681  1.00  0.00    -0.270 N 
ATOM      7  H5  UNL     1      -3.732   0.378  -1.226  1.00  0.00     0.174 HD
HETATM    8  C4  UNL     1      -3.249  -0.483   0.521  1.00  0.00     0.318 C 
HETATM    9  O3  UNL     1      -4.453  -0.691   0.811  1.00  0.00    -0.262 OA
HETATM   10  C5  UNL     1      -2.369  -0.831   1.528  1.00  0.00     0.328 C 
HETATM   11  O4  UNL     1      -2.863  -1.301   2.575  1.00  0.00    -0.261 OA
HETATM   12  N6  UNL     1      -1.008  -0.734   1.549  1.00  0.00    -0.151 N 
ATOM     13  H6  UNL     1      -0.541  -1.144   2.358  1.00  0.00     0.188 HD
ENDROOT
BRANCH   1  14
HETATM   14  N3  UNL     1       0.934   0.164   1.070  1.00  0.00    -0.140 N 
HETATM   15  C1  UNL     1       1.983   0.775   0.359  1.00  0.00     0.352 C 
HETATM   16  N2  UNL     1       3.257   0.161   0.341  1.00  0.00    -0.258 N 
HETATM   17  O1  UNL     1       1.819   1.852  -0.260  1.00  0.00    -0.245 OA
ATOM     18  H2  UNL     1       3.417  -0.716   0.837  1.00  0.00     0.191 HD
ATOM     19  H3  UNL     1       1.110  -0.041   2.053  1.00  0.00     0.189 HD
BRANCH  16  20
HETATM   20  N1  UNL     1       4.288   0.773  -0.365  1.00  0.00    -0.341 N 
ATOM     21  H12 UNL     1       4.111   1.649  -0.856  1.00  0.00     0.177 HD
ATOM     22  H11 UNL     1       5.207   0.330  -0.378  1.00  0.00     0.177 HD
ENDBRANCH  16  20
ENDBRANCH   1  14
TORSDOF 2
