REMARK  3 active torsions:
REMARK  status: ('A' for Active; 'I' for Inactive)
REMARK    1  A    between atoms: N1_1  and  N2_4 
REMARK    2  A    between atoms: N2_4  and  N3_5 
REMARK    3  A    between atoms: N3_5  and  N4_6 
REMARK       I    between atoms: N4_6  and  C1_8 
REMARK       I    between atoms: C1_8  and  N5_10 
ROOT
HETATM    1  N4  UNL     1       1.954  -0.570  -0.203  1.00  0.00    -0.237 N 
ATOM      2  H4  UNL     1       1.697  -1.250   0.512  1.00  0.00     0.188 HD
HETATM    3  C1  UNL     1       0.979  -0.193  -1.167  1.00  0.00     0.338 C 
HETATM    4  O1  UNL     1       1.360   0.659  -2.037  1.00  0.00    -0.245 OA
HETATM    5  N5  UNL     1      -0.337  -0.693  -1.209  1.00  0.00    -0.289 N 
ATOM      6  H5  UNL     1      -0.473  -1.546  -1.751  1.00  0.00     0.172 HD
HETATM    7  C2  UNL     1      -1.370  -0.217  -0.659  1.00  0.00     0.184 A 
HETATM    8  N6  UNL     1      -2.573  -0.851  -0.817  1.00  0.00    -0.289 N 
ATOM      9  H6  UNL     1      -2.644  -1.702  -1.374  1.00  0.00     0.172 HD
HETATM   10  C3  UNL     1      -3.658  -0.329  -0.223  1.00  0.00     0.340 A 
HETATM   11  O2  UNL     1      -4.787  -0.890  -0.349  1.00  0.00    -0.245 OA
HETATM   12  N7  UNL     1      -3.569   0.799   0.518  1.00  0.00    -0.248 N 
ATOM     13  H7  UNL     1      -4.406   1.178   0.962  1.00  0.00     0.192 HD
HETATM   14  N8  UNL     1      -2.416   1.412   0.673  1.00  0.00    -0.259 N 
ATOM     15  H8  UNL     1      -2.371   2.262   1.235  1.00  0.00     0.190 HD
HETATM   16  C4  UNL     1      -1.282   0.930   0.095  1.00  0.00     0.304 A 
HETATM   17  O3  UNL     1      -0.173   1.505   0.235  1.00  0.00    -0.263 OA
ENDROOT
BRANCH   1  18
HETATM   18  N3  UNL     1       3.247  -0.048  -0.195  1.00  0.00    -0.005 NA
BRANCH  18  19
HETATM   19  N2  UNL     1       3.998  -0.596   0.823  1.00  0.00    -0.016 NA
BRANCH  19  20
HETATM   20  N1  UNL     1       3.891   0.150   1.994  1.00  0.00    -0.330 N 
ATOM     21  H12 UNL     1       3.324   0.994   2.073  1.00  0.00     0.173 HD
ATOM     22  H11 UNL     1       4.447  -0.255   2.747  1.00  0.00     0.173 HD
ENDBRANCH  19  20
ENDBRANCH  18  19
ENDBRANCH   1  18
TORSDOF 3
