REMARK  2 active torsions:
REMARK  status: ('A' for Active; 'I' for Inactive)
REMARK    1  A    between atoms: C4_13  and  N4_14 
REMARK    2  A    between atoms: C4_13  and  C5_18 
ROOT
HETATM    1  N1  UNL     1       1.499   2.749  -0.381  1.00  0.00    -0.235 N 
ATOM      2  H11 UNL     1       0.844   3.183  -1.031  1.00  0.00     0.174 HD
ATOM      3  H12 UNL     1       2.289   3.164   0.113  1.00  0.00     0.174 HD
HETATM    4  C1  UNL     1       1.272   1.493  -0.172  1.00  0.00     0.678 C 
HETATM    5  N2  UNL     1       2.186   0.887   0.735  1.00  0.00    -0.141 N 
ATOM      6  H2  UNL     1       2.858   1.509   1.184  1.00  0.00     0.189 HD
HETATM    7  C2  UNL     1       2.266  -0.497   1.086  1.00  0.00     0.341 C 
HETATM    8  O1  UNL     1       3.206  -0.850   1.865  1.00  0.00    -0.246 OA
HETATM    9  N3  UNL     1       1.396  -1.525   0.651  1.00  0.00    -0.274 N 
ATOM     10  H3  UNL     1       1.698  -2.482   0.836  1.00  0.00     0.173 HD
HETATM   11  C3  UNL     1       0.150  -1.374  -0.014  1.00  0.00     0.292 C 
HETATM   12  O2  UNL     1      -0.417  -2.492  -0.210  1.00  0.00    -0.268 OA
HETATM   13  C4  UNL     1      -0.610  -0.212  -0.515  1.00  0.00     0.367 C 
HETATM   14  N6  UNL     1       0.176   0.917  -0.857  1.00  0.00    -0.175 N 
ATOM     15  H6  UNL     1      -0.087   1.383  -1.725  1.00  0.00     0.181 HD
ENDROOT
BRANCH  13  16
HETATM   16  N4  UNL     1      -1.295  -0.683  -1.731  1.00  0.00    -0.034 N 
ATOM     17  H43 UNL     1      -0.667  -1.091  -2.423  1.00  0.00     0.278 HD
ATOM     18  H42 UNL     1      -1.867  -1.514  -1.583  1.00  0.00     0.278 HD
ATOM     19  H41 UNL     1      -1.820   0.120  -2.077  1.00  0.00     0.278 HD
ENDBRANCH  13  16
BRANCH  13  20
HETATM   20  C5  UNL     1      -1.685   0.198   0.430  1.00  0.00     0.298 C 
HETATM   21  N5  UNL     1      -2.631  -0.714   0.950  1.00  0.00    -0.058 NA
HETATM   22  O3  UNL     1      -1.723   1.433   0.761  1.00  0.00    -0.271 OA
ENDBRANCH  13  20
TORSDOF 2
