REMARK  2 active torsions:
REMARK  status: ('A' for Active; 'I' for Inactive)
REMARK    1  A    between atoms: C5_8  and  C6_9 
REMARK    2  A    between atoms: C10_15  and  N2_16 
ROOT
HETATM    1  C1  UNL     1      -1.496  -1.293  -1.431  1.00  0.00     0.023 C 
HETATM    2  C2  UNL     1      -0.906  -0.613  -0.186  1.00  0.00     0.019 C 
HETATM    3  C3  UNL     1      -1.607  -1.239   1.020  1.00  0.00     0.023 C 
HETATM    4  C4  UNL     1       0.514  -0.942  -0.091  1.00  0.00    -0.001 C 
HETATM    5  N1  UNL     1       0.736  -2.177   0.233  1.00  0.00    -0.404 N 
ATOM      6  H11 UNL     1       1.728  -2.407   0.299  1.00  0.00     0.155 HD
ATOM      7  H12 UNL     1      -0.116  -2.721   0.369  1.00  0.00     0.155 HD
HETATM    8  C5  UNL     1       1.751  -0.152  -0.288  1.00  0.00     0.097 C 
HETATM    9  C7  UNL     1       1.811   1.021   0.671  1.00  0.00     0.016 C 
HETATM   10  C8  UNL     1       0.846   2.068   0.126  1.00  0.00     0.003 C 
HETATM   11  C9  UNL     1      -0.521   1.713   0.685  1.00  0.00     0.034 C 
HETATM   12  C10 UNL     1      -1.207   0.839  -0.317  1.00  0.00     0.197 C 
ENDROOT
BRANCH  12  13
HETATM   13  N2  UNL     1      -2.651   1.006  -0.286  1.00  0.00    -0.074 N 
ATOM     14  H23 UNL     1      -3.128   0.440  -0.988  1.00  0.00     0.274 HD
ATOM     15  H22 UNL     1      -3.078   0.588   0.541  1.00  0.00     0.274 HD
ATOM     16  H21 UNL     1      -2.857   2.001  -0.376  1.00  0.00     0.274 HD
ENDBRANCH  12  13
BRANCH   8  17
HETATM   17  C6  UNL     1       2.984  -0.980  -0.062  1.00  0.00     0.362 C 
HETATM   18  F1  UNL     1       4.084  -0.163  -0.268  1.00  0.00    -0.214 F 
HETATM   19  F2  UNL     1       3.096  -2.048  -0.908  1.00  0.00    -0.214 F 
ENDBRANCH   8  17
TORSDOF 2
