REMARK  1 active torsions:
REMARK  status: ('A' for Active; 'I' for Inactive)
REMARK    1  A    between atoms: C5_5  and  C7_7 
ROOT
HETATM    1  C1  UNL     1      -1.816  -0.726  -1.109  1.00  0.00     0.038 C 
HETATM    2  C2  UNL     1      -1.041  -0.523   0.184  1.00  0.00     0.026 C 
HETATM    3  C3  UNL     1      -1.645  -1.554   1.155  1.00  0.00     0.038 C 
HETATM    4  C4  UNL     1       0.393  -0.861   0.060  1.00  0.00     0.056 C 
HETATM    5  C5  UNL     1       1.330   0.222  -0.337  1.00  0.00     0.073 C 
HETATM    6  C6  UNL     1       2.413  -0.309  -1.219  1.00  0.00     0.033 C 
HETATM    7  S1  UNL     1       0.454   1.632  -1.126  1.00  0.00    -0.079 SA
HETATM    8  C8  UNL     1      -0.938   1.899  -0.050  1.00  0.00     0.135 C 
HETATM    9  N1  UNL     1      -1.496   3.024   0.021  1.00  0.00    -0.380 N 
ATOM     10  H11 UNL     1      -2.294   3.177   0.638  1.00  0.00     0.158 HD
ATOM     11  H12 UNL     1      -1.194   3.833  -0.522  1.00  0.00     0.158 HD
HETATM   12  N2  UNL     1      -1.358   0.776   0.704  1.00  0.00    -0.363 N 
ATOM     13  H2  UNL     1      -1.866   0.886   1.582  1.00  0.00     0.162 HD
ENDROOT
BRANCH   5  14
HETATM   14  C7  UNL     1       2.028   0.832   0.889  1.00  0.00     0.371 C 
HETATM   15  F1  UNL     1       2.884   1.829   0.462  1.00  0.00    -0.213 F 
HETATM   16  F2  UNL     1       2.693  -0.126   1.609  1.00  0.00    -0.213 F 
ENDBRANCH   5  14
TORSDOF 1
