REMARK  3 active torsions:
REMARK  status: ('A' for Active; 'I' for Inactive)
REMARK    1  A    between atoms: C5_5  and  C6_6 
REMARK    2  A    between atoms: C7_10  and  C8_11 
REMARK    3  A    between atoms: C9_15  and  O1_16 
ROOT
HETATM    1  C1  UNL     1      -2.887  -0.023   0.974  1.00  0.00     0.010 C 
HETATM    2  C2  UNL     1      -1.898  -0.450  -0.089  1.00  0.00    -0.016 C 
HETATM    3  C3  UNL     1      -1.297   0.751  -0.799  1.00  0.00     0.005 C 
HETATM    4  C4  UNL     1      -0.310   1.476   0.046  1.00  0.00     0.014 C 
HETATM    5  C5  UNL     1       1.033   0.882   0.192  1.00  0.00     0.105 C 
HETATM    6  C7  UNL     1       1.321  -0.380  -0.528  1.00  0.00     0.065 C 
HETATM    7  C9  UNL     1       0.356  -1.498  -0.362  1.00  0.00     0.128 C 
HETATM    8  C10 UNL     1      -0.788  -1.242   0.570  1.00  0.00     0.036 C 
ENDROOT
BRANCH   5   9
HETATM    9  C6  UNL     1       2.018   1.940  -0.335  1.00  0.00     0.392 C 
HETATM   10  F1  UNL     1       1.712   2.190  -1.653  1.00  0.00    -0.171 F 
HETATM   11  F2  UNL     1       3.319   1.557  -0.238  1.00  0.00    -0.171 F 
HETATM   12  F3  UNL     1       1.834   3.134   0.375  1.00  0.00    -0.171 F 
ENDBRANCH   5   9
BRANCH   6  13
HETATM   13  C8  UNL     1       2.650  -0.887  -0.039  1.00  0.00     0.060 C 
HETATM   14  N1  UNL     1       2.675  -1.337   1.155  1.00  0.00    -0.411 N 
ATOM     15  H12 UNL     1       1.834  -1.345   1.731  1.00  0.00     0.155 HD
ATOM     16  H11 UNL     1       3.576  -1.681   1.487  1.00  0.00     0.155 HD
ENDBRANCH   6  13
BRANCH   7  17
HETATM   17  O1  UNL     1      -0.117  -1.846  -1.649  1.00  0.00    -0.395 OA
ATOM     18  H1  UNL     1      -0.734  -2.561  -1.543  1.00  0.00     0.210 HD
ENDBRANCH   7  17
TORSDOF 3
