REMARK  5 active torsions:
REMARK  status: ('A' for Active; 'I' for Inactive)
REMARK    1  A    between atoms: N1_6  and  C6_8 
REMARK    2  A    between atoms: C6_8  and  O1_12 
REMARK    3  A    between atoms: C10_18  and  O2_19 
REMARK       I    between atoms: N3_22  and  C12_23 
REMARK    4  A    between atoms: C12_23  and  O4_25 
REMARK    5  A    between atoms: O4_25  and  C13_26 
ROOT
HETATM    1  C1  UNL     1       0.145   1.013  -2.529  1.00  0.00     0.033 C 
HETATM    2  C2  UNL     1       0.001   0.794  -1.052  1.00  0.00     0.090 C 
HETATM    3  C3  UNL     1      -1.324   0.695  -0.524  1.00  0.00     0.031 C 
HETATM    4  C4  UNL     1      -2.515   1.503  -0.479  1.00  0.00     0.058 C 
HETATM    5  C5  UNL     1      -3.471   0.576   0.251  1.00  0.00     0.027 C 
HETATM    6  N1  UNL     1      -4.135   1.108   1.194  1.00  0.00    -0.327 N 
ATOM      7  H1  UNL     1      -4.795   0.541   1.726  1.00  0.00     0.169 HD
HETATM    8  C7  UNL     1      -3.597  -0.859  -0.145  1.00  0.00     0.238 C 
HETATM    9  F1  UNL     1      -5.027  -1.000  -0.086  1.00  0.00    -0.239 F 
HETATM   10  C8  UNL     1      -3.136  -1.923   0.707  1.00  0.00     0.014 C 
HETATM   11  C9  UNL     1      -1.804  -2.351   1.068  1.00  0.00     0.009 C 
HETATM   12  C10 UNL     1      -0.692  -2.581   0.182  1.00  0.00     0.179 C 
HETATM   13  C11 UNL     1      -0.149  -1.771  -0.878  1.00  0.00     0.105 C 
HETATM   14  N3  UNL     1       0.558  -0.545  -0.674  1.00  0.00    -0.300 N 
HETATM   15  C12 UNL     1       1.853  -0.498  -0.096  1.00  0.00     0.367 C 
HETATM   16  O3  UNL     1       2.382  -1.584   0.245  1.00  0.00    -0.238 OA
ENDROOT
BRANCH   6  17
HETATM   17  C6  UNL     1      -3.972   2.467   1.514  1.00  0.00     0.214 C 
HETATM   18  N2  UNL     1      -3.339   2.764   2.589  1.00  0.00    -0.365 N 
ATOM     19  H22 UNL     1      -2.983   2.000   3.163  1.00  0.00     0.159 HD
ATOM     20  H21 UNL     1      -3.221   3.750   2.821  1.00  0.00     0.159 HD
BRANCH  17  21
HETATM   21  O1  UNL     1      -4.455   3.505   0.734  1.00  0.00    -0.333 OA
ATOM     22  H1  UNL     1      -4.345   4.423   0.950  1.00  0.00     0.220 HD
ENDBRANCH  17  21
ENDBRANCH   6  17
BRANCH  12  23
HETATM   23  O2  UNL     1      -0.926  -3.870  -0.398  1.00  0.00    -0.387 OA
ATOM     24  H2  UNL     1      -0.193  -4.022  -0.982  1.00  0.00     0.210 HD
ENDBRANCH  12  23
BRANCH  15  25
HETATM   25  O4  UNL     1       2.553   0.654   0.109  1.00  0.00    -0.294 OA
BRANCH  25  26
HETATM   26  C13 UNL     1       3.842   0.738   0.680  1.00  0.00     0.061 C 
HETATM   27  C14 UNL     1       4.871  -0.028  -0.117  1.00  0.00     0.046 C 
HETATM   28  C15 UNL     1       4.246   2.201   0.635  1.00  0.00     0.046 C 
HETATM   29  C16 UNL     1       3.811   0.303   2.109  1.00  0.00     0.046 C 
ENDBRANCH  25  26
ENDBRANCH  15  25
TORSDOF 5
