REMARK  2 active torsions:
REMARK  status: ('A' for Active; 'I' for Inactive)
REMARK    1  A    between atoms: C9_9  and  O1_10 
REMARK    2  A    between atoms: C14_17  and  O2_18 
ROOT
HETATM    1  C1  UNL     1      -3.920  -2.136   0.137  1.00  0.00     0.039 C 
HETATM    2  C2  UNL     1      -2.504  -1.667   0.421  1.00  0.00     0.118 C 
HETATM    3  C3  UNL     1      -2.101  -0.800  -0.762  1.00  0.00     0.045 C 
HETATM    4  C4  UNL     1      -1.035   0.084  -0.102  1.00  0.00     0.009 C 
HETATM    5  C5  UNL     1      -1.673   0.268   1.212  1.00  0.00     0.132 C 
HETATM    6  C6  UNL     1      -2.711   1.355   1.016  1.00  0.00     0.033 C 
HETATM    7  C7  UNL     1      -2.485   1.967  -0.325  1.00  0.00     0.010 C 
HETATM    8  C8  UNL     1      -1.149   1.422  -0.785  1.00  0.00     0.027 C 
HETATM    9  C9  UNL     1      -0.095   2.418  -0.419  1.00  0.00     0.123 C 
HETATM   10  C10 UNL     1       1.066   1.857   0.319  1.00  0.00     0.041 C 
HETATM   11  C11 UNL     1       1.443   0.534  -0.368  1.00  0.00     0.046 C 
HETATM   12  C12 UNL     1       2.760   0.130   0.152  1.00  0.00     0.130 C 
HETATM   13  C13 UNL     1       3.820   0.728  -0.795  1.00  0.00     0.055 C 
HETATM   14  F1  UNL     1       3.010   0.761   1.382  1.00  0.00    -0.240 F 
HETATM   15  C14 UNL     1       3.095  -1.288   0.316  1.00  0.00     0.164 C 
HETATM   16  C15 UNL     1       1.953  -2.212   0.620  1.00  0.00     0.114 C 
HETATM   17  C16 UNL     1       0.765  -1.355   0.918  1.00  0.00     0.139 C 
HETATM   18  O3  UNL     1       0.301  -1.480   2.025  1.00  0.00    -0.297 OA
HETATM   19  C17 UNL     1       0.329  -0.483  -0.174  1.00  0.00     0.034 C 
HETATM   20  C18 UNL     1       0.399  -1.336  -1.458  1.00  0.00     0.025 C 
HETATM   21  O4  UNL     1      -2.417  -0.881   1.536  1.00  0.00    -0.380 OA
ENDROOT
BRANCH   9  22
HETATM   22  O1  UNL     1       0.401   2.945  -1.635  1.00  0.00    -0.395 OA
ATOM     23  H1  UNL     1       1.070   3.578  -1.403  1.00  0.00     0.210 HD
ENDBRANCH   9  22
BRANCH  15  24
HETATM   24  O2  UNL     1       4.045  -1.454   1.326  1.00  0.00    -0.392 OA
ATOM     25  H2  UNL     1       4.262  -2.373   1.432  1.00  0.00     0.210 HD
ENDBRANCH  15  24
TORSDOF 2
