REMARK  14 active torsions:
REMARK  status: ('A' for Active; 'I' for Inactive)
REMARK    1  A    between atoms: C4_4  and  C5_5 
REMARK    2  A    between atoms: C5_5  and  N1_6 
REMARK    3  A    between atoms: C5_5  and  C6_10 
REMARK    4  A    between atoms: N1_6  and  O1_8 
REMARK    5  A    between atoms: C10_14  and  C11_15 
REMARK    6  A    between atoms: C11_15  and  C12_16 
REMARK    7  A    between atoms: C12_16  and  C13_17 
REMARK    8  A    between atoms: C12_16  and  N3_26 
REMARK       I    between atoms: C13_17  and  N2_19 
REMARK    9  A    between atoms: N2_19  and  C14_21 
REMARK   10  A    between atoms: C14_21  and  C15_22 
REMARK   11  A    between atoms: C15_22  and  C16_23 
REMARK   12  A    between atoms: C16_23  and  O3_24 
REMARK   13  A    between atoms: C18_30  and  C19_31 
REMARK       I    between atoms: C19_31  and  N5_33 
REMARK   14  A    between atoms: N6_37  and  C23_38 
ROOT
HETATM    1  C12 UNL     1       0.769  -0.125   0.391  1.00  0.00     0.182 C 
ENDROOT
BRANCH   1   2
HETATM    2  C11 UNL     1       1.502  -0.001  -0.917  1.00  0.00     0.040 C 
BRANCH   2   3
HETATM    3  C10 UNL     1       2.999   0.154  -0.734  1.00  0.00    -0.012 C 
HETATM    4  C9  UNL     1       3.584   0.260  -2.115  1.00  0.00     0.005 C 
HETATM    5  C8  UNL     1       4.948   0.855  -2.146  1.00  0.00     0.001 C 
HETATM    6  C7  UNL     1       4.816   2.263  -1.546  1.00  0.00     0.010 C 
HETATM    7  C6  UNL     1       4.526   2.079  -0.098  1.00  0.00     0.034 C 
HETATM    8  C29 UNL     1       3.222   1.366   0.113  1.00  0.00     0.015 C 
BRANCH   7   9
HETATM    9  C5  UNL     1       5.637   1.490   0.667  1.00  0.00     0.018 C 
BRANCH   9  10
HETATM   10  C4  UNL     1       6.935   2.138   0.822  1.00  0.00     0.038 A 
HETATM   11  C2  UNL     1       7.797   2.414  -0.334  1.00  0.00    -0.008 A 
HETATM   12  C1  UNL     1       8.508   3.757  -0.352  1.00  0.00     0.011 C 
HETATM   13  C3  UNL     1       8.226   1.419   0.742  1.00  0.00     0.016 A 
ENDBRANCH   9  10
BRANCH   9  14
HETATM   14  N1  UNL     1       5.430   0.340   1.223  1.00  0.00    -0.277 N 
ATOM     15  H1  UNL     1       4.513  -0.090   1.099  1.00  0.00     0.193 HD
BRANCH  14  16
HETATM   16  O1  UNL     1       6.351  -0.335   1.962  1.00  0.00    -0.290 OA
ATOM     17  H1  UNL     1       6.199  -1.179   2.370  1.00  0.00     0.244 HD
ENDBRANCH  14  16
ENDBRANCH   9  14
ENDBRANCH   7   9
ENDBRANCH   2   3
ENDBRANCH   1   2
BRANCH   1  18
HETATM   18  C13 UNL     1       1.236  -1.308   1.147  1.00  0.00     0.240 C 
HETATM   19  O2  UNL     1       1.726  -1.167   2.302  1.00  0.00    -0.271 OA
HETATM   20  N2  UNL     1       1.161  -2.628   0.632  1.00  0.00    -0.359 N 
ATOM     21  H2  UNL     1       0.769  -2.770  -0.299  1.00  0.00     0.162 HD
BRANCH  20  22
HETATM   22  C14 UNL     1       1.618  -3.778   1.376  1.00  0.00     0.125 C 
BRANCH  22  23
HETATM   23  C15 UNL     1       1.436  -5.061   0.624  1.00  0.00     0.046 C 
BRANCH  23  24
HETATM   24  C16 UNL     1       1.945  -6.200   1.491  1.00  0.00     0.165 C 
BRANCH  24  25
HETATM   25  O3  UNL     1       1.804  -7.428   0.844  1.00  0.00    -0.401 OA
ATOM     26  H3  UNL     1       2.122  -8.140   1.386  1.00  0.00     0.209 HD
ENDBRANCH  24  25
ENDBRANCH  23  24
ENDBRANCH  22  23
ENDBRANCH  20  22
ENDBRANCH   1  18
BRANCH   1  27
HETATM   27  N3  UNL     1      -0.666  -0.200   0.127  1.00  0.00    -0.337 N 
HETATM   28  C17 UNL     1      -1.249  -0.133  -1.086  1.00  0.00     0.184 A 
HETATM   29  N4  UNL     1      -2.561  -0.244  -0.839  1.00  0.00    -0.347 N 
HETATM   30  C18 UNL     1      -2.843  -0.376   0.440  1.00  0.00     0.117 A 
ATOM     31  H4  UNL     1      -3.272  -0.228  -1.570  1.00  0.00     0.167 HD
HETATM   32  C28 UNL     1      -1.598  -0.349   1.091  1.00  0.00     0.128 A 
BRANCH  30  33
HETATM   33  C19 UNL     1      -4.107  -0.524   1.145  1.00  0.00     0.271 C 
HETATM   34  O4  UNL     1      -4.128  -0.637   2.418  1.00  0.00    -0.266 OA
HETATM   35  N5  UNL     1      -5.318  -0.542   0.420  1.00  0.00    -0.345 N 
HETATM   36  C20 UNL     1      -5.348  -0.419  -0.999  1.00  0.00     0.128 C 
HETATM   37  C27 UNL     1      -6.499  -0.698   1.292  1.00  0.00     0.156 C 
HETATM   38  C21 UNL     1      -6.780  -0.541  -1.500  1.00  0.00     0.050 C 
HETATM   39  C22 UNL     1      -7.589   0.685  -1.185  1.00  0.00     0.274 C 
HETATM   40  N6  UNL     1      -8.202   0.628   0.120  1.00  0.00     0.094 N 
HETATM   41  C26 UNL     1      -7.258   0.609   1.195  1.00  0.00     0.292 C 
BRANCH  40  42
HETATM   42  C23 UNL     1      -9.129   1.695   0.313  1.00  0.00     0.223 A 
HETATM   43  C24 UNL     1      -8.545   3.085   0.271  1.00  0.00     0.038 A 
HETATM   44  C25 UNL     1      -9.538   2.629  -0.747  1.00  0.00     0.038 A 
ENDBRANCH  40  42
ENDBRANCH  30  33
ENDBRANCH   1  27
TORSDOF 14
