REMARK  13 active torsions:
REMARK  status: ('A' for Active; 'I' for Inactive)
REMARK    1  A    between atoms: C2_2  and  C3_3 
REMARK    2  A    between atoms: C3_3  and  C4_4 
REMARK    3  A    between atoms: C4_4  and  C5_5 
REMARK       I    between atoms: C5_5  and  N1_7 
REMARK    4  A    between atoms: N1_7  and  C6_9 
REMARK    5  A    between atoms: C6_9  and  C7_10 
REMARK    6  A    between atoms: C7_10  and  C8_11 
REMARK    7  A    between atoms: C8_11  and  N2_12 
REMARK       I    between atoms: N2_12  and  C9_14 
REMARK    8  A    between atoms: C9_14  and  C10_16 
REMARK    9  A    between atoms: C10_16  and  C11_17 
REMARK   10  A    between atoms: N3_23  and  C17_24 
REMARK   11  A    between atoms: C18_27  and  N5_28 
REMARK   12  A    between atoms: C25_36  and  C26_37 
REMARK   13  A    between atoms: C26_37  and  N6_38 
ROOT
HETATM    1  C3  UNL     1      -0.331   1.720   0.140  1.00  0.00    -0.014 C 
HETATM    2  C15 UNL     1      -0.359   0.392   0.908  1.00  0.00     0.032 C 
HETATM    3  C16 UNL     1      -1.760   0.379   1.453  1.00  0.00     0.142 C 
HETATM    4  N3  UNL     1      -2.535   0.904   0.336  1.00  0.00    -0.217 N 
HETATM    5  C29 UNL     1      -1.703   1.750  -0.481  1.00  0.00     0.151 C 
ENDROOT
BRANCH   4   6
HETATM    6  C17 UNL     1      -3.907   0.590   0.127  1.00  0.00     0.683 A 
HETATM    7  N4  UNL     1      -4.561  -0.274   0.937  1.00  0.00    -0.176 N 
HETATM    8  C18 UNL     1      -5.873  -0.585   0.755  1.00  0.00     0.133 A 
ATOM      9  H4  UNL     1      -4.054  -0.706   1.709  1.00  0.00     0.186 HD
HETATM   10  C23 UNL     1      -6.513   0.018  -0.295  1.00  0.00     0.054 A 
HETATM   11  C24 UNL     1      -7.820  -0.232  -0.565  1.00  0.00     0.029 A 
HETATM   12  C28 UNL     1      -5.822   0.908  -1.121  1.00  0.00     0.135 A 
HETATM   13  C25 UNL     1      -8.472   0.364  -1.620  1.00  0.00    -0.017 A 
HETATM   14  C27 UNL     1      -7.750   1.233  -2.404  1.00  0.00     0.098 A 
HETATM   15  N7  UNL     1      -6.450   1.501  -2.161  1.00  0.00    -0.351 N 
ATOM     16  H7  UNL     1      -5.942   2.150  -2.761  1.00  0.00     0.166 HD
HETATM   17  N8  UNL     1      -4.523   1.184  -0.899  1.00  0.00    -0.176 N 
ATOM     18  H8  UNL     1      -4.019   1.834  -1.502  1.00  0.00     0.186 HD
BRANCH   8  19
HETATM   19  N5  UNL     1      -6.524  -1.495   1.664  1.00  0.00    -0.362 N 
HETATM   20  C19 UNL     1      -7.518  -1.001   2.567  1.00  0.00     0.150 C 
HETATM   21  C20 UNL     1      -8.556  -2.033   2.867  1.00  0.00     0.187 C 
HETATM   22  O3  UNL     1      -7.942  -3.225   3.211  1.00  0.00    -0.388 OA
HETATM   23  C21 UNL     1      -7.305  -3.758   2.085  1.00  0.00     0.187 C 
HETATM   24  C22 UNL     1      -6.157  -2.889   1.675  1.00  0.00     0.150 C 
ENDBRANCH   8  19
BRANCH  13  25
HETATM   25  C26 UNL     1      -9.901   0.038  -1.853  1.00  0.00     0.269 C 
BRANCH  25  26
HETATM   26  N6  UNL     1     -10.737   0.945  -1.094  1.00  0.00    -0.075 N 
ATOM     27  H63 UNL     1     -10.500   0.947  -0.102  1.00  0.00     0.274 HD
ATOM     28  H62 UNL     1     -10.527   1.922  -1.297  1.00  0.00     0.274 HD
ATOM     29  H61 UNL     1     -11.719   0.721  -1.254  1.00  0.00     0.274 HD
ENDBRANCH  25  26
ENDBRANCH  13  25
ENDBRANCH   4   6
BRANCH   1  30
HETATM   30  C2  UNL     1      -0.095   2.852   1.079  1.00  0.00     0.007 C 
HETATM   31  C1  UNL     1      -0.123   4.200   0.388  1.00  0.00     0.006 C 
ENDBRANCH   1  30
BRANCH   1  32
HETATM   32  C4  UNL     1       0.702   1.680  -0.938  1.00  0.00     0.114 C 
BRANCH  32  33
HETATM   33  C5  UNL     1       2.079   1.498  -0.481  1.00  0.00     0.218 C 
HETATM   34  O1  UNL     1       2.425   1.325   0.715  1.00  0.00    -0.274 OA
HETATM   35  N1  UNL     1       3.184   1.505  -1.415  1.00  0.00    -0.361 N 
ATOM     36  H1  UNL     1       2.976   1.642  -2.404  1.00  0.00     0.162 HD
BRANCH  35  37
HETATM   37  C6  UNL     1       4.550   1.331  -1.033  1.00  0.00     0.124 C 
BRANCH  37  38
HETATM   38  C7  UNL     1       5.411   1.391  -2.259  1.00  0.00     0.039 C 
BRANCH  38  39
HETATM   39  C8  UNL     1       6.862   1.217  -1.932  1.00  0.00     0.124 C 
BRANCH  39  40
HETATM   40  N2  UNL     1       7.125  -0.063  -1.287  1.00  0.00    -0.361 N 
HETATM   41  C9  UNL     1       8.448  -0.413  -0.905  1.00  0.00     0.218 C 
HETATM   42  O2  UNL     1       9.411   0.362  -1.113  1.00  0.00    -0.274 OA
ATOM     43  H2  UNL     1       6.357  -0.710  -1.109  1.00  0.00     0.162 HD
BRANCH  41  44
HETATM   44  C10 UNL     1       8.683  -1.707  -0.255  1.00  0.00     0.111 C 
BRANCH  44  45
HETATM   45  C11 UNL     1      10.160  -1.925   0.055  1.00  0.00    -0.043 C 
HETATM   46  C12 UNL     1      10.983  -1.894  -1.219  1.00  0.00     0.015 C 
HETATM   47  C13 UNL     1      10.268  -3.263   0.763  1.00  0.00     0.015 C 
HETATM   48  C14 UNL     1      10.714  -0.855   0.960  1.00  0.00     0.015 C 
ENDBRANCH  44  45
ENDBRANCH  41  44
ENDBRANCH  39  40
ENDBRANCH  38  39
ENDBRANCH  37  38
ENDBRANCH  35  37
ENDBRANCH  32  33
ENDBRANCH   1  32
TORSDOF 13
