REMARK  14 active torsions:
REMARK  status: ('A' for Active; 'I' for Inactive)
REMARK    1  A    between atoms: C3_3  and  C4_4 
REMARK    2  A    between atoms: C4_4  and  O1_5 
REMARK    3  A    between atoms: O1_5  and  C5_6 
REMARK    4  A    between atoms: C5_6  and  C6_8 
REMARK    5  A    between atoms: C10_13  and  C11_14 
REMARK    6  A    between atoms: C12_17  and  C13_18 
REMARK    7  A    between atoms: C14_19  and  C15_20 
REMARK    8  A    between atoms: C14_19  and  C21_29 
REMARK       I    between atoms: C15_20  and  N2_22 
REMARK    9  A    between atoms: N2_22  and  C16_24 
REMARK   10  A    between atoms: C16_24  and  C19_27 
REMARK   11  A    between atoms: C21_29  and  O6_30 
REMARK   12  A    between atoms: C21_29  and  C22_32 
REMARK   13  A    between atoms: C24_36  and  C25_37 
REMARK   14  A    between atoms: C25_37  and  C26_38 
ROOT
HETATM    1  C1  UNL     1       9.250   0.022   1.475  1.00  0.00     0.112 C 
HETATM    2  C2  UNL     1       8.026   0.643   0.947  1.00  0.00    -0.109 C 
HETATM    3  C3  UNL     1       7.012   1.138   0.494  1.00  0.00    -0.080 C 
ENDROOT
BRANCH   3   4
HETATM    4  C4  UNL     1       5.789   1.715  -0.075  1.00  0.00     0.272 C 
BRANCH   4   5
HETATM    5  O1  UNL     1       4.687   1.041   0.503  1.00  0.00    -0.309 OA
BRANCH   5   6
HETATM    6  C5  UNL     1       3.365   1.286   0.189  1.00  0.00     0.271 C 
HETATM    7  O2  UNL     1       3.190   2.187  -0.686  1.00  0.00    -0.264 OA
BRANCH   6   8
HETATM    8  C6  UNL     1       2.180   0.612   0.766  1.00  0.00     0.077 A 
HETATM    9  C7  UNL     1       2.165   0.591   2.181  1.00  0.00     0.030 A 
HETATM   10  C8  UNL     1       2.359  -0.681   1.617  1.00  0.00     0.026 A 
HETATM   11  C9  UNL     1       3.128  -1.371   0.593  1.00  0.00     0.129 C 
HETATM   12  N1  UNL     1       2.376  -1.084  -0.605  1.00  0.00    -0.375 N 
HETATM   13  C10 UNL     1       2.989  -1.119  -1.814  1.00  0.00     0.171 C 
HETATM   14  C12 UNL     1       1.380  -0.058  -0.278  1.00  0.00     0.126 C 
BRANCH  13  15
HETATM   15  C11 UNL     1       2.251  -0.938  -3.052  1.00  0.00     0.214 C 
HETATM   16  O3  UNL     1       0.998  -0.841  -3.123  1.00  0.00    -0.644 OA
HETATM   17  O4  UNL     1       2.919  -0.860  -4.271  1.00  0.00    -0.644 OA
ENDBRANCH  13  15
BRANCH  14  18
HETATM   18  C13 UNL     1       0.110  -0.636   0.068  1.00  0.00     0.019 C 
HETATM   19  C14 UNL     1      -1.092  -0.035   0.130  1.00  0.00     0.066 C 
BRANCH  19  20
HETATM   20  C15 UNL     1      -2.257  -0.831   0.508  1.00  0.00     0.254 C 
HETATM   21  O5  UNL     1      -3.396  -0.369   0.593  1.00  0.00    -0.268 OA
HETATM   22  N2  UNL     1      -2.115  -2.227   0.804  1.00  0.00    -0.348 N 
ATOM     23  H2  UNL     1      -1.194  -2.663   0.758  1.00  0.00     0.163 HD
BRANCH  22  24
HETATM   24  C16 UNL     1      -3.295  -3.041   1.176  1.00  0.00     0.025 C 
HETATM   25  C17 UNL     1      -2.818  -4.438   1.536  1.00  0.00     0.038 C 
HETATM   26  C18 UNL     1      -3.928  -2.403   2.364  1.00  0.00     0.038 C 
BRANCH  24  27
HETATM   27  C19 UNL     1      -4.252  -3.114  -0.001  1.00  0.00     0.026 C 
HETATM   28  C20 UNL     1      -3.625  -3.722  -1.211  1.00  0.00     0.007 C 
ENDBRANCH  24  27
ENDBRANCH  22  24
ENDBRANCH  19  20
BRANCH  19  29
HETATM   29  C21 UNL     1      -1.209   1.350  -0.155  1.00  0.00     0.115 C 
BRANCH  29  30
HETATM   30  O6  UNL     1      -0.136   2.021  -0.455  1.00  0.00    -0.357 OA
ATOM     31  H6  UNL     1      -0.214   2.948  -0.646  1.00  0.00     0.217 HD
ENDBRANCH  29  30
BRANCH  29  32
HETATM   32  C22 UNL     1      -2.390   2.200  -0.174  1.00  0.00     0.109 A 
HETATM   33  N3  UNL     1      -3.666   2.069   0.034  1.00  0.00    -0.357 N 
HETATM   34  C23 UNL     1      -4.513   3.022  -0.063  1.00  0.00     0.104 A 
ATOM     35  H3  UNL     1      -4.015   1.146   0.291  1.00  0.00     0.166 HD
HETATM   36  C24 UNL     1      -4.032   4.256  -0.409  1.00  0.00     0.010 A 
HETATM   37  S1  UNL     1      -2.373   3.927  -0.566  1.00  0.00    -0.072 SA
BRANCH  36  38
HETATM   38  C25 UNL     1      -4.792   5.531  -0.595  1.00  0.00     0.160 C 
BRANCH  38  39
HETATM   39  C26 UNL     1      -5.186   5.620  -2.024  1.00  0.00     0.177 C 
HETATM   40  O7  UNL     1      -4.875   4.715  -2.841  1.00  0.00    -0.648 OA
HETATM   41  O8  UNL     1      -5.902   6.715  -2.445  1.00  0.00    -0.648 OA
ENDBRANCH  38  39
ENDBRANCH  36  38
ENDBRANCH  29  32
ENDBRANCH  19  29
ENDBRANCH  14  18
ENDBRANCH   6   8
ENDBRANCH   5   6
ENDBRANCH   4   5
ENDBRANCH   3   4
TORSDOF 14
