REMARK  14 active torsions:
REMARK  status: ('A' for Active; 'I' for Inactive)
REMARK    1  A    between atoms: C5_5  and  C6_6 
REMARK    2  A    between atoms: C6_6  and  N1_7 
REMARK    3  A    between atoms: C7_9  and  O1_10 
REMARK    4  A    between atoms: C7_9  and  C8_12 
REMARK    5  A    between atoms: C8_12  and  C9_13 
REMARK    6  A    between atoms: C9_13  and  C10_14 
REMARK    7  A    between atoms: C12_19  and  C14_21 
REMARK    8  A    between atoms: C14_21  and  C15_22 
REMARK    9  A    between atoms: C15_22  and  C16_23 
REMARK   10  A    between atoms: C16_23  and  C17_24 
REMARK   11  A    between atoms: C17_24  and  N3_25 
REMARK   12  A    between atoms: C23_39  and  C24_40 
REMARK   13  A    between atoms: C24_40  and  C25_41 
REMARK   14  A    between atoms: C29_48  and  C30_49 
ROOT
HETATM    1  C10 UNL     1       0.287  -0.624  -1.045  1.00  0.00     0.177 C 
HETATM    2  N2  UNL     1       0.831   0.539  -1.715  1.00  0.00    -0.346 N 
ATOM      3  H2  UNL     1       1.827   0.492  -1.929  1.00  0.00     0.163 HD
HETATM    4  C11 UNL     1       0.192   1.714  -2.111  1.00  0.00     0.246 C 
HETATM    5  O2  UNL     1       0.224   1.985  -3.349  1.00  0.00    -0.271 OA
HETATM    6  C12 UNL     1      -0.531   2.697  -1.212  1.00  0.00     0.110 C 
HETATM    7  C13 UNL     1      -1.202   3.702  -2.116  1.00  0.00     0.049 C 
HETATM    8  N4  UNL     1      -1.437   2.053  -0.297  1.00  0.00    -0.342 N 
ATOM      9  H4  UNL     1      -1.015   1.788   0.593  1.00  0.00     0.163 HD
HETATM   10  C18 UNL     1      -2.793   1.725  -0.410  1.00  0.00     0.241 C 
HETATM   11  O3  UNL     1      -3.610   2.279   0.433  1.00  0.00    -0.271 OA
HETATM   12  C19 UNL     1      -3.455   0.815  -1.368  1.00  0.00     0.174 C 
HETATM   13  C20 UNL     1      -3.729   1.440  -2.727  1.00  0.00     0.042 C 
HETATM   14  N5  UNL     1      -4.807   0.455  -0.903  1.00  0.00    -0.342 N 
HETATM   15  C21 UNL     1      -5.765   1.540  -0.796  1.00  0.00     0.153 C 
HETATM   16  C22 UNL     1      -5.232  -0.825  -0.565  1.00  0.00     0.243 C 
HETATM   17  O4  UNL     1      -6.483  -1.100  -0.635  1.00  0.00    -0.271 OA
HETATM   18  C23 UNL     1      -4.386  -1.962  -0.114  1.00  0.00     0.177 C 
HETATM   19  N6  UNL     1      -4.178  -2.829  -1.262  1.00  0.00    -0.346 N 
ATOM     20  H6  UNL     1      -4.861  -2.821  -2.020  1.00  0.00     0.163 HD
HETATM   21  C28 UNL     1      -3.038  -3.696  -1.359  1.00  0.00     0.241 C 
HETATM   22  O5  UNL     1      -3.269  -4.868  -1.744  1.00  0.00    -0.271 OA
HETATM   23  C29 UNL     1      -1.675  -3.271  -1.037  1.00  0.00     0.180 C 
HETATM   24  N7  UNL     1      -1.103  -2.510  -2.145  1.00  0.00    -0.346 N 
ATOM     25  H7  UNL     1      -1.570  -2.572  -3.050  1.00  0.00     0.163 HD
HETATM   26  C33 UNL     1       0.026  -1.710  -2.061  1.00  0.00     0.241 C 
HETATM   27  O6  UNL     1       0.978  -1.861  -2.903  1.00  0.00    -0.271 OA
ENDROOT
BRANCH   1  28
HETATM   28  C9  UNL     1       1.344  -1.222  -0.141  1.00  0.00     0.043 C 
BRANCH  28  29
HETATM   29  C8  UNL     1       1.856  -0.293   0.920  1.00  0.00     0.086 C 
BRANCH  29  30
HETATM   30  C7  UNL     1       2.871  -1.048   1.695  1.00  0.00     0.111 C 
HETATM   31  N1  UNL     1       4.111  -0.719   1.629  1.00  0.00    -0.370 N 
ATOM     32  H1  UNL     1       4.766  -1.271   2.182  1.00  0.00     0.161 HD
BRANCH  31  33
HETATM   33  C6  UNL     1       4.661   0.355   0.848  1.00  0.00     0.160 C 
BRANCH  33  34
HETATM   34  C5  UNL     1       6.128   0.124   0.584  1.00  0.00    -0.040 A 
HETATM   35  C4  UNL     1       6.529  -0.665  -0.487  1.00  0.00     0.009 A 
HETATM   36  C3  UNL     1       7.832  -0.915  -0.786  1.00  0.00     0.008 A 
HETATM   37  C2  UNL     1       8.821  -0.361   0.011  1.00  0.00    -0.056 A 
HETATM   38  C1  UNL     1      10.253  -0.619  -0.293  1.00  0.00     0.049 C 
HETATM   39  C35 UNL     1       8.458   0.427   1.081  1.00  0.00    -0.056 A 
HETATM   40  C34 UNL     1       7.117   0.668   1.366  1.00  0.00     0.016 A 
HETATM   41  C36 UNL     1       9.543   1.020   1.936  1.00  0.00     0.049 C 
ENDBRANCH  33  34
ENDBRANCH  31  33
BRANCH  30  42
HETATM   42  O1  UNL     1       2.518  -2.129   2.512  1.00  0.00    -0.350 OA
ATOM     43  H1  UNL     1       1.601  -2.372   2.561  1.00  0.00     0.219 HD
ENDBRANCH  30  42
ENDBRANCH  29  30
ENDBRANCH  28  29
ENDBRANCH   1  28
BRANCH   6  44
HETATM   44  C14 UNL     1       0.540   3.453  -0.445  1.00  0.00     0.041 C 
BRANCH  44  45
HETATM   45  C15 UNL     1       0.152   4.445   0.544  1.00  0.00     0.004 C 
BRANCH  45  46
HETATM   46  C16 UNL     1      -0.637   5.640   0.170  1.00  0.00     0.027 C 
BRANCH  46  47
HETATM   47  C17 UNL     1      -0.864   6.543   1.415  1.00  0.00     0.229 C 
BRANCH  47  48
HETATM   48  N3  UNL     1      -1.640   7.698   1.004  1.00  0.00    -0.079 N 
ATOM     49  H33 UNL     1      -1.213   8.201   0.226  1.00  0.00     0.274 HD
ATOM     50  H32 UNL     1      -2.512   7.441   0.541  1.00  0.00     0.274 HD
ATOM     51  H31 UNL     1      -1.789   8.290   1.821  1.00  0.00     0.274 HD
ENDBRANCH  47  48
ENDBRANCH  46  47
ENDBRANCH  45  46
ENDBRANCH  44  45
ENDBRANCH   6  44
BRANCH  23  52
HETATM   52  C30 UNL     1      -0.827  -4.482  -0.740  1.00  0.00     0.009 C 
HETATM   53  C31 UNL     1      -0.750  -5.402  -1.912  1.00  0.00     0.012 C 
HETATM   54  C32 UNL     1      -1.397  -5.174   0.488  1.00  0.00     0.012 C 
ENDBRANCH  23  52
BRANCH  18  55
HETATM   55  C24 UNL     1      -5.141  -2.814   0.900  1.00  0.00     0.038 C 
BRANCH  55  56
HETATM   56  C25 UNL     1      -5.549  -2.063   2.124  1.00  0.00    -0.020 C 
HETATM   57  C26 UNL     1      -4.365  -1.493   2.872  1.00  0.00     0.009 C 
HETATM   58  C27 UNL     1      -6.247  -3.047   3.048  1.00  0.00     0.009 C 
ENDBRANCH  55  56
ENDBRANCH  18  55
TORSDOF 14
