REMARK  12 active torsions:
REMARK  status: ('A' for Active; 'I' for Inactive)
REMARK    1  A    between atoms: C2_2  and  C3_3 
REMARK    2  A    between atoms: C3_3  and  C4_4 
REMARK    3  A    between atoms: C4_4  and  C5_5 
REMARK    4  A    between atoms: C7_10  and  C8_11 
REMARK    5  A    between atoms: C8_11  and  C9_12 
REMARK    6  A    between atoms: N3_21  and  C15_22 
REMARK    7  A    between atoms: C15_22  and  C16_23 
REMARK    8  A    between atoms: C18_28  and  C19_29 
REMARK    9  A    between atoms: C19_29  and  C20_30 
REMARK   10  A    between atoms: C24_37  and  C25_38 
REMARK   11  A    between atoms: C25_38  and  C26_39 
REMARK   12  A    between atoms: C30_46  and  C31_47 
ROOT
HETATM    1  C5  UNL     1       3.592  -0.568  -0.048  1.00  0.00     0.176 C 
HETATM    2  N1  UNL     1       2.811  -0.228  -1.213  1.00  0.00    -0.346 N 
ATOM      3  H1  UNL     1       2.859  -0.899  -1.980  1.00  0.00     0.163 HD
HETATM    4  C6  UNL     1       2.001   0.881  -1.444  1.00  0.00     0.241 C 
HETATM    5  O1  UNL     1       0.987   0.643  -2.206  1.00  0.00    -0.271 OA
HETATM    6  C7  UNL     1       2.160   2.257  -0.935  1.00  0.00     0.177 C 
HETATM    7  N2  UNL     1       1.644   2.418   0.404  1.00  0.00    -0.346 N 
ATOM      8  H2  UNL     1       2.259   2.876   1.077  1.00  0.00     0.163 HD
HETATM    9  C12 UNL     1       0.389   2.012   0.879  1.00  0.00     0.241 C 
HETATM   10  O2  UNL     1       0.371   1.250   1.924  1.00  0.00    -0.271 OA
HETATM   11  C13 UNL     1      -0.950   2.333   0.349  1.00  0.00     0.175 C 
HETATM   12  C14 UNL     1      -1.056   3.587  -0.448  1.00  0.00     0.042 C 
HETATM   13  N3  UNL     1      -1.899   2.427   1.462  1.00  0.00    -0.327 N 
HETATM   14  C17 UNL     1      -3.124   1.745   1.457  1.00  0.00     0.243 C 
HETATM   15  O5  UNL     1      -4.087   2.297   2.094  1.00  0.00    -0.271 OA
HETATM   16  C18 UNL     1      -3.433   0.466   0.805  1.00  0.00     0.177 C 
HETATM   17  N4  UNL     1      -3.701  -0.527   1.855  1.00  0.00    -0.346 N 
ATOM     18  H4  UNL     1      -4.152  -0.178   2.701  1.00  0.00     0.163 HD
HETATM   19  C23 UNL     1      -3.413  -1.881   1.830  1.00  0.00     0.241 C 
HETATM   20  O6  UNL     1      -3.887  -2.587   2.805  1.00  0.00    -0.271 OA
HETATM   21  C24 UNL     1      -2.635  -2.656   0.851  1.00  0.00     0.177 C 
HETATM   22  N5  UNL     1      -1.386  -3.040   1.554  1.00  0.00    -0.346 N 
ATOM     23  H5  UNL     1      -1.491  -3.750   2.278  1.00  0.00     0.163 HD
HETATM   24  C29 UNL     1      -0.109  -2.572   1.365  1.00  0.00     0.241 C 
HETATM   25  O7  UNL     1       0.521  -2.073   2.379  1.00  0.00    -0.271 OA
HETATM   26  C30 UNL     1       0.726  -2.538   0.126  1.00  0.00     0.180 C 
HETATM   27  N6  UNL     1       2.138  -2.664   0.449  1.00  0.00    -0.346 N 
ATOM     28  H6  UNL     1       2.517  -3.611   0.428  1.00  0.00     0.163 HD
HETATM   29  C34 UNL     1       3.043  -1.649   0.785  1.00  0.00     0.241 C 
HETATM   30  O8  UNL     1       3.478  -1.638   2.008  1.00  0.00    -0.271 OA
ENDROOT
BRANCH   1  31
HETATM   31  C4  UNL     1       4.994  -0.948  -0.471  1.00  0.00     0.035 C 
BRANCH  31  32
HETATM   32  C3  UNL     1       5.920  -1.332   0.636  1.00  0.00     0.002 C 
BRANCH  32  33
HETATM   33  C2  UNL     1       7.315  -1.651   0.094  1.00  0.00    -0.004 C 
HETATM   34  C1  UNL     1       8.231  -2.034   1.237  1.00  0.00     0.005 C 
ENDBRANCH  32  33
ENDBRANCH  31  32
ENDBRANCH   1  31
BRANCH   6  35
HETATM   35  C8  UNL     1       3.549   2.791  -1.093  1.00  0.00     0.038 C 
BRANCH  35  36
HETATM   36  C9  UNL     1       3.718   4.209  -0.587  1.00  0.00    -0.020 C 
HETATM   37  C10 UNL     1       5.152   4.683  -0.791  1.00  0.00     0.009 C 
HETATM   38  C11 UNL     1       2.709   5.151  -1.174  1.00  0.00     0.009 C 
ENDBRANCH  35  36
ENDBRANCH   6  35
BRANCH  26  39
HETATM   39  C31 UNL     1       0.354  -3.673  -0.808  1.00  0.00     0.009 C 
HETATM   40  C32 UNL     1       0.583  -4.979  -0.074  1.00  0.00     0.012 C 
HETATM   41  C33 UNL     1       1.343  -3.657  -1.953  1.00  0.00     0.012 C 
ENDBRANCH  26  39
BRANCH  21  42
HETATM   42  C25 UNL     1      -3.343  -3.900   0.431  1.00  0.00     0.038 C 
BRANCH  42  43
HETATM   43  C26 UNL     1      -4.642  -3.867  -0.233  1.00  0.00    -0.020 C 
HETATM   44  C27 UNL     1      -5.795  -3.298   0.495  1.00  0.00     0.009 C 
HETATM   45  C28 UNL     1      -4.582  -3.166  -1.595  1.00  0.00     0.009 C 
ENDBRANCH  42  43
ENDBRANCH  21  42
BRANCH  13  46
HETATM   46  C15 UNL     1      -1.485   3.244   2.598  1.00  0.00     0.239 C 
BRANCH  46  47
HETATM   47  C16 UNL     1      -1.978   4.616   2.593  1.00  0.00     0.191 C 
HETATM   48  O3  UNL     1      -1.524   5.439   3.426  1.00  0.00    -0.647 OA
HETATM   49  O4  UNL     1      -2.935   5.076   1.717  1.00  0.00    -0.647 OA
ENDBRANCH  46  47
ENDBRANCH  13  46
BRANCH  16  50
HETATM   50  C19 UNL     1      -4.787   0.662   0.119  1.00  0.00     0.038 C 
BRANCH  50  51
HETATM   51  C20 UNL     1      -4.809   1.738  -0.913  1.00  0.00    -0.020 C 
HETATM   52  C21 UNL     1      -3.857   1.430  -2.019  1.00  0.00     0.009 C 
HETATM   53  C22 UNL     1      -6.217   1.811  -1.471  1.00  0.00     0.009 C 
ENDBRANCH  50  51
ENDBRANCH  16  50
TORSDOF 12
