REMARK  18 active torsions:
REMARK  status: ('A' for Active; 'I' for Inactive)
REMARK    1  A    between atoms: C2_2  and  C3_3 
REMARK    2  A    between atoms: C3_3  and  C4_4 
REMARK    3  A    between atoms: C4_4  and  C5_5 
REMARK    4  A    between atoms: C5_5  and  C6_6 
REMARK    5  A    between atoms: C6_6  and  C7_7 
REMARK    6  A    between atoms: C8_10  and  O1_11 
REMARK    7  A    between atoms: C9_13  and  C10_14 
REMARK    8  A    between atoms: C10_14  and  C11_15 
REMARK    9  A    between atoms: C15_22  and  C16_23 
REMARK   10  A    between atoms: C19_28  and  O3_29 
REMARK   11  A    between atoms: C20_31  and  C21_32 
REMARK   12  A    between atoms: C21_32  and  C22_33 
REMARK   13  A    between atoms: C25_38  and  O4_39 
REMARK   14  A    between atoms: C30_46  and  O5_47 
REMARK   15  A    between atoms: N6_49  and  C31_50 
REMARK   16  A    between atoms: C31_50  and  C32_51 
REMARK   17  A    between atoms: C32_51  and  C34_53 
REMARK   18  A    between atoms: C34_53  and  N7_54 
ROOT
HETATM    1  C7  UNL     1      -2.080   0.763  -1.229  1.00  0.00     0.176 C 
HETATM    2  N1  UNL     1      -0.851   0.209  -1.740  1.00  0.00    -0.359 N 
ATOM      3  H1  UNL     1      -0.169   0.929  -1.978  1.00  0.00     0.162 HD
HETATM    4  C8  UNL     1      -0.376  -1.068  -1.984  1.00  0.00     0.135 C 
HETATM    5  C9  UNL     1       0.095  -2.189  -1.147  1.00  0.00     0.159 C 
HETATM    6  N2  UNL     1       1.253  -2.861  -1.749  1.00  0.00    -0.347 N 
ATOM      7  H2  UNL     1       1.282  -2.864  -2.769  1.00  0.00     0.163 HD
HETATM    8  C14 UNL     1       2.310  -3.491  -1.116  1.00  0.00     0.241 C 
HETATM    9  O2  UNL     1       2.567  -4.688  -1.413  1.00  0.00    -0.271 OA
HETATM   10  C15 UNL     1       3.217  -2.873  -0.072  1.00  0.00     0.179 C 
HETATM   11  N3  UNL     1       3.818  -1.668  -0.572  1.00  0.00    -0.359 N 
ATOM     12  H3  UNL     1       4.719  -1.811  -1.028  1.00  0.00     0.162 HD
HETATM   13  C19 UNL     1       3.397  -0.336  -0.549  1.00  0.00     0.135 C 
HETATM   14  C20 UNL     1       3.303   0.617   0.590  1.00  0.00     0.158 C 
HETATM   15  N4  UNL     1       1.974   1.177   0.679  1.00  0.00    -0.361 N 
ATOM     16  H4  UNL     1       1.224   0.489   0.609  1.00  0.00     0.162 HD
HETATM   17  C25 UNL     1       1.536   2.483   0.843  1.00  0.00     0.135 C 
HETATM   18  C26 UNL     1       1.600   3.659  -0.014  1.00  0.00     0.162 C 
HETATM   19  C27 UNL     1       2.990   4.162  -0.326  1.00  0.00     0.035 C 
HETATM   20  C28 UNL     1       3.212   3.768  -1.736  1.00  0.00     0.022 C 
HETATM   21  C29 UNL     1       1.875   3.495  -2.309  1.00  0.00     0.127 C 
HETATM   22  N5  UNL     1       0.890   3.642  -1.258  1.00  0.00    -0.335 N 
HETATM   23  C30 UNL     1      -0.514   3.785  -1.455  1.00  0.00     0.225 C 
HETATM   24  N6  UNL     1      -1.608   3.309  -0.688  1.00  0.00    -0.281 N 
HETATM   25  C35 UNL     1      -1.897   1.946  -0.373  1.00  0.00     0.249 C 
HETATM   26  O6  UNL     1      -2.018   1.724   0.896  1.00  0.00    -0.271 OA
ENDROOT
BRANCH  24  27
HETATM   27  C31 UNL     1      -2.520   4.338  -0.119  1.00  0.00     0.141 C 
BRANCH  27  28
HETATM   28  C32 UNL     1      -3.587   4.770  -1.076  1.00  0.00     0.025 C 
HETATM   29  C33 UNL     1      -4.477   3.648  -1.510  1.00  0.00     0.013 C 
BRANCH  28  30
HETATM   30  C34 UNL     1      -4.508   5.806  -0.418  1.00  0.00     0.235 C 
BRANCH  30  31
HETATM   31  N7  UNL     1      -5.532   6.207  -1.359  1.00  0.00    -0.079 N 
ATOM     32  H73 UNL     1      -5.138   6.544  -2.237  1.00  0.00     0.274 HD
ATOM     33  H72 UNL     1      -6.050   5.410  -1.728  1.00  0.00     0.274 HD
ATOM     34  H71 UNL     1      -6.144   6.896  -0.922  1.00  0.00     0.274 HD
ENDBRANCH  30  31
ENDBRANCH  28  30
ENDBRANCH  27  28
ENDBRANCH  24  27
BRANCH  23  35
HETATM   35  O5  UNL     1      -0.906   4.462  -2.509  1.00  0.00    -0.332 OA
ATOM     36  H5  UNL     1      -1.842   4.557  -2.640  1.00  0.00     0.221 HD
ENDBRANCH  23  35
BRANCH   1  37
HETATM   37  C6  UNL     1      -2.889  -0.303  -0.499  1.00  0.00     0.035 C 
BRANCH  37  38
HETATM   38  C5  UNL     1      -4.190   0.153   0.021  1.00  0.00     0.002 C 
BRANCH  38  39
HETATM   39  C4  UNL     1      -4.883  -1.018   0.723  1.00  0.00     0.000 C 
BRANCH  39  40
HETATM   40  C3  UNL     1      -4.087  -1.552   1.886  1.00  0.00    -0.000 C 
BRANCH  40  41
HETATM   41  C2  UNL     1      -4.895  -2.692   2.510  1.00  0.00    -0.005 C 
HETATM   42  C1  UNL     1      -4.119  -3.252   3.681  1.00  0.00     0.005 C 
ENDBRANCH  40  41
ENDBRANCH  39  40
ENDBRANCH  38  39
ENDBRANCH  37  38
ENDBRANCH   1  37
BRANCH  17  43
HETATM   43  O4  UNL     1       0.947   2.695   2.000  1.00  0.00    -0.348 OA
ATOM     44  H4  UNL     1       0.647   3.589   2.112  1.00  0.00     0.219 HD
ENDBRANCH  17  43
BRANCH   4  45
HETATM   45  O1  UNL     1      -0.301  -1.419  -3.258  1.00  0.00    -0.348 OA
ATOM     46  H1  UNL     1       0.025  -2.295  -3.425  1.00  0.00     0.219 HD
ENDBRANCH   4  45
BRANCH   5  47
HETATM   47  C10 UNL     1      -0.902  -3.228  -0.794  1.00  0.00     0.037 C 
BRANCH  47  48
HETATM   48  C11 UNL     1      -1.616  -3.956  -1.857  1.00  0.00    -0.020 C 
HETATM   49  C12 UNL     1      -0.796  -4.773  -2.813  1.00  0.00     0.009 C 
HETATM   50  C13 UNL     1      -2.524  -4.979  -1.137  1.00  0.00     0.009 C 
ENDBRANCH  47  48
ENDBRANCH   5  47
BRANCH  14  51
HETATM   51  C21 UNL     1       3.805   0.001   1.839  1.00  0.00     0.037 C 
BRANCH  51  52
HETATM   52  C22 UNL     1       3.794   0.831   3.079  1.00  0.00    -0.020 C 
HETATM   53  C23 UNL     1       4.350  -0.025   4.221  1.00  0.00     0.009 C 
HETATM   54  C24 UNL     1       4.532   2.130   2.983  1.00  0.00     0.009 C 
ENDBRANCH  51  52
ENDBRANCH  14  51
BRANCH  13  55
HETATM   55  O3  UNL     1       3.029   0.158  -1.709  1.00  0.00    -0.348 OA
ATOM     56  H3  UNL     1       2.743   1.064  -1.693  1.00  0.00     0.219 HD
ENDBRANCH  13  55
BRANCH  10  57
HETATM   57  C16 UNL     1       4.329  -3.910   0.194  1.00  0.00     0.009 C 
HETATM   58  C17 UNL     1       5.310  -3.455   1.225  1.00  0.00     0.012 C 
HETATM   59  C18 UNL     1       5.083  -4.242  -1.083  1.00  0.00     0.012 C 
ENDBRANCH  10  57
TORSDOF 18
