REMARK  15 active torsions:
REMARK  status: ('A' for Active; 'I' for Inactive)
REMARK    1  A    between atoms: C2_2  and  C3_3 
REMARK    2  A    between atoms: C3_3  and  C4_4 
REMARK    3  A    between atoms: C4_4  and  C5_5 
REMARK    4  A    between atoms: C6_8  and  O1_9 
REMARK    5  A    between atoms: C7_11  and  C8_12 
REMARK    6  A    between atoms: C7_11  and  C9_15 
REMARK    7  A    between atoms: C12_20  and  O3_21 
REMARK    8  A    between atoms: C13_23  and  C14_24 
REMARK    9  A    between atoms: C14_24  and  C15_25 
REMARK   10  A    between atoms: C18_30  and  O4_31 
REMARK   11  A    between atoms: C19_33  and  C20_34 
REMARK   12  A    between atoms: C20_34  and  C21_35 
REMARK   13  A    between atoms: C25_42  and  C26_43 
REMARK   14  A    between atoms: C26_43  and  C27_44 
REMARK   15  A    between atoms: C34_55  and  O7_56 
ROOT
HETATM    1  C5  UNL     1       3.201  -0.816  -0.545  1.00  0.00     0.158 C 
HETATM    2  N1  UNL     1       2.121   0.117  -0.537  1.00  0.00    -0.360 N 
ATOM      3  H1  UNL     1       1.240  -0.304  -0.831  1.00  0.00     0.162 HD
HETATM    4  C6  UNL     1       1.987   1.473  -0.221  1.00  0.00     0.151 C 
HETATM    5  C7  UNL     1       2.236   2.727  -0.899  1.00  0.00     0.179 C 
HETATM    6  N3  UNL     1       1.340   3.816  -0.465  1.00  0.00    -0.345 N 
ATOM      7  H3  UNL     1       1.614   4.689  -0.915  1.00  0.00     0.163 HD
HETATM    8  C12 UNL     1       0.262   4.031   0.345  1.00  0.00     0.164 C 
HETATM    9  C13 UNL     1      -1.144   3.620   0.355  1.00  0.00     0.081 C 
HETATM   10  N4  UNL     1      -1.629   3.278  -0.984  1.00  0.00    -0.336 N 
ATOM     11  H4  UNL     1      -1.632   4.071  -1.625  1.00  0.00     0.168 HD
HETATM   12  C18 UNL     1      -2.078   2.123  -1.556  1.00  0.00     0.139 C 
HETATM   13  C19 UNL     1      -2.769   0.919  -1.093  1.00  0.00     0.160 C 
HETATM   14  N5  UNL     1      -1.937  -0.251  -1.395  1.00  0.00    -0.344 N 
ATOM     15  H5  UNL     1      -1.255  -0.156  -2.148  1.00  0.00     0.163 HD
HETATM   16  C24 UNL     1      -2.000  -1.522  -0.720  1.00  0.00     0.268 C 
HETATM   17  O5  UNL     1      -2.166  -2.478  -1.507  1.00  0.00    -0.266 OA
HETATM   18  C25 UNL     1      -1.884  -1.681   0.697  1.00  0.00     0.099 C 
HETATM   19  N6  UNL     1      -0.519  -1.670   1.211  1.00  0.00    -0.321 N 
ATOM     20  H6  UNL     1      -0.239  -0.810   1.682  1.00  0.00     0.169 HD
HETATM   21  C30 UNL     1       0.467  -2.669   1.153  1.00  0.00     0.244 C 
HETATM   22  O6  UNL     1       1.037  -2.889   2.288  1.00  0.00    -0.271 OA
HETATM   23  C31 UNL     1       0.934  -3.469   0.055  1.00  0.00     0.174 C 
HETATM   24  C32 UNL     1       1.591  -4.737   0.651  1.00  0.00     0.042 C 
HETATM   25  N7  UNL     1       1.692  -2.948  -1.024  1.00  0.00    -0.355 N 
HETATM   26  C33 UNL     1       1.201  -3.342  -2.382  1.00  0.00     0.152 C 
HETATM   27  C34 UNL     1       2.848  -2.157  -1.087  1.00  0.00     0.137 C 
ENDROOT
BRANCH   5  28
HETATM   28  C8  UNL     1       3.614   3.187  -0.623  1.00  0.00     0.268 C 
HETATM   29  N2  UNL     1       4.795   2.491  -0.895  1.00  0.00    -0.059 NA
HETATM   30  O2  UNL     1       3.760   4.315  -0.093  1.00  0.00    -0.274 OA
ENDBRANCH   5  28
BRANCH   5  31
HETATM   31  C9  UNL     1       2.044   2.741  -2.402  1.00  0.00     0.023 C 
HETATM   32  C10 UNL     1       2.349   4.091  -2.994  1.00  0.00     0.013 C 
HETATM   33  C11 UNL     1       2.692   1.677  -3.183  1.00  0.00     0.013 C 
ENDBRANCH   5  31
BRANCH   4  34
HETATM   34  O1  UNL     1       1.517   1.670   0.979  1.00  0.00    -0.347 OA
ATOM     35  H1  UNL     1       1.426   2.591   1.194  1.00  0.00     0.219 HD
ENDBRANCH   4  34
BRANCH   8  36
HETATM   36  O3  UNL     1       0.523   4.800   1.371  1.00  0.00    -0.345 OA
ATOM     37  H3  UNL     1      -0.227   4.950   1.935  1.00  0.00     0.219 HD
ENDBRANCH   8  36
BRANCH   1  38
HETATM   38  C4  UNL     1       4.007  -0.947   0.724  1.00  0.00     0.033 C 
BRANCH  38  39
HETATM   39  C3  UNL     1       5.120  -1.948   0.634  1.00  0.00     0.002 C 
BRANCH  39  40
HETATM   40  C2  UNL     1       5.806  -1.908   2.014  1.00  0.00    -0.004 C 
HETATM   41  C1  UNL     1       6.951  -2.855   2.097  1.00  0.00     0.005 C 
ENDBRANCH  39  40
ENDBRANCH  38  39
ENDBRANCH   1  38
BRANCH   9  42
HETATM   42  C14 UNL     1      -1.769   2.818   1.408  1.00  0.00     0.011 C 
BRANCH  42  43
HETATM   43  C15 UNL     1      -1.875   3.218   2.825  1.00  0.00     0.002 C 
HETATM   44  C16 UNL     1      -2.701   2.083   3.568  1.00  0.00     0.013 C 
HETATM   45  C17 UNL     1      -0.624   3.264   3.651  1.00  0.00     0.013 C 
ENDBRANCH  42  43
ENDBRANCH   9  42
BRANCH  27  46
HETATM   46  O7  UNL     1       3.858  -2.653  -1.750  1.00  0.00    -0.348 OA
ATOM     47  H7  UNL     1       3.633  -3.509  -2.096  1.00  0.00     0.219 HD
ENDBRANCH  27  46
BRANCH  12  48
HETATM   48  O4  UNL     1      -1.852   2.032  -2.852  1.00  0.00    -0.348 OA
ATOM     49  H4  UNL     1      -2.165   1.228  -3.250  1.00  0.00     0.219 HD
ENDBRANCH  12  48
BRANCH  13  50
HETATM   50  C20 UNL     1      -4.036   0.820  -1.972  1.00  0.00     0.037 C 
BRANCH  50  51
HETATM   51  C21 UNL     1      -4.938   1.989  -1.847  1.00  0.00    -0.020 C 
HETATM   52  C22 UNL     1      -5.495   2.251  -0.489  1.00  0.00     0.009 C 
HETATM   53  C23 UNL     1      -6.097   1.891  -2.820  1.00  0.00     0.009 C 
ENDBRANCH  50  51
ENDBRANCH  13  50
BRANCH  18  54
HETATM   54  C26 UNL     1      -2.678  -2.659   1.461  1.00  0.00     0.012 C 
BRANCH  54  55
HETATM   55  C27 UNL     1      -2.650  -4.100   1.319  1.00  0.00     0.002 C 
HETATM   56  C28 UNL     1      -3.045  -4.796   0.069  1.00  0.00     0.013 C 
HETATM   57  C29 UNL     1      -3.630  -4.672   2.401  1.00  0.00     0.013 C 
ENDBRANCH  54  55
ENDBRANCH  18  54
TORSDOF 15
