REMARK  6 active torsions:
REMARK  status: ('A' for Active; 'I' for Inactive)
REMARK    1  A    between atoms: C2_2  and  C3_3 
REMARK    2  A    between atoms: C3_3  and  N1_4 
REMARK    3  A    between atoms: N1_4  and  C5_6 
REMARK    4  A    between atoms: C5_6  and  C6_7 
REMARK    5  A    between atoms: C6_7  and  N2_8 
REMARK    6  A    between atoms: N2_8  and  C7_10 
ROOT
HETATM    1  C6  UNL     1      -0.149  -0.458   1.261  1.00  0.00     0.159 C 
ENDROOT
BRANCH   1   2
HETATM    2  C5  UNL     1       0.994   0.249   0.612  1.00  0.00     0.081 C 
BRANCH   2   3
HETATM    3  N1  UNL     1       1.717  -0.456  -0.366  1.00  0.00    -0.377 N 
HETATM    4  C4  UNL     1       1.822  -1.858  -0.285  1.00  0.00     0.154 C 
BRANCH   3   5
HETATM    5  C3  UNL     1       2.733   0.240  -1.031  1.00  0.00     0.062 C 
BRANCH   5   6
HETATM    6  C2  UNL     1       4.094   0.280  -0.455  1.00  0.00     0.040 C 
HETATM    7  C1  UNL     1       4.219   0.906   0.912  1.00  0.00     0.010 C 
ENDBRANCH   5   6
ENDBRANCH   3   5
ENDBRANCH   2   3
ENDBRANCH   1   2
BRANCH   1   8
HETATM    8  N2  UNL     1      -1.202  -0.873   0.414  1.00  0.00    -0.413 N 
ATOM      9  H2  UNL     1      -1.369  -1.866   0.248  1.00  0.00     0.153 HD
BRANCH   8  10
HETATM   10  C7  UNL     1      -2.016   0.094  -0.197  1.00  0.00     0.076 C 
HETATM   11  C8  UNL     1      -2.824   0.984   0.671  1.00  0.00     0.024 C 
HETATM   12  C9  UNL     1      -3.983   1.347  -0.275  1.00  0.00     0.002 C 
HETATM   13  C10 UNL     1      -4.381  -0.071  -0.710  1.00  0.00     0.002 C 
HETATM   14  C11 UNL     1      -3.027  -0.623  -1.101  1.00  0.00     0.024 C 
ENDBRANCH   8  10
ENDBRANCH   1   8
TORSDOF 6
