REMARK  6 active torsions:
REMARK  status: ('A' for Active; 'I' for Inactive)
REMARK    1  A    between atoms: O1_2  and  C2_3 
REMARK    2  A    between atoms: C2_3  and  C4_5 
REMARK    3  A    between atoms: C4_5  and  N1_6 
REMARK    4  A    between atoms: N1_6  and  C5_8 
REMARK    5  A    between atoms: C5_8  and  C6_9 
REMARK    6  A    between atoms: C6_9  and  C7_10 
ROOT
HETATM    1  N1  UNL     1      -0.426   0.927   0.486  1.00  0.00    -0.400 N 
ATOM      2  H1  UNL     1       0.006   1.847   0.576  1.00  0.00     0.158 HD
ENDROOT
BRANCH   1   3
HETATM    3  C4  UNL     1      -1.763   0.769   0.857  1.00  0.00     0.086 C 
BRANCH   3   4
HETATM    4  C2  UNL     1      -2.788   0.500  -0.185  1.00  0.00     0.154 C 
HETATM    5  C3  UNL     1      -2.545  -0.851  -0.832  1.00  0.00     0.045 C 
BRANCH   4   6
HETATM    6  O1  UNL     1      -4.079   0.409   0.348  1.00  0.00    -0.386 OA
HETATM    7  C1  UNL     1      -4.959   1.300  -0.242  1.00  0.00     0.202 C 
ENDBRANCH   4   6
ENDBRANCH   3   4
ENDBRANCH   1   3
BRANCH   1   8
HETATM    8  C5  UNL     1       0.342  -0.139  -0.006  1.00  0.00     0.119 C 
BRANCH   8   9
HETATM    9  C6  UNL     1       1.769   0.417  -0.225  1.00  0.00     0.024 C 
BRANCH   9  10
HETATM   10  C7  UNL     1       2.675  -0.649  -0.753  1.00  0.00    -0.009 A 
HETATM   11  C8  UNL     1       2.870  -1.886   0.106  1.00  0.00     0.009 A 
HETATM   12  C9  UNL     1       3.954  -0.878  -0.074  1.00  0.00    -0.014 A 
HETATM   13  C10 UNL     1       4.388  -0.002   1.090  1.00  0.00     0.010 C 
ENDBRANCH   9  10
ENDBRANCH   8   9
ENDBRANCH   1   8
TORSDOF 6
