REMARK  6 active torsions:
REMARK  status: ('A' for Active; 'I' for Inactive)
REMARK    1  A    between atoms: C2_2  and  C3_3 
REMARK    2  A    between atoms: C3_3  and  O1_4 
REMARK    3  A    between atoms: O1_4  and  C4_5 
REMARK    4  A    between atoms: C4_5  and  C6_7 
REMARK    5  A    between atoms: C6_7  and  C7_8 
REMARK    6  A    between atoms: C7_8  and  C8_9 
ROOT
HETATM    1  C7  UNL     1      -1.052   0.961   0.317  1.00  0.00     0.061 C 
ENDROOT
BRANCH   1   2
HETATM    2  C6  UNL     1      -0.353  -0.083  -0.546  1.00  0.00     0.037 C 
BRANCH   2   3
HETATM    3  C4  UNL     1       0.960   0.467  -1.058  1.00  0.00     0.118 C 
HETATM    4  C5  UNL     1       0.675   1.757  -1.763  1.00  0.00     0.039 C 
BRANCH   3   5
HETATM    5  O1  UNL     1       1.594  -0.471  -1.837  1.00  0.00    -0.383 OA
BRANCH   5   6
HETATM    6  C3  UNL     1       2.801  -0.911  -1.324  1.00  0.00     0.194 C 
BRANCH   6   7
HETATM    7  C2  UNL     1       2.597  -1.535   0.012  1.00  0.00    -0.011 C 
HETATM    8  C1  UNL     1       3.193  -1.061   1.105  1.00  0.00     0.009 C 
ENDBRANCH   6   7
ENDBRANCH   5   6
ENDBRANCH   3   5
ENDBRANCH   2   3
ENDBRANCH   1   2
BRANCH   1   9
HETATM    9  C8  UNL     1      -2.324   0.343   0.774  1.00  0.00     0.025 A 
HETATM   10  C9  UNL     1      -3.570   0.357   0.185  1.00  0.00     0.114 A 
HETATM   11  N1  UNL     1      -4.449  -0.331   0.936  1.00  0.00    -0.360 N 
HETATM   12  C10 UNL     1      -3.762  -0.779   1.997  1.00  0.00     0.180 A 
ATOM     13  H1  UNL     1      -5.438  -0.481   0.738  1.00  0.00     0.166 HD
HETATM   14  N2  UNL     1      -2.484  -0.382   1.912  1.00  0.00    -0.355 N 
ATOM     15  H2  UNL     1      -1.752  -0.590   2.591  1.00  0.00     0.166 HD
ENDBRANCH   1   9
TORSDOF 6
