REMARK  5 active torsions:
REMARK  status: ('A' for Active; 'I' for Inactive)
REMARK    1  A    between atoms: C2_2  and  C3_3 
REMARK    2  A    between atoms: C2_2  and  C10_10 
REMARK    3  A    between atoms: C4_4  and  C5_5 
REMARK    4  A    between atoms: C5_5  and  C7_7 
REMARK    5  A    between atoms: C10_10  and  N1_11 
ROOT
HETATM    1  C1  UNL     1      -0.770   1.346   0.874  1.00  0.00     0.025 C 
HETATM    2  C2  UNL     1      -0.087   0.473   0.181  1.00  0.00    -0.030 C 
ENDROOT
BRANCH   2   3
HETATM    3  C3  UNL     1       1.410   0.580   0.141  1.00  0.00     0.012 C 
HETATM    4  C4  UNL     1       2.150  -0.256  -0.525  1.00  0.00     0.007 C 
BRANCH   4   5
HETATM    5  C5  UNL     1       3.569  -0.327  -0.692  1.00  0.00    -0.063 C 
HETATM    6  C6  UNL     1       4.024  -1.358  -1.464  1.00  0.00     0.019 C 
BRANCH   5   7
HETATM    7  C7  UNL     1       4.618   0.528  -0.148  1.00  0.00     0.018 A 
HETATM    8  C8  UNL     1       4.525   1.815   0.509  1.00  0.00     0.010 A 
HETATM    9  C9  UNL     1       4.591   0.601   1.401  1.00  0.00     0.010 A 
ENDBRANCH   5   7
ENDBRANCH   4   5
ENDBRANCH   2   3
BRANCH   2  10
HETATM   10  C10 UNL     1      -0.750  -0.600  -0.574  1.00  0.00     0.102 C 
BRANCH  10  11
HETATM   11  N1  UNL     1      -2.135  -0.564  -0.539  1.00  0.00    -0.352 N 
HETATM   12  C11 UNL     1      -2.873   0.396  -1.237  1.00  0.00     0.130 C 
HETATM   13  C12 UNL     1      -4.304   0.550  -0.707  1.00  0.00     0.040 C 
HETATM   14  C13 UNL     1      -4.876  -0.852  -0.750  1.00  0.00     0.122 C 
HETATM   15  N2  UNL     1      -4.173  -1.674   0.171  1.00  0.00    -0.386 N 
HETATM   16  C14 UNL     1      -2.815  -1.332   0.440  1.00  0.00     0.178 C 
ATOM     17  H2  UNL     1      -4.620  -2.473   0.620  1.00  0.00     0.160 HD
ENDBRANCH  10  11
ENDBRANCH   2  10
TORSDOF 5
