REMARK  6 active torsions:
REMARK  status: ('A' for Active; 'I' for Inactive)
REMARK    1  A    between atoms: C2_2  and  C3_3 
REMARK    2  A    between atoms: C3_3  and  C4_4 
REMARK    3  A    between atoms: C3_3  and  N2_13 
REMARK    4  A    between atoms: C4_4  and  C5_5 
REMARK    5  A    between atoms: C8_8  and  N1_9 
REMARK    6  A    between atoms: N2_13  and  C10_15 
ROOT
HETATM    1  C3  UNL     1      -0.293  -0.989  -0.564  1.00  0.00     0.006 C 
ENDROOT
BRANCH   1   2
HETATM    2  C2  UNL     1       0.045  -2.151   0.306  1.00  0.00     0.014 C 
HETATM    3  C1  UNL     1       0.295  -3.387  -0.088  1.00  0.00     0.013 C 
ENDBRANCH   1   2
BRANCH   1   4
HETATM    4  C4  UNL     1      -1.722  -0.625  -0.538  1.00  0.00     0.063 C 
BRANCH   4   5
HETATM    5  C5  UNL     1      -2.357  -0.299   0.761  1.00  0.00     0.021 C 
HETATM    6  C6  UNL     1      -1.919   0.830   1.617  1.00  0.00     0.009 C 
HETATM    7  C7  UNL     1      -2.689   1.741   0.643  1.00  0.00     0.033 C 
HETATM    8  C8  UNL     1      -3.652   0.542   0.532  1.00  0.00     0.188 C 
BRANCH   8   9
HETATM    9  N1  UNL     1      -4.231   0.335  -0.752  1.00  0.00    -0.075 N 
ATOM     10  H13 UNL     1      -3.549   0.508  -1.491  1.00  0.00     0.274 HD
ATOM     11  H12 UNL     1      -4.407  -0.656  -0.916  1.00  0.00     0.274 HD
ATOM     12  H11 UNL     1      -5.077   0.885  -0.902  1.00  0.00     0.274 HD
ENDBRANCH   8   9
ENDBRANCH   4   5
ENDBRANCH   1   4
BRANCH   1  13
HETATM   13  N2  UNL     1       0.739  -0.220  -1.074  1.00  0.00    -0.384 N 
HETATM   14  C9  UNL     1       1.542  -1.071  -2.065  1.00  0.00     0.150 C 
BRANCH  13  15
HETATM   15  C10 UNL     1       1.669   0.580  -0.530  1.00  0.00     0.083 C 
HETATM   16  C11 UNL     1       2.611  -0.271   0.360  1.00  0.00     0.025 C 
HETATM   17  C12 UNL     1       3.582   0.724   0.946  1.00  0.00     0.002 C 
HETATM   18  C13 UNL     1       3.140   2.044   0.452  1.00  0.00     0.002 C 
HETATM   19  C14 UNL     1       1.610   1.802   0.237  1.00  0.00     0.025 C 
ENDBRANCH  13  15
ENDBRANCH   1  13
TORSDOF 6
