REMARK  5 active torsions:
REMARK  status: ('A' for Active; 'I' for Inactive)
REMARK    1  A    between atoms: O1_2  and  C2_3 
REMARK    2  A    between atoms: C3_4  and  N1_5 
REMARK    3  A    between atoms: N1_5  and  N2_7 
REMARK    4  A    between atoms: C5_15  and  O3_16 
REMARK    5  A    between atoms: C6_18  and  O4_19 
ROOT
HETATM    1  C2  UNL     1       0.553  -0.686   0.043  1.00  0.00     0.202 C 
HETATM    2  C3  UNL     1      -0.204  -0.603  -1.264  1.00  0.00     0.270 C 
HETATM    3  O2  UNL     1      -0.331   0.739  -1.583  1.00  0.00    -0.344 OA
HETATM    4  C4  UNL     1      -1.079   1.454  -0.678  1.00  0.00     0.228 C 
HETATM    5  S1  UNL     1      -0.963   3.218  -1.175  1.00  0.00    -0.060 SA
HETATM    6  C5  UNL     1      -0.600   1.360   0.736  1.00  0.00     0.189 C 
HETATM    7  C6  UNL     1      -0.225  -0.036   1.156  1.00  0.00     0.183 C 
ENDROOT
BRANCH   2   8
HETATM    8  N1  UNL     1      -1.480  -1.245  -1.220  1.00  0.00    -0.291 N 
ATOM      9  H1  UNL     1      -2.341  -0.698  -1.251  1.00  0.00     0.184 HD
BRANCH   8  10
HETATM   10  N2  UNL     1      -1.517  -2.488  -1.143  1.00  0.00    -0.251 N 
HETATM   11  N3  UNL     1      -1.961  -3.549  -0.659  1.00  0.00    -0.331 N 
ATOM     12  H32 UNL     1      -2.639  -3.200   0.018  1.00  0.00     0.178 HD
ATOM     13  H31 UNL     1      -1.991  -4.567  -0.596  1.00  0.00     0.178 HD
ATOM     14  H2  UNL     1      -0.830  -2.799  -1.830  1.00  0.00     0.207 HD
ENDBRANCH   8  10
ENDBRANCH   2   8
BRANCH   1  15
HETATM   15  O1  UNL     1       1.731   0.041  -0.125  1.00  0.00    -0.384 OA
HETATM   16  C1  UNL     1       2.860  -0.740   0.054  1.00  0.00     0.202 C 
ENDBRANCH   1  15
BRANCH   7  17
HETATM   17  O4  UNL     1      -1.354  -0.764   1.514  1.00  0.00    -0.390 OA
ATOM     18  H4  UNL     1      -1.845  -0.354   2.216  1.00  0.00     0.210 HD
ENDBRANCH   7  17
BRANCH   6  19
HETATM   19  O3  UNL     1      -1.602   1.892   1.559  1.00  0.00    -0.389 OA
ATOM     20  H3  UNL     1      -1.298   1.832   2.457  1.00  0.00     0.210 HD
ENDBRANCH   6  19
TORSDOF 5
