REMARK  4 active torsions:
REMARK  status: ('A' for Active; 'I' for Inactive)
REMARK    1  A    between atoms: O1_2  and  C2_3 
REMARK    2  A    between atoms: C3_4  and  O2_5 
REMARK    3  A    between atoms: C7_11  and  S1_12 
REMARK    4  A    between atoms: C9_14  and  O3_15 
ROOT
HETATM    1  C2  UNL     1      -1.070   0.700   0.097  1.00  0.00     0.179 C 
HETATM    2  C3  UNL     1      -1.881  -0.586   0.158  1.00  0.00     0.151 C 
HETATM    3  C4  UNL     1      -1.250  -1.495  -0.890  1.00  0.00     0.055 C 
HETATM    4  C5  UNL     1       0.191  -1.756  -0.577  1.00  0.00     0.111 C 
HETATM    5  C6  UNL     1       0.810  -2.256  -1.819  1.00  0.00     0.065 C 
HETATM    6  N1  UNL     1       1.291  -2.592  -2.827  1.00  0.00    -0.197 NA
HETATM    7  C7  UNL     1       0.974  -0.565  -0.150  1.00  0.00     0.096 C 
HETATM    8  C9  UNL     1       0.254   0.406   0.728  1.00  0.00     0.164 C 
ENDROOT
BRANCH   7   9
HETATM    9  S1  UNL     1       2.468  -1.118   0.737  1.00  0.00    -0.165 SA
HETATM   10  C8  UNL     1       3.718   0.184   0.631  1.00  0.00     0.090 C 
ENDBRANCH   7   9
BRANCH   2  11
HETATM   11  O2  UNL     1      -1.842  -1.172   1.416  1.00  0.00    -0.393 OA
ATOM     12  H2  UNL     1      -2.348  -1.975   1.454  1.00  0.00     0.210 HD
ENDBRANCH   2  11
BRANCH   8  13
HETATM   13  O3  UNL     1       0.187  -0.009   2.040  1.00  0.00    -0.392 OA
ATOM     14  H3  UNL     1       1.028  -0.196   2.441  1.00  0.00     0.210 HD
ENDBRANCH   8  13
BRANCH   1  15
HETATM   15  O1  UNL     1      -1.730   1.792   0.593  1.00  0.00    -0.386 OA
HETATM   16  C1  UNL     1      -1.622   2.865  -0.308  1.00  0.00     0.202 C 
ENDBRANCH   1  15
TORSDOF 4
