REMARK  4 active torsions:
REMARK  status: ('A' for Active; 'I' for Inactive)
REMARK    1  A    between atoms: O1_1  and  C1_3 
REMARK    2  A    between atoms: C1_3  and  C2_4 
REMARK    3  A    between atoms: C4_6  and  O2_7 
REMARK    4  A    between atoms: C6_11  and  N1_12 
ROOT
HETATM    1  C2  UNL     1      -2.022   0.614  -0.498  1.00  0.00     0.148 C 
HETATM    2  C3  UNL     1      -2.003  -0.776   0.100  1.00  0.00     0.077 C 
HETATM    3  C4  UNL     1      -0.664  -1.293  -0.371  1.00  0.00     0.112 C 
HETATM    4  C5  UNL     1       0.054  -1.926   0.776  1.00  0.00     0.211 C 
HETATM    5  O3  UNL     1       1.367  -1.495   0.592  1.00  0.00    -0.360 OA
HETATM    6  C6  UNL     1       1.169  -0.101   0.479  1.00  0.00     0.260 C 
HETATM    7  C10 UNL     1       0.122  -0.021  -0.612  1.00  0.00     0.207 C 
HETATM    8  O4  UNL     1      -0.723   1.040  -0.415  1.00  0.00    -0.371 OA
ENDROOT
BRANCH   6   9
HETATM    9  N1  UNL     1       2.401   0.538   0.130  1.00  0.00    -0.322 N 
HETATM   10  C7  UNL     1       3.610   0.143   0.592  1.00  0.00     0.111 A 
HETATM   11  C8  UNL     1       4.591   0.962   0.070  1.00  0.00     0.106 A 
HETATM   12  N2  UNL     1       3.935   1.848  -0.708  1.00  0.00    -0.361 N 
HETATM   13  C9  UNL     1       2.612   1.588  -0.669  1.00  0.00     0.184 A 
ATOM     14  H2  UNL     1       4.372   2.598  -1.243  1.00  0.00     0.166 HD
ENDBRANCH   6   9
BRANCH   3  15
HETATM   15  O2  UNL     1      -0.758  -2.090  -1.488  1.00  0.00    -0.385 OA
ATOM     16  H2  UNL     1       0.084  -2.415  -1.784  1.00  0.00     0.210 HD
ENDBRANCH   3  15
BRANCH   1  17
HETATM   17  C1  UNL     1      -2.908   1.473   0.390  1.00  0.00     0.196 C 
BRANCH  17  18
HETATM   18  O1  UNL     1      -4.234   1.070   0.332  1.00  0.00    -0.398 OA
ATOM     19  H1  UNL     1      -4.788   1.607   0.887  1.00  0.00     0.209 HD
ENDBRANCH  17  18
ENDBRANCH   1  17
TORSDOF 4
