REMARK  4 active torsions:
REMARK  status: ('A' for Active; 'I' for Inactive)
REMARK    1  A    between atoms: C2_2  and  C5_5 
REMARK    2  A    between atoms: C6_6  and  C7_7 
REMARK    3  A    between atoms: C8_8  and  C9_9 
REMARK    4  A    between atoms: C9_9  and  N1_10 
ROOT
HETATM    1  C7  UNL     1       0.399   1.495  -0.524  1.00  0.00     0.055 A 
HETATM    2  C8  UNL     1       1.492   1.122  -1.248  1.00  0.00     0.023 A 
HETATM    3  S1  UNL     1       2.326   2.588  -1.512  1.00  0.00    -0.075 SA
HETATM    4  C13 UNL     1       1.270   3.643  -0.697  1.00  0.00     0.109 A 
HETATM    5  N3  UNL     1       1.361   5.082  -0.514  1.00  0.00    -0.093 NA
HETATM    6  C14 UNL     1       0.279   2.818  -0.232  1.00  0.00     0.095 A 
HETATM    7  C15 UNL     1      -0.851   3.371   0.545  1.00  0.00     0.103 C 
HETATM    8  N4  UNL     1      -1.736   3.823   1.168  1.00  0.00    -0.191 NA
ENDROOT
BRANCH   1   9
HETATM    9  C6  UNL     1      -0.604   0.489  -0.113  1.00  0.00    -0.063 C 
HETATM   10  C5  UNL     1      -1.449  -0.323   0.211  1.00  0.00    -0.092 C 
BRANCH  10  11
HETATM   11  C2  UNL     1      -2.484  -1.283   0.589  1.00  0.00     0.013 C 
HETATM   12  C1  UNL     1      -2.751  -2.301  -0.517  1.00  0.00     0.028 C 
HETATM   13  C3  UNL     1      -2.009  -2.003   1.824  1.00  0.00     0.028 C 
HETATM   14  C4  UNL     1      -3.804  -0.575   0.835  1.00  0.00     0.028 C 
ENDBRANCH  10  11
ENDBRANCH   1   9
BRANCH   2  15
HETATM   15  C9  UNL     1       1.927  -0.246  -1.708  1.00  0.00     0.176 C 
BRANCH  15  16
HETATM   16  N1  UNL     1       2.576  -1.007  -0.702  1.00  0.00    -0.347 N 
HETATM   17  C10 UNL     1       3.918  -0.974  -0.476  1.00  0.00     0.109 A 
HETATM   18  C11 UNL     1       4.242  -1.821   0.549  1.00  0.00     0.106 A 
HETATM   19  N2  UNL     1       3.093  -2.381   0.959  1.00  0.00    -0.361 N 
HETATM   20  C12 UNL     1       2.092  -1.875   0.188  1.00  0.00     0.182 A 
ATOM     21  H2  UNL     1       2.989  -3.062   1.711  1.00  0.00     0.166 HD
ENDBRANCH  15  16
ENDBRANCH   2  15
TORSDOF 4
