REMARK  3 active torsions:
REMARK  status: ('A' for Active; 'I' for Inactive)
REMARK    1  A    between atoms: C2_2  and  C3_3 
REMARK    2  A    between atoms: C3_3  and  N1_5 
REMARK    3  A    between atoms: C14_21  and  N5_22 
ROOT
HETATM    1  N1  UNL     1       0.971   0.073   0.081  1.00  0.00    -0.313 N 
HETATM    2  C5  UNL     1      -0.061  -0.730   0.347  1.00  0.00     0.124 A 
HETATM    3  N2  UNL     1      -0.143  -1.970   0.807  1.00  0.00    -0.331 N 
ATOM      4  H2  UNL     1       0.721  -2.460   1.040  1.00  0.00     0.168 HD
HETATM    5  C6  UNL     1      -1.291  -2.602   0.978  1.00  0.00     0.078 A 
HETATM    6  C7  UNL     1      -1.318  -3.994   1.516  1.00  0.00     0.089 C 
HETATM    7  N3  UNL     1      -2.402  -1.956   0.665  1.00  0.00    -0.349 N 
ATOM      8  H3  UNL     1      -3.287  -2.447   0.793  1.00  0.00     0.167 HD
HETATM    9  C8  UNL     1      -2.451  -0.670   0.179  1.00  0.00     0.021 A 
HETATM   10  C9  UNL     1      -3.752  -0.261  -0.337  1.00  0.00     0.069 C 
HETATM   11  C10 UNL     1      -1.259  -0.042   0.032  1.00  0.00     0.046 A 
HETATM   12  C11 UNL     1      -0.905   1.202  -0.415  1.00  0.00     0.047 A 
HETATM   13  C12 UNL     1      -1.612   2.294  -0.807  1.00  0.00     0.037 A 
HETATM   14  C13 UNL     1      -3.044   2.547  -0.635  1.00  0.00     0.070 C 
HETATM   15  N4  UNL     1      -0.889   3.387  -1.185  1.00  0.00    -0.195 N 
ATOM     16  H4  UNL     1      -1.395   4.217  -1.493  1.00  0.00     0.184 HD
HETATM   17  C14 UNL     1       0.454   3.430  -1.174  1.00  0.00     0.677 A 
HETATM   18  N6  UNL     1       1.135   2.353  -0.768  1.00  0.00    -0.176 N 
ATOM     19  H6  UNL     1       2.155   2.381  -0.753  1.00  0.00     0.186 HD
HETATM   20  C15 UNL     1       0.502   1.241  -0.382  1.00  0.00     0.138 A 
ENDROOT
BRANCH   1  21
HETATM   21  C3  UNL     1       2.360  -0.217   0.246  1.00  0.00     0.089 C 
HETATM   22  C4  UNL     1       3.094  -0.195  -1.087  1.00  0.00     0.033 C 
BRANCH  21  23
HETATM   23  C2  UNL     1       2.615  -1.519   0.964  1.00  0.00     0.021 C 
HETATM   24  C1  UNL     1       4.103  -1.700   1.237  1.00  0.00     0.007 C 
ENDBRANCH  21  23
ENDBRANCH   1  21
BRANCH  17  25
HETATM   25  N5  UNL     1       1.009   4.506  -1.559  1.00  0.00    -0.234 N 
ATOM     26  H52 UNL     1       0.490   5.327  -1.869  1.00  0.00     0.174 HD
ATOM     27  H51 UNL     1       2.028   4.539  -1.551  1.00  0.00     0.174 HD
ENDBRANCH  17  25
TORSDOF 3
