REMARK  6 active torsions:
REMARK  status: ('A' for Active; 'I' for Inactive)
REMARK    1  A    between atoms: C2_2  and  C3_3 
REMARK    2  A    between atoms: C5_7  and  C6_8 
REMARK    3  A    between atoms: C8_13  and  C9_14 
REMARK    4  A    between atoms: C9_14  and  C10_15 
REMARK    5  A    between atoms: C10_15  and  C11_16 
REMARK    6  A    between atoms: C15_22  and  N4_23 
ROOT
HETATM    1  C3  UNL     1       3.432   0.240   0.352  1.00  0.00     0.001 A 
HETATM    2  C4  UNL     1       3.671  -1.073   0.695  1.00  0.00     0.100 A 
HETATM    3  N1  UNL     1       2.648  -1.924   0.856  1.00  0.00    -0.350 N 
ATOM      4  H1  UNL     1       2.862  -2.888   1.111  1.00  0.00     0.166 HD
HETATM    5  C5  UNL     1       1.340  -1.578   0.700  1.00  0.00     0.136 A 
HETATM    6  N3  UNL     1       1.117  -0.335   0.375  1.00  0.00    -0.327 N 
ATOM      7  H3  UNL     1       0.151  -0.034   0.248  1.00  0.00     0.169 HD
HETATM    8  C15 UNL     1       2.115   0.589   0.195  1.00  0.00     0.108 A 
ENDROOT
BRANCH   5   9
HETATM    9  C6  UNL     1       0.300  -2.636   0.919  1.00  0.00     0.103 A 
HETATM   10  N2  UNL     1       0.696  -3.867   1.245  1.00  0.00    -0.355 N 
HETATM   11  C7  UNL     1      -0.158  -4.812   1.449  1.00  0.00     0.140 A 
ATOM     12  H2  UNL     1       1.693  -4.065   1.335  1.00  0.00     0.166 HD
HETATM   13  S1  UNL     1      -1.648  -4.046   1.198  1.00  0.00    -0.073 SA
HETATM   14  C8  UNL     1      -1.041  -2.458   0.822  1.00  0.00     0.090 A 
BRANCH  14  15
HETATM   15  C9  UNL     1      -1.865  -1.306   0.504  1.00  0.00    -0.056 C 
BRANCH  15  16
HETATM   16  C10 UNL     1      -2.578  -0.377   0.250  1.00  0.00    -0.091 C 
BRANCH  16  17
HETATM   17  C11 UNL     1      -3.440   0.770  -0.036  1.00  0.00     0.013 C 
HETATM   18  C12 UNL     1      -4.564   0.433  -0.973  1.00  0.00     0.028 C 
HETATM   19  C13 UNL     1      -2.560   1.879  -0.575  1.00  0.00     0.028 C 
HETATM   20  C14 UNL     1      -4.087   1.273   1.257  1.00  0.00     0.028 C 
ENDBRANCH  16  17
ENDBRANCH  15  16
ENDBRANCH  14  15
ENDBRANCH   5   9
BRANCH   8  21
HETATM   21  N4  UNL     1       1.845   1.794  -0.123  1.00  0.00    -0.385 N 
ATOM     22  H42 UNL     1       2.587   2.481  -0.257  1.00  0.00     0.157 HD
ATOM     23  H41 UNL     1       0.866   2.054  -0.240  1.00  0.00     0.157 HD
ENDBRANCH   8  21
BRANCH   1  24
HETATM   24  C2  UNL     1       4.507   1.241   0.156  1.00  0.00     0.039 C 
HETATM   25  C1  UNL     1       4.768   1.536  -1.296  1.00  0.00     0.010 C 
ENDBRANCH   1  24
TORSDOF 6
