REMARK  3 active torsions:
REMARK  status: ('A' for Active; 'I' for Inactive)
REMARK    1  A    between atoms: N1_2  and  C3_4 
REMARK    2  A    between atoms: C5_10  and  N4_11 
REMARK    3  A    between atoms: C6_16  and  C7_17 
ROOT
HETATM    1  C3  UNL     1       2.984   0.474  -0.132  1.00  0.00     0.148 A 
HETATM    2  N2  UNL     1       2.886  -0.800   0.169  1.00  0.00    -0.321 N 
ATOM      3  H2  UNL     1       3.728  -1.363   0.288  1.00  0.00     0.169 HD
HETATM    4  C4  UNL     1       1.722  -1.339   0.314  1.00  0.00     0.142 A 
HETATM    5  N3  UNL     1       1.456  -2.650   0.664  1.00  0.00    -0.175 N 
ATOM      6  H3  UNL     1       2.234  -3.297   0.795  1.00  0.00     0.186 HD
HETATM    7  C5  UNL     1       0.247  -3.077   0.830  1.00  0.00     0.677 A 
HETATM    8  N5  UNL     1      -0.876  -2.327   0.682  1.00  0.00    -0.194 N 
ATOM      9  H5  UNL     1      -1.809  -2.712   0.828  1.00  0.00     0.184 HD
HETATM   10  C6  UNL     1      -0.673  -1.015   0.323  1.00  0.00     0.051 A 
HETATM   11  C13 UNL     1       0.603  -0.553   0.148  1.00  0.00     0.076 A 
HETATM   12  S1  UNL     1       1.331   0.945  -0.218  1.00  0.00    -0.048 SA
ENDROOT
BRANCH  10  13
HETATM   13  C7  UNL     1      -1.741  -0.099  -0.071  1.00  0.00     0.038 C 
HETATM   14  C8  UNL     1      -2.098   1.018   0.879  1.00  0.00     0.011 C 
HETATM   15  C9  UNL     1      -3.158   1.819   0.066  1.00  0.00     0.001 C 
HETATM   16  C10 UNL     1      -4.422   1.015   0.206  1.00  0.00     0.000 C 
HETATM   17  C11 UNL     1      -4.269  -0.391  -0.270  1.00  0.00     0.001 C 
HETATM   18  C12 UNL     1      -3.020  -1.031   0.150  1.00  0.00     0.011 C 
ENDBRANCH  10  13
BRANCH   7  19
HETATM   19  N4  UNL     1       0.044  -4.364   1.124  1.00  0.00    -0.234 N 
ATOM     20  H42 UNL     1       0.887  -4.927   1.235  1.00  0.00     0.174 HD
ATOM     21  H41 UNL     1      -0.910  -4.701   1.255  1.00  0.00     0.174 HD
ENDBRANCH   7  19
BRANCH   1  22
HETATM   22  N1  UNL     1       4.173   1.278  -0.302  1.00  0.00    -0.370 N 
HETATM   23  C1  UNL     1       4.007   2.676  -0.596  1.00  0.00     0.151 C 
HETATM   24  C2  UNL     1       5.490   0.736  -0.150  1.00  0.00     0.151 C 
ENDBRANCH   1  22
TORSDOF 3
