REMARK  2 active torsions:
REMARK  status: ('A' for Active; 'I' for Inactive)
REMARK    1  A    between atoms: C2_2  and  C3_3 
REMARK    2  A    between atoms: C8_12  and  C9_13 
ROOT
HETATM    1  C3  UNL     1      -1.684   0.378   0.265  1.00  0.00     0.028 C 
HETATM    2  C4  UNL     1      -1.814  -0.279   1.674  1.00  0.00     0.060 C 
HETATM    3  C5  UNL     1      -0.550  -0.506   2.337  1.00  0.00    -0.001 C 
HETATM    4  N1  UNL     1      -0.470  -0.392   3.614  1.00  0.00    -0.404 N 
ATOM      5  H11 UNL     1       0.422  -0.552   4.082  1.00  0.00     0.155 HD
ATOM      6  H12 UNL     1      -1.324  -0.141   4.111  1.00  0.00     0.155 HD
HETATM    7  C6  UNL     1       0.683  -0.869   1.619  1.00  0.00     0.150 C 
HETATM    8  C7  UNL     1       1.884  -0.511   2.406  1.00  0.00     0.070 C 
HETATM    9  N2  UNL     1       2.824  -0.232   2.999  1.00  0.00    -0.197 NA
HETATM   10  C8  UNL     1       0.704   0.072   0.387  1.00  0.00     0.098 C 
HETATM   11  C13 UNL     1      -0.562  -0.356  -0.373  1.00  0.00     0.152 C 
HETATM   12  C14 UNL     1      -0.466  -0.159  -1.791  1.00  0.00     0.085 C 
HETATM   13  N5  UNL     1      -0.381  -0.040  -2.949  1.00  0.00    -0.195 NA
HETATM   14  C15 UNL     1      -0.845  -1.807  -0.098  1.00  0.00     0.085 C 
HETATM   15  N6  UNL     1      -1.076  -2.940   0.090  1.00  0.00    -0.195 NA
ENDROOT
BRANCH  10  16
HETATM   16  C9  UNL     1       1.942  -0.098  -0.362  1.00  0.00     0.041 A 
HETATM   17  N3  UNL     1       2.736  -1.187  -0.380  1.00  0.00    -0.354 N 
HETATM   18  C10 UNL     1       3.778  -1.009  -1.211  1.00  0.00     0.180 A 
ATOM     19  H3  UNL     1       2.569  -2.033   0.164  1.00  0.00     0.166 HD
HETATM   20  N4  UNL     1       3.655   0.217  -1.739  1.00  0.00    -0.354 N 
HETATM   21  C11 UNL     1       2.539   0.786  -1.230  1.00  0.00     0.029 A 
ATOM     22  H4  UNL     1       4.293   0.646  -2.409  1.00  0.00     0.166 HD
HETATM   23  C12 UNL     1       2.141   2.190  -1.583  1.00  0.00     0.070 C 
ENDBRANCH  10  16
BRANCH   1  24
HETATM   24  C2  UNL     1      -3.041   0.233  -0.323  1.00  0.00     0.003 C 
HETATM   25  C1  UNL     1      -3.280   0.791  -1.674  1.00  0.00     0.005 C 
ENDBRANCH   1  24
TORSDOF 2
