REMARK  3 active torsions:
REMARK  status: ('A' for Active; 'I' for Inactive)
REMARK    1  A    between atoms: S1_2  and  C2_3 
REMARK    2  A    between atoms: N3_10  and  C5_11 
REMARK    3  A    between atoms: C14_20  and  N4_21 
ROOT
HETATM    1  C2  UNL     1       4.292  -0.470  -0.303  1.00  0.00     0.147 A 
HETATM    2  N1  UNL     1       3.767  -0.901   0.853  1.00  0.00    -0.321 N 
ATOM      3  H1  UNL     1       4.401  -1.211   1.590  1.00  0.00     0.169 HD
HETATM    4  C3  UNL     1       2.439  -0.943   1.086  1.00  0.00     0.139 A 
HETATM    5  N2  UNL     1       1.705  -1.327   2.144  1.00  0.00    -0.336 N 
ATOM      6  H2  UNL     1       2.066  -1.684   3.029  1.00  0.00     0.168 HD
HETATM    7  C4  UNL     1       0.405  -1.156   1.826  1.00  0.00     0.185 A 
HETATM    8  N3  UNL     1       0.280  -0.666   0.575  1.00  0.00    -0.332 N 
HETATM    9  C13 UNL     1       1.548  -0.522   0.086  1.00  0.00     0.124 A 
HETATM   10  C14 UNL     1       2.101  -0.084  -1.092  1.00  0.00     0.132 A 
HETATM   11  N5  UNL     1       3.432  -0.067  -1.260  1.00  0.00    -0.321 N 
ATOM     12  H5  UNL     1       3.809   0.264  -2.148  1.00  0.00     0.169 HD
ENDROOT
BRANCH   8  13
HETATM   13  C5  UNL     1      -0.934  -0.342  -0.145  1.00  0.00     0.092 C 
HETATM   14  C6  UNL     1      -2.017  -1.297   0.346  1.00  0.00     0.030 C 
HETATM   15  C7  UNL     1      -3.333  -1.045  -0.353  1.00  0.00    -0.012 C 
HETATM   16  C8  UNL     1      -4.308  -0.558   0.723  1.00  0.00     0.005 C 
HETATM   17  C11 UNL     1      -3.265   0.239  -1.194  1.00  0.00     0.009 C 
HETATM   18  C9  UNL     1      -3.626   0.761   1.114  1.00  0.00     0.005 C 
HETATM   19  C10 UNL     1      -2.883   1.229  -0.111  1.00  0.00    -0.012 C 
HETATM   20  C12 UNL     1      -1.361   1.098   0.048  1.00  0.00     0.030 C 
ENDBRANCH   8  13
BRANCH  10  21
HETATM   21  N4  UNL     1       1.344   0.313  -2.036  1.00  0.00    -0.383 N 
ATOM     22  H42 UNL     1       0.332   0.300  -1.908  1.00  0.00     0.157 HD
ATOM     23  H41 UNL     1       1.755   0.638  -2.911  1.00  0.00     0.157 HD
ENDBRANCH  10  21
BRANCH   1  24
HETATM   24  S1  UNL     1       6.050  -0.415  -0.609  1.00  0.00    -0.098 SA
HETATM   25  C1  UNL     1       6.634   1.229  -0.067  1.00  0.00     0.099 C 
ENDBRANCH   1  24
TORSDOF 3
