REMARK  8 active torsions:
REMARK  status: ('A' for Active; 'I' for Inactive)
REMARK    1  A    between atoms: C2_2  and  N1_3 
REMARK    2  A    between atoms: N1_3  and  C3_4 
REMARK    3  A    between atoms: N1_3  and  C10_11 
REMARK       I    between atoms: N2_14  and  C13_15 
REMARK    4  A    between atoms: C13_15  and  C14_17 
REMARK    5  A    between atoms: C14_17  and  C15_18 
REMARK    6  A    between atoms: C15_18  and  C16_19 
REMARK    7  A    between atoms: C17_20  and  O2_21 
REMARK    8  A    between atoms: C19_25  and  O4_26 
ROOT
HETATM    1  C10 UNL     1      -0.815   0.710   0.312  1.00  0.00     0.087 C 
HETATM    2  C11 UNL     1       0.100   1.833  -0.119  1.00  0.00     0.045 C 
HETATM    3  C12 UNL     1       1.530   1.578   0.172  1.00  0.00     0.127 C 
HETATM    4  N2  UNL     1       1.881   0.223   0.397  1.00  0.00    -0.352 N 
HETATM    5  C13 UNL     1       3.313  -0.093   0.438  1.00  0.00     0.220 C 
HETATM    6  O1  UNL     1       3.610  -1.298   0.622  1.00  0.00    -0.273 OA
HETATM    7  C20 UNL     1       0.981  -0.868   0.607  1.00  0.00     0.127 C 
HETATM    8  C21 UNL     1      -0.288  -0.568  -0.230  1.00  0.00     0.045 C 
ENDROOT
BRANCH   5   9
HETATM    9  C14 UNL     1       4.288   0.949   0.267  1.00  0.00     0.108 C 
BRANCH   9  10
HETATM   10  C15 UNL     1       5.618   0.835   0.851  1.00  0.00     0.056 C 
BRANCH  10  11
HETATM   11  C16 UNL     1       6.430  -0.312   0.436  1.00  0.00     0.035 A 
HETATM   12  C17 UNL     1       6.640  -1.540   0.978  1.00  0.00     0.099 A 
HETATM   13  C18 UNL     1       7.442  -2.281   0.136  1.00  0.00     0.182 A 
HETATM   14  O3  UNL     1       7.700  -1.506  -0.878  1.00  0.00    -0.297 OA
HETATM   15  C19 UNL     1       7.149  -0.344  -0.778  1.00  0.00     0.192 A 
BRANCH  12  16
HETATM   16  O2  UNL     1       6.163  -2.032   2.186  1.00  0.00    -0.358 OA
ATOM     17  H2  UNL     1       6.310  -2.891   2.565  1.00  0.00     0.217 HD
ENDBRANCH  12  16
BRANCH  15  18
HETATM   18  O4  UNL     1       7.198   0.724  -1.643  1.00  0.00    -0.340 OA
ATOM     19  H4  UNL     1       7.682   0.702  -2.460  1.00  0.00     0.220 HD
ENDBRANCH  15  18
ENDBRANCH  10  11
ENDBRANCH   9  10
ENDBRANCH   5   9
BRANCH   1  20
HETATM   20  N1  UNL     1      -2.184   0.977   0.134  1.00  0.00    -0.384 N 
BRANCH  20  21
HETATM   21  C2  UNL     1      -2.707   2.012   0.932  1.00  0.00     0.054 C 
HETATM   22  C1  UNL     1      -3.619   2.996   0.265  1.00  0.00     0.054 C 
ENDBRANCH  20  21
BRANCH  20  23
HETATM   23  C3  UNL     1      -2.966  -0.068  -0.332  1.00  0.00     0.084 C 
HETATM   24  C4  UNL     1      -3.530  -0.965   0.765  1.00  0.00     0.025 C 
HETATM   25  C5  UNL     1      -3.971  -2.244   0.093  1.00  0.00     0.002 C 
HETATM   26  C6  UNL     1      -5.431  -2.168  -0.259  1.00  0.00     0.000 C 
HETATM   27  C7  UNL     1      -5.657  -1.656  -1.660  1.00  0.00     0.000 C 
HETATM   28  C8  UNL     1      -4.555  -0.766  -2.138  1.00  0.00     0.002 C 
HETATM   29  C9  UNL     1      -4.214   0.332  -1.147  1.00  0.00     0.025 C 
ENDBRANCH  20  23
ENDBRANCH   1  20
TORSDOF 8
