REMARK  8 active torsions:
REMARK  status: ('A' for Active; 'I' for Inactive)
REMARK    1  A    between atoms: C2_2  and  C21_26 
REMARK    2  A    between atoms: C3_3  and  C4_4 
REMARK    3  A    between atoms: C4_4  and  C5_5 
REMARK    4  A    between atoms: C5_5  and  C6_6 
REMARK    5  A    between atoms: C6_6  and  O2_8 
REMARK    6  A    between atoms: O2_8  and  C7_9 
REMARK    7  A    between atoms: C7_9  and  C8_10 
REMARK    8  A    between atoms: C16_19  and  O4_20 
ROOT
HETATM    1  C8  UNL     1      -0.101   0.686  -0.092  1.00  0.00     0.146 C 
HETATM    2  C9  UNL     1      -0.537  -0.719   0.135  1.00  0.00     0.042 C 
HETATM    3  C10 UNL     1      -2.010  -0.641   0.364  1.00  0.00     0.026 C 
HETATM    4  C11 UNL     1      -2.242   0.846   0.513  1.00  0.00     0.132 C 
HETATM    5  O3  UNL     1      -1.240   1.470  -0.224  1.00  0.00    -0.378 OA
HETATM    6  C12 UNL     1      -3.502   0.666  -0.266  1.00  0.00     0.034 C 
HETATM    7  C13 UNL     1      -4.767   0.488   0.466  1.00  0.00    -0.015 C 
HETATM    8  C14 UNL     1      -4.661  -0.113   1.837  1.00  0.00     0.018 C 
HETATM    9  C15 UNL     1      -5.354   1.896   0.682  1.00  0.00     0.018 C 
HETATM   10  C16 UNL     1      -5.766  -0.250  -0.365  1.00  0.00     0.126 C 
HETATM   11  C17 UNL     1      -5.255  -1.400  -1.138  1.00  0.00     0.033 C 
HETATM   12  C18 UNL     1      -3.820  -1.729  -0.979  1.00  0.00     0.012 C 
HETATM   13  C19 UNL     1      -2.894  -0.572  -0.865  1.00  0.00    -0.031 C 
HETATM   14  C20 UNL     1      -2.193  -0.246  -2.148  1.00  0.00     0.016 C 
ENDROOT
BRANCH   1  15
HETATM   15  C7  UNL     1       0.811   1.205   0.989  1.00  0.00     0.210 C 
BRANCH  15  16
HETATM   16  O2  UNL     1       1.975   0.452   1.180  1.00  0.00    -0.319 OA
BRANCH  16  17
HETATM   17  C6  UNL     1       2.966   0.220   0.256  1.00  0.00     0.259 C 
HETATM   18  O1  UNL     1       2.857   0.717  -0.887  1.00  0.00    -0.265 OA
BRANCH  17  19
HETATM   19  C5  UNL     1       4.176  -0.601   0.551  1.00  0.00     0.115 C 
BRANCH  19  20
HETATM   20  C4  UNL     1       5.313   0.378   0.785  1.00  0.00     0.037 C 
BRANCH  20  21
HETATM   21  C3  UNL     1       6.556  -0.363   1.085  1.00  0.00    -0.013 C 
HETATM   22  C2  UNL     1       7.623  -0.242   0.330  1.00  0.00     0.011 C 
HETATM   23  C1  UNL     1       7.624   0.645  -0.857  1.00  0.00     0.055 C 
BRANCH  22  24
HETATM   24  C21 UNL     1       8.821  -0.986   0.662  1.00  0.00     0.204 C 
HETATM   25  O5  UNL     1       8.857  -1.749   1.663  1.00  0.00    -0.644 OA
HETATM   26  O6  UNL     1       9.948  -0.866  -0.124  1.00  0.00    -0.644 OA
ENDBRANCH  22  24
ENDBRANCH  20  21
ENDBRANCH  19  20
ENDBRANCH  17  19
ENDBRANCH  16  17
ENDBRANCH  15  16
ENDBRANCH   1  15
BRANCH  10  27
HETATM   27  O4  UNL     1      -6.331   0.681  -1.259  1.00  0.00    -0.395 OA
ATOM     28  H4  UNL     1      -6.966   0.212  -1.787  1.00  0.00     0.210 HD
ENDBRANCH  10  27
TORSDOF 8
