REMARK  8 active torsions:
REMARK  status: ('A' for Active; 'I' for Inactive)
REMARK    1  A    between atoms: C2_2  and  O1_3 
REMARK    2  A    between atoms: C2_2  and  C3_5 
REMARK    3  A    between atoms: C3_5  and  C4_6 
REMARK    4  A    between atoms: C4_6  and  C5_7 
REMARK    5  A    between atoms: C5_7  and  C6_8 
REMARK    6  A    between atoms: C6_8  and  C8_11 
REMARK    7  A    between atoms: C14_17  and  C15_18 
REMARK    8  A    between atoms: C15_18  and  O2_19 
ROOT
HETATM    1  C6  UNL     1       1.821  -0.837   0.119  1.00  0.00     0.097 C 
HETATM    2  C7  UNL     1       1.454  -0.558   1.507  1.00  0.00     0.064 C 
HETATM    3  N1  UNL     1       1.174  -0.324   2.605  1.00  0.00    -0.197 NA
ENDROOT
BRANCH   1   4
HETATM    4  C5  UNL     1       3.241  -0.299  -0.165  1.00  0.00     0.020 C 
BRANCH   4   5
HETATM    5  C4  UNL     1       4.226  -0.939   0.721  1.00  0.00     0.004 C 
BRANCH   5   6
HETATM    6  C3  UNL     1       5.669  -0.656   0.608  1.00  0.00     0.031 C 
BRANCH   6   7
HETATM    7  C2  UNL     1       6.116   0.733   0.826  1.00  0.00     0.114 C 
HETATM    8  C1  UNL     1       5.578   1.702  -0.169  1.00  0.00     0.039 C 
BRANCH   7   9
HETATM    9  O1  UNL     1       7.526   0.717   0.829  1.00  0.00    -0.396 OA
ATOM     10  H1  UNL     1       7.869   0.099   1.464  1.00  0.00     0.210 HD
ENDBRANCH   7   9
ENDBRANCH   6   7
ENDBRANCH   5   6
ENDBRANCH   4   5
ENDBRANCH   1   4
BRANCH   1  11
HETATM   11  C8  UNL     1       0.816  -0.143  -0.770  1.00  0.00     0.011 C 
HETATM   12  C9  UNL     1       0.814   1.357  -0.524  1.00  0.00     0.007 C 
HETATM   13  C10 UNL     1      -0.656   1.764  -0.365  1.00  0.00     0.006 C 
HETATM   14  C11 UNL     1      -1.385   0.586  -0.854  1.00  0.00     0.000 C 
HETATM   15  C12 UNL     1      -2.776   0.398  -0.495  1.00  0.00     0.027 C 
HETATM   16  C22 UNL     1      -0.547  -0.564  -0.354  1.00  0.00     0.032 C 
HETATM   17  C13 UNL     1      -3.657   1.619  -0.503  1.00  0.00     0.042 C 
HETATM   18  C16 UNL     1      -3.085  -0.197   0.850  1.00  0.00     0.062 C 
HETATM   19  C14 UNL     1      -4.800   1.165   0.392  1.00  0.00     0.146 C 
HETATM   20  O3  UNL     1      -4.505  -0.153   0.770  1.00  0.00    -0.373 OA
HETATM   21  C17 UNL     1      -2.769   0.719   2.001  1.00  0.00     0.046 C 
HETATM   22  C18 UNL     1      -2.636  -1.599   1.034  1.00  0.00     0.041 C 
HETATM   23  C19 UNL     1      -2.266  -2.321  -0.229  1.00  0.00     0.043 C 
HETATM   24  C20 UNL     1      -1.019  -1.872  -0.890  1.00  0.00     0.087 A 
HETATM   25  C21 UNL     1      -0.327  -2.626  -1.878  1.00  0.00     0.207 A 
HETATM   26  O4  UNL     1      -1.273  -1.699  -2.367  1.00  0.00    -0.374 OA
BRANCH  19  27
HETATM   27  C15 UNL     1      -6.056   1.063  -0.484  1.00  0.00     0.196 C 
BRANCH  27  28
HETATM   28  O2  UNL     1      -6.393   2.348  -0.887  1.00  0.00    -0.398 OA
ATOM     29  H2  UNL     1      -7.170   2.285  -1.429  1.00  0.00     0.209 HD
ENDBRANCH  27  28
ENDBRANCH  19  27
ENDBRANCH   1  11
TORSDOF 8
