REMARK  7 active torsions:
REMARK  status: ('A' for Active; 'I' for Inactive)
REMARK    1  A    between atoms: C2_2  and  C3_3 
REMARK    2  A    between atoms: C3_3  and  N1_4 
REMARK    3  A    between atoms: N1_4  and  C5_6 
REMARK    4  A    between atoms: C9_12  and  N3_13 
REMARK    5  A    between atoms: N3_13  and  C10_15 
REMARK    6  A    between atoms: C12_17  and  C13_18 
REMARK    7  A    between atoms: N4_21  and  C16_22 
ROOT
HETATM    1  C10 UNL     1      -0.248   1.367  -0.547  1.00  0.00     0.137 A 
HETATM    2  C11 UNL     1       0.525   0.347  -0.052  1.00  0.00     0.077 A 
HETATM    3  C12 UNL     1       1.872   0.657  -0.247  1.00  0.00     0.033 A 
HETATM    4  N5  UNL     1       1.870   1.843  -0.848  1.00  0.00    -0.303 N 
ATOM      5  H5  UNL     1       2.708   2.351  -1.130  1.00  0.00     0.186 HD
HETATM    6  N6  UNL     1       0.647   2.269  -1.029  1.00  0.00    -0.285 N 
ATOM      7  H6  UNL     1       0.399   3.155  -1.470  1.00  0.00     0.188 HD
ENDROOT
BRANCH   1   8
HETATM    8  N3  UNL     1      -1.507   1.556  -0.599  1.00  0.00    -0.175 N 
ATOM      9  H3  UNL     1      -1.843   2.418  -1.029  1.00  0.00     0.186 HD
BRANCH   8  10
HETATM   10  C9  UNL     1      -2.468   0.646  -0.098  1.00  0.00     0.685 A 
HETATM   11  N2  UNL     1      -2.285  -0.049   1.037  1.00  0.00    -0.196 N 
HETATM   12  C7  UNL     1      -3.168  -0.918   1.554  1.00  0.00     0.026 A 
ATOM     13  H2  UNL     1      -1.411   0.094   1.543  1.00  0.00     0.184 HD
HETATM   14  C6  UNL     1      -4.343  -1.098   0.857  1.00  0.00     0.074 A 
HETATM   15  C8  UNL     1      -2.926  -1.672   2.812  1.00  0.00     0.069 C 
HETATM   16  C5  UNL     1      -4.581  -0.399  -0.328  1.00  0.00     0.120 A 
HETATM   17  N7  UNL     1      -3.641   0.446  -0.765  1.00  0.00    -0.176 N 
ATOM     18  H7  UNL     1      -3.807   0.960  -1.630  1.00  0.00     0.186 HD
BRANCH  16  19
HETATM   19  N1  UNL     1      -5.811  -0.609  -1.016  1.00  0.00    -0.371 N 
HETATM   20  C4  UNL     1      -6.128  -1.963  -1.417  1.00  0.00     0.151 C 
BRANCH  19  21
HETATM   21  C3  UNL     1      -6.694   0.502  -1.294  1.00  0.00     0.123 C 
BRANCH  21  22
HETATM   22  C2  UNL     1      -7.980   0.409  -0.493  1.00  0.00     0.015 C 
HETATM   23  C1  UNL     1      -8.856   1.588  -0.831  1.00  0.00     0.006 C 
ENDBRANCH  21  22
ENDBRANCH  19  21
ENDBRANCH  16  19
ENDBRANCH   8  10
ENDBRANCH   1   8
BRANCH   3  24
HETATM   24  C13 UNL     1       2.975  -0.232   0.176  1.00  0.00     0.040 C 
HETATM   25  C14 UNL     1       3.895  -0.634  -0.932  1.00  0.00     0.030 C 
HETATM   26  C15 UNL     1       5.339  -0.459  -0.651  1.00  0.00     0.118 C 
HETATM   27  N4  UNL     1       5.772  -0.688   0.674  1.00  0.00    -0.409 N 
HETATM   28  C19 UNL     1       4.780  -0.643   1.701  1.00  0.00     0.118 C 
HETATM   29  C20 UNL     1       3.744   0.401   1.341  1.00  0.00     0.030 C 
BRANCH  27  30
HETATM   30  C16 UNL     1       7.031  -0.123   1.034  1.00  0.00     0.070 C 
HETATM   31  C17 UNL     1       8.158  -0.705   0.201  1.00  0.00     0.031 C 
HETATM   32  C18 UNL     1       7.128   1.361   0.997  1.00  0.00     0.031 C 
ENDBRANCH  27  30
ENDBRANCH   3  24
TORSDOF 7
