REMARK  7 active torsions:
REMARK  status: ('A' for Active; 'I' for Inactive)
REMARK    1  A    between atoms: C2_2  and  C4_4 
REMARK    2  A    between atoms: C4_4  and  C5_5 
REMARK    3  A    between atoms: C8_13  and  C9_14 
REMARK    4  A    between atoms: N3_15  and  C10_17 
REMARK    5  A    between atoms: C13_20  and  C14_21 
REMARK    6  A    between atoms: C15_22  and  C16_23 
REMARK    7  A    between atoms: C16_23  and  N4_24 
ROOT
HETATM    1  C5  UNL     1       4.872  -0.431   0.145  1.00  0.00     0.044 C 
HETATM    2  N1  UNL     1       4.829  -1.671   0.016  1.00  0.00    -0.365 N 
ATOM      3  H1  UNL     1       5.274  -2.267   0.714  1.00  0.00     0.162 HD
HETATM    4  C6  UNL     1       4.180  -2.249  -1.071  1.00  0.00     0.199 C 
HETATM    5  N2  UNL     1       3.492  -3.430  -0.625  1.00  0.00    -0.338 N 
ATOM      6  H2  UNL     1       3.864  -4.380  -0.619  1.00  0.00     0.164 HD
HETATM    7  C7  UNL     1       2.201  -3.032  -0.195  1.00  0.00     0.229 C 
HETATM    8  O1  UNL     1       1.287  -3.738   0.301  1.00  0.00    -0.273 OA
HETATM    9  C8  UNL     1       2.048  -1.563  -0.420  1.00  0.00     0.134 C 
HETATM   10  C19 UNL     1       3.028  -1.338  -1.520  1.00  0.00     0.114 C 
HETATM   11  S1  UNL     1       3.961   0.236  -1.247  1.00  0.00    -0.107 SA
ENDROOT
BRANCH   9  12
HETATM   12  C9  UNL     1       0.677  -1.137  -0.678  1.00  0.00     0.078 C 
HETATM   13  N3  UNL     1       0.098  -0.407   0.214  1.00  0.00    -0.355 N 
ATOM     14  H3  UNL     1       0.645  -0.177   1.044  1.00  0.00     0.166 HD
BRANCH  13  15
HETATM   15  C10 UNL     1      -1.204   0.101   0.159  1.00  0.00     0.105 A 
HETATM   16  C11 UNL     1      -1.563   1.291  -0.426  1.00  0.00     0.051 A 
HETATM   17  C12 UNL     1      -2.925   1.417  -0.258  1.00  0.00     0.033 A 
HETATM   18  C13 UNL     1      -3.334   0.290   0.427  1.00  0.00     0.033 A 
HETATM   19  N5  UNL     1      -2.283  -0.500   0.674  1.00  0.00    -0.343 N 
ATOM     20  H5  UNL     1      -2.301  -1.394   1.164  1.00  0.00     0.167 HD
BRANCH  18  21
HETATM   21  C14 UNL     1      -4.700  -0.020   0.839  1.00  0.00     0.027 C 
HETATM   22  C15 UNL     1      -5.661   0.837   0.550  1.00  0.00     0.005 C 
BRANCH  22  23
HETATM   23  C16 UNL     1      -7.075   0.605   0.929  1.00  0.00     0.299 C 
BRANCH  23  24
HETATM   24  N4  UNL     1      -7.887   0.573  -0.249  1.00  0.00     0.083 N 
HETATM   25  C17 UNL     1      -7.565  -0.603  -1.016  1.00  0.00     0.309 C 
HETATM   26  C18 UNL     1      -7.798   1.784  -1.011  1.00  0.00     0.309 C 
ENDBRANCH  23  24
ENDBRANCH  22  23
ENDBRANCH  18  21
ENDBRANCH  13  15
ENDBRANCH   9  12
BRANCH   1  27
HETATM   27  C4  UNL     1       5.501   0.355   1.205  1.00  0.00     0.068 C 
BRANCH  27  28
HETATM   28  C2  UNL     1       6.575   1.280   0.667  1.00  0.00    -0.017 C 
HETATM   29  C1  UNL     1       7.670   0.498  -0.020  1.00  0.00     0.010 C 
HETATM   30  C3  UNL     1       6.011   2.270  -0.329  1.00  0.00     0.010 C 
ENDBRANCH  27  28
ENDBRANCH   1  27
TORSDOF 7
