REMARK  9 active torsions:
REMARK  status: ('A' for Active; 'I' for Inactive)
REMARK    1  A    between atoms: C2_2  and  C3_3 
REMARK    2  A    between atoms: C8_8  and  C9_9 
REMARK    3  A    between atoms: C9_9  and  C10_10 
REMARK    4  A    between atoms: C14_14  and  O1_15 
REMARK    5  A    between atoms: O1_15  and  C15_16 
REMARK    6  A    between atoms: C18_19  and  O2_20 
REMARK    7  A    between atoms: O2_20  and  C19_21 
REMARK    8  A    between atoms: C21_24  and  O4_25 
REMARK    9  A    between atoms: C22_27  and  O5_28 
ROOT
HETATM    1  O1  UNL     1      -0.120  -0.292  -0.108  1.00  0.00    -0.338 OA
ENDROOT
BRANCH   1   2
HETATM    2  C14 UNL     1      -1.398  -0.665   0.200  1.00  0.00     0.087 A 
HETATM    3  C3  UNL     1      -1.647  -1.825   0.963  1.00  0.00     0.003 A 
HETATM    4  C4  UNL     1      -2.916  -2.244   1.290  1.00  0.00    -0.049 A 
HETATM    5  C5  UNL     1      -3.267  -3.424   2.103  1.00  0.00     0.049 C 
HETATM    6  C6  UNL     1      -4.014  -1.492   0.850  1.00  0.00     0.008 A 
HETATM    7  C7  UNL     1      -3.750  -0.370   0.113  1.00  0.00     0.011 A 
HETATM    8  C8  UNL     1      -2.479   0.058  -0.220  1.00  0.00    -0.020 A 
BRANCH   3   9
HETATM    9  C2  UNL     1      -0.522  -2.601   1.426  1.00  0.00     0.004 C 
HETATM   10  C1  UNL     1      -0.387  -3.890   1.533  1.00  0.00     0.012 C 
ENDBRANCH   3   9
BRANCH   8  11
HETATM   11  C9  UNL     1      -2.373   1.317  -1.012  1.00  0.00     0.068 C 
BRANCH  11  12
HETATM   12  C10 UNL     1      -2.005   2.476  -0.187  1.00  0.00    -0.020 C 
HETATM   13  C11 UNL     1      -2.826   3.519  -0.125  1.00  0.00    -0.091 C 
HETATM   14  C12 UNL     1      -2.502   4.735   0.704  1.00  0.00     0.042 C 
HETATM   15  C13 UNL     1      -4.119   3.556  -0.872  1.00  0.00     0.042 C 
ENDBRANCH  11  12
ENDBRANCH   8  11
ENDBRANCH   1   2
BRANCH   1  16
HETATM   16  C15 UNL     1       0.661  -0.524  -1.218  1.00  0.00     0.183 C 
HETATM   17  C16 UNL     1       1.524  -1.783  -1.098  1.00  0.00     0.006 C 
HETATM   18  C17 UNL     1       2.831  -1.703  -0.918  1.00  0.00     0.006 C 
HETATM   19  C18 UNL     1       3.630  -0.457  -0.810  1.00  0.00     0.185 C 
HETATM   20  C21 UNL     1       2.750   0.692  -0.587  1.00  0.00     0.182 C 
HETATM   21  C22 UNL     1       1.609   0.571  -1.618  1.00  0.00     0.182 C 
BRANCH  19  22
HETATM   22  O2  UNL     1       4.740  -0.602   0.017  1.00  0.00    -0.310 OA
BRANCH  22  23
HETATM   23  C19 UNL     1       6.055  -0.582  -0.361  1.00  0.00     0.255 C 
HETATM   24  C20 UNL     1       7.203  -0.741   0.559  1.00  0.00     0.126 C 
HETATM   25  O3  UNL     1       6.255  -0.416  -1.571  1.00  0.00    -0.266 OA
ENDBRANCH  22  23
ENDBRANCH  19  22
BRANCH  20  26
HETATM   26  O4  UNL     1       2.123   0.729   0.653  1.00  0.00    -0.390 OA
ATOM     27  H4  UNL     1       1.552   1.474   0.798  1.00  0.00     0.210 HD
ENDBRANCH  20  26
BRANCH  21  28
HETATM   28  O5  UNL     1       1.113   1.802  -1.838  1.00  0.00    -0.390 OA
ATOM     29  H5  UNL     1       1.712   2.494  -2.091  1.00  0.00     0.210 HD
ENDBRANCH  21  28
ENDBRANCH   1  16
TORSDOF 9
