REMARK  6 active torsions:
REMARK  status: ('A' for Active; 'I' for Inactive)
REMARK    1  A    between atoms: C2_2  and  C4_4 
REMARK    2  A    between atoms: C11_11  and  N1_12 
REMARK       I    between atoms: N1_12  and  C12_14 
REMARK    3  A    between atoms: C12_14  and  C13_16 
REMARK    4  A    between atoms: C13_16  and  S1_17 
REMARK    5  A    between atoms: S1_17  and  C14_18 
REMARK    6  A    between atoms: N4_24  and  C16_26 
ROOT
HETATM    1  N1  UNL     1      -0.931  -0.361  -0.978  1.00  0.00    -0.355 N 
ATOM      2  H1  UNL     1      -1.435  -0.847  -1.720  1.00  0.00     0.162 HD
HETATM    3  C12 UNL     1       0.471  -0.310  -1.076  1.00  0.00     0.227 C 
HETATM    4  O1  UNL     1       1.219   0.255  -0.272  1.00  0.00    -0.273 OA
ENDROOT
BRANCH   3   5
HETATM    5  C13 UNL     1       1.069  -1.016  -2.277  1.00  0.00     0.184 C 
BRANCH   5   6
HETATM    6  S1  UNL     1       1.802  -2.599  -1.790  1.00  0.00    -0.094 SA
BRANCH   6   7
HETATM    7  C14 UNL     1       3.330  -2.232  -0.893  1.00  0.00     0.130 A 
HETATM    8  N2  UNL     1       4.165  -3.080  -0.314  1.00  0.00    -0.286 N 
HETATM    9  N3  UNL     1       5.226  -2.664   0.242  1.00  0.00    -0.279 N 
ATOM     10  H2  UNL     1       3.953  -4.078  -0.315  1.00  0.00     0.188 HD
HETATM   11  C15 UNL     1       5.478  -1.346   0.227  1.00  0.00     0.162 A 
ATOM     12  H3  UNL     1       5.872  -3.315   0.689  1.00  0.00     0.189 HD
HETATM   13  N4  UNL     1       6.527  -0.748   0.752  1.00  0.00    -0.365 N 
HETATM   14  S2  UNL     1       4.127  -0.742  -0.617  1.00  0.00    -0.027 SA
ATOM     15  H4  UNL     1       7.256  -1.277   1.231  1.00  0.00     0.162 HD
BRANCH  13  16
HETATM   16  C16 UNL     1       6.602   0.685   0.621  1.00  0.00     0.083 A 
HETATM   17  C17 UNL     1       7.892   1.376   0.863  1.00  0.00     0.027 A 
HETATM   18  C18 UNL     1       7.479   1.147  -0.542  1.00  0.00     0.027 A 
ENDBRANCH  13  16
ENDBRANCH   6   7
ENDBRANCH   5   6
ENDBRANCH   3   5
BRANCH   1  19
HETATM   19  C11 UNL     1      -1.729   0.229   0.105  1.00  0.00     0.093 C 
HETATM   20  C4  UNL     1      -2.455   1.437  -0.268  1.00  0.00     0.034 C 
HETATM   21  C5  UNL     1      -3.380   1.815   0.842  1.00  0.00    -0.023 C 
HETATM   22  C6  UNL     1      -3.755   1.009   1.793  1.00  0.00    -0.021 C 
HETATM   23  C7  UNL     1      -3.325  -0.403   1.917  1.00  0.00    -0.028 C 
HETATM   24  C8  UNL     1      -4.623  -1.232   2.003  1.00  0.00     0.019 C 
HETATM   25  C9  UNL     1      -2.687  -0.565   3.288  1.00  0.00     0.019 C 
HETATM   26  C10 UNL     1      -2.498  -0.879   0.795  1.00  0.00     0.038 C 
BRANCH  20  27
HETATM   27  C2  UNL     1      -3.225   1.555  -1.518  1.00  0.00    -0.013 C 
HETATM   28  C1  UNL     1      -2.615   1.274  -2.819  1.00  0.00     0.010 C 
HETATM   29  C3  UNL     1      -4.489   0.669  -1.463  1.00  0.00     0.010 C 
ENDBRANCH  20  27
ENDBRANCH   1  19
TORSDOF 6
