REMARK  7 active torsions:
REMARK  status: ('A' for Active; 'I' for Inactive)
REMARK    1  A    between atoms: O1_2  and  C2_3 
REMARK    2  A    between atoms: C2_3  and  C3_5 
REMARK    3  A    between atoms: C8_10  and  N1_11 
REMARK       I    between atoms: N1_11  and  C9_13 
REMARK    4  A    between atoms: C9_13  and  C10_15 
REMARK       I    between atoms: C10_15  and  N2_17 
REMARK    5  A    between atoms: N2_17  and  C11_19 
REMARK    6  A    between atoms: C13_21  and  N3_22 
REMARK    7  A    between atoms: C15_26  and  S1_27 
ROOT
HETATM    1  C10 UNL     1      -0.420  -0.098  -0.315  1.00  0.00     0.314 C 
HETATM    2  O4  UNL     1      -0.322   0.988   0.275  1.00  0.00    -0.262 OA
HETATM    3  N2  UNL     1      -1.654  -0.641  -0.675  1.00  0.00    -0.319 N 
ATOM      4  H2  UNL     1      -1.660  -1.542  -1.153  1.00  0.00     0.169 HD
ENDROOT
BRANCH   1   5
HETATM    5  C9  UNL     1       0.825  -0.866  -0.661  1.00  0.00     0.314 C 
HETATM    6  N1  UNL     1       2.041  -0.283  -0.281  1.00  0.00    -0.318 N 
ATOM      7  H1  UNL     1       1.993   0.613   0.204  1.00  0.00     0.169 HD
HETATM    8  O3  UNL     1       0.612  -1.938  -1.250  1.00  0.00    -0.262 OA
BRANCH   6   9
HETATM    9  C8  UNL     1       3.327  -0.821  -0.507  1.00  0.00     0.051 A 
HETATM   10  C3  UNL     1       4.441  -0.224   0.090  1.00  0.00     0.066 A 
HETATM   11  C4  UNL     1       5.686  -0.775  -0.213  1.00  0.00     0.020 A 
HETATM   12  C5  UNL     1       5.864  -1.847  -1.045  1.00  0.00     0.001 A 
HETATM   13  C6  UNL     1       4.775  -2.434  -1.631  1.00  0.00     0.002 A 
HETATM   14  C7  UNL     1       3.534  -1.910  -1.350  1.00  0.00     0.030 A 
BRANCH  10  15
HETATM   15  C2  UNL     1       4.403   0.889   1.014  1.00  0.00     0.295 C 
HETATM   16  O2  UNL     1       3.420   1.509   1.452  1.00  0.00    -0.259 OA
BRANCH  15  17
HETATM   17  O1  UNL     1       5.631   1.370   1.512  1.00  0.00    -0.322 OA
HETATM   18  C1  UNL     1       5.705   2.450   2.417  1.00  0.00     0.213 C 
ENDBRANCH  15  17
ENDBRANCH  10  15
ENDBRANCH   6   9
ENDBRANCH   1   5
BRANCH   3  19
HETATM   19  C11 UNL     1      -2.892  -0.020  -0.418  1.00  0.00     0.039 A 
HETATM   20  C12 UNL     1      -3.101   1.310  -0.172  1.00  0.00     0.065 A 
HETATM   21  C13 UNL     1      -4.357   1.839   0.101  1.00  0.00     0.106 A 
HETATM   22  C14 UNL     1      -5.424   0.971   0.121  1.00  0.00     0.062 A 
HETATM   23  C15 UNL     1      -5.227  -0.354  -0.123  1.00  0.00     0.085 A 
HETATM   24  C16 UNL     1      -4.001  -0.897  -0.394  1.00  0.00     0.056 A 
BRANCH  21  25
HETATM   25  N3  UNL     1      -4.543   3.222   0.353  1.00  0.00    -0.116 N 
HETATM   26  O5  UNL     1      -3.579   3.993   0.333  1.00  0.00    -0.532 OA
HETATM   27  O6  UNL     1      -5.787   3.710   0.618  1.00  0.00    -0.532 OA
ENDBRANCH  21  25
BRANCH  23  28
HETATM   28  S1  UNL     1      -6.619  -1.431  -0.088  1.00  0.00     0.137 S 
HETATM   29  O7  UNL     1      -6.344  -2.614  -0.991  1.00  0.00    -0.591 OA
HETATM   30  O8  UNL     1      -7.865  -0.725  -0.547  1.00  0.00    -0.591 OA
HETATM   31  O9  UNL     1      -6.770  -1.983   1.494  1.00  0.00    -0.591 OA
ENDBRANCH  23  28
ENDBRANCH   3  19
TORSDOF 7
