REMARK  6 active torsions:
REMARK  status: ('A' for Active; 'I' for Inactive)
REMARK    1  A    between atoms: O1_2  and  C2_3 
REMARK    2  A    between atoms: C2_3  and  C3_5 
REMARK    3  A    between atoms: C7_9  and  N1_10 
REMARK    4  A    between atoms: C12_22  and  N3_23 
REMARK    5  A    between atoms: N3_23  and  N4_25 
REMARK       I    between atoms: N4_25  and  C13_27 
REMARK    6  A    between atoms: C13_27  and  C14_29 
ROOT
HETATM    1  C3  UNL     1      -0.804   2.665  -0.531  1.00  0.00     0.069 A 
HETATM    2  C4  UNL     1      -1.893   3.193  -1.228  1.00  0.00     0.020 A 
HETATM    3  C5  UNL     1      -2.864   2.342  -1.690  1.00  0.00     0.003 A 
HETATM    4  C6  UNL     1      -2.793   0.975  -1.484  1.00  0.00     0.032 A 
HETATM    5  C7  UNL     1      -1.706   0.483  -0.792  1.00  0.00     0.063 A 
HETATM    6  C12 UNL     1      -0.693   1.315  -0.303  1.00  0.00     0.091 A 
ENDROOT
BRANCH   6   7
HETATM    7  N3  UNL     1       0.421   0.782   0.399  1.00  0.00    -0.295 N 
ATOM      8  H3  UNL     1       0.404   0.818   1.418  1.00  0.00     0.187 HD
BRANCH   7   9
HETATM    9  N4  UNL     1       1.536   0.213  -0.213  1.00  0.00    -0.265 N 
HETATM   10  C13 UNL     1       2.233  -0.897   0.322  1.00  0.00     0.270 C 
HETATM   11  O6  UNL     1       1.812  -1.392   1.426  1.00  0.00    -0.266 OA
ATOM     12  H4  UNL     1       1.866   0.616  -1.090  1.00  0.00     0.190 HD
BRANCH  10  13
HETATM   13  C14 UNL     1       3.388  -1.532  -0.262  1.00  0.00     0.036 A 
HETATM   14  C15 UNL     1       3.372  -2.260  -1.443  1.00  0.00     0.034 A 
HETATM   15  C16 UNL     1       4.513  -2.836  -1.951  1.00  0.00     0.088 A 
HETATM   16  N5  UNL     1       5.687  -2.719  -1.330  1.00  0.00    -0.375 N 
HETATM   17  C17 UNL     1       5.725  -2.010  -0.171  1.00  0.00     0.088 A 
ATOM     18  H5  UNL     1       6.530  -3.148  -1.712  1.00  0.00     0.164 HD
HETATM   19  C18 UNL     1       4.604  -1.419   0.369  1.00  0.00     0.034 A 
ENDBRANCH  10  13
ENDBRANCH   7   9
ENDBRANCH   6   7
BRANCH   1  20
HETATM   20  C2  UNL     1       0.253   3.545  -0.021  1.00  0.00     0.295 C 
HETATM   21  O2  UNL     1       1.241   3.092   0.607  1.00  0.00    -0.259 OA
BRANCH  20  22
HETATM   22  O1  UNL     1       0.218   4.927  -0.207  1.00  0.00    -0.322 OA
HETATM   23  C1  UNL     1       1.254   5.767   0.298  1.00  0.00     0.213 C 
ENDBRANCH  20  22
ENDBRANCH   1  20
BRANCH   5  24
HETATM   24  N1  UNL     1      -1.594  -0.909  -0.561  1.00  0.00    -0.337 N 
HETATM   25  C8  UNL     1      -2.319  -1.601   0.234  1.00  0.00     0.166 A 
HETATM   26  N2  UNL     1      -3.354  -1.030   1.000  1.00  0.00    -0.263 N 
HETATM   27  C11 UNL     1      -2.028  -3.019   0.315  1.00  0.00     0.216 A 
HETATM   28  S1  UNL     1      -4.317  -1.982   2.057  1.00  0.00     0.254 S 
ATOM     29  H2  UNL     1      -3.536  -0.029   0.925  1.00  0.00     0.180 HD
HETATM   30  O3  UNL     1      -5.740  -1.964   1.526  1.00  0.00    -0.201 OA
HETATM   31  O4  UNL     1      -4.244  -1.431   3.443  1.00  0.00    -0.201 OA
HETATM   32  C9  UNL     1      -3.755  -3.619   1.957  1.00  0.00     0.135 A 
HETATM   33  C10 UNL     1      -2.756  -3.948   1.166  1.00  0.00     0.072 A 
HETATM   34  O5  UNL     1      -1.090  -3.524  -0.383  1.00  0.00    -0.284 OA
ATOM     35  H1  UNL     1      -0.868  -1.407  -1.076  1.00  0.00     0.167 HD
ENDBRANCH   5  24
TORSDOF 6
