REMARK  9 active torsions:
REMARK  status: ('A' for Active; 'I' for Inactive)
REMARK    1  A    between atoms: N1_1  and  S1_4 
REMARK    2  A    between atoms: S1_4  and  C1_7 
REMARK    3  A    between atoms: C5_11  and  N2_12 
REMARK    4  A    between atoms: N2_12  and  C6_14 
REMARK    5  A    between atoms: C6_14  and  N3_16 
REMARK    6  A    between atoms: N3_16  and  N4_18 
REMARK    7  A    between atoms: C7_20  and  C8_21 
REMARK    8  A    between atoms: C10_25  and  N6_26 
REMARK    9  A    between atoms: C12_30  and  N7_31 
ROOT
HETATM    1  N3  UNL     1      -0.598  -2.716   0.062  1.00  0.00    -0.276 N 
ATOM      2  H3  UNL     1      -1.055  -3.623   0.158  1.00  0.00     0.189 HD
ENDROOT
BRANCH   1   3
HETATM    3  C6  UNL     1       0.823  -2.608   0.305  1.00  0.00     0.191 C 
HETATM    4  S2  UNL     1       1.582  -3.958   0.750  1.00  0.00    -0.039 SA
BRANCH   3   5
HETATM    5  N2  UNL     1       1.459  -1.382   0.182  1.00  0.00    -0.332 N 
ATOM      6  H2  UNL     1       0.860  -0.595  -0.067  1.00  0.00     0.168 HD
BRANCH   5   7
HETATM    7  C5  UNL     1       2.820  -1.083   0.356  1.00  0.00     0.035 A 
HETATM    8  C4  UNL     1       3.833  -1.967   0.092  1.00  0.00     0.029 A 
HETATM    9  C3  UNL     1       5.142  -1.535   0.344  1.00  0.00     0.004 A 
HETATM   10  C2  UNL     1       5.407  -0.278   0.835  1.00  0.00     0.025 A 
HETATM   11  C1  UNL     1       4.396   0.616   1.102  1.00  0.00     0.081 A 
HETATM   12  C13 UNL     1       3.116   0.202   0.859  1.00  0.00     0.054 A 
BRANCH  11  13
HETATM   13  S1  UNL     1       4.731   2.225   1.730  1.00  0.00     0.256 S 
HETATM   14  O1  UNL     1       6.015   2.092   2.534  1.00  0.00    -0.201 OA
HETATM   15  O2  UNL     1       3.628   2.656   2.637  1.00  0.00    -0.201 OA
BRANCH  13  16
HETATM   16  N1  UNL     1       4.938   3.350   0.459  1.00  0.00    -0.324 N 
ATOM     17  H12 UNL     1       5.807   3.853   0.279  1.00  0.00     0.169 HD
ATOM     18  H11 UNL     1       4.077   3.439  -0.080  1.00  0.00     0.169 HD
ENDBRANCH  13  16
ENDBRANCH  11  13
ENDBRANCH   5   7
ENDBRANCH   3   5
ENDBRANCH   1   3
BRANCH   1  19
HETATM   19  N4  UNL     1      -1.352  -1.608  -0.299  1.00  0.00    -0.307 N 
HETATM   20  C7  UNL     1      -2.647  -1.637  -0.175  1.00  0.00     0.139 C 
ATOM     21  H4  UNL     1      -0.892  -0.773  -0.661  1.00  0.00     0.186 HD
BRANCH  20  22
HETATM   22  C8  UNL     1      -3.424  -0.472  -0.555  1.00  0.00     0.082 A 
HETATM   23  N5  UNL     1      -2.737   0.575  -1.081  1.00  0.00    -0.360 N 
HETATM   24  C9  UNL     1      -3.308   1.699  -1.512  1.00  0.00     0.124 A 
ATOM     25  H5  UNL     1      -1.722   0.496  -1.150  1.00  0.00     0.165 HD
HETATM   26  C10 UNL     1      -4.681   1.783  -1.406  1.00  0.00     0.120 A 
HETATM   27  C11 UNL     1      -5.416   0.755  -0.882  1.00  0.00     0.075 A 
HETATM   28  C12 UNL     1      -4.787  -0.423  -0.434  1.00  0.00     0.133 A 
BRANCH  26  29
HETATM   29  N6  UNL     1      -5.331   2.973  -1.857  1.00  0.00    -0.114 N 
HETATM   30  O3  UNL     1      -4.676   3.907  -2.330  1.00  0.00    -0.532 OA
HETATM   31  O4  UNL     1      -6.697   3.082  -1.764  1.00  0.00    -0.532 OA
ENDBRANCH  26  29
BRANCH  28  32
HETATM   32  N7  UNL     1      -5.587  -1.449   0.093  1.00  0.00    -0.113 N 
HETATM   33  O5  UNL     1      -6.767  -1.543  -0.362  1.00  0.00    -0.532 OA
HETATM   34  O6  UNL     1      -5.168  -2.311   1.031  1.00  0.00    -0.532 OA
ENDBRANCH  28  32
ENDBRANCH  20  22
ENDBRANCH   1  19
TORSDOF 9
