REMARK  6 active torsions:
REMARK  status: ('A' for Active; 'I' for Inactive)
REMARK    1  A    between atoms: C5_6  and  O2_7 
REMARK    2  A    between atoms: C6_9  and  N1_10 
REMARK    3  A    between atoms: N1_10  and  S1_12 
REMARK    4  A    between atoms: S1_12  and  C7_13 
REMARK    5  A    between atoms: C9_16  and  C10_17 
REMARK    6  A    between atoms: C11_18  and  C12_19 
ROOT
HETATM    1  C1  UNL     1      -4.382   2.828  -0.307  1.00  0.00     0.078 C 
HETATM    2  C2  UNL     1      -2.937   2.765   0.138  1.00  0.00     0.158 C 
HETATM    3  C3  UNL     1      -2.439   4.121   0.570  1.00  0.00     0.078 C 
HETATM    4  O1  UNL     1      -2.202   2.279  -0.959  1.00  0.00    -0.345 OA
HETATM    5  C4  UNL     1      -2.121   0.935  -0.732  1.00  0.00     0.187 C 
HETATM    6  C5  UNL     1      -1.119   0.166  -1.494  1.00  0.00     0.175 C 
HETATM    7  C6  UNL     1      -0.300  -0.731  -0.616  1.00  0.00     0.151 C 
HETATM    8  C13 UNL     1      -1.076  -1.371   0.485  1.00  0.00     0.182 C 
HETATM    9  O6  UNL     1      -1.903  -2.351  -0.059  1.00  0.00    -0.346 OA
HETATM   10  C14 UNL     1      -3.163  -2.176   0.469  1.00  0.00     0.158 C 
HETATM   11  C15 UNL     1      -4.230  -2.436  -0.604  1.00  0.00     0.078 C 
HETATM   12  C16 UNL     1      -3.395  -3.214   1.545  1.00  0.00     0.078 C 
HETATM   13  O7  UNL     1      -3.267  -0.886   0.928  1.00  0.00    -0.345 OA
HETATM   14  C17 UNL     1      -1.984  -0.450   1.246  1.00  0.00     0.188 C 
HETATM   15  C18 UNL     1      -1.822   0.955   0.776  1.00  0.00     0.188 C 
HETATM   16  O8  UNL     1      -2.809   1.829   1.165  1.00  0.00    -0.345 OA
ENDROOT
BRANCH   7  17
HETATM   17  N1  UNL     1       0.913  -0.118  -0.115  1.00  0.00    -0.353 N 
ATOM     18  H1  UNL     1       1.097   0.002   0.881  1.00  0.00     0.168 HD
BRANCH  17  19
HETATM   19  S1  UNL     1       2.024   0.394  -1.334  1.00  0.00    -0.026 SA
BRANCH  19  20
HETATM   20  C7  UNL     1       3.653  -0.381  -1.220  1.00  0.00     0.213 C 
HETATM   21  O3  UNL     1       3.657  -1.750  -1.463  1.00  0.00    -0.372 OA
HETATM   22  C8  UNL     1       3.877  -1.984  -0.127  1.00  0.00     0.181 C 
HETATM   23  C9  UNL     1       4.183  -0.525   0.165  1.00  0.00     0.073 C 
BRANCH  23  24
HETATM   24  C10 UNL     1       5.615  -0.299   0.392  1.00  0.00    -0.010 C 
HETATM   25  C11 UNL     1       6.394   0.498  -0.302  1.00  0.00     0.081 C 
BRANCH  25  26
HETATM   26  C12 UNL     1       7.810   0.677  -0.023  1.00  0.00     0.198 C 
HETATM   27  O4  UNL     1       8.308   0.033   0.932  1.00  0.00    -0.645 OA
HETATM   28  O5  UNL     1       8.604   1.525  -0.773  1.00  0.00    -0.645 OA
ENDBRANCH  25  26
ENDBRANCH  23  24
ENDBRANCH  19  20
ENDBRANCH  17  19
ENDBRANCH   7  17
BRANCH   6  29
HETATM   29  O2  UNL     1      -0.305   0.939  -2.311  1.00  0.00    -0.391 OA
ATOM     30  H2  UNL     1       0.340   0.444  -2.802  1.00  0.00     0.210 HD
ENDBRANCH   6  29
TORSDOF 6
