REMARK  7 active torsions:
REMARK  status: ('A' for Active; 'I' for Inactive)
REMARK    1  A    between atoms: C2_2  and  O2_4 
REMARK    2  A    between atoms: O2_4  and  C3_5 
REMARK    3  A    between atoms: C4_6  and  O3_7 
REMARK    4  A    between atoms: C6_10  and  N1_11 
REMARK       I    between atoms: N1_11  and  C7_13 
REMARK    5  A    between atoms: C7_13  and  C8_15 
REMARK    6  A    between atoms: C11_20  and  C12_21 
REMARK    7  A    between atoms: C15_24  and  O7_25 
ROOT
HETATM    1  N1  UNL     1      -1.133   0.545  -0.506  1.00  0.00    -0.334 N 
ATOM      2  H1  UNL     1      -0.869   1.528  -0.440  1.00  0.00     0.165 HD
HETATM    3  C7  UNL     1      -0.120  -0.441  -0.607  1.00  0.00     0.228 C 
HETATM    4  O4  UNL     1      -0.445  -1.641  -0.687  1.00  0.00    -0.273 OA
ENDROOT
BRANCH   3   5
HETATM    5  C8  UNL     1       1.315  -0.093  -0.620  1.00  0.00     0.135 C 
HETATM    6  C9  UNL     1       1.591   0.801  -1.790  1.00  0.00     0.188 C 
HETATM    7  O5  UNL     1       2.710   0.345  -2.443  1.00  0.00    -0.358 OA
HETATM    8  C10 UNL     1       2.855  -0.995  -2.185  1.00  0.00     0.293 C 
HETATM    9  O6  UNL     1       4.218  -1.205  -1.871  1.00  0.00    -0.325 OA
HETATM   10  C18 UNL     1       2.203  -1.270  -0.851  1.00  0.00     0.195 C 
HETATM   11  C11 UNL     1       4.261  -0.631  -0.587  1.00  0.00     0.298 C 
HETATM   12  O8  UNL     1       3.232  -1.248   0.091  1.00  0.00    -0.346 OA
BRANCH  11  13
HETATM   13  C12 UNL     1       5.559  -0.888   0.067  1.00  0.00    -0.004 A 
HETATM   14  C13 UNL     1       6.159  -2.131   0.049  1.00  0.00     0.015 A 
HETATM   15  C14 UNL     1       7.383  -2.366   0.668  1.00  0.00     0.037 A 
HETATM   16  C15 UNL     1       8.031  -1.345   1.321  1.00  0.00     0.065 A 
HETATM   17  C16 UNL     1       7.442  -0.100   1.345  1.00  0.00     0.037 A 
HETATM   18  C17 UNL     1       6.225   0.124   0.728  1.00  0.00     0.015 A 
BRANCH  16  19
HETATM   19  O7  UNL     1       9.257  -1.602   1.934  1.00  0.00    -0.361 OA
ATOM     20  H7  UNL     1       9.705  -0.896   2.385  1.00  0.00     0.217 HD
ENDBRANCH  16  19
ENDBRANCH  11  13
ENDBRANCH   3   5
BRANCH   1  21
HETATM   21  C6  UNL     1      -2.536   0.183  -0.495  1.00  0.00     0.226 C 
HETATM   22  C5  UNL     1      -3.300   0.725  -1.633  1.00  0.00     0.088 C 
HETATM   23  C4  UNL     1      -4.560   1.444  -1.373  1.00  0.00     0.154 C 
HETATM   24  C3  UNL     1      -5.022   1.335   0.064  1.00  0.00     0.189 C 
HETATM   25  C19 UNL     1      -3.758   1.584   0.899  1.00  0.00     0.152 C 
HETATM   26  O9  UNL     1      -3.003   0.450   0.774  1.00  0.00    -0.359 OA
HETATM   27  C20 UNL     1      -4.085   1.846   2.329  1.00  0.00     0.042 C 
BRANCH  23  28
HETATM   28  O3  UNL     1      -4.480   2.818  -1.651  1.00  0.00    -0.393 OA
ATOM     29  H3  UNL     1      -4.190   2.886  -2.553  1.00  0.00     0.210 HD
ENDBRANCH  23  28
BRANCH  24  30
HETATM   30  O2  UNL     1      -5.450   0.001   0.269  1.00  0.00    -0.311 OA
BRANCH  30  31
HETATM   31  C2  UNL     1      -6.746  -0.282   0.726  1.00  0.00     0.255 C 
HETATM   32  C1  UNL     1      -7.247  -1.644   0.957  1.00  0.00     0.126 C 
HETATM   33  O1  UNL     1      -7.478   0.731   0.933  1.00  0.00    -0.266 OA
ENDBRANCH  30  31
ENDBRANCH  24  30
ENDBRANCH   1  21
TORSDOF 7
