REMARK  10 active torsions:
REMARK  status: ('A' for Active; 'I' for Inactive)
REMARK    1  A    between atoms: O1_2  and  C2_3 
REMARK    2  A    between atoms: C2_3  and  C3_5 
REMARK    3  A    between atoms: C3_5  and  O3_6 
REMARK    4  A    between atoms: C5_9  and  N1_10 
REMARK    5  A    between atoms: N1_10  and  C6_11 
REMARK    6  A    between atoms: C9_14  and  S1_15 
REMARK    7  A    between atoms: S1_15  and  N2_18 
REMARK       I    between atoms: N2_18  and  C10_20 
REMARK    8  A    between atoms: C13_26  and  N4_27 
REMARK    9  A    between atoms: N4_27  and  N5_29 
REMARK   10  A    between atoms: N5_29  and  N6_30 
ROOT
HETATM    1  C3  UNL     1      -3.766   1.427  -0.270  1.00  0.00     0.154 C 
HETATM    2  C4  UNL     1      -2.339   1.556  -0.435  1.00  0.00     0.129 C 
HETATM    3  C5  UNL     1      -1.433   0.381  -0.386  1.00  0.00     0.127 C 
HETATM    4  S2  UNL     1      -2.331  -1.123   0.111  1.00  0.00    -0.074 SA
HETATM    5  C13 UNL     1      -3.803  -1.018  -0.944  1.00  0.00     0.186 C 
HETATM    6  C14 UNL     1      -4.531   0.283  -0.765  1.00  0.00     0.087 C 
ENDROOT
BRANCH   3   7
HETATM    7  N1  UNL     1      -0.269   0.401  -0.625  1.00  0.00    -0.403 NA
BRANCH   7   8
HETATM    8  C6  UNL     1       0.983   0.049  -0.808  1.00  0.00     0.107 A 
HETATM    9  C7  UNL     1       1.418  -1.260  -0.651  1.00  0.00     0.046 A 
HETATM   10  C8  UNL     1       2.710  -1.642  -0.869  1.00  0.00     0.028 A 
HETATM   11  C9  UNL     1       3.642  -0.714  -1.260  1.00  0.00     0.080 A 
HETATM   12  C11 UNL     1       3.254   0.598  -1.426  1.00  0.00     0.028 A 
HETATM   13  C12 UNL     1       1.957   0.974  -1.208  1.00  0.00     0.046 A 
BRANCH  11  14
HETATM   14  S1  UNL     1       5.291  -1.115  -1.626  1.00  0.00     0.266 S 
HETATM   15  O4  UNL     1       5.387  -2.412  -2.386  1.00  0.00    -0.200 OA
HETATM   16  O5  UNL     1       5.895   0.007  -2.462  1.00  0.00    -0.200 OA
BRANCH  14  17
HETATM   17  N2  UNL     1       6.234  -1.219  -0.193  1.00  0.00    -0.234 N 
HETATM   18  C10 UNL     1       6.212  -0.265   0.799  1.00  0.00     0.342 C 
HETATM   19  N3  UNL     1       7.069  -0.433   1.962  1.00  0.00    -0.039 NA
HETATM   20  O6  UNL     1       5.496   0.791   0.813  1.00  0.00    -0.250 OA
ATOM     21  H2  UNL     1       6.841  -2.029  -0.071  1.00  0.00     0.183 HD
ENDBRANCH  14  17
ENDBRANCH  11  14
ENDBRANCH   7   8
ENDBRANCH   3   7
BRANCH   1  22
HETATM   22  C2  UNL     1      -4.073   1.693   1.166  1.00  0.00     0.293 C 
HETATM   23  O2  UNL     1      -4.504   2.799   1.523  1.00  0.00    -0.262 OA
BRANCH  22  24
HETATM   24  O1  UNL     1      -3.887   0.725   2.148  1.00  0.00    -0.324 OA
HETATM   25  C1  UNL     1      -4.194   1.067   3.512  1.00  0.00     0.213 C 
ENDBRANCH  22  24
ENDBRANCH   1  22
BRANCH   1  26
HETATM   26  O3  UNL     1      -4.298   2.588  -0.922  1.00  0.00    -0.379 OA
ATOM     27  H3  UNL     1      -4.103   2.419  -1.836  1.00  0.00     0.211 HD
ENDBRANCH   1  26
BRANCH   5  28
HETATM   28  N4  UNL     1      -4.618  -2.166  -0.611  1.00  0.00    -0.238 N 
ATOM     29  H4  UNL     1      -5.623  -2.132  -0.782  1.00  0.00     0.198 HD
BRANCH  28  30
HETATM   30  N5  UNL     1      -4.119  -3.189  -0.122  1.00  0.00    -0.247 NA
BRANCH  30  31
HETATM   31  N6  UNL     1      -3.943  -4.154   0.621  1.00  0.00    -0.261 N 
ATOM     32  H62 UNL     1      -4.747  -3.980   1.225  1.00  0.00     0.193 HD
ATOM     33  H61 UNL     1      -3.532  -4.996   1.024  1.00  0.00     0.193 HD
ENDBRANCH  30  31
ENDBRANCH  28  30
ENDBRANCH   5  28
TORSDOF 10
