REMARK  5 active torsions:
REMARK  status: ('A' for Active; 'I' for Inactive)
REMARK    1  A    between atoms: C1_2  and  C2_3 
REMARK       I    between atoms: C1_2  and  N1_14 
REMARK    2  A    between atoms: C2_3  and  C3_4 
REMARK    3  A    between atoms: N1_14  and  S4_16 
REMARK    4  A    between atoms: S4_16  and  N2_19 
REMARK    5  A    between atoms: N2_19  and  C9_21 
ROOT
HETATM    1  O1  UNL     1      -0.033  -0.922   0.435  1.00  0.00    -0.273 OA
HETATM    2  C1  UNL     1       0.474   0.246   0.403  1.00  0.00     0.233 C 
HETATM    3  N1  UNL     1       1.800   0.390  -0.055  1.00  0.00    -0.237 N 
ATOM      4  H1  UNL     1       2.229   1.315  -0.088  1.00  0.00     0.183 HD
ENDROOT
BRANCH   3   5
HETATM    5  S4  UNL     1       2.694  -0.987  -0.558  1.00  0.00     0.327 S 
HETATM    6  O3  UNL     1       1.917  -1.755  -1.618  1.00  0.00    -0.182 OA
HETATM    7  O4  UNL     1       2.930  -1.890   0.623  1.00  0.00    -0.182 OA
BRANCH   5   8
HETATM    8  N2  UNL     1       4.162  -0.491  -1.286  1.00  0.00    -0.252 N 
ATOM      9  H2  UNL     1       4.197  -0.209  -2.265  1.00  0.00     0.182 HD
BRANCH   8  10
HETATM   10  C9  UNL     1       5.355  -0.487  -0.459  1.00  0.00     0.125 A 
HETATM   11  C10 UNL     1       5.670   0.638   0.262  1.00  0.00     0.104 A 
HETATM   12  S5  UNL     1       7.131   0.174   1.021  1.00  0.00    -0.037 SA
HETATM   13  C11 UNL     1       7.255  -1.406   0.384  1.00  0.00     0.289 A 
HETATM   14  O5  UNL     1       8.163  -2.291   0.584  1.00  0.00    -0.260 OA
HETATM   15  N3  UNL     1       6.169  -1.504  -0.381  1.00  0.00    -0.303 N 
ATOM     16  H3  UNL     1       5.976  -2.362  -0.898  1.00  0.00     0.171 HD
ENDBRANCH   8  10
ENDBRANCH   5   8
ENDBRANCH   3   5
BRANCH   2  17
HETATM   17  C2  UNL     1      -0.288   1.455   0.833  1.00  0.00     0.126 C 
BRANCH  17  18
HETATM   18  C3  UNL     1      -1.694   1.049   1.153  1.00  0.00     0.128 C 
HETATM   19  S1  UNL     1      -2.669   2.516   1.712  1.00  0.00    -0.153 SA
HETATM   20  C4  UNL     1      -4.153   2.270   0.673  1.00  0.00     0.114 C 
HETATM   21  C5  UNL     1      -3.909   0.877   0.143  1.00  0.00     0.126 C 
HETATM   22  S2  UNL     1      -4.782   0.543  -1.405  1.00  0.00    -0.139 SA
HETATM   23  S3  UNL     1      -4.532  -0.398   1.235  1.00  0.00    -0.139 SA
HETATM   24  C8  UNL     1      -2.455   0.769  -0.109  1.00  0.00     0.170 C 
HETATM   25  C6  UNL     1      -5.242  -1.198  -1.198  1.00  0.00     0.086 C 
HETATM   26  C7  UNL     1      -5.692  -1.370   0.238  1.00  0.00     0.086 C 
HETATM   27  O2  UNL     1      -1.905   0.497  -1.159  1.00  0.00    -0.294 OA
ENDBRANCH  17  18
ENDBRANCH   2  17
TORSDOF 5
