REMARK  14 active torsions:
REMARK  status: ('A' for Active; 'I' for Inactive)
REMARK    1  A    between atoms: C2_2  and  C3_3 
REMARK    2  A    between atoms: C3_3  and  C4_4 
REMARK    3  A    between atoms: C4_4  and  C5_5 
REMARK    4  A    between atoms: C6_8  and  O1_9 
REMARK    5  A    between atoms: C7_11  and  C8_12 
REMARK    6  A    between atoms: C8_12  and  C9_13 
REMARK    7  A    between atoms: C13_20  and  C14_21 
REMARK    8  A    between atoms: C14_21  and  C16_23 
REMARK    9  A    between atoms: C24_37  and  C25_38 
REMARK   10  A    between atoms: C25_38  and  C26_39 
REMARK   11  A    between atoms: C26_39  and  C27_40 
REMARK   12  A    between atoms: C27_40  and  C28_41 
REMARK   13  A    between atoms: C28_41  and  N5_42 
REMARK   14  A    between atoms: C31_50  and  C32_51 
ROOT
HETATM    1  C5  UNL     1      -0.973   2.830   0.296  1.00  0.00     0.175 C 
HETATM    2  N1  UNL     1      -1.476   2.232   1.492  1.00  0.00    -0.359 N 
ATOM      3  H1  UNL     1      -1.548   2.918   2.244  1.00  0.00     0.162 HD
HETATM    4  C6  UNL     1      -1.888   0.997   1.910  1.00  0.00     0.135 C 
HETATM    5  C7  UNL     1      -3.122   0.182   1.663  1.00  0.00     0.159 C 
HETATM    6  N2  UNL     1      -3.701   0.320   0.387  1.00  0.00    -0.347 N 
ATOM      7  H2  UNL     1      -4.113   1.224   0.156  1.00  0.00     0.163 HD
HETATM    8  C12 UNL     1      -3.761  -0.713  -0.623  1.00  0.00     0.241 C 
HETATM    9  O2  UNL     1      -4.570  -0.564  -1.607  1.00  0.00    -0.271 OA
HETATM   10  C13 UNL     1      -2.953  -1.942  -0.613  1.00  0.00     0.181 C 
HETATM   11  N3  UNL     1      -2.111  -2.028  -1.809  1.00  0.00    -0.337 N 
ATOM     12  H3  UNL     1      -2.382  -1.521  -2.652  1.00  0.00     0.164 HD
HETATM   13  C18 UNL     1      -0.932  -2.801  -1.813  1.00  0.00     0.297 C 
HETATM   14  O3  UNL     1      -0.493  -3.336  -2.893  1.00  0.00    -0.258 OA
HETATM   15  C19 UNL     1      -0.195  -3.019  -0.651  1.00  0.00    -0.006 C 
HETATM   16  C20 UNL     1       0.413  -3.204   0.271  1.00  0.00    -0.095 C 
HETATM   17  C21 UNL     1       1.202  -3.455   1.424  1.00  0.00     0.114 C 
HETATM   18  C22 UNL     1       2.457  -2.576   1.318  1.00  0.00     0.135 C 
HETATM   19  N4  UNL     1       2.810  -2.451  -0.081  1.00  0.00    -0.358 N 
ATOM     20  H4  UNL     1       2.770  -3.300  -0.644  1.00  0.00     0.162 HD
HETATM   21  C23 UNL     1       3.204  -1.268  -0.739  1.00  0.00     0.240 C 
HETATM   22  O4  UNL     1       2.618  -1.044  -1.856  1.00  0.00    -0.271 OA
HETATM   23  C24 UNL     1       4.196  -0.288  -0.291  1.00  0.00     0.178 C 
HETATM   24  N6  UNL     1       3.849   0.512   0.850  1.00  0.00    -0.341 N 
HETATM   25  C29 UNL     1       4.773   0.414   2.017  1.00  0.00     0.153 C 
HETATM   26  C30 UNL     1       2.771   1.372   1.027  1.00  0.00     0.243 C 
HETATM   27  O5  UNL     1       2.148   1.211   2.154  1.00  0.00    -0.271 OA
HETATM   28  C31 UNL     1       2.207   2.427   0.186  1.00  0.00     0.180 C 
HETATM   29  N7  UNL     1       1.227   2.008  -0.775  1.00  0.00    -0.346 N 
ATOM     30  H7  UNL     1       1.583   1.671  -1.670  1.00  0.00     0.163 HD
HETATM   31  C35 UNL     1      -0.184   2.011  -0.616  1.00  0.00     0.241 C 
HETATM   32  O6  UNL     1      -0.785   1.204  -1.366  1.00  0.00    -0.271 OA
ENDROOT
BRANCH  23  33
HETATM   33  C25 UNL     1       5.514  -1.043  -0.055  1.00  0.00     0.035 C 
BRANCH  33  34
HETATM   34  C26 UNL     1       5.883  -1.657  -1.398  1.00  0.00     0.004 C 
BRANCH  34  35
HETATM   35  C27 UNL     1       7.167  -2.436  -1.328  1.00  0.00     0.027 C 
BRANCH  35  36
HETATM   36  C28 UNL     1       7.020  -3.557  -0.315  1.00  0.00     0.229 C 
BRANCH  36  37
HETATM   37  N5  UNL     1       8.268  -4.331  -0.234  1.00  0.00    -0.079 N 
ATOM     38  H53 UNL     1       8.562  -4.678  -1.147  1.00  0.00     0.274 HD
ATOM     39  H52 UNL     1       9.073  -3.738  -0.033  1.00  0.00     0.274 HD
ATOM     40  H51 UNL     1       8.169  -5.084   0.447  1.00  0.00     0.274 HD
ENDBRANCH  36  37
ENDBRANCH  35  36
ENDBRANCH  34  35
ENDBRANCH  33  34
ENDBRANCH  23  33
BRANCH  28  41
HETATM   41  C32 UNL     1       3.234   3.275  -0.543  1.00  0.00     0.009 C 
HETATM   42  C33 UNL     1       2.536   4.342  -1.386  1.00  0.00     0.012 C 
HETATM   43  C34 UNL     1       4.145   4.020   0.410  1.00  0.00     0.012 C 
ENDBRANCH  28  41
BRANCH   1  44
HETATM   44  C4  UNL     1      -2.045   3.632  -0.462  1.00  0.00     0.035 C 
BRANCH  44  45
HETATM   45  C3  UNL     1      -1.442   4.249  -1.710  1.00  0.00     0.002 C 
BRANCH  45  46
HETATM   46  C2  UNL     1      -2.505   5.035  -2.442  1.00  0.00    -0.004 C 
HETATM   47  C1  UNL     1      -1.880   5.635  -3.671  1.00  0.00     0.005 C 
ENDBRANCH  45  46
ENDBRANCH  44  45
ENDBRANCH   1  44
BRANCH   4  48
HETATM   48  O1  UNL     1      -1.067   0.360   2.693  1.00  0.00    -0.348 OA
ATOM     49  H1  UNL     1      -1.353  -0.498   2.983  1.00  0.00     0.219 HD
ENDBRANCH   4  48
BRANCH  10  50
HETATM   50  C14 UNL     1      -3.725  -3.226  -0.577  1.00  0.00     0.013 C 
HETATM   51  C15 UNL     1      -4.600  -3.331   0.633  1.00  0.00     0.012 C 
BRANCH  50  52
HETATM   52  C16 UNL     1      -4.551  -3.516  -1.786  1.00  0.00     0.002 C 
HETATM   53  C17 UNL     1      -5.227  -4.876  -1.511  1.00  0.00     0.005 C 
ENDBRANCH  50  52
ENDBRANCH  10  50
BRANCH   5  54
HETATM   54  C8  UNL     1      -4.107   0.545   2.752  1.00  0.00     0.037 C 
BRANCH  54  55
HETATM   55  C9  UNL     1      -5.418  -0.100   2.784  1.00  0.00    -0.020 C 
HETATM   56  C10 UNL     1      -6.349   0.101   1.623  1.00  0.00     0.009 C 
HETATM   57  C11 UNL     1      -6.182   0.473   4.001  1.00  0.00     0.009 C 
ENDBRANCH  54  55
ENDBRANCH   5  54
TORSDOF 14
