REMARK  14 active torsions:
REMARK  status: ('A' for Active; 'I' for Inactive)
REMARK    1  A    between atoms: C2_2  and  C3_3 
REMARK    2  A    between atoms: C3_3  and  C4_4 
REMARK    3  A    between atoms: C4_4  and  C5_5 
REMARK    4  A    between atoms: C7_10  and  C8_11 
REMARK    5  A    between atoms: C8_11  and  C9_12 
REMARK    6  A    between atoms: C13_19  and  C14_20 
REMARK    7  A    between atoms: C14_20  and  C15_21 
REMARK    8  A    between atoms: C19_28  and  C20_29 
REMARK    9  A    between atoms: C20_29  and  C21_30 
REMARK   10  A    between atoms: C24_35  and  O4_36 
REMARK   11  A    between atoms: C25_38  and  C26_39 
REMARK   12  A    between atoms: C26_39  and  C27_40 
REMARK   13  A    between atoms: C31_45  and  O5_46 
REMARK   14  A    between atoms: C32_48  and  C33_49 
ROOT
HETATM    1  C5  UNL     1       3.089   1.936  -0.625  1.00  0.00     0.176 C 
HETATM    2  N1  UNL     1       2.682   0.735  -1.333  1.00  0.00    -0.346 N 
ATOM      3  H1  UNL     1       2.819   0.779  -2.343  1.00  0.00     0.163 HD
HETATM    4  C6  UNL     1       2.145  -0.452  -0.889  1.00  0.00     0.241 C 
HETATM    5  O1  UNL     1       0.967  -0.758  -1.339  1.00  0.00    -0.271 OA
HETATM    6  C7  UNL     1       2.682  -1.474   0.033  1.00  0.00     0.177 C 
HETATM    7  N2  UNL     1       1.822  -1.604   1.185  1.00  0.00    -0.346 N 
ATOM      8  H2  UNL     1       1.737  -0.747   1.731  1.00  0.00     0.163 HD
HETATM    9  C12 UNL     1       1.098  -2.652   1.689  1.00  0.00     0.241 C 
HETATM   10  O2  UNL     1       1.429  -3.137   2.837  1.00  0.00    -0.271 OA
HETATM   11  C13 UNL     1      -0.092  -3.371   1.092  1.00  0.00     0.177 C 
HETATM   12  N3  UNL     1      -1.222  -3.011   1.912  1.00  0.00    -0.346 N 
ATOM     13  H3  UNL     1      -1.331  -3.587   2.747  1.00  0.00     0.163 HD
HETATM   14  C18 UNL     1      -2.177  -2.037   1.776  1.00  0.00     0.244 C 
HETATM   15  O3  UNL     1      -3.251  -2.132   2.483  1.00  0.00    -0.271 OA
HETATM   16  C19 UNL     1      -2.213  -0.797   0.906  1.00  0.00     0.199 C 
HETATM   17  N4  UNL     1      -2.784   0.298   1.645  1.00  0.00    -0.353 N 
ATOM     18  H4  UNL     1      -3.556  -0.032   2.224  1.00  0.00     0.162 HD
HETATM   19  C24 UNL     1      -2.610   1.657   1.813  1.00  0.00     0.160 C 
HETATM   20  C25 UNL     1      -2.965   2.864   1.021  1.00  0.00     0.064 C 
HETATM   21  N5  UNL     1      -2.101   3.999   1.288  1.00  0.00    -0.333 N 
HETATM   22  C30 UNL     1      -2.815   5.293   1.507  1.00  0.00     0.158 C 
HETATM   23  C31 UNL     1      -0.714   4.098   1.409  1.00  0.00     0.150 C 
HETATM   24  C32 UNL     1       0.430   3.792   0.494  1.00  0.00     0.249 C 
HETATM   25  N7  UNL     1       1.069   2.568   0.840  1.00  0.00    -0.340 N 
ATOM     26  H7  UNL     1       0.461   1.902   1.316  1.00  0.00     0.163 HD
HETATM   27  C34 UNL     1       2.374   2.111   0.648  1.00  0.00     0.241 C 
HETATM   28  O7  UNL     1       3.059   1.791   1.698  1.00  0.00    -0.271 OA
ENDROOT
BRANCH   1  29
HETATM   29  C4  UNL     1       4.570   1.888  -0.500  1.00  0.00     0.035 C 
BRANCH  29  30
HETATM   30  C3  UNL     1       5.203   3.060   0.166  1.00  0.00     0.002 C 
BRANCH  30  31
HETATM   31  C2  UNL     1       6.712   2.863   0.211  1.00  0.00    -0.004 C 
HETATM   32  C1  UNL     1       7.308   4.055   0.885  1.00  0.00     0.005 C 
ENDBRANCH  30  31
ENDBRANCH  29  30
ENDBRANCH   1  29
BRANCH   6  33
HETATM   33  C8  UNL     1       2.967  -2.802  -0.593  1.00  0.00     0.038 C 
BRANCH  33  34
HETATM   34  C9  UNL     1       3.962  -2.878  -1.674  1.00  0.00    -0.020 C 
HETATM   35  C10 UNL     1       4.024  -4.378  -2.070  1.00  0.00     0.009 C 
HETATM   36  C11 UNL     1       3.688  -2.155  -2.944  1.00  0.00     0.009 C 
ENDBRANCH  33  34
ENDBRANCH   6  33
BRANCH  24  37
HETATM   37  C33 UNL     1       0.110   3.966  -0.944  1.00  0.00     0.262 C 
HETATM   38  N6  UNL     1      -0.229   5.258  -1.438  1.00  0.00    -0.060 NA
HETATM   39  O6  UNL     1       0.112   3.055  -1.808  1.00  0.00    -0.274 OA
ENDBRANCH  24  37
BRANCH  23  40
HETATM   40  O5  UNL     1      -0.265   4.552   2.552  1.00  0.00    -0.347 OA
ATOM     41  H5  UNL     1       0.679   4.619   2.634  1.00  0.00     0.219 HD
ENDBRANCH  23  40
BRANCH  11  42
HETATM   42  C14 UNL     1       0.274  -4.827   1.183  1.00  0.00     0.038 C 
BRANCH  42  43
HETATM   43  C15 UNL     1      -0.703  -5.818   0.684  1.00  0.00    -0.020 C 
HETATM   44  C16 UNL     1      -0.045  -7.226   0.846  1.00  0.00     0.009 C 
HETATM   45  C17 UNL     1      -1.944  -5.947   1.586  1.00  0.00     0.009 C 
ENDBRANCH  42  43
ENDBRANCH  11  42
BRANCH  20  46
HETATM   46  C26 UNL     1      -3.329   2.649  -0.391  1.00  0.00     0.065 C 
BRANCH  46  47
HETATM   47  C27 UNL     1      -3.756   3.791  -1.226  1.00  0.00    -0.017 C 
HETATM   48  C28 UNL     1      -4.032   3.225  -2.639  1.00  0.00     0.010 C 
HETATM   49  C29 UNL     1      -5.140   4.317  -0.803  1.00  0.00     0.010 C 
ENDBRANCH  46  47
ENDBRANCH  20  46
BRANCH  19  50
HETATM   50  O4  UNL     1      -1.992   2.016   2.927  1.00  0.00    -0.345 OA
ATOM     51  H4  UNL     1      -1.872   2.951   3.043  1.00  0.00     0.219 HD
ENDBRANCH  19  50
BRANCH  16  52
HETATM   52  C20 UNL     1      -2.771  -1.117  -0.420  1.00  0.00     0.009 C 
BRANCH  52  53
HETATM   53  C21 UNL     1      -4.101  -1.668  -0.628  1.00  0.00    -0.089 C 
HETATM   54  C22 UNL     1      -5.304  -0.943  -0.161  1.00  0.00     0.042 C 
HETATM   55  C23 UNL     1      -4.272  -3.155  -0.354  1.00  0.00     0.042 C 
ENDBRANCH  52  53
ENDBRANCH  16  52
TORSDOF 14
