REMARK  14 active torsions:
REMARK  status: ('A' for Active; 'I' for Inactive)
REMARK    1  A    between atoms: C2_2  and  C3_3 
REMARK    2  A    between atoms: C3_3  and  C4_4 
REMARK    3  A    between atoms: C4_4  and  N1_5 
REMARK       I    between atoms: N1_5  and  C5_7 
REMARK    4  A    between atoms: C5_7  and  C6_9 
REMARK    5  A    between atoms: C9_12  and  O2_13 
REMARK    6  A    between atoms: C16_26  and  C17_27 
REMARK    7  A    between atoms: C17_27  and  C18_28 
REMARK    8  A    between atoms: C22_35  and  C23_36 
REMARK    9  A    between atoms: C23_36  and  C24_37 
REMARK   10  A    between atoms: C27_40  and  O5_41 
REMARK   11  A    between atoms: C28_45  and  C29_46 
REMARK   12  A    between atoms: C29_46  and  C31_48 
REMARK   13  A    between atoms: C33_50  and  O6_51 
REMARK   14  A    between atoms: N6_53  and  C34_54 
ROOT
HETATM    1  C6  UNL     1       2.621  -0.452  -1.024  1.00  0.00     0.189 C 
HETATM    2  C7  UNL     1       1.866  -1.489  -1.765  1.00  0.00     0.088 C 
HETATM    3  C8  UNL     1       1.014  -1.087  -2.892  1.00  0.00     0.021 C 
HETATM    4  C9  UNL     1       1.131  -2.395  -0.848  1.00  0.00     0.117 C 
HETATM    5  N2  UNL     1       0.140  -3.325  -1.053  1.00  0.00    -0.369 N 
ATOM      6  H2  UNL     1       0.416  -4.274  -0.800  1.00  0.00     0.161 HD
HETATM    7  C10 UNL     1      -1.209  -3.235  -1.552  1.00  0.00     0.096 C 
HETATM    8  C11 UNL     1      -1.310  -4.058  -2.848  1.00  0.00     0.033 C 
HETATM    9  C12 UNL     1      -2.215  -3.820  -0.537  1.00  0.00     0.053 C 
HETATM   10  C13 UNL     1      -3.504  -4.084  -1.241  1.00  0.00     0.027 C 
HETATM   11  C14 UNL     1      -1.636  -5.210  -0.217  1.00  0.00     0.027 C 
HETATM   12  C15 UNL     1      -2.296  -2.986   0.648  1.00  0.00     0.228 C 
HETATM   13  O3  UNL     1      -1.451  -3.296   1.570  1.00  0.00    -0.273 OA
HETATM   14  N3  UNL     1      -3.137  -1.908   0.952  1.00  0.00    -0.347 N 
ATOM     15  H3  UNL     1      -3.306  -1.768   1.948  1.00  0.00     0.163 HD
HETATM   16  C16 UNL     1      -3.790  -0.982   0.106  1.00  0.00     0.177 C 
HETATM   17  C21 UNL     1      -2.964   0.166  -0.344  1.00  0.00     0.244 C 
HETATM   18  O4  UNL     1      -3.590   0.970  -1.125  1.00  0.00    -0.271 OA
HETATM   19  N4  UNL     1      -1.644   0.500  -0.063  1.00  0.00    -0.325 N 
ATOM     20  H4  UNL     1      -1.029   0.500  -0.877  1.00  0.00     0.169 HD
HETATM   21  C22 UNL     1      -0.994   0.845   1.168  1.00  0.00     0.063 C 
HETATM   22  C27 UNL     1       0.186   1.699   1.082  1.00  0.00     0.159 C 
HETATM   23  N5  UNL     1       0.693   2.583   0.145  1.00  0.00    -0.357 N 
ATOM     24  H5  UNL     1       1.051   3.432   0.582  1.00  0.00     0.162 HD
HETATM   25  C28 UNL     1       0.842   2.614  -1.250  1.00  0.00     0.162 C 
HETATM   26  C33 UNL     1       1.951   1.877  -1.894  1.00  0.00     0.138 C 
HETATM   27  N6  UNL     1       2.822   0.856  -1.584  1.00  0.00    -0.350 N 
ENDROOT
BRANCH   1  28
HETATM   28  C5  UNL     1       3.886  -1.101  -0.552  1.00  0.00     0.241 C 
HETATM   29  N1  UNL     1       4.407  -0.997   0.741  1.00  0.00    -0.359 N 
ATOM     30  H1  UNL     1       3.902  -0.441   1.431  1.00  0.00     0.162 HD
HETATM   31  O1  UNL     1       4.510  -1.787  -1.399  1.00  0.00    -0.271 OA
BRANCH  29  32
HETATM   32  C4  UNL     1       5.628  -1.645   1.133  1.00  0.00     0.122 C 
BRANCH  32  33
HETATM   33  C3  UNL     1       5.967  -1.363   2.575  1.00  0.00     0.019 C 
BRANCH  33  34
HETATM   34  C2  UNL     1       6.135   0.145   2.721  1.00  0.00    -0.003 C 
HETATM   35  C1  UNL     1       6.482   0.395   4.187  1.00  0.00     0.005 C 
ENDBRANCH  33  34
ENDBRANCH  32  33
ENDBRANCH  29  32
ENDBRANCH   1  28
BRANCH  27  36
HETATM   36  C34 UNL     1       4.253   1.124  -1.905  1.00  0.00     0.121 C 
HETATM   37  C35 UNL     1       4.558   0.651  -3.334  1.00  0.00     0.026 C 
ENDBRANCH  27  36
BRANCH   4  38
HETATM   38  O2  UNL     1       1.521  -2.265   0.396  1.00  0.00    -0.349 OA
ATOM     39  H2  UNL     1       1.050  -2.845   0.983  1.00  0.00     0.219 HD
ENDBRANCH   4  38
BRANCH  26  40
HETATM   40  O6  UNL     1       2.170   2.325  -3.117  1.00  0.00    -0.348 OA
ATOM     41  H6  UNL     1       2.882   1.852  -3.531  1.00  0.00     0.219 HD
ENDBRANCH  26  40
BRANCH  25  42
HETATM   42  C29 UNL     1       1.029   4.107  -1.687  1.00  0.00     0.012 C 
HETATM   43  C30 UNL     1      -0.124   4.960  -1.323  1.00  0.00     0.012 C 
BRANCH  42  44
HETATM   44  C31 UNL     1       2.357   4.638  -1.238  1.00  0.00     0.002 C 
HETATM   45  C32 UNL     1       2.458   6.101  -1.703  1.00  0.00     0.005 C 
ENDBRANCH  42  44
ENDBRANCH  25  42
BRANCH  22  46
HETATM   46  O5  UNL     1       0.934   1.595   2.149  1.00  0.00    -0.345 OA
ATOM     47  H5  UNL     1       1.702   2.151   2.093  1.00  0.00     0.219 HD
ENDBRANCH  22  46
BRANCH  21  48
HETATM   48  C23 UNL     1      -1.831   1.222   2.324  1.00  0.00     0.065 C 
BRANCH  48  49
HETATM   49  C24 UNL     1      -2.729   2.386   2.220  1.00  0.00    -0.017 C 
HETATM   50  C25 UNL     1      -2.053   3.705   1.935  1.00  0.00     0.010 C 
HETATM   51  C26 UNL     1      -3.547   2.603   3.499  1.00  0.00     0.010 C 
ENDBRANCH  48  49
ENDBRANCH  21  48
BRANCH  16  52
HETATM   52  C17 UNL     1      -5.053  -0.407   0.684  1.00  0.00     0.038 C 
BRANCH  52  53
HETATM   53  C18 UNL     1      -6.150  -1.342   1.002  1.00  0.00    -0.020 C 
HETATM   54  C19 UNL     1      -5.879  -2.413   1.996  1.00  0.00     0.009 C 
HETATM   55  C20 UNL     1      -6.811  -1.907  -0.239  1.00  0.00     0.009 C 
ENDBRANCH  52  53
ENDBRANCH  16  52
TORSDOF 14
