REMARK  14 active torsions:
REMARK  status: ('A' for Active; 'I' for Inactive)
REMARK    1  A    between atoms: C2_2  and  C3_3 
REMARK    2  A    between atoms: C3_3  and  C4_4 
REMARK    3  A    between atoms: C4_4  and  C5_5 
REMARK    4  A    between atoms: C5_5  and  C6_6 
REMARK    5  A    between atoms: C6_6  and  C7_7 
REMARK    6  A    between atoms: C14_19  and  C15_20 
REMARK    7  A    between atoms: C15_20  and  C16_21 
REMARK    8  A    between atoms: C20_28  and  C21_29 
REMARK    9  A    between atoms: C21_29  and  N4_30 
REMARK   10  A    between atoms: C23_36  and  O4_37 
REMARK   11  A    between atoms: C24_39  and  C25_40 
REMARK   12  A    between atoms: C25_40  and  C26_41 
REMARK   13  A    between atoms: C30_48  and  C31_49 
REMARK   14  A    between atoms: C31_49  and  C32_50 
ROOT
HETATM    1  C7  UNL     1       2.268   0.191  -0.643  1.00  0.00     0.176 C 
HETATM    2  N1  UNL     1       1.040  -0.159  -1.251  1.00  0.00    -0.346 N 
ATOM      3  H1  UNL     1       0.268   0.463  -1.011  1.00  0.00     0.163 HD
HETATM    4  C8  UNL     1       0.682  -1.201  -2.123  1.00  0.00     0.241 C 
HETATM    5  O1  UNL     1       0.286  -0.925  -3.328  1.00  0.00    -0.271 OA
HETATM    6  C9  UNL     1       0.690  -2.661  -1.850  1.00  0.00     0.179 C 
HETATM    7  C10 UNL     1       1.688  -3.237  -2.839  1.00  0.00     0.037 C 
HETATM    8  C11 UNL     1       0.792  -3.826  -3.901  1.00  0.00     0.022 C 
HETATM    9  C12 UNL     1      -0.241  -4.489  -3.006  1.00  0.00     0.127 C 
HETATM   10  N2  UNL     1      -0.573  -3.321  -2.141  1.00  0.00    -0.337 N 
HETATM   11  C13 UNL     1      -1.850  -2.935  -1.695  1.00  0.00     0.243 C 
HETATM   12  O2  UNL     1      -2.730  -2.752  -2.626  1.00  0.00    -0.271 OA
HETATM   13  C14 UNL     1      -2.327  -2.713  -0.328  1.00  0.00     0.177 C 
HETATM   14  N3  UNL     1      -1.803  -1.602   0.380  1.00  0.00    -0.346 N 
ATOM     15  H3  UNL     1      -0.822  -1.655   0.656  1.00  0.00     0.163 HD
HETATM   16  C19 UNL     1      -2.515  -0.409   0.748  1.00  0.00     0.242 C 
HETATM   17  O3  UNL     1      -2.138   0.072   1.876  1.00  0.00    -0.271 OA
HETATM   18  C20 UNL     1      -3.546   0.163  -0.091  1.00  0.00     0.201 C 
HETATM   19  N5  UNL     1      -3.348   1.498  -0.605  1.00  0.00    -0.358 N 
ATOM     20  H5  UNL     1      -4.184   1.875  -1.051  1.00  0.00     0.162 HD
HETATM   21  C23 UNL     1      -2.293   2.377  -0.632  1.00  0.00     0.135 C 
HETATM   22  C24 UNL     1      -1.568   3.123   0.428  1.00  0.00     0.159 C 
HETATM   23  N6  UNL     1      -0.815   4.237  -0.174  1.00  0.00    -0.347 N 
ATOM     24  H6  UNL     1      -1.365   5.037  -0.485  1.00  0.00     0.163 HD
HETATM   25  C29 UNL     1       0.555   4.323  -0.366  1.00  0.00     0.241 C 
HETATM   26  O5  UNL     1       1.108   5.453  -0.102  1.00  0.00    -0.271 OA
HETATM   27  C30 UNL     1       1.496   3.292  -0.837  1.00  0.00     0.177 C 
HETATM   28  N7  UNL     1       2.048   2.581   0.301  1.00  0.00    -0.346 N 
ATOM     29  H7  UNL     1       2.490   3.137   1.033  1.00  0.00     0.163 HD
HETATM   30  C35 UNL     1       2.021   1.180   0.475  1.00  0.00     0.241 C 
HETATM   31  O6  UNL     1       1.770   0.761   1.659  1.00  0.00    -0.271 OA
ENDROOT
BRANCH   1  32
HETATM   32  C6  UNL     1       3.066  -0.922  -0.032  1.00  0.00     0.035 C 
BRANCH  32  33
HETATM   33  C5  UNL     1       4.359  -0.362   0.559  1.00  0.00     0.002 C 
BRANCH  33  34
HETATM   34  C4  UNL     1       5.212  -1.412   1.183  1.00  0.00     0.000 C 
BRANCH  34  35
HETATM   35  C3  UNL     1       4.490  -2.096   2.297  1.00  0.00    -0.000 C 
BRANCH  35  36
HETATM   36  C2  UNL     1       5.327  -3.168   2.963  1.00  0.00    -0.005 C 
HETATM   37  C1  UNL     1       6.594  -2.640   3.559  1.00  0.00     0.005 C 
ENDBRANCH  35  36
ENDBRANCH  34  35
ENDBRANCH  33  34
ENDBRANCH  32  33
ENDBRANCH   1  32
BRANCH  27  38
HETATM   38  C31 UNL     1       2.695   3.926  -1.564  1.00  0.00     0.038 C 
BRANCH  38  39
HETATM   39  C32 UNL     1       2.184   4.706  -2.764  1.00  0.00    -0.020 C 
HETATM   40  C33 UNL     1       1.452   3.746  -3.694  1.00  0.00     0.009 C 
HETATM   41  C34 UNL     1       3.325   5.307  -3.532  1.00  0.00     0.009 C 
ENDBRANCH  38  39
ENDBRANCH  27  38
BRANCH  13  42
HETATM   42  C15 UNL     1      -2.086  -3.943   0.565  1.00  0.00     0.038 C 
BRANCH  42  43
HETATM   43  C16 UNL     1      -2.788  -5.156   0.060  1.00  0.00    -0.020 C 
HETATM   44  C17 UNL     1      -2.502  -6.305   0.982  1.00  0.00     0.009 C 
HETATM   45  C18 UNL     1      -4.303  -4.941   0.072  1.00  0.00     0.009 C 
ENDBRANCH  42  43
ENDBRANCH  13  42
BRANCH  22  46
HETATM   46  C25 UNL     1      -2.501   3.650   1.466  1.00  0.00     0.037 C 
BRANCH  46  47
HETATM   47  C26 UNL     1      -1.947   4.406   2.597  1.00  0.00    -0.020 C 
HETATM   48  C27 UNL     1      -0.946   3.638   3.430  1.00  0.00     0.009 C 
HETATM   49  C28 UNL     1      -1.554   5.836   2.335  1.00  0.00     0.009 C 
ENDBRANCH  46  47
ENDBRANCH  22  46
BRANCH  21  50
HETATM   50  O4  UNL     1      -1.813   2.626  -1.817  1.00  0.00    -0.348 OA
ATOM     51  H4  UNL     1      -1.083   3.234  -1.836  1.00  0.00     0.219 HD
ENDBRANCH  21  50
BRANCH  18  52
HETATM   52  C21 UNL     1      -4.947   0.014   0.482  1.00  0.00     0.266 C 
BRANCH  52  53
HETATM   53  N4  UNL     1      -5.154   0.618   1.748  1.00  0.00    -0.077 N 
HETATM   54  C22 UNL     1      -6.538   0.372   2.126  1.00  0.00     0.267 C 
ATOM     55  H42 UNL     1      -4.487   0.304   2.453  1.00  0.00     0.276 HD
ATOM     56  H41 UNL     1      -4.907   1.608   1.762  1.00  0.00     0.276 HD
ENDBRANCH  52  53
ENDBRANCH  18  52
TORSDOF 14
