REMARK  13 active torsions:
REMARK  status: ('A' for Active; 'I' for Inactive)
REMARK    1  A    between atoms: C2_2  and  C3_3 
REMARK    2  A    between atoms: C3_3  and  C4_4 
REMARK    3  A    between atoms: C3_3  and  N1_6 
REMARK    4  A    between atoms: C7_9  and  C8_10 
REMARK    5  A    between atoms: C8_10  and  C9_11 
REMARK    6  A    between atoms: C15_21  and  O2_22 
REMARK    7  A    between atoms: C16_24  and  C17_25 
REMARK    8  A    between atoms: C17_25  and  C18_26 
REMARK    9  A    between atoms: C20_33  and  C21_34 
REMARK   10  A    between atoms: C21_34  and  C22_35 
REMARK   11  A    between atoms: C26_42  and  C27_43 
REMARK   12  A    between atoms: C27_43  and  C28_44 
REMARK   13  A    between atoms: C32_51  and  C33_52 
ROOT
HETATM    1  N1  UNL     1      -2.038   1.574  -0.793  1.00  0.00    -0.329 N 
HETATM    2  C6  UNL     1      -2.519   0.304  -0.422  1.00  0.00     0.244 C 
HETATM    3  O1  UNL     1      -3.798   0.344  -0.214  1.00  0.00    -0.271 OA
HETATM    4  C7  UNL     1      -1.892  -0.997  -0.231  1.00  0.00     0.181 C 
HETATM    5  N3  UNL     1      -0.855  -1.293  -1.171  1.00  0.00    -0.359 N 
ATOM      6  H3  UNL     1      -0.557  -0.469  -1.693  1.00  0.00     0.162 HD
HETATM    7  C15 UNL     1      -0.160  -2.430  -1.541  1.00  0.00     0.136 C 
HETATM    8  C16 UNL     1       0.418  -3.523  -0.784  1.00  0.00     0.167 C 
HETATM    9  N5  UNL     1       0.923  -3.295   0.527  1.00  0.00    -0.347 N 
ATOM     10  H5  UNL     1       0.849  -4.120   1.122  1.00  0.00     0.163 HD
HETATM   11  C19 UNL     1       1.487  -2.225   1.181  1.00  0.00     0.241 C 
HETATM   12  O4  UNL     1       0.856  -1.810   2.223  1.00  0.00    -0.271 OA
HETATM   13  C20 UNL     1       2.739  -1.456   0.873  1.00  0.00     0.177 C 
HETATM   14  N6  UNL     1       2.764  -0.890  -0.419  1.00  0.00    -0.346 N 
ATOM     15  H6  UNL     1       3.105  -1.519  -1.146  1.00  0.00     0.163 HD
HETATM   16  C25 UNL     1       2.404   0.380  -0.879  1.00  0.00     0.241 C 
HETATM   17  O5  UNL     1       2.162   0.441  -2.150  1.00  0.00    -0.271 OA
HETATM   18  C26 UNL     1       2.259   1.650  -0.141  1.00  0.00     0.177 C 
HETATM   19  N7  UNL     1       1.251   1.642   0.857  1.00  0.00    -0.346 N 
ATOM     20  H7  UNL     1       1.597   1.444   1.796  1.00  0.00     0.163 HD
HETATM   21  C31 UNL     1      -0.132   1.856   0.792  1.00  0.00     0.241 C 
HETATM   22  O6  UNL     1      -0.807   1.559   1.860  1.00  0.00    -0.271 OA
HETATM   23  C32 UNL     1      -0.961   2.369  -0.285  1.00  0.00     0.183 C 
ENDROOT
BRANCH   4  24
HETATM   24  C8  UNL     1      -2.831  -2.167  -0.089  1.00  0.00     0.092 C 
BRANCH  24  25
HETATM   25  C9  UNL     1      -3.795  -2.100   1.017  1.00  0.00     0.017 A 
HETATM   26  N2  UNL     1      -3.506  -1.948   2.340  1.00  0.00    -0.363 N 
HETATM   27  C10 UNL     1      -4.626  -1.794   3.028  1.00  0.00     0.006 A 
ATOM     28  H2  UNL     1      -2.568  -1.952   2.740  1.00  0.00     0.165 HD
HETATM   29  C11 UNL     1      -4.732  -1.585   4.495  1.00  0.00     0.068 C 
HETATM   30  C12 UNL     1      -5.704  -1.843   2.164  1.00  0.00     0.033 A 
HETATM   31  C13 UNL     1      -5.154  -2.038   0.912  1.00  0.00    -0.037 A 
HETATM   32  C14 UNL     1      -6.042  -2.235  -0.294  1.00  0.00     0.050 C 
ENDBRANCH  24  25
ENDBRANCH   4  24
BRANCH   1  33
HETATM   33  C3  UNL     1      -2.777   2.238  -1.899  1.00  0.00     0.110 C 
BRANCH  33  34
HETATM   34  C2  UNL     1      -4.217   2.162  -1.817  1.00  0.00    -0.012 C 
HETATM   35  C1  UNL     1      -5.088   2.973  -1.279  1.00  0.00     0.009 C 
ENDBRANCH  33  34
BRANCH  33  36
HETATM   36  C4  UNL     1      -2.385   1.523  -3.231  1.00  0.00     0.025 C 
HETATM   37  C5  UNL     1      -3.059   2.265  -4.373  1.00  0.00     0.007 C 
ENDBRANCH  33  36
ENDBRANCH   1  33
BRANCH   7  38
HETATM   38  O2  UNL     1       0.011  -2.535  -2.832  1.00  0.00    -0.348 OA
ATOM     39  H2  UNL     1       0.488  -3.316  -3.086  1.00  0.00     0.219 HD
ENDBRANCH   7  38
BRANCH  23  40
HETATM   40  C33 UNL     1      -1.511   3.707   0.286  1.00  0.00     0.009 C 
HETATM   41  C34 UNL     1      -2.468   3.494   1.416  1.00  0.00     0.012 C 
HETATM   42  C35 UNL     1      -0.352   4.475   0.896  1.00  0.00     0.012 C 
ENDBRANCH  23  40
BRANCH   8  43
HETATM   43  C17 UNL     1       1.430  -4.382  -1.508  1.00  0.00     0.133 C 
BRANCH  43  44
HETATM   44  C18 UNL     1       0.880  -5.121  -2.662  1.00  0.00     0.233 C 
HETATM   45  N4  UNL     1       1.741  -5.808  -3.580  1.00  0.00    -0.062 NA
HETATM   46  O3  UNL     1      -0.351  -5.185  -2.895  1.00  0.00    -0.277 OA
ENDBRANCH  43  44
ENDBRANCH   8  43
BRANCH  18  47
HETATM   47  C27 UNL     1       3.591   2.032   0.460  1.00  0.00     0.038 C 
BRANCH  47  48
HETATM   48  C28 UNL     1       3.614   3.318   1.222  1.00  0.00    -0.020 C 
HETATM   49  C29 UNL     1       5.026   3.534   1.810  1.00  0.00     0.009 C 
HETATM   50  C30 UNL     1       3.441   4.504   0.251  1.00  0.00     0.009 C 
ENDBRANCH  47  48
ENDBRANCH  18  47
BRANCH  13  51
HETATM   51  C21 UNL     1       3.947  -2.268   1.260  1.00  0.00     0.038 C 
BRANCH  51  52
HETATM   52  C22 UNL     1       5.248  -1.639   1.034  1.00  0.00    -0.020 C 
HETATM   53  C23 UNL     1       5.640  -1.295  -0.371  1.00  0.00     0.009 C 
HETATM   54  C24 UNL     1       6.358  -2.561   1.586  1.00  0.00     0.009 C 
ENDBRANCH  51  52
ENDBRANCH  13  51
TORSDOF 13
