REMARK  13 active torsions:
REMARK  status: ('A' for Active; 'I' for Inactive)
REMARK    1  A    between atoms: C2_2  and  C4_4 
REMARK    2  A    between atoms: C4_4  and  C5_5 
REMARK    3  A    between atoms: C6_8  and  O1_9 
REMARK    4  A    between atoms: C7_11  and  C8_12 
REMARK    5  A    between atoms: C8_12  and  C9_13 
REMARK    6  A    between atoms: C15_22  and  C16_23 
REMARK    7  A    between atoms: C16_23  and  C17_24 
REMARK    8  A    between atoms: C22_29  and  N3_30 
REMARK       I    between atoms: N3_30  and  C24_32 
REMARK    9  A    between atoms: C24_32  and  C25_34 
REMARK   10  A    between atoms: C25_34  and  C26_35 
REMARK   11  A    between atoms: C26_35  and  C27_36 
REMARK   12  A    between atoms: C31_48  and  C32_49 
REMARK   13  A    between atoms: C32_49  and  C33_50 
ROOT
HETATM    1  C5  UNL     1      -4.746  -0.008  -0.175  1.00  0.00     0.175 C 
HETATM    2  N1  UNL     1      -3.859   1.027  -0.646  1.00  0.00    -0.359 N 
ATOM      3  H1  UNL     1      -3.980   1.184  -1.647  1.00  0.00     0.162 HD
HETATM    4  C6  UNL     1      -2.907   1.854  -0.135  1.00  0.00     0.135 C 
HETATM    5  C7  UNL     1      -2.642   2.411   1.200  1.00  0.00     0.159 C 
HETATM    6  N2  UNL     1      -1.276   2.812   1.417  1.00  0.00    -0.345 N 
ATOM      7  H2  UNL     1      -1.119   3.700   1.893  1.00  0.00     0.163 HD
HETATM    8  C12 UNL     1      -0.126   2.071   1.022  1.00  0.00     0.246 C 
HETATM    9  O2  UNL     1       0.799   2.812   0.579  1.00  0.00    -0.268 OA
HETATM   10  C13 UNL     1       0.018   0.603   1.103  1.00  0.00     0.010 C 
HETATM   11  C14 UNL     1       0.427   0.198   2.480  1.00  0.00     0.052 C 
HETATM   12  C15 UNL     1       0.523  -0.149  -0.027  1.00  0.00     0.143 C 
HETATM   13  N6  UNL     1       0.070  -1.588   0.170  1.00  0.00    -0.347 N 
ATOM     14  H6  UNL     1       0.751  -2.263   0.517  1.00  0.00     0.163 HD
HETATM   15  C30 UNL     1      -1.217  -2.035  -0.096  1.00  0.00     0.241 C 
HETATM   16  O5  UNL     1      -1.783  -2.742   0.821  1.00  0.00    -0.271 OA
HETATM   17  C31 UNL     1      -2.032  -1.803  -1.314  1.00  0.00     0.177 C 
HETATM   18  N7  UNL     1      -3.435  -2.082  -1.051  1.00  0.00    -0.346 N 
ATOM     19  H7  UNL     1      -3.638  -3.066  -0.878  1.00  0.00     0.163 HD
HETATM   20  C36 UNL     1      -4.539  -1.261  -0.993  1.00  0.00     0.241 C 
HETATM   21  O6  UNL     1      -5.541  -1.589  -1.731  1.00  0.00    -0.271 OA
ENDROOT
BRANCH  12  22
HETATM   22  C16 UNL     1       1.874  -0.315  -0.515  1.00  0.00     0.016 C 
BRANCH  22  23
HETATM   23  C17 UNL     1       2.781   0.702  -0.951  1.00  0.00    -0.011 A 
HETATM   24  C18 UNL     1       2.522   1.297  -2.178  1.00  0.00     0.013 A 
HETATM   25  C19 UNL     1       3.280   2.338  -2.627  1.00  0.00     0.001 A 
HETATM   26  C20 UNL     1       4.330   2.817  -1.851  1.00  0.00     0.002 A 
HETATM   27  C21 UNL     1       4.608   2.250  -0.643  1.00  0.00     0.030 A 
HETATM   28  C22 UNL     1       3.806   1.172  -0.204  1.00  0.00     0.046 A 
BRANCH  28  29
HETATM   29  N3  UNL     1       4.268   0.594   1.045  1.00  0.00    -0.322 N 
HETATM   30  C23 UNL     1       4.020   1.177   2.337  1.00  0.00     0.159 C 
HETATM   31  C24 UNL     1       5.081  -0.605   1.041  1.00  0.00     0.224 C 
HETATM   32  O3  UNL     1       5.455  -1.132   2.108  1.00  0.00    -0.273 OA
BRANCH  31  33
HETATM   33  C25 UNL     1       5.453  -1.187  -0.258  1.00  0.00     0.109 C 
BRANCH  33  34
HETATM   34  C26 UNL     1       6.653  -2.069  -0.262  1.00  0.00     0.068 C 
BRANCH  34  35
HETATM   35  C27 UNL     1       7.903  -1.410   0.126  1.00  0.00     0.029 A 
HETATM   36  C28 UNL     1       8.520  -1.309   1.329  1.00  0.00     0.117 A 
HETATM   37  N4  UNL     1       9.651  -0.566   1.127  1.00  0.00    -0.317 N 
HETATM   38  C29 UNL     1       9.742  -0.215  -0.152  1.00  0.00     0.324 A 
ATOM     39  H4  UNL     1      10.325  -0.318   1.851  1.00  0.00     0.170 HD
HETATM   40  O4  UNL     1      10.677   0.479  -0.663  1.00  0.00    -0.247 OA
HETATM   41  N5  UNL     1       8.681  -0.726  -0.767  1.00  0.00    -0.311 N 
ATOM     42  H5  UNL     1       8.476  -0.623  -1.761  1.00  0.00     0.170 HD
ENDBRANCH  34  35
ENDBRANCH  33  34
ENDBRANCH  31  33
ENDBRANCH  28  29
ENDBRANCH  22  23
ENDBRANCH  12  22
BRANCH  17  43
HETATM   43  C32 UNL     1      -1.527  -2.497  -2.531  1.00  0.00     0.038 C 
BRANCH  43  44
HETATM   44  C33 UNL     1      -1.432  -3.963  -2.553  1.00  0.00    -0.020 C 
HETATM   45  C34 UNL     1      -0.896  -4.301  -3.974  1.00  0.00     0.009 C 
HETATM   46  C35 UNL     1      -0.397  -4.592  -1.646  1.00  0.00     0.009 C 
ENDBRANCH  43  44
ENDBRANCH  17  43
BRANCH   5  47
HETATM   47  C8  UNL     1      -3.625   3.408   1.678  1.00  0.00     0.037 C 
BRANCH  47  48
HETATM   48  C9  UNL     1      -3.889   4.633   0.921  1.00  0.00    -0.020 C 
HETATM   49  C10 UNL     1      -2.712   5.548   0.691  1.00  0.00     0.009 C 
HETATM   50  C11 UNL     1      -4.707   4.463  -0.336  1.00  0.00     0.009 C 
ENDBRANCH  47  48
ENDBRANCH   5  47
BRANCH   4  51
HETATM   51  O1  UNL     1      -2.001   2.274  -0.996  1.00  0.00    -0.348 OA
ATOM     52  H1  UNL     1      -1.336   2.851  -0.639  1.00  0.00     0.219 HD
ENDBRANCH   4  51
BRANCH   1  53
HETATM   53  C4  UNL     1      -4.849  -0.223   1.279  1.00  0.00     0.038 C 
BRANCH  53  54
HETATM   54  C2  UNL     1      -5.826  -1.279   1.741  1.00  0.00    -0.020 C 
HETATM   55  C1  UNL     1      -7.255  -1.002   1.312  1.00  0.00     0.009 C 
HETATM   56  C3  UNL     1      -5.414  -2.691   1.593  1.00  0.00     0.009 C 
ENDBRANCH  53  54
ENDBRANCH   1  53
TORSDOF 13
