REMARK  12 active torsions:
REMARK  status: ('A' for Active; 'I' for Inactive)
REMARK    1  A    between atoms: C2_2  and  C3_3 
REMARK    2  A    between atoms: C3_3  and  C4_4 
REMARK    3  A    between atoms: C4_4  and  C5_5 
REMARK    4  A    between atoms: C5_5  and  N1_6 
REMARK       I    between atoms: N1_6  and  C6_8 
REMARK    5  A    between atoms: C6_8  and  C7_10 
REMARK    6  A    between atoms: C7_10  and  C8_11 
REMARK    7  A    between atoms: C10_16  and  C11_17 
REMARK    8  A    between atoms: C11_17  and  C12_18 
REMARK    9  A    between atoms: C16_25  and  C17_26 
REMARK   10  A    between atoms: C17_26  and  C18_27 
REMARK   11  A    between atoms: C26_41  and  C27_42 
REMARK   12  A    between atoms: C29_44  and  C30_45 
ROOT
HETATM    1  C8  UNL     1       1.111  -0.564   1.068  1.00  0.00     0.185 C 
HETATM    2  N2  UNL     1       0.093  -0.881   2.082  1.00  0.00    -0.346 N 
ATOM      3  H2  UNL     1       0.036  -0.285   2.908  1.00  0.00     0.163 HD
HETATM    4  C9  UNL     1      -0.811  -1.963   1.980  1.00  0.00     0.241 C 
HETATM    5  O2  UNL     1      -0.918  -2.761   2.983  1.00  0.00    -0.271 OA
HETATM    6  C10 UNL     1      -1.666  -2.280   0.814  1.00  0.00     0.177 C 
HETATM    7  N3  UNL     1      -2.859  -2.940   1.298  1.00  0.00    -0.346 N 
ATOM      8  H3  UNL     1      -2.907  -3.954   1.200  1.00  0.00     0.163 HD
HETATM    9  C15 UNL     1      -3.962  -2.293   1.895  1.00  0.00     0.241 C 
HETATM   10  O3  UNL     1      -4.588  -2.890   2.801  1.00  0.00    -0.271 OA
HETATM   11  C16 UNL     1      -4.431  -0.944   1.522  1.00  0.00     0.177 C 
HETATM   12  N4  UNL     1      -3.954   0.009   2.520  1.00  0.00    -0.346 N 
ATOM     13  H4  UNL     1      -3.274  -0.359   3.185  1.00  0.00     0.163 HD
HETATM   14  C21 UNL     1      -4.292   1.340   2.693  1.00  0.00     0.240 C 
HETATM   15  O4  UNL     1      -4.716   1.695   3.860  1.00  0.00    -0.271 OA
HETATM   16  C22 UNL     1      -4.256   2.476   1.753  1.00  0.00     0.172 C 
HETATM   17  C23 UNL     1      -5.623   3.166   1.855  1.00  0.00     0.042 C 
HETATM   18  N5  UNL     1      -4.012   2.195   0.391  1.00  0.00    -0.348 N 
ATOM     19  H5  UNL     1      -4.630   1.530  -0.075  1.00  0.00     0.163 HD
HETATM   20  C24 UNL     1      -2.949   2.783  -0.388  1.00  0.00     0.218 C 
HETATM   21  O5  UNL     1      -3.146   3.017  -1.635  1.00  0.00    -0.274 OA
HETATM   22  C25 UNL     1      -1.661   3.123   0.186  1.00  0.00     0.109 C 
HETATM   23  C26 UNL     1      -0.462   2.371  -0.299  1.00  0.00     0.017 C 
HETATM   24  C29 UNL     1       0.820   2.914   0.218  1.00  0.00     0.093 C 
HETATM   25  N6  UNL     1       1.777   1.943   0.701  1.00  0.00    -0.354 N 
ATOM     26  H6  UNL     1       2.740   2.184   0.466  1.00  0.00     0.162 HD
HETATM   27  C36 UNL     1       1.676   0.773   1.403  1.00  0.00     0.241 C 
HETATM   28  O6  UNL     1       2.144   0.726   2.613  1.00  0.00    -0.271 OA
ENDROOT
BRANCH   1  29
HETATM   29  C7  UNL     1       2.252  -1.590   1.260  1.00  0.00     0.137 C 
BRANCH  29  30
HETATM   30  C6  UNL     1       3.350  -1.427   0.327  1.00  0.00     0.220 C 
HETATM   31  N1  UNL     1       4.479  -2.277   0.442  1.00  0.00    -0.361 N 
ATOM     32  H1  UNL     1       4.504  -2.984   1.177  1.00  0.00     0.162 HD
HETATM   33  O1  UNL     1       3.330  -0.563  -0.570  1.00  0.00    -0.274 OA
BRANCH  31  34
HETATM   34  C5  UNL     1       5.598  -2.155  -0.470  1.00  0.00     0.122 C 
BRANCH  34  35
HETATM   35  C4  UNL     1       6.681  -3.155  -0.157  1.00  0.00     0.020 C 
BRANCH  35  36
HETATM   36  C3  UNL     1       7.844  -3.022  -1.112  1.00  0.00     0.001 C 
BRANCH  36  37
HETATM   37  C2  UNL     1       8.917  -4.037  -0.768  1.00  0.00    -0.004 C 
HETATM   38  C1  UNL     1      10.099  -3.936  -1.699  1.00  0.00     0.005 C 
ENDBRANCH  36  37
ENDBRANCH  35  36
ENDBRANCH  34  35
ENDBRANCH  31  34
ENDBRANCH  29  30
ENDBRANCH   1  29
BRANCH   6  39
HETATM   39  C11 UNL     1      -0.953  -3.236  -0.111  1.00  0.00     0.038 C 
BRANCH  39  40
HETATM   40  C12 UNL     1      -1.812  -3.578  -1.315  1.00  0.00    -0.020 C 
HETATM   41  C13 UNL     1      -2.128  -2.299  -2.078  1.00  0.00     0.009 C 
HETATM   42  C14 UNL     1      -1.051  -4.463  -2.278  1.00  0.00     0.009 C 
ENDBRANCH  39  40
ENDBRANCH   6  39
BRANCH  24  43
HETATM   43  C30 UNL     1       1.467   3.955  -0.654  1.00  0.00     0.012 C 
HETATM   44  C31 UNL     1       0.650   5.225  -0.810  1.00  0.00     0.007 C 
HETATM   45  C32 UNL     1       1.636   6.273  -1.291  1.00  0.00     0.001 C 
HETATM   46  C33 UNL     1       2.982   5.691  -1.074  1.00  0.00     0.005 C 
HETATM   47  C34 UNL     1       2.730   4.554  -0.087  1.00  0.00    -0.013 C 
HETATM   48  C35 UNL     1       2.545   5.196   1.258  1.00  0.00     0.010 C 
ENDBRANCH  24  43
BRANCH  23  49
HETATM   49  C27 UNL     1      -0.535   2.094  -1.769  1.00  0.00     0.002 C 
HETATM   50  C28 UNL     1       0.607   1.345  -2.354  1.00  0.00     0.005 C 
ENDBRANCH  23  49
BRANCH  11  51
HETATM   51  C17 UNL     1      -5.894  -0.909   1.346  1.00  0.00     0.038 C 
BRANCH  51  52
HETATM   52  C18 UNL     1      -6.562  -1.711   0.332  1.00  0.00    -0.020 C 
HETATM   53  C19 UNL     1      -6.454  -3.208   0.393  1.00  0.00     0.009 C 
HETATM   54  C20 UNL     1      -6.308  -1.233  -1.099  1.00  0.00     0.009 C 
ENDBRANCH  51  52
ENDBRANCH  11  51
TORSDOF 12
