REMARK  13 active torsions:
REMARK  status: ('A' for Active; 'I' for Inactive)
REMARK    1  A    between atoms: C2_2  and  C3_3 
REMARK    2  A    between atoms: C3_3  and  C4_4 
REMARK    3  A    between atoms: C4_4  and  C5_5 
REMARK    4  A    between atoms: C7_10  and  C8_11 
REMARK    5  A    between atoms: C8_11  and  C9_12 
REMARK    6  A    between atoms: C13_19  and  C14_20 
REMARK    7  A    between atoms: C17_25  and  O3_26 
REMARK    8  A    between atoms: C18_28  and  C19_29 
REMARK    9  A    between atoms: C19_29  and  C20_30 
REMARK   10  A    between atoms: C24_37  and  C25_38 
REMARK   11  A    between atoms: C25_38  and  C26_39 
REMARK   12  A    between atoms: N6_46  and  C30_47 
REMARK   13  A    between atoms: C30_47  and  C32_49 
REMARK       I    between atoms: C32_49  and  N7_51 
ROOT
HETATM    1  C5  UNL     1      -1.956   0.603   0.323  1.00  0.00     0.177 C 
HETATM    2  N1  UNL     1      -1.638   0.620  -1.083  1.00  0.00    -0.346 N 
ATOM      3  H1  UNL     1      -2.178  -0.048  -1.633  1.00  0.00     0.163 HD
HETATM    4  C6  UNL     1      -0.752   1.358  -1.829  1.00  0.00     0.241 C 
HETATM    5  O1  UNL     1      -0.172   0.704  -2.787  1.00  0.00    -0.271 OA
HETATM    6  C7  UNL     1      -0.311   2.782  -1.770  1.00  0.00     0.177 C 
HETATM    7  N2  UNL     1      -0.309   3.365  -0.466  1.00  0.00    -0.346 N 
ATOM      8  H2  UNL     1      -1.183   3.780  -0.144  1.00  0.00     0.163 HD
HETATM    9  C12 UNL     1       0.815   3.422   0.439  1.00  0.00     0.241 C 
HETATM   10  O2  UNL     1       1.163   4.527   0.963  1.00  0.00    -0.271 OA
HETATM   11  C13 UNL     1       1.630   2.242   0.824  1.00  0.00     0.179 C 
HETATM   12  N3  UNL     1       2.686   1.972  -0.129  1.00  0.00    -0.359 N 
ATOM     13  H3  UNL     1       3.256   2.772  -0.405  1.00  0.00     0.162 HD
HETATM   14  C17 UNL     1       3.022   0.741  -0.721  1.00  0.00     0.135 C 
HETATM   15  C18 UNL     1       3.320  -0.538  -0.085  1.00  0.00     0.159 C 
HETATM   16  N4  UNL     1       2.223  -1.085   0.716  1.00  0.00    -0.347 N 
ATOM     17  H4  UNL     1       1.986  -0.578   1.569  1.00  0.00     0.163 HD
HETATM   18  C23 UNL     1       1.468  -2.224   0.438  1.00  0.00     0.241 C 
HETATM   19  O4  UNL     1       1.042  -2.907   1.401  1.00  0.00    -0.271 OA
HETATM   20  C24 UNL     1       1.108  -2.729  -0.940  1.00  0.00     0.178 C 
HETATM   21  N5  UNL     1      -0.225  -2.474  -1.340  1.00  0.00    -0.329 N 
ATOM     22  H5  UNL     1      -0.281  -2.188  -2.317  1.00  0.00     0.165 HD
HETATM   23  C29 UNL     1      -1.475  -2.515  -0.739  1.00  0.00     0.326 C 
HETATM   24  O5  UNL     1      -2.395  -3.124  -1.423  1.00  0.00    -0.247 OA
HETATM   25  N6  UNL     1      -1.959  -2.013   0.498  1.00  0.00    -0.255 N 
HETATM   26  C34 UNL     1      -1.750  -0.695   1.000  1.00  0.00     0.251 C 
HETATM   27  O7  UNL     1      -1.322  -0.626   2.210  1.00  0.00    -0.271 OA
ENDROOT
BRANCH  25  28
HETATM   28  C30 UNL     1      -2.781  -2.903   1.308  1.00  0.00     0.185 C 
HETATM   29  C31 UNL     1      -2.336  -4.283   1.504  1.00  0.00     0.043 C 
BRANCH  28  30
HETATM   30  C32 UNL     1      -4.200  -3.011   0.759  1.00  0.00     0.240 C 
HETATM   31  O6  UNL     1      -4.627  -2.296  -0.123  1.00  0.00    -0.271 OA
HETATM   32  N7  UNL     1      -5.020  -4.002   1.334  1.00  0.00    -0.364 N 
HETATM   33  C33 UNL     1      -6.396  -4.205   0.898  1.00  0.00     0.149 C 
ATOM     34  H7  UNL     1      -4.641  -4.593   2.074  1.00  0.00     0.161 HD
ENDBRANCH  28  30
ENDBRANCH  25  28
BRANCH   1  35
HETATM   35  C4  UNL     1      -3.401   1.078   0.402  1.00  0.00     0.035 C 
BRANCH  35  36
HETATM   36  C3  UNL     1      -3.962   1.133   1.775  1.00  0.00     0.002 C 
BRANCH  36  37
HETATM   37  C2  UNL     1      -5.410   1.627   1.618  1.00  0.00    -0.004 C 
HETATM   38  C1  UNL     1      -6.096   1.721   2.950  1.00  0.00     0.005 C 
ENDBRANCH  36  37
ENDBRANCH  35  36
ENDBRANCH   1  35
BRANCH  20  39
HETATM   39  C25 UNL     1       1.618  -4.141  -1.073  1.00  0.00     0.038 C 
BRANCH  39  40
HETATM   40  C26 UNL     1       1.443  -4.839  -2.358  1.00  0.00    -0.020 C 
HETATM   41  C27 UNL     1       0.079  -5.056  -2.884  1.00  0.00     0.009 C 
HETATM   42  C28 UNL     1       2.246  -6.150  -2.371  1.00  0.00     0.009 C 
ENDBRANCH  39  40
ENDBRANCH  20  39
BRANCH   6  43
HETATM   43  C8  UNL     1      -1.098   3.603  -2.766  1.00  0.00     0.038 C 
BRANCH  43  44
HETATM   44  C9  UNL     1      -0.824   5.034  -2.887  1.00  0.00    -0.020 C 
HETATM   45  C10 UNL     1      -1.046   5.918  -1.714  1.00  0.00     0.009 C 
HETATM   46  C11 UNL     1       0.606   5.184  -3.428  1.00  0.00     0.009 C 
ENDBRANCH  43  44
ENDBRANCH   6  43
BRANCH  15  47
HETATM   47  C19 UNL     1       4.535  -0.603   0.789  1.00  0.00     0.037 C 
BRANCH  47  48
HETATM   48  C20 UNL     1       5.856  -0.312   0.204  1.00  0.00    -0.020 C 
HETATM   49  C21 UNL     1       6.894  -0.539   1.355  1.00  0.00     0.009 C 
HETATM   50  C22 UNL     1       5.990   1.198  -0.044  1.00  0.00     0.009 C 
ENDBRANCH  47  48
ENDBRANCH  15  47
BRANCH  14  51
HETATM   51  O3  UNL     1       3.069   0.763  -2.022  1.00  0.00    -0.348 OA
ATOM     52  H3  UNL     1       3.296  -0.068  -2.422  1.00  0.00     0.219 HD
ENDBRANCH  14  51
BRANCH  11  53
HETATM   53  C14 UNL     1       2.195   2.498   2.212  1.00  0.00     0.009 C 
HETATM   54  C15 UNL     1       3.081   3.681   2.331  1.00  0.00     0.012 C 
HETATM   55  C16 UNL     1       1.008   2.518   3.155  1.00  0.00     0.012 C 
ENDBRANCH  11  53
TORSDOF 13
