REMARK  12 active torsions:
REMARK  status: ('A' for Active; 'I' for Inactive)
REMARK    1  A    between atoms: C2_2  and  C3_3 
REMARK    2  A    between atoms: C6_6  and  C7_7 
REMARK       I    between atoms: C7_7  and  N1_9 
REMARK    3  A    between atoms: C9_16  and  C10_17 
REMARK    4  A    between atoms: C10_17  and  C11_18 
REMARK    5  A    between atoms: C11_18  and  S1_19 
REMARK    6  A    between atoms: S1_19  and  C12_20 
REMARK    7  A    between atoms: C12_20  and  C13_21 
REMARK    8  A    between atoms: C13_21  and  C14_22 
REMARK    9  A    between atoms: C15_27  and  N6_28 
REMARK       I    between atoms: N6_28  and  C16_30 
REMARK   10  A    between atoms: C16_30  and  C17_32 
REMARK   11  A    between atoms: C17_32  and  C18_33 
REMARK   12  A    between atoms: N9_40  and  C21_41 
ROOT
HETATM    1  C12 UNL     1      -2.554  -0.244  -1.222  1.00  0.00     0.081 C 
ENDROOT
BRANCH   1   2
HETATM    2  S1  UNL     1      -1.806  -1.039  -2.622  1.00  0.00    -0.168 SA
BRANCH   2   3
HETATM    3  C11 UNL     1      -0.091  -1.478  -2.353  1.00  0.00     0.080 C 
BRANCH   3   4
HETATM    4  C10 UNL     1       0.725  -0.205  -2.224  1.00  0.00     0.076 C 
BRANCH   4   5
HETATM    5  C9  UNL     1       2.201  -0.524  -2.138  1.00  0.00     0.070 A 
HETATM    6  N3  UNL     1       3.021  -0.639  -3.193  1.00  0.00    -0.296 N 
HETATM    7  N2  UNL     1       4.230  -0.893  -3.068  1.00  0.00    -0.279 N 
ATOM      8  H3  UNL     1       2.638  -0.514  -4.130  1.00  0.00     0.187 HD
HETATM    9  C8  UNL     1       4.735  -1.060  -1.793  1.00  0.00     0.168 A 
ATOM     10  H2  UNL     1       4.835  -0.976  -3.885  1.00  0.00     0.189 HD
HETATM   11  N1  UNL     1       5.918  -1.318  -1.516  1.00  0.00    -0.302 N 
HETATM   12  S2  UNL     1       3.287  -0.811  -0.869  1.00  0.00    -0.038 SA
HETATM   13  C7  UNL     1       6.671  -1.528  -0.421  1.00  0.00     0.257 C 
ATOM     14  H1  UNL     1       6.481  -1.392  -2.363  1.00  0.00     0.171 HD
HETATM   15  O1  UNL     1       6.366  -2.271   0.579  1.00  0.00    -0.267 OA
BRANCH  13  16
HETATM   16  C6  UNL     1       7.989  -0.865  -0.306  1.00  0.00     0.032 A 
HETATM   17  C5  UNL     1       8.821  -1.098   0.780  1.00  0.00     0.017 A 
HETATM   18  C4  UNL     1      10.026  -0.433   0.802  1.00  0.00     0.008 A 
HETATM   19  C3  UNL     1      10.412   0.432  -0.195  1.00  0.00    -0.059 A 
HETATM   20  C24 UNL     1       9.598   0.675  -1.277  1.00  0.00     0.008 A 
HETATM   21  C23 UNL     1       8.373  -0.009  -1.290  1.00  0.00     0.017 A 
BRANCH  19  22
HETATM   22  C2  UNL     1      11.723   1.099  -0.107  1.00  0.00     0.034 C 
HETATM   23  C1  UNL     1      11.528   2.379   0.694  1.00  0.00     0.010 C 
ENDBRANCH  19  22
ENDBRANCH  13  16
ENDBRANCH   4   5
ENDBRANCH   3   4
ENDBRANCH   2   3
ENDBRANCH   1   2
BRANCH   1  24
HETATM   24  C13 UNL     1      -2.789  -1.186  -0.040  1.00  0.00     0.089 C 
BRANCH  24  25
HETATM   25  C14 UNL     1      -3.483  -0.436   1.058  1.00  0.00     0.115 A 
HETATM   26  N4  UNL     1      -2.935   0.230   2.061  1.00  0.00    -0.274 N 
HETATM   27  N5  UNL     1      -3.849   0.785   2.808  1.00  0.00    -0.130 N 
ATOM     28  H4  UNL     1      -1.931   0.300   2.228  1.00  0.00     0.189 HD
HETATM   29  C15 UNL     1      -5.078   0.470   2.270  1.00  0.00     0.703 A 
ATOM     30  H5  UNL     1      -3.684   1.350   3.641  1.00  0.00     0.205 HD
HETATM   31  N9  UNL     1      -4.836  -0.283   1.194  1.00  0.00    -0.170 N 
BRANCH  29  32
HETATM   32  N6  UNL     1      -6.150   0.918   2.809  1.00  0.00    -0.158 N 
HETATM   33  C16 UNL     1      -7.488   0.753   2.459  1.00  0.00     0.241 C 
HETATM   34  O2  UNL     1      -8.161  -0.264   2.762  1.00  0.00    -0.272 OA
ATOM     35  H6  UNL     1      -5.998   1.495   3.637  1.00  0.00     0.187 HD
BRANCH  33  36
HETATM   36  C17 UNL     1      -8.122   1.877   1.675  1.00  0.00     0.162 C 
BRANCH  36  37
HETATM   37  C18 UNL     1      -9.501   1.555   1.252  1.00  0.00     0.034 A 
HETATM   38  C19 UNL     1     -10.689   1.565   1.934  1.00  0.00     0.114 A 
HETATM   39  N7  UNL     1     -11.660   1.215   1.078  1.00  0.00    -0.360 N 
HETATM   40  C20 UNL     1     -11.128   0.986  -0.121  1.00  0.00     0.180 A 
ATOM     41  H7  UNL     1     -12.650   1.137   1.309  1.00  0.00     0.166 HD
HETATM   42  N8  UNL     1      -9.810   1.188  -0.028  1.00  0.00    -0.354 N 
ATOM     43  H8  UNL     1      -9.141   1.085  -0.791  1.00  0.00     0.166 HD
ENDBRANCH  36  37
ENDBRANCH  33  36
ENDBRANCH  29  32
BRANCH  31  44
HETATM   44  C21 UNL     1      -5.762  -0.892   0.281  1.00  0.00     0.144 C 
HETATM   45  C22 UNL     1      -6.164  -2.302   0.691  1.00  0.00     0.027 C 
ENDBRANCH  31  44
ENDBRANCH  24  25
ENDBRANCH   1  24
TORSDOF 12
