REMARK  15 active torsions:
REMARK  status: ('A' for Active; 'I' for Inactive)
REMARK    1  A    between atoms: C2_2  and  C3_3 
REMARK       I    between atoms: C3_3  and  N1_5 
REMARK    2  A    between atoms: N1_5  and  C4_7 
REMARK    3  A    between atoms: C4_7  and  C5_8 
REMARK    4  A    between atoms: C4_7  and  C8_12 
REMARK    5  A    between atoms: C5_8  and  C6_9 
REMARK    6  A    between atoms: C6_9  and  S1_10 
REMARK    7  A    between atoms: C8_12  and  O2_13 
REMARK    8  A    between atoms: C8_12  and  N2_15 
REMARK    9  A    between atoms: C13_20  and  C14_21 
REMARK   10  A    between atoms: C14_21  and  C15_23 
REMARK   11  A    between atoms: C16_26  and  C17_27 
REMARK       I    between atoms: C17_27  and  N4_29 
REMARK   12  A    between atoms: N4_29  and  C18_31 
REMARK   13  A    between atoms: C23_37  and  O5_38 
REMARK   14  A    between atoms: C23_37  and  C24_40 
REMARK   15  A    between atoms: C24_40  and  C25_41 
ROOT
HETATM    1  N2  UNL     1      -2.096   0.015   0.032  1.00  0.00    -0.348 N 
HETATM    2  C9  UNL     1      -2.985   0.982  -0.682  1.00  0.00     0.134 C 
HETATM    3  C10 UNL     1      -3.112   2.104   0.325  1.00  0.00     0.045 A 
HETATM    4  C11 UNL     1      -2.038   2.330   1.257  1.00  0.00     0.031 A 
HETATM    5  C12 UNL     1      -0.739   1.616   1.106  1.00  0.00     0.041 C 
HETATM    6  C13 UNL     1      -0.753   0.552   0.047  1.00  0.00     0.164 C 
HETATM    7  C23 UNL     1      -2.470   3.401   0.272  1.00  0.00     0.068 A 
ENDROOT
BRANCH   6   8
HETATM    8  C14 UNL     1       0.356  -0.355   0.078  1.00  0.00     0.205 C 
HETATM    9  O3  UNL     1       0.338  -1.572   0.235  1.00  0.00    -0.288 OA
BRANCH   8  10
HETATM   10  C15 UNL     1       1.730   0.209  -0.105  1.00  0.00     0.123 A 
HETATM   11  N3  UNL     1       2.868  -0.458  -0.093  1.00  0.00    -0.343 N 
HETATM   12  C16 UNL     1       3.986   0.160  -0.294  1.00  0.00     0.108 A 
ATOM     13  H3  UNL     1       2.866  -1.464   0.075  1.00  0.00     0.167 HD
HETATM   14  C22 UNL     1       3.921   1.517  -0.514  1.00  0.00     0.087 A 
HETATM   15  S2  UNL     1       2.242   1.801  -0.415  1.00  0.00    -0.078 SA
BRANCH  12  16
HETATM   16  C17 UNL     1       5.294  -0.547  -0.296  1.00  0.00     0.269 C 
HETATM   17  O4  UNL     1       5.273  -1.784  -0.075  1.00  0.00    -0.266 OA
HETATM   18  N4  UNL     1       6.478   0.172  -0.540  1.00  0.00    -0.348 N 
ATOM     19  H4  UNL     1       6.450   1.176  -0.716  1.00  0.00     0.163 HD
BRANCH  18  20
HETATM   20  C18 UNL     1       7.730  -0.539  -0.536  1.00  0.00     0.022 C 
HETATM   21  C19 UNL     1       8.879   0.412  -0.826  1.00  0.00     0.037 C 
HETATM   22  C20 UNL     1       7.996  -1.133   0.851  1.00  0.00     0.037 C 
HETATM   23  C21 UNL     1       7.765  -1.660  -1.546  1.00  0.00     0.037 C 
ENDBRANCH  18  20
ENDBRANCH  12  16
ENDBRANCH   8  10
ENDBRANCH   6   8
BRANCH   1  24
HETATM   24  C8  UNL     1      -2.546  -1.187   0.539  1.00  0.00     0.162 C 
BRANCH  24  25
HETATM   25  C4  UNL     1      -3.657  -2.097   0.276  1.00  0.00     0.064 C 
BRANCH  25  26
HETATM   26  N1  UNL     1      -4.413  -2.272   1.529  1.00  0.00    -0.323 N 
HETATM   27  C3  UNL     1      -4.290  -3.450   2.270  1.00  0.00     0.244 C 
HETATM   28  O1  UNL     1      -3.522  -4.406   1.887  1.00  0.00    -0.268 OA
ATOM     29  H1  UNL     1      -5.030  -1.529   1.857  1.00  0.00     0.169 HD
BRANCH  27  30
HETATM   30  C2  UNL     1      -5.017  -3.680   3.519  1.00  0.00     0.064 C 
HETATM   31  C1  UNL     1      -4.864  -4.809   4.182  1.00  0.00     0.017 C 
ENDBRANCH  27  30
ENDBRANCH  25  26
BRANCH  25  32
HETATM   32  C5  UNL     1      -4.481  -2.094  -0.917  1.00  0.00     0.072 C 
BRANCH  32  33
HETATM   33  C6  UNL     1      -3.746  -2.088  -2.212  1.00  0.00     0.079 C 
BRANCH  33  34
HETATM   34  S1  UNL     1      -4.966  -2.062  -3.576  1.00  0.00    -0.173 SA
HETATM   35  C7  UNL     1      -5.933  -3.576  -3.640  1.00  0.00     0.089 C 
ENDBRANCH  33  34
ENDBRANCH  32  33
ENDBRANCH  25  32
ENDBRANCH  24  25
BRANCH  24  36
HETATM   36  O2  UNL     1      -1.809  -1.699   1.546  1.00  0.00    -0.345 OA
ATOM     37  H2  UNL     1      -1.086  -1.107   1.717  1.00  0.00     0.219 HD
ENDBRANCH  24  36
ENDBRANCH   1  24
BRANCH   7  38
HETATM   38  O5  UNL     1      -3.221   4.492   0.834  1.00  0.00    -0.389 OA
ATOM     39  H5  UNL     1      -2.800   5.343   0.799  1.00  0.00     0.210 HD
ENDBRANCH   7  38
BRANCH   7  40
HETATM   40  C24 UNL     1      -1.507   3.902  -0.739  1.00  0.00     0.038 C 
BRANCH  40  41
HETATM   41  C25 UNL     1      -1.099   5.354  -0.399  1.00  0.00    -0.002 C 
HETATM   42  C26 UNL     1      -0.440   5.411   0.961  1.00  0.00     0.005 C 
ENDBRANCH  40  41
ENDBRANCH   7  40
TORSDOF 15
