REMARK  12 active torsions:
REMARK  status: ('A' for Active; 'I' for Inactive)
REMARK    1  A    between atoms: C2_2  and  C3_3 
REMARK    2  A    between atoms: C3_3  and  C4_5 
REMARK       I    between atoms: N2_14  and  C11_16 
REMARK    3  A    between atoms: C11_16  and  C12_18 
REMARK    4  A    between atoms: N3_22  and  C16_23 
REMARK    5  A    between atoms: C16_23  and  C17_24 
REMARK    6  A    between atoms: C18_26  and  O4_27 
REMARK    7  A    between atoms: O4_27  and  C19_28 
REMARK    8  A    between atoms: C19_28  and  C20_29 
REMARK    9  A    between atoms: C20_29  and  C21_30 
REMARK   10  A    between atoms: C21_30  and  N4_31 
REMARK   11  A    between atoms: N4_31  and  C22_34 
REMARK   12  A    between atoms: C27_39  and  O5_40 
ROOT
HETATM    1  C12 UNL     1      -0.592  -0.461   0.461  1.00  0.00     0.314 C 
HETATM    2  C13 UNL     1      -0.655  -1.660  -0.453  1.00  0.00     0.047 C 
HETATM    3  C14 UNL     1       0.490  -1.419  -1.384  1.00  0.00     0.033 C 
HETATM    4  C15 UNL     1       1.241  -0.224  -0.838  1.00  0.00     0.273 C 
HETATM    5  N3  UNL     1       0.873  -0.256   0.588  1.00  0.00     0.104 N 
ENDROOT
BRANCH   1   6
HETATM    6  C11 UNL     1      -1.207  -0.783   1.779  1.00  0.00     0.257 C 
HETATM    7  N2  UNL     1      -2.514  -0.994   2.037  1.00  0.00    -0.305 N 
HETATM    8  C10 UNL     1      -3.649  -0.740   1.516  1.00  0.00     0.151 A 
ATOM      9  H2  UNL     1      -2.628  -1.511   2.909  1.00  0.00     0.171 HD
HETATM   10  N1  UNL     1      -3.997  -0.102   0.402  1.00  0.00    -0.339 N 
HETATM   11  S1  UNL     1      -5.204  -1.187   2.163  1.00  0.00    -0.056 SA
HETATM   12  C9  UNL     1      -5.262   0.025   0.093  1.00  0.00     0.025 A 
ATOM     13  H1  UNL     1      -3.280   0.287  -0.210  1.00  0.00     0.168 HD
HETATM   14  C8  UNL     1      -5.685   0.757  -1.178  1.00  0.00     0.058 C 
HETATM   15  C28 UNL     1      -6.185  -0.517   0.948  1.00  0.00     0.020 A 
HETATM   16  C7  UNL     1      -6.626   1.886  -0.817  1.00  0.00     0.006 C 
HETATM   17  C6  UNL     1      -8.026   1.308  -0.770  1.00  0.00     0.001 C 
HETATM   18  C5  UNL     1      -8.269   0.793   0.607  1.00  0.00     0.018 C 
HETATM   19  C4  UNL     1      -7.686  -0.546   0.888  1.00  0.00     0.097 C 
HETATM   20  O2  UNL     1      -0.379  -0.864   2.760  1.00  0.00    -0.271 OA
BRANCH  19  21
HETATM   21  C3  UNL     1      -8.149  -1.622  -0.008  1.00  0.00     0.135 C 
HETATM   22  O1  UNL     1      -7.319  -2.320  -0.552  1.00  0.00    -0.297 OA
BRANCH  21  23
HETATM   23  C2  UNL     1      -9.582  -1.877  -0.267  1.00  0.00     0.074 C 
HETATM   24  C1  UNL     1      -9.710  -3.035  -1.229  1.00  0.00     0.013 C 
ENDBRANCH  21  23
ENDBRANCH  19  21
ENDBRANCH   1   6
BRANCH   5  25
HETATM   25  C16 UNL     1       1.096   1.062   1.174  1.00  0.00     0.307 C 
BRANCH  25  26
HETATM   26  C17 UNL     1       2.550   1.246   1.476  1.00  0.00     0.181 C 
HETATM   27  O3  UNL     1       3.372   1.194   0.406  1.00  0.00    -0.352 OA
HETATM   28  C18 UNL     1       4.155   2.308   0.337  1.00  0.00     0.262 C 
HETATM   29  C26 UNL     1       3.459   3.387   1.153  1.00  0.00     0.095 C 
HETATM   30  C27 UNL     1       2.817   2.531   2.230  1.00  0.00     0.153 C 
BRANCH  28  31
HETATM   31  O4  UNL     1       5.421   2.049   0.802  1.00  0.00    -0.361 OA
BRANCH  31  32
HETATM   32  C19 UNL     1       6.450   2.319  -0.059  1.00  0.00     0.172 C 
BRANCH  32  33
HETATM   33  C20 UNL     1       6.431   1.550  -1.334  1.00  0.00     0.054 C 
BRANCH  33  34
HETATM   34  C21 UNL     1       6.510   0.068  -1.159  1.00  0.00     0.235 C 
BRANCH  34  35
HETATM   35  N4  UNL     1       7.731  -0.325  -0.477  1.00  0.00    -0.071 N 
ATOM     36  H42 UNL     1       8.558   0.056  -0.937  1.00  0.00     0.277 HD
ATOM     37  H41 UNL     1       7.826   0.143   0.424  1.00  0.00     0.277 HD
BRANCH  35  38
HETATM   38  C22 UNL     1       7.810  -1.771  -0.342  1.00  0.00     0.185 C 
HETATM   39  C23 UNL     1       9.035  -2.215   0.426  1.00  0.00     0.033 C 
HETATM   40  C24 UNL     1       9.763  -2.325  -0.890  1.00  0.00     0.004 C 
HETATM   41  C25 UNL     1       8.394  -2.464  -1.557  1.00  0.00     0.033 C 
ENDBRANCH  35  38
ENDBRANCH  34  35
ENDBRANCH  33  34
ENDBRANCH  32  33
ENDBRANCH  31  32
ENDBRANCH  28  31
BRANCH  30  42
HETATM   42  O5  UNL     1       1.648   3.111   2.720  1.00  0.00    -0.393 OA
ATOM     43  H5  UNL     1       1.816   3.918   3.193  1.00  0.00     0.210 HD
ENDBRANCH  30  42
ENDBRANCH  25  26
ENDBRANCH   5  25
TORSDOF 12
