REMARK  3 active torsions:
REMARK  status: ('A' for Active; 'I' for Inactive)
REMARK    1  A    between atoms: O1_2  and  C2_3 
REMARK    2  A    between atoms: C2_3  and  C3_8 
REMARK    3  A    between atoms: N1_4  and  O2_6 
ROOT
HETATM    1  C3  UNL     1      -0.392   0.188  -0.239  1.00  0.00     0.130 A 
HETATM    2  N2  UNL     1      -1.275   0.791  -1.035  1.00  0.00    -0.312 N 
ATOM      3  H2  UNL     1      -0.942   1.140  -1.933  1.00  0.00     0.169 HD
HETATM    4  C4  UNL     1      -2.591   0.974  -0.734  1.00  0.00     0.314 A 
HETATM    5  O3  UNL     1      -3.376   1.560  -1.547  1.00  0.00    -0.262 OA
HETATM    6  C5  UNL     1      -3.027   0.499   0.479  1.00  0.00     0.315 A 
HETATM    7  O4  UNL     1      -4.262   0.677   0.748  1.00  0.00    -0.262 OA
HETATM    8  N3  UNL     1      -2.188  -0.116   1.323  1.00  0.00    -0.305 N 
ATOM      9  H3  UNL     1      -2.525  -0.464   2.221  1.00  0.00     0.170 HD
HETATM   10  C6  UNL     1      -0.883  -0.272   0.972  1.00  0.00     0.150 A 
HETATM   11  N4  UNL     1      -0.014  -0.933   1.894  1.00  0.00    -0.080 NA
ENDROOT
BRANCH   1  12
HETATM   12  C2  UNL     1       0.998  -0.007  -0.555  1.00  0.00     0.192 C 
HETATM   13  N1  UNL     1       1.651   0.326  -1.586  1.00  0.00    -0.245 N 
ATOM     14  H1  UNL     1       2.642   0.085  -1.600  1.00  0.00     0.196 HD
BRANCH  12  15
HETATM   15  O1  UNL     1       1.776  -0.669   0.419  1.00  0.00    -0.338 OA
HETATM   16  C1  UNL     1       3.149  -0.934   0.231  1.00  0.00     0.211 C 
ENDBRANCH  12  15
BRANCH  13  17
HETATM   17  O2  UNL     1       1.173   0.959  -2.654  1.00  0.00    -0.288 OA
ATOM     18  H2  UNL     1       1.663   1.209  -3.428  1.00  0.00     0.244 HD
ENDBRANCH  13  17
ENDBRANCH   1  12
TORSDOF 3
