REMARK  3 active torsions:
REMARK  status: ('A' for Active; 'I' for Inactive)
REMARK    1  A    between atoms: C2_5  and  N3_6 
REMARK    2  A    between atoms: N3_6  and  S1_8 
REMARK    3  A    between atoms: S1_8  and  N4_9 
ROOT
HETATM    1  N1  UNL     1      -2.798  -1.469   1.096  1.00  0.00    -0.080 NA
HETATM    2  C1  UNL     1      -1.655  -0.659   0.713  1.00  0.00     0.149 A 
HETATM    3  N2  UNL     1      -0.425  -1.090   0.687  1.00  0.00    -0.322 N 
ATOM      4  H2  UNL     1      -0.210  -2.053   0.946  1.00  0.00     0.169 HD
HETATM    5  C2  UNL     1       0.544  -0.260   0.319  1.00  0.00     0.162 A 
HETATM    6  S2  UNL     1      -0.299   1.189  -0.005  1.00  0.00    -0.035 SA
HETATM    7  C3  UNL     1      -1.877   0.648   0.353  1.00  0.00     0.131 A 
HETATM    8  N5  UNL     1      -3.121   1.372   0.294  1.00  0.00    -0.091 NA
ENDROOT
BRANCH   5   9
HETATM    9  N3  UNL     1       1.837  -0.520   0.235  1.00  0.00    -0.247 N 
ATOM     10  H3  UNL     1       2.207  -1.443   0.463  1.00  0.00     0.182 HD
BRANCH   9  11
HETATM   11  S1  UNL     1       2.874   0.755  -0.273  1.00  0.00     0.318 S 
HETATM   12  O1  UNL     1       2.209   1.646  -1.270  1.00  0.00    -0.183 OA
HETATM   13  O2  UNL     1       3.269   1.587   0.915  1.00  0.00    -0.183 OA
BRANCH  11  14
HETATM   14  N4  UNL     1       4.292   0.023  -0.934  1.00  0.00    -0.311 N 
ATOM     15  H42 UNL     1       4.467  -0.979  -1.003  1.00  0.00     0.170 HD
ATOM     16  H41 UNL     1       4.907   0.779  -1.235  1.00  0.00     0.170 HD
ENDBRANCH  11  14
ENDBRANCH   9  11
ENDBRANCH   5   9
TORSDOF 3
