REMARK  2 active torsions:
REMARK  status: ('A' for Active; 'I' for Inactive)
REMARK    1  A    between atoms: N1_1  and  C1_4 
REMARK    2  A    between atoms: C4_13  and  C5_14 
ROOT
HETATM    1  C1  UNL     1      -0.650   1.322   0.323  1.00  0.00     0.120 A 
HETATM    2  N2  UNL     1      -1.982   1.363   0.456  1.00  0.00    -0.294 N 
ATOM      3  H2  UNL     1      -2.432   2.243   0.707  1.00  0.00     0.172 HD
HETATM    4  C2  UNL     1      -2.745   0.260   0.264  1.00  0.00     0.327 A 
HETATM    5  O1  UNL     1      -3.996   0.277   0.383  1.00  0.00    -0.247 OA
HETATM    6  N3  UNL     1      -2.136  -0.880  -0.063  1.00  0.00    -0.296 N 
ATOM      7  H3  UNL     1      -2.699  -1.718  -0.210  1.00  0.00     0.171 HD
HETATM    8  C3  UNL     1      -0.784  -0.959  -0.206  1.00  0.00     0.138 A 
HETATM    9  N4  UNL     1      -0.143  -2.180  -0.555  1.00  0.00    -0.081 NA
HETATM   10  C4  UNL     1       0.016   0.165  -0.013  1.00  0.00     0.095 A 
ENDROOT
BRANCH  10  11
HETATM   11  C5  UNL     1       1.463   0.073  -0.168  1.00  0.00     0.148 A 
HETATM   12  N5  UNL     1       2.145   0.276  -1.315  1.00  0.00    -0.269 N 
HETATM   13  N6  UNL     1       3.436   0.108  -1.081  1.00  0.00    -0.007 NA
ATOM     14  H5  UNL     1       1.732   0.519  -2.215  1.00  0.00     0.185 HD
HETATM   15  N7  UNL     1       3.617  -0.199   0.190  1.00  0.00    -0.007 NA
HETATM   16  N8  UNL     1       2.415  -0.218   0.737  1.00  0.00    -0.269 N 
ATOM     17  H8  UNL     1       2.232  -0.426   1.719  1.00  0.00     0.185 HD
ENDBRANCH  10  11
BRANCH   1  18
HETATM   18  N1  UNL     1       0.044   2.387   0.512  1.00  0.00    -0.384 N 
ATOM     19  H12 UNL     1      -0.449   3.244   0.761  1.00  0.00     0.157 HD
ATOM     20  H11 UNL     1       1.058   2.356   0.411  1.00  0.00     0.157 HD
ENDBRANCH   1  18
TORSDOF 2
