REMARK  3 active torsions:
REMARK  status: ('A' for Active; 'I' for Inactive)
REMARK    1  A    between atoms: O1_2  and  N1_3 
REMARK    2  A    between atoms: C2_6  and  N3_7 
REMARK    3  A    between atoms: C6_17  and  N6_18 
ROOT
HETATM    1  N1  UNL     1      -1.599   0.648  -0.337  1.00  0.00    -0.155 N 
HETATM    2  N2  UNL     1      -1.549   1.661   0.502  1.00  0.00    -0.258 N 
ATOM      3  H2  UNL     1      -2.340   2.267   0.719  1.00  0.00     0.191 HD
HETATM    4  C2  UNL     1      -0.324   1.795   1.036  1.00  0.00     0.134 A 
HETATM    5  C3  UNL     1       0.445   0.797   0.494  1.00  0.00     0.113 A 
HETATM    6  C4  UNL     1       1.755   0.392   0.621  1.00  0.00     0.278 A 
HETATM    7  O2  UNL     1       2.498   1.043   1.406  1.00  0.00    -0.265 OA
HETATM    8  N4  UNL     1       2.254  -0.656  -0.056  1.00  0.00    -0.260 N 
HETATM    9  C5  UNL     1       3.662  -1.022   0.136  1.00  0.00     0.181 C 
HETATM   10  N5  UNL     1       1.466  -1.307  -0.857  1.00  0.00    -0.279 N 
ATOM     11  H5  UNL     1       1.851  -2.102  -1.367  1.00  0.00     0.189 HD
HETATM   12  C6  UNL     1       0.153  -0.991  -1.057  1.00  0.00     0.146 A 
HETATM   13  C7  UNL     1      -0.390   0.077  -0.380  1.00  0.00     0.145 A 
ENDROOT
BRANCH   4  14
HETATM   14  N3  UNL     1       0.081   2.665   1.882  1.00  0.00    -0.383 N 
ATOM     15  H32 UNL     1      -0.491   3.407   2.285  1.00  0.00     0.157 HD
ATOM     16  H31 UNL     1       1.011   2.767   2.288  1.00  0.00     0.157 HD
ENDBRANCH   4  14
BRANCH   1  17
HETATM   17  O1  UNL     1      -2.713   0.229  -1.063  1.00  0.00    -0.263 OA
HETATM   18  C1  UNL     1      -3.812  -0.269  -0.287  1.00  0.00     0.240 C 
ENDBRANCH   1  17
BRANCH  12  19
HETATM   19  N6  UNL     1      -0.562  -1.671  -1.857  1.00  0.00    -0.382 N 
ATOM     20  H62 UNL     1      -0.160  -2.463  -2.359  1.00  0.00     0.157 HD
ATOM     21  H61 UNL     1      -1.543  -1.435  -2.006  1.00  0.00     0.157 HD
ENDBRANCH  12  19
TORSDOF 3
