REMARK  2 active torsions:
REMARK  status: ('A' for Active; 'I' for Inactive)
REMARK    1  A    between atoms: C3_4  and  C4_5 
REMARK       I    between atoms: C4_5  and  N2_7 
REMARK    2  A    between atoms: N2_7  and  N3_9 
ROOT
HETATM    1  N1  UNL     1       0.289  -3.262  -1.592  1.00  0.00    -0.191 NA
HETATM    2  C1  UNL     1       0.608  -2.255  -1.071  1.00  0.00     0.107 C 
HETATM    3  C2  UNL     1       1.026  -1.042  -0.439  1.00  0.00     0.144 A 
HETATM    4  C3  UNL     1       0.105  -0.091  -0.074  1.00  0.00     0.131 A 
HETATM    5  N4  UNL     1       0.605   1.020   0.517  1.00  0.00    -0.327 N 
ATOM      6  H4  UNL     1      -0.054   1.746   0.800  1.00  0.00     0.168 HD
HETATM    7  C5  UNL     1       1.909   1.231   0.756  1.00  0.00     0.179 A 
HETATM    8  S1  UNL     1       2.448   2.602   1.477  1.00  0.00    -0.040 SA
HETATM    9  N5  UNL     1       2.806   0.322   0.410  1.00  0.00    -0.299 N 
ATOM     10  H5  UNL     1       3.798   0.476   0.589  1.00  0.00     0.171 HD
HETATM   11  C6  UNL     1       2.385  -0.803  -0.180  1.00  0.00     0.270 A 
HETATM   12  O2  UNL     1       3.182  -1.719  -0.541  1.00  0.00    -0.266 OA
ENDROOT
BRANCH   4  13
HETATM   13  C4  UNL     1      -1.331  -0.241  -0.298  1.00  0.00     0.287 C 
HETATM   14  O1  UNL     1      -1.748  -1.289  -0.850  1.00  0.00    -0.264 OA
HETATM   15  N2  UNL     1      -2.292   0.720   0.067  1.00  0.00    -0.271 N 
ATOM     16  H2  UNL     1      -1.999   1.587   0.518  1.00  0.00     0.189 HD
BRANCH  15  17
HETATM   17  N3  UNL     1      -3.651   0.490  -0.187  1.00  0.00    -0.342 N 
ATOM     18  H32 UNL     1      -3.928  -0.382  -0.639  1.00  0.00     0.176 HD
ATOM     19  H31 UNL     1      -4.348   1.187   0.078  1.00  0.00     0.176 HD
ENDBRANCH  15  17
ENDBRANCH   4  13
TORSDOF 2
