REMARK  4 active torsions:
REMARK  status: ('A' for Active; 'I' for Inactive)
REMARK    1  A    between atoms: N1_2  and  N2_3 
REMARK    2  A    between atoms: N1_2  and  N3_6 
REMARK    3  A    between atoms: N4_8  and  C2_10 
REMARK    4  A    between atoms: C3_11  and  O1_12 
ROOT
HETATM    1  C2  UNL     1      -0.998   0.221  -0.235  1.00  0.00     0.169 A 
HETATM    2  C3  UNL     1      -1.822   0.941   0.596  1.00  0.00     0.178 A 
HETATM    3  N5  UNL     1      -3.105   0.626   0.817  1.00  0.00    -0.287 N 
ATOM      4  H5  UNL     1      -3.686   1.186   1.441  1.00  0.00     0.172 HD
HETATM    5  C4  UNL     1      -3.602  -0.457   0.186  1.00  0.00     0.329 A 
HETATM    6  O2  UNL     1      -4.801  -0.757   0.390  1.00  0.00    -0.247 OA
HETATM    7  N6  UNL     1      -2.822  -1.199  -0.645  1.00  0.00    -0.273 N 
ATOM      8  H6  UNL     1      -3.225  -2.013  -1.109  1.00  0.00     0.173 HD
HETATM    9  C5  UNL     1      -1.525  -0.885  -0.873  1.00  0.00     0.281 A 
HETATM   10  O3  UNL     1      -0.799  -1.576  -1.647  1.00  0.00    -0.265 OA
ENDROOT
BRANCH   1  11
HETATM   11  N4  UNL     1       0.365   0.550  -0.475  1.00  0.00    -0.276 N 
HETATM   12  N3  UNL     1       1.238  -0.164   0.089  1.00  0.00    -0.226 N 
ATOM     13  H3  UNL     1       0.904  -0.927   0.677  1.00  0.00     0.210 HD
ATOM     14  H4  UNL     1       0.625   1.331  -1.078  1.00  0.00     0.189 HD
BRANCH  12  15
HETATM   15  N1  UNL     1       2.601  -0.007  -0.017  1.00  0.00    -0.231 N 
HETATM   16  C1  UNL     1       3.469  -1.141   0.232  1.00  0.00     0.201 C 
BRANCH  15  17
HETATM   17  N2  UNL     1       3.132   1.224  -0.359  1.00  0.00    -0.328 N 
ATOM     18  H22 UNL     1       4.142   1.340  -0.438  1.00  0.00     0.178 HD
ATOM     19  H21 UNL     1       2.521   2.022  -0.534  1.00  0.00     0.178 HD
ENDBRANCH  15  17
ENDBRANCH  12  15
ENDBRANCH   1  11
BRANCH   2  20
HETATM   20  O1  UNL     1      -1.292   2.051   1.235  1.00  0.00    -0.344 OA
ATOM     21  H1  UNL     1      -1.862   2.549   1.810  1.00  0.00     0.219 HD
ENDBRANCH   2  20
TORSDOF 4
