REMARK  3 active torsions:
REMARK  status: ('A' for Active; 'I' for Inactive)
REMARK    1  A    between atoms: C2_2  and  C3_8 
REMARK    2  A    between atoms: N1_3  and  N2_5 
REMARK    3  A    between atoms: N3_11  and  N4_12 
ROOT
HETATM    1  C3  UNL     1      -0.055  -0.497   0.090  1.00  0.00     0.080 A 
HETATM    2  C4  UNL     1       0.892   0.445  -0.240  1.00  0.00     0.052 A 
HETATM    3  C5  UNL     1       0.550   1.842  -0.539  1.00  0.00     0.072 C 
HETATM    4  N3  UNL     1       2.191   0.007  -0.276  1.00  0.00    -0.215 N 
HETATM    5  C6  UNL     1       2.545  -1.259  -0.009  1.00  0.00     0.348 A 
HETATM    6  O1  UNL     1       3.750  -1.619  -0.054  1.00  0.00    -0.245 OA
HETATM    7  N5  UNL     1       1.580  -2.139   0.307  1.00  0.00    -0.273 N 
ATOM      8  H5  UNL     1       1.842  -3.104   0.510  1.00  0.00     0.173 HD
HETATM    9  C7  UNL     1       0.290  -1.797   0.365  1.00  0.00     0.263 A 
HETATM   10  O2  UNL     1      -0.536  -2.668   0.665  1.00  0.00    -0.267 OA
ENDROOT
BRANCH   1  11
HETATM   11  C2  UNL     1      -1.452  -0.118   0.151  1.00  0.00     0.039 C 
HETATM   12  C1  UNL     1      -2.532  -1.103   0.505  1.00  0.00     0.071 C 
HETATM   13  N1  UNL     1      -1.885   1.067  -0.087  1.00  0.00    -0.311 N 
ATOM     14  H1  UNL     1      -1.205   1.786  -0.333  1.00  0.00     0.186 HD
BRANCH  13  15
HETATM   15  N2  UNL     1      -3.216   1.425  -0.029  1.00  0.00    -0.345 N 
ATOM     16  H22 UNL     1      -3.882   0.693   0.219  1.00  0.00     0.176 HD
ATOM     17  H21 UNL     1      -3.560   2.366  -0.218  1.00  0.00     0.176 HD
ENDBRANCH  13  15
ENDBRANCH   1  11
BRANCH   4  18
HETATM   18  N4  UNL     1       3.169   0.947  -0.608  1.00  0.00    -0.334 N 
ATOM     19  H42 UNL     1       2.900   1.910  -0.811  1.00  0.00     0.177 HD
ATOM     20  H41 UNL     1       4.135   0.621  -0.635  1.00  0.00     0.177 HD
ENDBRANCH   4  18
TORSDOF 3
