REMARK  3 active torsions:
REMARK  status: ('A' for Active; 'I' for Inactive)
REMARK    1  A    between atoms: O1_2  and  N1_3 
REMARK    2  A    between atoms: C2_4  and  N2_5 
REMARK    3  A    between atoms: C6_16  and  N5_17 
ROOT
HETATM    1  N1  UNL     1      -1.257  -0.685  -0.420  1.00  0.00    -0.031 N 
HETATM    2  C2  UNL     1      -1.076  -1.976  -0.109  1.00  0.00     0.707 A 
HETATM    3  N3  UNL     1       0.116  -2.464   0.303  1.00  0.00    -0.152 N 
ATOM      4  H3  UNL     1       0.204  -3.455   0.529  1.00  0.00     0.187 HD
HETATM    5  C3  UNL     1       1.191  -1.654   0.418  1.00  0.00     0.291 A 
HETATM    6  O2  UNL     1       2.324  -2.043   0.794  1.00  0.00    -0.265 OA
HETATM    7  C4  UNL     1       1.009  -0.335   0.101  1.00  0.00     0.167 A 
HETATM    8  C5  UNL     1      -0.218   0.163  -0.321  1.00  0.00     0.200 A 
HETATM    9  N4  UNL     1      -0.068   1.481  -0.551  1.00  0.00    -0.171 N 
ATOM     10  H4  UNL     1      -0.798   2.117  -0.872  1.00  0.00     0.186 HD
HETATM   11  C6  UNL     1       1.217   1.820  -0.284  1.00  0.00     0.680 A 
HETATM   12  N6  UNL     1       1.862   0.708   0.111  1.00  0.00    -0.178 N 
HETATM   13  C7  UNL     1       3.233   0.650   0.482  1.00  0.00     0.176 C 
ENDROOT
BRANCH   2  14
HETATM   14  N2  UNL     1      -2.088  -2.790  -0.207  1.00  0.00    -0.232 N 
ATOM     15  H22 UNL     1      -2.987  -2.422  -0.518  1.00  0.00     0.174 HD
ATOM     16  H21 UNL     1      -1.950  -3.773   0.030  1.00  0.00     0.174 HD
ENDBRANCH   2  14
BRANCH   1  17
HETATM   17  O1  UNL     1      -2.503  -0.278  -0.829  1.00  0.00    -0.263 OA
HETATM   18  C1  UNL     1      -3.304   0.511   0.051  1.00  0.00     0.239 C 
ENDBRANCH   1  17
BRANCH  11  19
HETATM   19  N5  UNL     1       1.680   3.016  -0.407  1.00  0.00    -0.234 N 
ATOM     20  H52 UNL     1       1.191   3.859  -0.707  1.00  0.00     0.174 HD
ATOM     21  H51 UNL     1       2.647   3.271  -0.206  1.00  0.00     0.174 HD
ENDBRANCH  11  19
TORSDOF 3
