REMARK  9 active torsions:
REMARK  status: ('A' for Active; 'I' for Inactive)
REMARK    1  A    between atoms: N1_2  and  C2_5 
REMARK    2  A    between atoms: C2_5  and  C3_6 
REMARK    3  A    between atoms: C3_6  and  N2_7 
REMARK    4  A    between atoms: N2_7  and  C4_10 
REMARK    5  A    between atoms: C4_10  and  C5_11 
REMARK    6  A    between atoms: C4_10  and  C10_22 
REMARK    7  A    between atoms: C5_11  and  C6_12 
REMARK    8  A    between atoms: C6_12  and  C7_13 
REMARK    9  A    between atoms: C7_13  and  N3_15 
REMARK       I    between atoms: N3_15  and  C9_17 
REMARK       I    between atoms: C10_22  and  N6_24 
ROOT
HETATM    1  C4  UNL     1      -0.990   0.129  -0.019  1.00  0.00     0.277 C 
ENDROOT
BRANCH   1   2
HETATM    2  N2  UNL     1      -1.408   1.339  -0.703  1.00  0.00    -0.061 N 
ATOM      3  H22 UNL     1      -0.893   1.462  -1.575  1.00  0.00     0.278 HD
ATOM      4  H21 UNL     1      -1.089   2.169  -0.204  1.00  0.00     0.278 HD
BRANCH   2   5
HETATM    5  C3  UNL     1      -2.827   1.389  -0.932  1.00  0.00     0.260 C 
BRANCH   5   6
HETATM    6  C2  UNL     1      -3.622   1.526   0.338  1.00  0.00     0.259 C 
BRANCH   6   7
HETATM    7  N1  UNL     1      -3.332   2.701   1.103  1.00  0.00    -0.077 N 
HETATM    8  C1  UNL     1      -3.764   3.922   0.455  1.00  0.00     0.267 C 
ATOM      9  H12 UNL     1      -2.341   2.746   1.339  1.00  0.00     0.276 HD
ATOM     10  H11 UNL     1      -3.724   2.629   2.042  1.00  0.00     0.276 HD
ENDBRANCH   6   7
ENDBRANCH   5   6
ENDBRANCH   2   5
ENDBRANCH   1   2
BRANCH   1  11
HETATM   11  C5  UNL     1       0.447   0.410   0.432  1.00  0.00     0.045 C 
BRANCH  11  12
HETATM   12  C6  UNL     1       1.243   0.686  -0.800  1.00  0.00     0.027 C 
BRANCH  12  13
HETATM   13  C7  UNL     1       2.679   1.004  -0.584  1.00  0.00     0.080 C 
HETATM   14  C8  UNL     1       2.897   2.225   0.277  1.00  0.00     0.032 C 
BRANCH  13  15
HETATM   15  N3  UNL     1       3.489  -0.049  -0.065  1.00  0.00    -0.361 N 
HETATM   16  C9  UNL     1       4.868   0.227   0.139  1.00  0.00     0.182 C 
HETATM   17  N4  UNL     1       5.333   0.081   1.328  1.00  0.00    -0.374 N 
HETATM   18  N5  UNL     1       5.735   0.645  -0.887  1.00  0.00    -0.064 NA
ATOM     19  H42 UNL     1       4.704  -0.222   2.072  1.00  0.00     0.158 HD
ATOM     20  H41 UNL     1       6.323   0.279   1.474  1.00  0.00     0.158 HD
ATOM     21  H3  UNL     1       3.094  -0.964   0.151  1.00  0.00     0.162 HD
ENDBRANCH  13  15
ENDBRANCH  12  13
ENDBRANCH  11  12
ENDBRANCH   1  11
BRANCH   1  22
HETATM   22  C10 UNL     1      -1.061  -1.046  -0.886  1.00  0.00     0.250 C 
HETATM   23  O1  UNL     1      -1.352  -0.907  -2.108  1.00  0.00    -0.271 OA
HETATM   24  N6  UNL     1      -0.819  -2.353  -0.425  1.00  0.00    -0.350 N 
HETATM   25  C11 UNL     1      -0.477  -2.850   0.910  1.00  0.00     0.126 C 
HETATM   26  C14 UNL     1      -0.859  -3.593  -1.221  1.00  0.00     0.126 C 
HETATM   27  C12 UNL     1      -1.349  -4.107   1.043  1.00  0.00     0.021 C 
HETATM   28  C13 UNL     1      -1.755  -4.492  -0.358  1.00  0.00     0.021 C 
ENDBRANCH   1  22
TORSDOF 9
