REMARK  11 active torsions:
REMARK  status: ('A' for Active; 'I' for Inactive)
REMARK    1  A    between atoms: N1_2  and  C2_4 
REMARK    2  A    between atoms: C2_4  and  C3_8 
REMARK    3  A    between atoms: C3_8  and  C4_9 
REMARK    4  A    between atoms: C3_8  and  N3_15 
REMARK    5  A    between atoms: C4_9  and  C5_10 
REMARK       I    between atoms: N3_15  and  C10_16 
REMARK    6  A    between atoms: C10_16  and  C11_18 
REMARK    7  A    between atoms: C11_18  and  N4_19 
REMARK    8  A    between atoms: C11_18  and  C12_23 
REMARK    9  A    between atoms: C12_23  and  C13_24 
REMARK   10  A    between atoms: C13_24  and  C15_26 
REMARK   11  A    between atoms: C15_26  and  N5_27 
ROOT
HETATM    1  N3  UNL     1      -0.293   0.615  -0.109  1.00  0.00    -0.400 NA
HETATM    2  C10 UNL     1       0.881   0.783   0.587  1.00  0.00     0.318 C 
HETATM    3  O1  UNL     1       1.006   1.591   1.569  1.00  0.00    -0.255 OA
ENDROOT
BRANCH   1   4
HETATM    4  C3  UNL     1      -1.455   0.454  -0.791  1.00  0.00     0.233 C 
BRANCH   4   5
HETATM    5  C2  UNL     1      -1.284  -0.455  -1.967  1.00  0.00     0.107 C 
HETATM    6  N2  UNL     1      -1.233   0.062  -3.123  1.00  0.00    -0.387 N 
ATOM      7  H22 UNL     1      -1.116  -0.558  -3.925  1.00  0.00     0.157 HD
ATOM      8  H21 UNL     1      -1.296   1.069  -3.275  1.00  0.00     0.157 HD
BRANCH   5   9
HETATM    9  N1  UNL     1      -1.197  -1.836  -1.759  1.00  0.00    -0.382 N 
HETATM   10  C1  UNL     1      -1.612  -2.805  -2.749  1.00  0.00     0.147 C 
ATOM     11  H1  UNL     1      -0.825  -2.174  -0.871  1.00  0.00     0.160 HD
ENDBRANCH   5   9
ENDBRANCH   4   5
BRANCH   4  12
HETATM   12  C4  UNL     1      -2.582  -0.258   0.015  1.00  0.00     0.052 C 
BRANCH  12  13
HETATM   13  C5  UNL     1      -2.982   0.449   1.246  1.00  0.00    -0.011 C 
HETATM   14  C6  UNL     1      -3.523   1.813   1.003  1.00  0.00     0.005 C 
HETATM   15  C7  UNL     1      -5.020   1.655   0.794  1.00  0.00     0.000 C 
HETATM   16  C8  UNL     1      -5.385   0.270   1.231  1.00  0.00     0.000 C 
HETATM   17  C9  UNL     1      -4.148  -0.349   1.849  1.00  0.00     0.005 C 
ENDBRANCH  12  13
ENDBRANCH   4  12
ENDBRANCH   1   4
BRANCH   2  18
HETATM   18  C11 UNL     1       2.192   0.060   0.316  1.00  0.00     0.289 C 
BRANCH  18  19
HETATM   19  N4  UNL     1       2.082  -0.663  -0.891  1.00  0.00    -0.065 N 
ATOM     20  H43 UNL     1       1.283  -1.297  -0.891  1.00  0.00     0.275 HD
ATOM     21  H42 UNL     1       1.797  -0.072  -1.672  1.00  0.00     0.275 HD
ATOM     22  H41 UNL     1       2.961  -1.148  -1.073  1.00  0.00     0.275 HD
ENDBRANCH  18  19
BRANCH  18  23
HETATM   23  C12 UNL     1       3.223   1.131   0.262  1.00  0.00     0.049 C 
BRANCH  23  24
HETATM   24  C13 UNL     1       4.628   0.702   0.017  1.00  0.00     0.009 C 
HETATM   25  C14 UNL     1       4.796  -0.016  -1.302  1.00  0.00     0.011 C 
BRANCH  24  26
HETATM   26  C15 UNL     1       5.190  -0.176   1.100  1.00  0.00     0.234 C 
BRANCH  26  27
HETATM   27  N5  UNL     1       6.552  -0.514   0.741  1.00  0.00    -0.079 N 
ATOM     28  H53 UNL     1       6.623  -0.936  -0.185  1.00  0.00     0.274 HD
ATOM     29  H52 UNL     1       7.128   0.308   0.561  1.00  0.00     0.274 HD
ATOM     30  H51 UNL     1       6.933  -1.110   1.476  1.00  0.00     0.274 HD
ENDBRANCH  26  27
ENDBRANCH  24  26
ENDBRANCH  23  24
ENDBRANCH  18  23
ENDBRANCH   2  18
TORSDOF 11
