REMARK  7 active torsions:
REMARK  status: ('A' for Active; 'I' for Inactive)
REMARK    1  A    between atoms: N1_1  and  C1_5 
REMARK    2  A    between atoms: C1_5  and  C2_6 
REMARK    3  A    between atoms: C4_8  and  C5_9 
REMARK    4  A    between atoms: C5_9  and  C6_10 
REMARK    5  A    between atoms: C6_10  and  N2_11 
REMARK    6  A    between atoms: C6_10  and  C8_14 
REMARK       I    between atoms: C8_14  and  N3_16 
REMARK    7  A    between atoms: N3_16  and  C9_18 
ROOT
HETATM    1  N2  UNL     1       0.423   3.174  -0.596  1.00  0.00    -0.403 NA
HETATM    2  C7  UNL     1       0.941   4.353  -1.273  1.00  0.00     0.436 C 
HETATM    3  O1  UNL     1       1.335   5.203  -1.691  1.00  0.00    -0.269 OA
ENDROOT
BRANCH   1   4
HETATM    4  C6  UNL     1      -0.033   2.116   0.044  1.00  0.00     0.281 C 
BRANCH   4   5
HETATM    5  C5  UNL     1      -1.385   1.726  -0.549  1.00  0.00     0.034 C 
BRANCH   5   6
HETATM    6  C4  UNL     1      -2.266   0.684  -0.106  1.00  0.00    -0.019 A 
HETATM    7  C3  UNL     1      -2.414  -0.642  -0.463  1.00  0.00     0.039 A 
HETATM    8  C2  UNL     1      -3.533  -1.180   0.182  1.00  0.00     0.035 A 
HETATM    9  N6  UNL     1      -4.064  -0.194   0.928  1.00  0.00    -0.367 N 
HETATM   10  C13 UNL     1      -3.357   0.907   0.787  1.00  0.00     0.099 A 
ATOM     11  H6  UNL     1      -4.892  -0.286   1.516  1.00  0.00     0.165 HD
BRANCH   8  12
HETATM   12  C1  UNL     1      -4.064  -2.579   0.054  1.00  0.00     0.286 C 
BRANCH  12  13
HETATM   13  N1  UNL     1      -2.903  -3.443   0.086  1.00  0.00    -0.074 N 
ATOM     14  H13 UNL     1      -2.199  -3.207  -0.613  1.00  0.00     0.274 HD
ATOM     15  H12 UNL     1      -2.312  -3.303   0.906  1.00  0.00     0.274 HD
ATOM     16  H11 UNL     1      -3.264  -4.393  -0.001  1.00  0.00     0.274 HD
ENDBRANCH  12  13
ENDBRANCH   8  12
ENDBRANCH   5   6
ENDBRANCH   4   5
BRANCH   4  17
HETATM   17  C8  UNL     1       0.979   0.943  -0.316  1.00  0.00     0.261 C 
HETATM   18  O2  UNL     1       0.620  -0.163  -0.709  1.00  0.00    -0.269 OA
HETATM   19  N3  UNL     1       2.358   1.278  -0.188  1.00  0.00    -0.332 N 
ATOM     20  H3  UNL     1       2.529   2.217   0.172  1.00  0.00     0.168 HD
BRANCH  19  21
HETATM   21  C9  UNL     1       3.518   0.552  -0.467  1.00  0.00     0.122 C 
HETATM   22  C10 UNL     1       3.638  -0.821  -0.076  1.00  0.00     0.064 A 
HETATM   23  C11 UNL     1       3.733  -1.302   1.269  1.00  0.00     0.119 A 
HETATM   24  N5  UNL     1       3.667  -1.883  -0.864  1.00  0.00    -0.350 N 
HETATM   25  N4  UNL     1       3.818  -2.623   1.176  1.00  0.00    -0.360 N 
HETATM   26  C12 UNL     1       3.777  -2.992  -0.163  1.00  0.00     0.180 A 
ATOM     27  H4  UNL     1       3.900  -3.266   1.963  1.00  0.00     0.166 HD
ATOM     28  H5  UNL     1       3.611  -1.847  -1.882  1.00  0.00     0.166 HD
ENDBRANCH  19  21
ENDBRANCH   4  17
ENDBRANCH   1   4
TORSDOF 7
