REMARK  9 active torsions:
REMARK  status: ('A' for Active; 'I' for Inactive)
REMARK    1  A    between atoms: N1_1  and  C1_5 
REMARK    2  A    between atoms: C1_5  and  C2_6 
REMARK    3  A    between atoms: C2_6  and  C3_7 
REMARK    4  A    between atoms: C3_7  and  N2_8 
REMARK    5  A    between atoms: C3_7  and  C13_25 
REMARK       I    between atoms: N2_8  and  C4_10 
REMARK    6  A    between atoms: C4_10  and  C5_12 
REMARK    7  A    between atoms: C5_12  and  C6_13 
REMARK    8  A    between atoms: C6_13  and  C7_14 
REMARK    9  A    between atoms: C7_14  and  C8_15 
ROOT
HETATM    1  N2  UNL     1       0.927   0.209  -0.504  1.00  0.00    -0.346 N 
ATOM      2  H2  UNL     1       0.845   0.935   0.208  1.00  0.00     0.163 HD
HETATM    3  C4  UNL     1      -0.264  -0.508  -0.873  1.00  0.00     0.228 C 
HETATM    4  O1  UNL     1      -0.065  -1.350  -1.835  1.00  0.00    -0.273 OA
ENDROOT
BRANCH   3   5
HETATM    5  C5  UNL     1      -1.559  -0.374  -0.288  1.00  0.00     0.065 C 
HETATM    6  C9  UNL     1      -2.504  -1.349  -1.014  1.00  0.00     0.022 C 
HETATM    7  C10 UNL     1      -2.901  -2.513  -0.189  1.00  0.00     0.029 C 
HETATM    8  C11 UNL     1      -1.708  -3.194   0.400  1.00  0.00     0.232 C 
HETATM    9  N4  UNL     1      -0.859  -2.235   1.101  1.00  0.00    -0.074 N 
HETATM   10  C12 UNL     1      -1.463  -0.944   1.164  1.00  0.00     0.251 C 
ATOM     11  H42 UNL     1      -0.604  -2.572   2.029  1.00  0.00     0.277 HD
ATOM     12  H41 UNL     1       0.072  -2.190   0.687  1.00  0.00     0.277 HD
BRANCH   5  13
HETATM   13  C6  UNL     1      -2.291   0.890  -0.113  1.00  0.00     0.029 C 
BRANCH  13  14
HETATM   14  C7  UNL     1      -1.691   1.942   0.737  1.00  0.00     0.101 C 
BRANCH  14  15
HETATM   15  C8  UNL     1      -2.694   3.042   0.868  1.00  0.00     0.231 C 
HETATM   16  N3  UNL     1      -2.280   4.201   1.593  1.00  0.00    -0.062 NA
HETATM   17  O2  UNL     1      -3.832   2.978   0.386  1.00  0.00    -0.277 OA
ENDBRANCH  14  15
ENDBRANCH  13  14
ENDBRANCH   5  13
ENDBRANCH   3   5
BRANCH   1  18
HETATM   18  C3  UNL     1       2.218  -0.029  -1.070  1.00  0.00     0.187 C 
BRANCH  18  19
HETATM   19  C2  UNL     1       3.153   0.121   0.135  1.00  0.00     0.063 C 
BRANCH  19  20
HETATM   20  C1  UNL     1       4.586  -0.043   0.083  1.00  0.00     0.232 C 
BRANCH  20  21
HETATM   21  N1  UNL     1       5.060   0.185   1.476  1.00  0.00    -0.079 N 
ATOM     22  H13 UNL     1       4.763   1.077   1.870  1.00  0.00     0.274 HD
ATOM     23  H12 UNL     1       4.603  -0.409   2.168  1.00  0.00     0.274 HD
ATOM     24  H11 UNL     1       6.073   0.069   1.439  1.00  0.00     0.274 HD
ENDBRANCH  20  21
ENDBRANCH  19  20
ENDBRANCH  18  19
BRANCH  18  25
HETATM   25  C13 UNL     1       2.564   0.877  -2.149  1.00  0.00     0.196 C 
HETATM   26  O3  UNL     1       3.323   1.898  -2.012  1.00  0.00    -0.646 OA
HETATM   27  O4  UNL     1       2.069   0.700  -3.417  1.00  0.00    -0.646 OA
ENDBRANCH  18  25
ENDBRANCH   1  18
TORSDOF 9
