REMARK  9 active torsions:
REMARK  status: ('A' for Active; 'I' for Inactive)
REMARK    1  A    between atoms: C2_2  and  C3_3 
REMARK    2  A    between atoms: C3_3  and  C4_4 
REMARK    3  A    between atoms: C5_8  and  C6_9 
REMARK    4  A    between atoms: C5_8  and  C9_12 
REMARK    5  A    between atoms: C6_9  and  C7_10 
REMARK       I    between atoms: C9_12  and  N2_14 
REMARK    6  A    between atoms: N2_14  and  C10_16 
REMARK    7  A    between atoms: C10_16  and  C11_17 
REMARK    8  A    between atoms: C10_16  and  C13_20 
REMARK    9  A    between atoms: C11_17  and  C12_18 
ROOT
HETATM    1  C4  UNL     1      -2.269  -0.519  -1.306  1.00  0.00     0.236 A 
HETATM    2  N1  UNL     1      -2.082   0.828  -0.921  1.00  0.00    -0.048 N 
ATOM      3  H11 UNL     1      -2.682   1.553  -0.527  1.00  0.00     0.279 HD
ATOM      4  H12 UNL     1      -1.923   1.703  -1.420  1.00  0.00     0.279 HD
HETATM    5  C5  UNL     1      -1.175  -0.264  -0.334  1.00  0.00     0.236 A 
ENDROOT
BRANCH   5   6
HETATM    6  C6  UNL     1      -1.400  -0.451   1.113  1.00  0.00     0.077 C 
BRANCH   6   7
HETATM    7  C7  UNL     1      -2.435   0.460   1.648  1.00  0.00    -0.034 C 
HETATM    8  C8  UNL     1      -2.095   1.326   2.626  1.00  0.00     0.007 C 
ENDBRANCH   6   7
ENDBRANCH   5   6
BRANCH   5   9
HETATM    9  C9  UNL     1       0.207  -0.040  -0.859  1.00  0.00     0.257 C 
HETATM   10  O1  UNL     1       0.400   0.125  -2.106  1.00  0.00    -0.271 OA
HETATM   11  N2  UNL     1       1.374   0.008  -0.064  1.00  0.00    -0.346 N 
ATOM     12  H2  UNL     1       1.279  -0.118   0.944  1.00  0.00     0.163 HD
BRANCH  11  13
HETATM   13  C10 UNL     1       2.698   0.227  -0.608  1.00  0.00     0.174 C 
BRANCH  13  14
HETATM   14  C11 UNL     1       3.611  -0.938  -0.431  1.00  0.00     0.045 C 
BRANCH  14  15
HETATM   15  C12 UNL     1       3.858  -1.348   0.976  1.00  0.00     0.088 C 
HETATM   16  S1  UNL     1       4.599  -0.094   2.019  1.00  0.00    -0.098 SA
ENDBRANCH  14  15
ENDBRANCH  13  14
BRANCH  13  17
HETATM   17  C13 UNL     1       3.207   1.505  -0.111  1.00  0.00     0.254 C 
HETATM   18  N3  UNL     1       4.505   1.974  -0.504  1.00  0.00    -0.060 NA
HETATM   19  O2  UNL     1       2.557   2.251   0.670  1.00  0.00    -0.275 OA
ENDBRANCH  13  17
ENDBRANCH  11  13
ENDBRANCH   5   9
BRANCH   1  20
HETATM   20  C3  UNL     1      -3.466  -1.275  -0.867  1.00  0.00     0.062 C 
BRANCH  20  21
HETATM   21  C2  UNL     1      -4.773  -0.687  -1.302  1.00  0.00    -0.035 C 
HETATM   22  C1  UNL     1      -4.900   0.362  -2.069  1.00  0.00     0.007 C 
ENDBRANCH  20  21
ENDBRANCH   1  20
TORSDOF 9
