REMARK  4 active torsions:
REMARK  status: ('A' for Active; 'I' for Inactive)
REMARK    1  A    between atoms: C2_5  and  C3_6 
REMARK    2  A    between atoms: C3_6  and  N3_7 
REMARK    3  A    between atoms: C3_6  and  N4_11 
REMARK    4  A    between atoms: C6_20  and  N6_21 
ROOT
HETATM    1  C1  UNL     1      -0.818   3.086   0.156  1.00  0.00     0.179 C 
HETATM    2  N1  UNL     1      -0.264   1.729   0.168  1.00  0.00    -0.280 N 
HETATM    3  N2  UNL     1       1.000   1.423   0.093  1.00  0.00    -0.296 N 
ATOM      4  H2  UNL     1       1.765   2.094   0.016  1.00  0.00     0.187 HD
HETATM    5  C2  UNL     1       1.142   0.070   0.133  1.00  0.00     0.102 A 
HETATM    6  C4  UNL     1      -0.128  -0.449   0.238  1.00  0.00     0.106 A 
HETATM    7  C5  UNL     1      -0.659  -1.717   0.322  1.00  0.00     0.275 A 
HETATM    8  O1  UNL     1       0.055  -2.725   0.311  1.00  0.00    -0.267 OA
HETATM    9  N5  UNL     1      -1.977  -1.882   0.418  1.00  0.00    -0.155 N 
ATOM     10  H5  UNL     1      -2.351  -2.829   0.479  1.00  0.00     0.187 HD
HETATM   11  C6  UNL     1      -2.839  -0.837   0.438  1.00  0.00     0.680 A 
HETATM   12  N7  UNL     1      -2.334   0.399   0.358  1.00  0.00    -0.174 N 
ATOM     13  H7  UNL     1      -2.966   1.199   0.372  1.00  0.00     0.186 HD
HETATM   14  C7  UNL     1      -1.022   0.605   0.260  1.00  0.00     0.155 A 
ENDROOT
BRANCH   5  15
HETATM   15  C3  UNL     1       2.385  -0.716   0.071  1.00  0.00     0.429 C 
BRANCH  15  16
HETATM   16  N3  UNL     1       3.268  -0.198  -0.964  1.00  0.00    -0.045 N 
ATOM     17  H33 UNL     1       2.803  -0.153  -1.871  1.00  0.00     0.277 HD
ATOM     18  H32 UNL     1       3.455   0.797  -0.839  1.00  0.00     0.277 HD
ATOM     19  H31 UNL     1       4.129  -0.743  -1.007  1.00  0.00     0.277 HD
ENDBRANCH  15  16
BRANCH  15  20
HETATM   20  N4  UNL     1       3.033  -0.741   1.368  1.00  0.00    -0.045 N 
ATOM     21  H43 UNL     1       3.196   0.199   1.729  1.00  0.00     0.277 HD
ATOM     22  H42 UNL     1       2.407  -1.078   2.099  1.00  0.00     0.277 HD
ATOM     23  H41 UNL     1       3.894  -1.286   1.325  1.00  0.00     0.277 HD
ENDBRANCH  15  20
ENDBRANCH   5  15
BRANCH  11  24
HETATM   24  N6  UNL     1      -4.111  -1.032   0.532  1.00  0.00    -0.234 N 
ATOM     25  H62 UNL     1      -4.496  -1.975   0.593  1.00  0.00     0.174 HD
ATOM     26  H61 UNL     1      -4.760  -0.245   0.547  1.00  0.00     0.174 HD
ENDBRANCH  11  24
TORSDOF 4
