REMARK  3 active torsions:
REMARK  status: ('A' for Active; 'I' for Inactive)
REMARK       I    between atoms: C1_4  and  N3_6 
REMARK    1  A    between atoms: N3_6  and  C2_8 
REMARK    2  A    between atoms: C2_8  and  N4_9 
REMARK    3  A    between atoms: N4_9  and  C3_11 
ROOT
HETATM    1  C2  UNL     1      -0.709  -0.924  -0.308  1.00  0.00     0.156 C 
HETATM    2  C6  UNL     1      -1.851  -1.902  -0.293  1.00  0.00     0.287 C 
HETATM    3  N7  UNL     1      -1.800  -1.879  -1.759  1.00  0.00    -0.067 N 
ATOM      4  H71 UNL     1      -2.389  -1.250  -2.304  1.00  0.00     0.277 HD
ATOM      5  H72 UNL     1      -2.164  -2.650  -2.319  1.00  0.00     0.277 HD
HETATM    6  C7  UNL     1      -0.354  -1.648  -1.612  1.00  0.00     0.287 C 
ENDROOT
BRANCH   1   7
HETATM    7  N3  UNL     1      -1.119   0.428  -0.470  1.00  0.00    -0.335 N 
HETATM    8  C1  UNL     1      -1.981   1.048   0.462  1.00  0.00     0.183 C 
HETATM    9  N1  UNL     1      -2.012   0.656   1.681  1.00  0.00    -0.374 N 
HETATM   10  N2  UNL     1      -2.820   2.113   0.049  1.00  0.00    -0.064 NA
ATOM     11  H12 UNL     1      -2.634   1.104   2.354  1.00  0.00     0.158 HD
ATOM     12  H11 UNL     1      -1.408  -0.110   1.978  1.00  0.00     0.158 HD
ATOM     13  H3  UNL     1      -0.785   0.960  -1.274  1.00  0.00     0.164 HD
ENDBRANCH   1   7
BRANCH   1  14
HETATM   14  N4  UNL     1       0.292  -1.110   0.699  1.00  0.00    -0.333 N 
ATOM     15  H4  UNL     1       0.221  -1.866   1.380  1.00  0.00     0.165 HD
BRANCH  14  16
HETATM   16  C3  UNL     1       1.391  -0.202   0.716  1.00  0.00     0.173 C 
HETATM   17  N5  UNL     1       1.748   0.599   1.663  1.00  0.00    -0.361 N 
HETATM   18  C4  UNL     1       2.912   1.368   1.323  1.00  0.00     0.142 C 
ATOM     19  H5  UNL     1       1.258   0.677   2.554  1.00  0.00     0.162 HD
HETATM   20  C5  UNL     1       3.447   0.659   0.100  1.00  0.00     0.142 C 
HETATM   21  N6  UNL     1       2.288  -0.056  -0.371  1.00  0.00    -0.361 N 
ATOM     22  H6  UNL     1       2.139  -0.397  -1.321  1.00  0.00     0.162 HD
ENDBRANCH  14  16
ENDBRANCH   1  14
TORSDOF 3
