REMARK  3 active torsions:
REMARK  status: ('A' for Active; 'I' for Inactive)
REMARK       I    between atoms: N2_3  and  C2_5 
REMARK       I    between atoms: C2_5  and  N4_9 
REMARK    1  A    between atoms: N4_9  and  N5_11 
REMARK    2  A    between atoms: C5_16  and  N7_17 
REMARK    3  A    between atoms: N7_17  and  N8_19 
ROOT
HETATM    1  N1  UNL     1       5.932   1.285   0.524  1.00  0.00    -0.171 NA
HETATM    2  C1  UNL     1       4.787   1.109   0.623  1.00  0.00     0.196 C 
HETATM    3  N2  UNL     1       3.400   0.904   0.729  1.00  0.00    -0.125 N 
ATOM      4  H2  UNL     1       2.852   1.584   1.255  1.00  0.00     0.197 HD
HETATM    5  C2  UNL     1       2.725  -0.187   0.150  1.00  0.00     0.700 C 
HETATM    6  N3  UNL     1       3.107  -1.380   0.373  1.00  0.00    -0.233 N 
ATOM      7  H31 UNL     1       2.618  -2.171  -0.047  1.00  0.00     0.174 HD
ATOM      8  H32 UNL     1       3.912  -1.536   0.979  1.00  0.00     0.174 HD
HETATM    9  N4  UNL     1       1.610   0.029  -0.689  1.00  0.00    -0.115 N 
ATOM     10  H4  UNL     1       1.779   0.342  -1.645  1.00  0.00     0.207 HD
ENDROOT
BRANCH   9  11
HETATM   11  N5  UNL     1       0.286  -0.164  -0.279  1.00  0.00    -0.204 N 
HETATM   12  C3  UNL     1      -0.210  -1.501  -0.016  1.00  0.00     0.191 C 
HETATM   13  C4  UNL     1      -1.402  -1.686  -0.946  1.00  0.00     0.161 C 
HETATM   14  N6  UNL     1      -2.302  -0.565  -0.784  1.00  0.00    -0.222 N 
HETATM   15  C5  UNL     1      -1.882   0.716  -0.335  1.00  0.00     0.708 C 
ATOM     16  H6  UNL     1      -3.289  -0.701  -1.003  1.00  0.00     0.177 HD
HETATM   17  N9  UNL     1      -0.624   0.880  -0.099  1.00  0.00    -0.114 N 
ATOM     18  H9  UNL     1      -0.289   1.787   0.224  1.00  0.00     0.207 HD
BRANCH  15  19
HETATM   19  N7  UNL     1      -2.859   1.722  -0.175  1.00  0.00    -0.138 N 
ATOM     20  H7  UNL     1      -2.677   2.634  -0.595  1.00  0.00     0.205 HD
BRANCH  19  21
HETATM   21  N8  UNL     1      -4.056   1.551   0.519  1.00  0.00    -0.331 N 
ATOM     22  H82 UNL     1      -4.221   0.633   0.932  1.00  0.00     0.177 HD
ATOM     23  H81 UNL     1      -4.762   2.278   0.635  1.00  0.00     0.177 HD
ENDBRANCH  19  21
ENDBRANCH  15  19
ENDBRANCH   9  11
TORSDOF 3
