REMARK  4 active torsions:
REMARK  status: ('A' for Active; 'I' for Inactive)
REMARK       I    between atoms: C1_4  and  N3_6 
REMARK    1  A    between atoms: N3_6  and  O1_8 
REMARK    2  A    between atoms: O1_8  and  C2_9 
REMARK    3  A    between atoms: C2_9  and  C3_11 
REMARK    4  A    between atoms: C5_18  and  N6_19 
ROOT
HETATM    1  C3  UNL     1      -1.084   0.316   0.416  1.00  0.00     0.202 A 
HETATM    2  N4  UNL     1      -1.821   0.629   1.493  1.00  0.00    -0.288 N 
ATOM      3  H4  UNL     1      -1.414   1.195   2.238  1.00  0.00     0.172 HD
HETATM    4  C4  UNL     1      -3.094   0.201   1.598  1.00  0.00     0.340 A 
HETATM    5  O3  UNL     1      -3.795   0.499   2.622  1.00  0.00    -0.246 OA
HETATM    6  N5  UNL     1      -3.645  -0.543   0.631  1.00  0.00    -0.141 N 
ATOM      7  H5  UNL     1      -4.610  -0.859   0.724  1.00  0.00     0.189 HD
HETATM    8  C5  UNL     1      -2.929  -0.880  -0.473  1.00  0.00     0.681 A 
HETATM    9  N7  UNL     1      -1.682  -0.434  -0.529  1.00  0.00    -0.170 N 
ATOM     10  H7  UNL     1      -1.132  -0.678  -1.353  1.00  0.00     0.186 HD
ENDROOT
BRANCH   1  11
HETATM   11  C2  UNL     1       0.295   0.753   0.253  1.00  0.00     0.350 C 
HETATM   12  O2  UNL     1       0.817   1.451   1.156  1.00  0.00    -0.254 OA
BRANCH  11  13
HETATM   13  O1  UNL     1       1.064   0.436  -0.852  1.00  0.00    -0.190 OA
BRANCH  13  14
HETATM   14  N3  UNL     1       2.360   0.835  -1.025  1.00  0.00    -0.229 N 
HETATM   15  C1  UNL     1       3.425   0.214  -0.356  1.00  0.00     0.206 C 
HETATM   16  N1  UNL     1       4.329  -0.496  -0.982  1.00  0.00    -0.372 N 
HETATM   17  N2  UNL     1       3.607   0.305   1.048  1.00  0.00    -0.062 NA
ATOM     18  H12 UNL     1       5.103  -0.948  -0.496  1.00  0.00     0.158 HD
ATOM     19  H11 UNL     1       4.198  -0.561  -1.991  1.00  0.00     0.158 HD
ATOM     20  H3  UNL     1       2.559   1.608  -1.660  1.00  0.00     0.197 HD
ENDBRANCH  13  14
ENDBRANCH  11  13
ENDBRANCH   1  11
BRANCH   8  21
HETATM   21  N6  UNL     1      -3.439  -1.594  -1.414  1.00  0.00    -0.234 N 
ATOM     22  H62 UNL     1      -4.399  -1.937  -1.371  1.00  0.00     0.174 HD
ATOM     23  H61 UNL     1      -2.901  -1.847  -2.243  1.00  0.00     0.174 HD
ENDBRANCH   8  21
TORSDOF 4
