REMARK  8 active torsions:
REMARK  status: ('A' for Active; 'I' for Inactive)
REMARK    1  A    between atoms: C3_3  and  C4_4 
REMARK    2  A    between atoms: C5_5  and  C6_6 
REMARK    3  A    between atoms: N1_7  and  N2_9 
REMARK    4  A    between atoms: N2_9  and  C7_11 
REMARK    5  A    between atoms: C8_14  and  N4_15 
REMARK    6  A    between atoms: C10_21  and  N6_22 
REMARK    7  A    between atoms: N7_25  and  C11_26 
REMARK    8  A    between atoms: C12_28  and  N8_29 
ROOT
HETATM    1  C1  UNL     1       9.482   0.574  -0.513  1.00  0.00     0.112 C 
HETATM    2  C2  UNL     1       8.057   0.887  -0.347  1.00  0.00    -0.106 C 
HETATM    3  C3  UNL     1       6.886   1.158  -0.227  1.00  0.00    -0.079 C 
ENDROOT
BRANCH   3   4
HETATM    4  C4  UNL     1       5.502   1.492  -0.101  1.00  0.00     0.066 C 
HETATM    5  C5  UNL     1       4.571   0.817  -0.735  1.00  0.00     0.027 C 
BRANCH   5   6
HETATM    6  C6  UNL     1       3.156   1.112  -0.643  1.00  0.00     0.108 C 
HETATM    7  N1  UNL     1       2.263   0.437  -1.274  1.00  0.00    -0.298 N 
ATOM      8  H1  UNL     1       2.567  -0.338  -1.863  1.00  0.00     0.186 HD
BRANCH   7   9
HETATM    9  N2  UNL     1       0.902   0.711  -1.193  1.00  0.00    -0.132 N 
ATOM     10  H2  UNL     1       0.569   1.646  -1.428  1.00  0.00     0.205 HD
BRANCH   9  11
HETATM   11  C7  UNL     1       0.044  -0.192  -0.826  1.00  0.00     0.700 A 
HETATM   12  N3  UNL     1       0.509  -1.416  -0.521  1.00  0.00    -0.173 N 
HETATM   13  C8  UNL     1      -0.372  -2.351  -0.142  1.00  0.00     0.146 A 
ATOM     14  H3  UNL     1       1.505  -1.627  -0.577  1.00  0.00     0.186 HD
HETATM   15  C9  UNL     1      -1.738  -2.113  -0.050  1.00  0.00     0.138 A 
HETATM   16  N5  UNL     1      -2.815  -2.842   0.292  1.00  0.00    -0.184 N 
HETATM   17  C14 UNL     1      -2.176  -0.847  -0.371  1.00  0.00     0.173 A 
HETATM   18  C10 UNL     1      -3.920  -2.082   0.199  1.00  0.00     0.682 A 
ATOM     19  H5  UNL     1      -2.796  -3.821   0.578  1.00  0.00     0.184 HD
HETATM   20  N7  UNL     1      -3.509  -0.847  -0.213  1.00  0.00    -0.135 N 
HETATM   21  N9  UNL     1      -1.271   0.078  -0.750  1.00  0.00    -0.172 N 
ATOM     22  H9  UNL     1      -1.595   1.015  -0.987  1.00  0.00     0.186 HD
BRANCH  13  23
HETATM   23  N4  UNL     1       0.056  -3.527   0.153  1.00  0.00    -0.383 N 
ATOM     24  H42 UNL     1       1.059  -3.702   0.085  1.00  0.00     0.157 HD
ATOM     25  H41 UNL     1      -0.615  -4.239   0.442  1.00  0.00     0.157 HD
ENDBRANCH  13  23
BRANCH  18  26
HETATM   26  N6  UNL     1      -5.158  -2.404   0.440  1.00  0.00    -0.234 N 
ATOM     27  H62 UNL     1      -5.465  -3.327   0.748  1.00  0.00     0.174 HD
ATOM     28  H61 UNL     1      -5.996  -1.827   0.369  1.00  0.00     0.174 HD
ENDBRANCH  18  26
BRANCH  20  29
HETATM   29  C11 UNL     1      -4.377   0.290  -0.444  1.00  0.00     0.288 C 
HETATM   30  O1  UNL     1      -5.601   0.120   0.187  1.00  0.00    -0.328 OA
HETATM   31  C12 UNL     1      -5.099   0.757   1.296  1.00  0.00     0.359 C 
HETATM   32  C13 UNL     1      -4.118   1.487   0.448  1.00  0.00     0.275 C 
HETATM   33  F1  UNL     1      -4.555   2.665  -0.120  1.00  0.00    -0.240 F 
BRANCH  31  34
HETATM   34  N8  UNL     1      -6.073   1.571   1.991  1.00  0.00    -0.050 N 
ATOM     35  H83 UNL     1      -6.501   2.242   1.354  1.00  0.00     0.277 HD
ATOM     36  H82 UNL     1      -6.895   1.019   2.235  1.00  0.00     0.277 HD
ATOM     37  H81 UNL     1      -5.700   2.044   2.814  1.00  0.00     0.277 HD
ENDBRANCH  31  34
ENDBRANCH  20  29
ENDBRANCH   9  11
ENDBRANCH   7   9
ENDBRANCH   5   6
ENDBRANCH   3   4
TORSDOF 8
