REMARK  7 active torsions:
REMARK  status: ('A' for Active; 'I' for Inactive)
REMARK    1  A    between atoms: C3_5  and  N2_6 
REMARK    2  A    between atoms: N2_6  and  C4_8 
REMARK    3  A    between atoms: C4_8  and  C5_9 
REMARK    4  A    between atoms: C5_9  and  N3_10 
REMARK    5  A    between atoms: N3_10  and  C6_12 
REMARK    6  A    between atoms: C9_26  and  N8_27 
REMARK    7  A    between atoms: N8_27  and  O2_29 
ROOT
HETATM    1  C1  UNL     1      -3.896   3.175   0.074  1.00  0.00     0.070 C 
HETATM    2  C2  UNL     1      -3.370   1.787   0.044  1.00  0.00     0.047 A 
HETATM    3  N1  UNL     1      -2.069   1.484   0.131  1.00  0.00    -0.194 N 
ATOM      4  H1  UNL     1      -1.393   2.242   0.223  1.00  0.00     0.184 HD
HETATM    5  C3  UNL     1      -1.614   0.196   0.101  1.00  0.00     0.680 A 
HETATM    6  N7  UNL     1      -2.521  -0.783  -0.021  1.00  0.00    -0.173 N 
ATOM      7  H7  UNL     1      -2.196  -1.750  -0.046  1.00  0.00     0.186 HD
HETATM    8  C9  UNL     1      -3.837  -0.546  -0.112  1.00  0.00     0.163 A 
HETATM    9  C10 UNL     1      -4.282   0.761  -0.080  1.00  0.00     0.113 A 
HETATM   10  C11 UNL     1      -5.688   1.048  -0.177  1.00  0.00     0.105 C 
HETATM   11  N9  UNL     1      -6.803   1.277  -0.235  1.00  0.00    -0.191 NA
ENDROOT
BRANCH   8  12
HETATM   12  N8  UNL     1      -4.656  -1.536  -0.228  1.00  0.00    -0.251 N 
ATOM     13  H8  UNL     1      -5.658  -1.358  -0.299  1.00  0.00     0.196 HD
BRANCH  12  14
HETATM   14  O2  UNL     1      -4.193  -2.821  -0.257  1.00  0.00    -0.288 OA
ATOM     15  H2  UNL     1      -4.796  -3.550  -0.342  1.00  0.00     0.244 HD
ENDBRANCH  12  14
ENDBRANCH   8  12
BRANCH   5  16
HETATM   16  N2  UNL     1      -0.370  -0.030   0.188  1.00  0.00    -0.221 N 
ATOM     17  H2  UNL     1       0.263   0.764   0.279  1.00  0.00     0.178 HD
BRANCH  16  18
HETATM   18  C4  UNL     1       0.185  -1.342   0.164  1.00  0.00     0.182 C 
BRANCH  18  19
HETATM   19  C5  UNL     1       1.630  -1.376   0.641  1.00  0.00     0.083 C 
BRANCH  19  20
HETATM   20  N3  UNL     1       2.497  -0.595  -0.120  1.00  0.00    -0.350 N 
ATOM     21  H3  UNL     1       2.094  -0.068  -0.895  1.00  0.00     0.166 HD
BRANCH  20  22
HETATM   22  C6  UNL     1       3.765  -0.484   0.075  1.00  0.00     0.177 A 
HETATM   23  N4  UNL     1       4.360   0.358  -0.836  1.00  0.00    -0.317 N 
HETATM   24  C7  UNL     1       5.643   0.672  -0.894  1.00  0.00     0.160 A 
ATOM     25  H4  UNL     1       3.751   0.782  -1.536  1.00  0.00     0.169 HD
HETATM   26  N5  UNL     1       6.109   1.476  -1.792  1.00  0.00    -0.379 N 
HETATM   27  S1  UNL     1       6.637  -0.055   0.291  1.00  0.00     0.025 SA
ATOM     28  H52 UNL     1       5.516   1.910  -2.499  1.00  0.00     0.158 HD
ATOM     29  H51 UNL     1       7.099   1.718  -1.837  1.00  0.00     0.158 HD
HETATM   30  N6  UNL     1       5.770  -1.052   1.326  1.00  0.00    -0.287 N 
HETATM   31  C8  UNL     1       4.439  -1.124   1.066  1.00  0.00     0.295 A 
ATOM     32  H6  UNL     1       6.209  -1.564   2.091  1.00  0.00     0.177 HD
HETATM   33  O1  UNL     1       3.811  -1.892   1.875  1.00  0.00    -0.263 OA
ENDBRANCH  20  22
ENDBRANCH  19  20
ENDBRANCH  18  19
ENDBRANCH  16  18
ENDBRANCH   5  16
TORSDOF 7
