REMARK  6 active torsions:
REMARK  status: ('A' for Active; 'I' for Inactive)
REMARK    1  A    between atoms: N1_1  and  S1_4 
REMARK    2  A    between atoms: S1_4  and  C1_7 
REMARK    3  A    between atoms: C3_9  and  S2_10 
REMARK    4  A    between atoms: S2_10  and  N2_11 
REMARK    5  A    between atoms: C5_17  and  S3_18 
REMARK    6  A    between atoms: S3_18  and  N3_19 
ROOT
HETATM    1  C1  UNL     1      -0.914   0.750   0.702  1.00  0.00     0.082 A 
HETATM    2  C2  UNL     1       0.405   0.822   1.111  1.00  0.00     0.050 A 
HETATM    3  C3  UNL     1       1.301  -0.176   0.748  1.00  0.00     0.082 A 
HETATM    4  C4  UNL     1       0.842  -1.223  -0.020  1.00  0.00     0.050 A 
HETATM    5  C5  UNL     1      -0.477  -1.314  -0.440  1.00  0.00     0.082 A 
HETATM    6  C6  UNL     1      -1.364  -0.302  -0.066  1.00  0.00     0.050 A 
ENDROOT
BRANCH   1   7
HETATM    7  S1  UNL     1      -2.033   2.012   1.165  1.00  0.00     0.256 S 
HETATM    8  O1  UNL     1      -3.420   1.452   1.371  1.00  0.00    -0.201 OA
HETATM    9  O2  UNL     1      -1.614   2.615   2.474  1.00  0.00    -0.201 OA
BRANCH   7  10
HETATM   10  N1  UNL     1      -2.038   3.262  -0.025  1.00  0.00    -0.324 N 
ATOM     11  H12 UNL     1      -2.877   3.571  -0.516  1.00  0.00     0.169 HD
ATOM     12  H11 UNL     1      -1.101   3.640  -0.164  1.00  0.00     0.169 HD
ENDBRANCH   7  10
ENDBRANCH   1   7
BRANCH   3  13
HETATM   13  S2  UNL     1       2.976  -0.114   1.249  1.00  0.00     0.256 S 
HETATM   14  O3  UNL     1       3.471  -1.483   1.530  1.00  0.00    -0.201 OA
HETATM   15  O4  UNL     1       2.994   0.645   2.569  1.00  0.00    -0.201 OA
BRANCH  13  16
HETATM   16  N2  UNL     1       3.922   0.727   0.082  1.00  0.00    -0.324 N 
ATOM     17  H22 UNL     1       3.544   1.127  -0.777  1.00  0.00     0.169 HD
ATOM     18  H21 UNL     1       4.899   0.763   0.374  1.00  0.00     0.169 HD
ENDBRANCH  13  16
ENDBRANCH   3  13
BRANCH   5  19
HETATM   19  S3  UNL     1      -1.061  -2.644  -1.416  1.00  0.00     0.256 S 
HETATM   20  O5  UNL     1      -2.491  -2.935  -1.065  1.00  0.00    -0.201 OA
HETATM   21  O6  UNL     1      -0.240  -3.859  -1.075  1.00  0.00    -0.201 OA
BRANCH  19  22
HETATM   22  N3  UNL     1      -0.889  -2.275  -3.111  1.00  0.00    -0.324 N 
ATOM     23  H32 UNL     1      -0.501  -1.402  -3.468  1.00  0.00     0.169 HD
ATOM     24  H31 UNL     1      -1.229  -3.050  -3.680  1.00  0.00     0.169 HD
ENDBRANCH  19  22
ENDBRANCH   5  19
TORSDOF 6
