REMARK  9 active torsions:
REMARK  status: ('A' for Active; 'I' for Inactive)
REMARK    1  A    between atoms: C2_2  and  N1_3 
REMARK    2  A    between atoms: N1_3  and  C3_4 
REMARK    3  A    between atoms: C3_4  and  C4_5 
REMARK       I    between atoms: C4_5  and  N2_7 
REMARK    4  A    between atoms: N2_7  and  N3_9 
REMARK    5  A    between atoms: C5_11  and  O2_12 
REMARK    6  A    between atoms: C5_11  and  C6_14 
REMARK       I    between atoms: C6_14  and  N4_16 
REMARK    7  A    between atoms: N4_16  and  N5_17 
REMARK       I    between atoms: N5_17  and  C7_19 
REMARK    8  A    between atoms: C7_19  and  C8_21 
REMARK    9  A    between atoms: C11_24  and  O5_26 
ROOT
HETATM    1  N3  UNL     1       0.057   0.167   0.242  1.00  0.00    -0.272 N 
ATOM      2  H3  UNL     1       0.299  -0.686   0.747  1.00  0.00     0.189 HD
HETATM    3  C5  UNL     1       0.936   0.641  -0.659  1.00  0.00     0.241 C 
ENDROOT
BRANCH   1   4
HETATM    4  N2  UNL     1      -1.201   0.790   0.535  1.00  0.00    -0.267 N 
HETATM    5  C4  UNL     1      -2.399   0.244   0.025  1.00  0.00     0.254 C 
HETATM    6  O1  UNL     1      -2.346  -0.817  -0.622  1.00  0.00    -0.270 OA
ATOM      7  H2  UNL     1      -1.230   1.630   1.113  1.00  0.00     0.190 HD
BRANCH   5   8
HETATM    8  C3  UNL     1      -3.643   0.999   0.299  1.00  0.00     0.229 C 
BRANCH   8   9
HETATM    9  N1  UNL     1      -4.785   0.382  -0.330  1.00  0.00    -0.357 N 
HETATM   10  C11 UNL     1      -5.094   0.682  -1.601  1.00  0.00     0.109 C 
HETATM   11  C12 UNL     1      -4.476   1.617  -2.562  1.00  0.00     0.097 C 
BRANCH   9  12
HETATM   12  C2  UNL     1      -5.606  -0.575   0.437  1.00  0.00     0.120 C 
HETATM   13  C1  UNL     1      -5.115  -1.990   0.305  1.00  0.00     0.026 C 
ENDBRANCH   9  12
BRANCH  10  14
HETATM   14  O5  UNL     1      -6.131   0.072  -2.186  1.00  0.00    -0.350 OA
ATOM     15  H5  UNL     1      -6.350   0.284  -3.086  1.00  0.00     0.219 HD
ENDBRANCH  10  14
ENDBRANCH   8   9
ENDBRANCH   5   8
ENDBRANCH   1   4
BRANCH   3  16
HETATM   16  O2  UNL     1       0.258   1.817  -1.187  1.00  0.00    -0.340 OA
ATOM     17  H2  UNL     1       0.879   2.152  -1.823  1.00  0.00     0.219 HD
ENDBRANCH   3  16
BRANCH   3  18
HETATM   18  C6  UNL     1       2.176   0.524  -1.314  1.00  0.00     0.387 C 
HETATM   19  O3  UNL     1       2.222   1.055  -2.486  1.00  0.00    -0.245 OA
HETATM   20  N4  UNL     1       3.236  -0.111  -0.713  1.00  0.00    -0.275 NA
BRANCH  20  21
HETATM   21  N5  UNL     1       4.320  -0.706  -0.196  1.00  0.00    -0.199 N 
HETATM   22  C7  UNL     1       5.084  -0.198   0.941  1.00  0.00     0.250 C 
HETATM   23  O4  UNL     1       4.646   0.879   1.415  1.00  0.00    -0.271 OA
ATOM     24  H5  UNL     1       4.634  -1.575  -0.627  1.00  0.00     0.205 HD
BRANCH  22  25
HETATM   25  C8  UNL     1       6.199  -0.976   1.383  1.00  0.00     0.080 A 
HETATM   26  C9  UNL     1       7.275  -0.572   2.295  1.00  0.00     0.015 A 
HETATM   27  C10 UNL     1       7.569  -0.486   0.821  1.00  0.00     0.015 A 
ENDBRANCH  22  25
ENDBRANCH  20  21
ENDBRANCH   3  18
TORSDOF 9
