REMARK  7 active torsions:
REMARK  status: ('A' for Active; 'I' for Inactive)
REMARK    1  A    between atoms: C2_2  and  N1_3 
REMARK    2  A    between atoms: C2_2  and  C3_7 
REMARK       I    between atoms: C3_7  and  N2_9 
REMARK    3  A    between atoms: N2_9  and  C4_11 
REMARK    4  A    between atoms: C6_15  and  C7_16 
REMARK    5  A    between atoms: C8_21  and  N6_22 
REMARK       I    between atoms: N6_22  and  C9_24 
REMARK    6  A    between atoms: C9_24  and  C10_26 
REMARK       I    between atoms: C10_26  and  N7_28 
REMARK    7  A    between atoms: N7_28  and  O5_30 
ROOT
HETATM    1  C4  UNL     1       0.802   0.591  -0.357  1.00  0.00     0.095 A 
HETATM    2  C5  UNL     1       0.944   1.951  -0.515  1.00  0.00     0.123 A 
HETATM    3  N3  UNL     1      -0.052   2.803  -0.132  1.00  0.00    -0.346 N 
ATOM      4  H3  UNL     1       0.087   3.805  -0.264  1.00  0.00     0.167 HD
HETATM    5  C6  UNL     1      -1.201   2.385   0.408  1.00  0.00     0.173 A 
HETATM    6  N5  UNL     1      -1.360   1.071   0.570  1.00  0.00    -0.322 N 
ATOM      7  H5  UNL     1      -2.227   0.724   0.979  1.00  0.00     0.169 HD
HETATM    8  C8  UNL     1      -0.412   0.191   0.210  1.00  0.00     0.138 A 
ENDROOT
BRANCH   1   9
HETATM    9  N2  UNL     1       1.767  -0.368  -0.719  1.00  0.00    -0.321 N 
HETATM   10  C3  UNL     1       3.037  -0.145  -1.298  1.00  0.00     0.252 C 
HETATM   11  O1  UNL     1       3.522   0.970  -1.591  1.00  0.00    -0.271 OA
ATOM     12  H2  UNL     1       1.520  -1.342  -0.542  1.00  0.00     0.169 HD
BRANCH  10  13
HETATM   13  C2  UNL     1       3.846  -1.399  -1.571  1.00  0.00     0.271 C 
HETATM   14  C1  UNL     1       4.090  -2.141  -0.272  1.00  0.00     0.050 C 
BRANCH  13  15
HETATM   15  N1  UNL     1       5.097  -0.965  -2.156  1.00  0.00    -0.067 N 
ATOM     16  H13 UNL     1       5.648  -0.410  -1.501  1.00  0.00     0.275 HD
ATOM     17  H12 UNL     1       5.745  -1.742  -2.281  1.00  0.00     0.275 HD
ATOM     18  H11 UNL     1       4.933  -0.466  -3.030  1.00  0.00     0.275 HD
ENDBRANCH  13  15
ENDBRANCH  10  13
ENDBRANCH   1   9
BRANCH   8  19
HETATM   19  N6  UNL     1      -0.593  -1.077   0.378  1.00  0.00    -0.303 N 
HETATM   20  C9  UNL     1      -1.794  -1.528   0.943  1.00  0.00     0.317 C 
HETATM   21  O3  UNL     1      -1.827  -1.900   2.133  1.00  0.00    -0.262 OA
ATOM     22  H6  UNL     1       0.130  -1.742   0.103  1.00  0.00     0.171 HD
BRANCH  20  23
HETATM   23  C10 UNL     1      -2.999  -1.555   0.128  1.00  0.00     0.334 C 
HETATM   24  O4  UNL     1      -2.937  -1.174  -1.069  1.00  0.00    -0.260 OA
HETATM   25  N7  UNL     1      -4.245  -1.998   0.634  1.00  0.00    -0.225 N 
HETATM   26  C11 UNL     1      -4.430  -2.457   1.996  1.00  0.00     0.189 C 
BRANCH  25  27
HETATM   27  O5  UNL     1      -5.317  -1.993  -0.191  1.00  0.00    -0.285 OA
ATOM     28  H5  UNL     1      -6.153  -2.290   0.148  1.00  0.00     0.245 HD
ENDBRANCH  25  27
ENDBRANCH  20  23
ENDBRANCH   8  19
BRANCH   5  29
HETATM   29  C7  UNL     1      -2.249   3.320   0.808  1.00  0.00     0.298 C 
HETATM   30  N4  UNL     1      -2.111   4.721   0.650  1.00  0.00    -0.054 NA
HETATM   31  O2  UNL     1      -3.321   2.904   1.314  1.00  0.00    -0.268 OA
ENDBRANCH   5  29
TORSDOF 7
