REMARK  5 active torsions:
REMARK  status: ('A' for Active; 'I' for Inactive)
REMARK    1  A    between atoms: C2_2  and  C4_10 
REMARK    2  A    between atoms: N1_3  and  N2_5 
REMARK       I    between atoms: C4_10  and  N5_12 
REMARK    3  A    between atoms: N5_12  and  C5_14 
REMARK    4  A    between atoms: C8_19  and  S1_20 
REMARK    5  A    between atoms: S1_20  and  N7_21 
ROOT
HETATM    1  C5  UNL     1       0.987  -0.320  -0.416  1.00  0.00     0.153 A 
HETATM    2  N6  UNL     1       1.727  -1.389  -0.123  1.00  0.00    -0.338 N 
ATOM      3  H6  UNL     1       1.303  -2.313  -0.035  1.00  0.00     0.168 HD
HETATM    4  C6  UNL     1       3.020  -1.218   0.049  1.00  0.00     0.037 A 
HETATM    5  C7  UNL     1       3.987  -2.351   0.388  1.00  0.00     0.070 C 
HETATM    6  C8  UNL     1       3.518   0.047  -0.083  1.00  0.00     0.145 A 
HETATM    7  S2  UNL     1       2.120   0.949  -0.451  1.00  0.00    -0.038 SA
ENDROOT
BRANCH   1   8
HETATM    8  N5  UNL     1      -0.318  -0.290  -0.624  1.00  0.00    -0.302 N 
HETATM    9  C4  UNL     1      -0.956   0.943  -0.928  1.00  0.00     0.271 C 
HETATM   10  O1  UNL     1      -0.370   1.840  -1.598  1.00  0.00    -0.266 OA
ATOM     11  H5  UNL     1      -0.865  -1.149  -0.567  1.00  0.00     0.171 HD
BRANCH   9  12
HETATM   12  C2  UNL     1      -2.307   1.152  -0.449  1.00  0.00     0.089 C 
HETATM   13  C1  UNL     1      -2.994   2.425  -0.750  1.00  0.00     0.076 C 
HETATM   14  N1  UNL     1      -2.900   0.239   0.231  1.00  0.00    -0.298 N 
ATOM     15  H1  UNL     1      -2.392  -0.625   0.417  1.00  0.00     0.187 HD
BRANCH  14  16
HETATM   16  N2  UNL     1      -4.186   0.355   0.727  1.00  0.00    -0.276 N 
HETATM   17  C3  UNL     1      -5.130  -0.423   0.347  1.00  0.00     0.215 C 
HETATM   18  N3  UNL     1      -6.423  -0.253   0.891  1.00  0.00    -0.065 NA
HETATM   19  N4  UNL     1      -4.864  -1.432  -0.606  1.00  0.00    -0.065 NA
ATOM     20  H2  UNL     1      -4.388   1.081   1.415  1.00  0.00     0.189 HD
ENDBRANCH  14  16
ENDBRANCH   9  12
ENDBRANCH   1   8
BRANCH   6  21
HETATM   21  S1  UNL     1       5.197   0.594   0.087  1.00  0.00     0.265 S 
HETATM   22  O2  UNL     1       5.409   1.731  -0.858  1.00  0.00    -0.200 OA
HETATM   23  O3  UNL     1       6.057  -0.576  -0.314  1.00  0.00    -0.200 OA
BRANCH  21  24
HETATM   24  N7  UNL     1       5.547   1.044   1.693  1.00  0.00    -0.324 N 
ATOM     25  H72 UNL     1       4.865   0.999   2.450  1.00  0.00     0.169 HD
ATOM     26  H71 UNL     1       6.512   1.359   1.791  1.00  0.00     0.169 HD
ENDBRANCH  21  24
ENDBRANCH   6  21
TORSDOF 5
