REMARK  6 active torsions:
REMARK  status: ('A' for Active; 'I' for Inactive)
REMARK    1  A    between atoms: O1_2  and  C2_3 
REMARK    2  A    between atoms: C2_3  and  C3_5 
REMARK    3  A    between atoms: C3_5  and  N1_7 
REMARK    4  A    between atoms: C6_10  and  C7_11 
REMARK    5  A    between atoms: C7_11  and  N2_12 
REMARK    6  A    between atoms: C7_11  and  C8_16 
REMARK       I    between atoms: C8_16  and  N3_18 
REMARK       I    between atoms: N3_18  and  C9_20 
REMARK       I    between atoms: N4_23  and  C11_24 
ROOT
HETATM    1  N1  UNL     1      -1.034   0.184  -1.040  1.00  0.00    -0.240 N 
HETATM    2  C5  UNL     1       0.109   0.994  -0.868  1.00  0.00     0.267 C 
HETATM    3  O3  UNL     1       0.298   2.207  -0.662  1.00  0.00    -0.269 OA
HETATM    4  C6  UNL     1       0.931  -0.214  -1.037  1.00  0.00     0.244 C 
HETATM    5  N4  UNL     1      -0.223  -0.745  -1.704  1.00  0.00    -0.243 N 
HETATM    6  C11 UNL     1      -0.549  -1.765  -2.650  1.00  0.00     0.204 C 
HETATM    7  N5  UNL     1      -0.199  -1.627  -3.881  1.00  0.00    -0.372 N 
ATOM      8  H51 UNL     1      -0.432  -2.355  -4.556  1.00  0.00     0.158 HD
ATOM      9  H52 UNL     1       0.308  -0.783  -4.149  1.00  0.00     0.158 HD
HETATM   10  N6  UNL     1      -1.253  -2.937  -2.277  1.00  0.00    -0.062 NA
ENDROOT
BRANCH   4  11
HETATM   11  C7  UNL     1       1.349  -0.943   0.214  1.00  0.00     0.308 C 
BRANCH  11  12
HETATM   12  N2  UNL     1       2.145  -2.093  -0.238  1.00  0.00    -0.064 N 
ATOM     13  H23 UNL     1       1.660  -2.685  -0.912  1.00  0.00     0.275 HD
ATOM     14  H22 UNL     1       2.927  -1.836  -0.841  1.00  0.00     0.275 HD
ATOM     15  H21 UNL     1       2.428  -2.586   0.609  1.00  0.00     0.275 HD
ENDBRANCH  11  12
BRANCH  11  16
HETATM   16  C8  UNL     1       2.300  -0.059   0.946  1.00  0.00     0.257 C 
HETATM   17  O4  UNL     1       1.822   0.984   1.446  1.00  0.00    -0.271 OA
HETATM   18  N3  UNL     1       3.665  -0.342   1.092  1.00  0.00    -0.296 N 
HETATM   19  C9  UNL     1       4.517   0.530   1.795  1.00  0.00     0.220 C 
ATOM     20  H3  UNL     1       4.047  -1.194   0.682  1.00  0.00     0.171 HD
HETATM   21  C10 UNL     1       4.090   1.797   2.437  1.00  0.00     0.117 C 
HETATM   22  O5  UNL     1       5.766   0.252   1.918  1.00  0.00    -0.274 OA
ENDBRANCH  11  16
ENDBRANCH   4  11
BRANCH   1  23
HETATM   23  C3  UNL     1      -2.432   0.316  -0.670  1.00  0.00     0.207 C 
HETATM   24  C4  UNL     1      -3.038   1.499  -1.437  1.00  0.00     0.045 C 
BRANCH  23  25
HETATM   25  C2  UNL     1      -2.630   0.624   0.765  1.00  0.00     0.283 C 
HETATM   26  O2  UNL     1      -1.620   0.741   1.498  1.00  0.00    -0.263 OA
BRANCH  25  27
HETATM   27  O1  UNL     1      -3.879   0.784   1.313  1.00  0.00    -0.325 OA
HETATM   28  C1  UNL     1      -4.107   1.079   2.679  1.00  0.00     0.213 C 
ENDBRANCH  25  27
ENDBRANCH  23  25
ENDBRANCH   1  23
TORSDOF 6
