REMARK  4 active torsions:
REMARK  status: ('A' for Active; 'I' for Inactive)
REMARK    1  A    between atoms: N1_2  and  S1_4 
REMARK    2  A    between atoms: S1_4  and  C3_7 
REMARK    3  A    between atoms: C4_8  and  S2_9 
REMARK    4  A    between atoms: S2_9  and  N2_10 
ROOT
HETATM    1  C3  UNL     1       0.305   0.773  -0.141  1.00  0.00     0.170 A 
HETATM    2  C4  UNL     1       1.277   0.146   0.589  1.00  0.00     0.152 A 
HETATM    3  C5  UNL     1       2.043   0.917   1.457  1.00  0.00     0.139 A 
HETATM    4  N3  UNL     1       3.000   0.515   2.181  1.00  0.00    -0.383 N 
ATOM      5  H31 UNL     1       3.562   1.080   2.818  1.00  0.00     0.157 HD
ATOM      6  H32 UNL     1       3.185  -0.486   2.111  1.00  0.00     0.157 HD
HETATM    7  N4  UNL     1       1.793   2.266   1.552  1.00  0.00    -0.282 N 
ATOM      8  H4  UNL     1       2.359   2.822   2.193  1.00  0.00     0.188 HD
HETATM    9  N5  UNL     1       0.874   2.860   0.866  1.00  0.00    -0.264 N 
ATOM     10  H5  UNL     1       0.721   3.863   0.967  1.00  0.00     0.190 HD
HETATM   11  C6  UNL     1       0.135   2.152   0.033  1.00  0.00     0.284 A 
HETATM   12  O5  UNL     1      -0.768   2.695  -0.652  1.00  0.00    -0.265 OA
ENDROOT
BRANCH   1  13
HETATM   13  S1  UNL     1      -0.674  -0.044  -1.312  1.00  0.00     0.250 S 
HETATM   14  O1  UNL     1       0.006  -1.078  -2.111  1.00  0.00    -0.205 OA
HETATM   15  O2  UNL     1      -1.325   1.000  -2.251  1.00  0.00    -0.205 OA
BRANCH  13  16
HETATM   16  N1  UNL     1      -2.022  -0.751  -0.503  1.00  0.00    -0.215 NA
HETATM   17  C1  UNL     1      -2.852   0.251   0.140  1.00  0.00     0.129 C 
HETATM   18  C2  UNL     1      -2.801  -1.597  -1.387  1.00  0.00     0.129 C 
ENDBRANCH  13  16
ENDBRANCH   1  13
BRANCH   2  19
HETATM   19  S2  UNL     1       1.542  -1.547   0.504  1.00  0.00     0.262 S 
HETATM   20  O3  UNL     1       0.328  -2.394   0.264  1.00  0.00    -0.201 OA
HETATM   21  O4  UNL     1       2.236  -2.120   1.742  1.00  0.00    -0.201 OA
BRANCH  19  22
HETATM   22  N2  UNL     1       2.637  -1.862  -0.794  1.00  0.00    -0.324 N 
ATOM     23  H22 UNL     1       3.048  -1.151  -1.399  1.00  0.00     0.169 HD
ATOM     24  H21 UNL     1       2.795  -2.868  -0.845  1.00  0.00     0.169 HD
ENDBRANCH  19  22
ENDBRANCH   2  19
TORSDOF 4
