REMARK  6 active torsions:
REMARK  status: ('A' for Active; 'I' for Inactive)
REMARK       I    between atoms: N1_2  and  C2_4 
REMARK    1  A    between atoms: C2_4  and  C3_6 
REMARK    2  A    between atoms: C3_6  and  N2_7 
REMARK       I    between atoms: N2_7  and  C4_9 
REMARK    3  A    between atoms: C4_9  and  C5_11 
REMARK       I    between atoms: C5_11  and  N3_13 
REMARK    4  A    between atoms: N3_13  and  C6_15 
REMARK    5  A    between atoms: C7_20  and  S1_21 
REMARK    6  A    between atoms: S1_21  and  N6_22 
ROOT
HETATM    1  C5  UNL     1      -0.476   0.125   2.122  1.00  0.00     0.315 C 
HETATM    2  O3  UNL     1      -0.050  -0.731   2.933  1.00  0.00    -0.262 OA
HETATM    3  N3  UNL     1       0.097   1.412   2.065  1.00  0.00    -0.298 N 
ATOM      4  H3  UNL     1      -0.453   2.240   2.293  1.00  0.00     0.171 HD
ENDROOT
BRANCH   3   5
HETATM    5  C6  UNL     1       1.357   1.516   1.710  1.00  0.00     0.169 A 
HETATM    6  N4  UNL     1       2.206   0.539   1.383  1.00  0.00    -0.278 N 
HETATM    7  N5  UNL     1       3.395   0.843   1.065  1.00  0.00    -0.281 N 
ATOM      8  H4  UNL     1       1.903  -0.435   1.389  1.00  0.00     0.189 HD
HETATM    9  C7  UNL     1       3.782   2.111   1.059  1.00  0.00     0.208 A 
ATOM     10  H5  UNL     1       4.057   0.109   0.813  1.00  0.00     0.188 HD
HETATM   11  S2  UNL     1       2.346   2.903   1.540  1.00  0.00    -0.020 SA
BRANCH   9  12
HETATM   12  S1  UNL     1       5.358   2.806   0.661  1.00  0.00     0.280 S 
HETATM   13  O4  UNL     1       5.552   4.041   1.491  1.00  0.00    -0.199 OA
HETATM   14  O5  UNL     1       6.405   1.816   1.038  1.00  0.00    -0.199 OA
BRANCH  12  15
HETATM   15  N6  UNL     1       5.438   3.162  -1.007  1.00  0.00    -0.323 N 
ATOM     16  H62 UNL     1       4.678   2.992  -1.666  1.00  0.00     0.169 HD
ATOM     17  H61 UNL     1       6.347   3.563  -1.237  1.00  0.00     0.169 HD
ENDBRANCH  12  15
ENDBRANCH   9  12
ENDBRANCH   3   5
BRANCH   1  18
HETATM   18  C4  UNL     1      -1.572  -0.239   1.246  1.00  0.00     0.310 C 
HETATM   19  N2  UNL     1      -2.180  -1.521   1.263  1.00  0.00    -0.344 N 
ATOM     20  H2  UNL     1      -1.825  -2.213   1.924  1.00  0.00     0.163 HD
HETATM   21  O2  UNL     1      -1.995   0.625   0.438  1.00  0.00    -0.262 OA
BRANCH  19  22
HETATM   22  C3  UNL     1      -3.259  -1.898   0.409  1.00  0.00     0.225 C 
BRANCH  22  23
HETATM   23  C2  UNL     1      -2.977  -1.837  -1.031  1.00  0.00     0.234 C 
HETATM   24  N1  UNL     1      -4.012  -2.197  -1.931  1.00  0.00    -0.364 N 
HETATM   25  C1  UNL     1      -3.807  -2.161  -3.359  1.00  0.00     0.149 C 
ATOM     26  H1  UNL     1      -4.918  -2.487  -1.562  1.00  0.00     0.161 HD
HETATM   27  O1  UNL     1      -1.873  -1.486  -1.512  1.00  0.00    -0.272 OA
ENDBRANCH  22  23
ENDBRANCH  19  22
ENDBRANCH   1  18
TORSDOF 6
