REMARK  6 active torsions:
REMARK  status: ('A' for Active; 'I' for Inactive)
REMARK    1  A    between atoms: O1_1  and  C1_3 
REMARK    2  A    between atoms: C1_3  and  C2_4 
REMARK    3  A    between atoms: C2_4  and  C3_5 
REMARK    4  A    between atoms: C3_5  and  N1_6 
REMARK    5  A    between atoms: N1_6  and  C4_7 
REMARK    6  A    between atoms: N1_6  and  C7_10 
ROOT
HETATM    1  C2  UNL     1      -1.453  -0.295  -0.173  1.00  0.00     0.020 C 
HETATM    2  C10 UNL     1      -1.764  -1.174   0.965  1.00  0.00     0.002 C 
HETATM    3  C11 UNL     1      -3.178  -1.269   0.439  1.00  0.00     0.011 C 
HETATM    4  C12 UNL     1      -2.333  -1.349  -0.782  1.00  0.00     0.002 C 
HETATM    5  C13 UNL     1      -1.546  -2.347   0.029  1.00  0.00     0.011 C 
ENDROOT
BRANCH   1   6
HETATM    6  C1  UNL     1      -2.001   1.106  -0.137  1.00  0.00     0.179 C 
BRANCH   6   7
HETATM    7  O1  UNL     1      -2.020   1.661  -1.449  1.00  0.00    -0.400 OA
ATOM      8  H1  UNL     1      -2.366   2.545  -1.426  1.00  0.00     0.209 HD
ENDBRANCH   6   7
ENDBRANCH   1   6
BRANCH   1   9
HETATM    9  C3  UNL     1      -0.050  -0.269  -0.727  1.00  0.00     0.071 C 
BRANCH   9  10
HETATM   10  N1  UNL     1       0.953   0.408  -0.070  1.00  0.00    -0.383 N 
BRANCH  10  11
HETATM   11  C4  UNL     1       2.248   0.419  -0.651  1.00  0.00     0.084 A 
HETATM   12  C5  UNL     1       2.926  -0.974  -0.810  1.00  0.00     0.027 A 
HETATM   13  C6  UNL     1       2.540  -0.113  -2.000  1.00  0.00     0.027 A 
ENDBRANCH  10  11
BRANCH  10  14
HETATM   14  C7  UNL     1       0.910   0.912   1.240  1.00  0.00     0.084 A 
HETATM   15  C8  UNL     1       2.134   1.124   2.063  1.00  0.00     0.027 A 
HETATM   16  C9  UNL     1       1.468   2.322   1.499  1.00  0.00     0.027 A 
ENDBRANCH  10  14
ENDBRANCH   9  10
ENDBRANCH   1   9
TORSDOF 6
