REMARK  5 active torsions:
REMARK  status: ('A' for Active; 'I' for Inactive)
REMARK       I    between atoms: C1_2  and  N1_3 
REMARK    1  A    between atoms: C1_2  and  C10_14 
REMARK    2  A    between atoms: N1_3  and  C2_5 
REMARK    3  A    between atoms: C4_7  and  C5_8 
REMARK    4  A    between atoms: C5_8  and  O2_9 
REMARK    5  A    between atoms: O2_9  and  C6_10 
ROOT
HETATM    1  C2  UNL     1       1.105  -1.589  -0.661  1.00  0.00     0.091 A 
HETATM    2  C3  UNL     1       0.197  -2.444   0.239  1.00  0.00     0.034 A 
HETATM    3  C4  UNL     1      -0.377  -1.544  -0.770  1.00  0.00     0.034 A 
ENDROOT
BRANCH   1   4
HETATM    4  N1  UNL     1       1.829  -0.590   0.063  1.00  0.00    -0.356 N 
HETATM    5  C1  UNL     1       3.208  -0.381  -0.180  1.00  0.00     0.222 C 
HETATM    6  O1  UNL     1       3.829  -1.082  -1.050  1.00  0.00    -0.273 OA
ATOM      7  H1  UNL     1       1.347  -0.023   0.761  1.00  0.00     0.162 HD
BRANCH   5   8
HETATM    8  C10 UNL     1       4.010   0.640   0.542  1.00  0.00     0.078 A 
HETATM    9  C11 UNL     1       5.425   0.355   0.828  1.00  0.00     0.015 A 
HETATM   10  C12 UNL     1       5.092   1.318  -0.232  1.00  0.00     0.015 A 
ENDBRANCH   5   8
ENDBRANCH   1   4
BRANCH   3  11
HETATM   11  C5  UNL     1      -1.102  -0.302  -0.293  1.00  0.00     0.174 C 
BRANCH  11  12
HETATM   12  O2  UNL     1      -2.473  -0.500  -0.497  1.00  0.00    -0.385 OA
BRANCH  12  13
HETATM   13  C6  UNL     1      -3.140   0.622  -0.067  1.00  0.00     0.121 C 
HETATM   14  C7  UNL     1      -4.178   1.173  -1.036  1.00  0.00     0.032 C 
HETATM   15  C8  UNL     1      -5.052   1.456   0.182  1.00  0.00     0.005 C 
HETATM   16  C9  UNL     1      -4.315   0.329   0.877  1.00  0.00     0.032 C 
ENDBRANCH  12  13
ENDBRANCH  11  12
ENDBRANCH   3  11
TORSDOF 5
