REMARK  5 active torsions:
REMARK  status: ('A' for Active; 'I' for Inactive)
REMARK    1  A    between atoms: C1_2  and  C2_4 
REMARK    2  A    between atoms: C4_6  and  C5_7 
REMARK    3  A    between atoms: C6_8  and  C7_9 
REMARK    4  A    between atoms: C7_9  and  C8_10 
REMARK    5  A    between atoms: C8_10  and  N1_11 
ROOT
HETATM    1  C5  UNL     1       1.984  -0.910  -0.506  1.00  0.00    -0.025 C 
HETATM    2  C6  UNL     1       1.217   0.089  -0.109  1.00  0.00    -0.025 C 
ENDROOT
BRANCH   2   3
HETATM    3  C7  UNL     1      -0.054  -0.150   0.632  1.00  0.00     0.071 C 
BRANCH   3   4
HETATM    4  C8  UNL     1      -1.232   0.407  -0.113  1.00  0.00     0.066 C 
BRANCH   4   5
HETATM    5  N1  UNL     1      -2.483   0.251   0.473  1.00  0.00    -0.374 N 
HETATM    6  C9  UNL     1      -3.088  -0.999   0.604  1.00  0.00     0.063 C 
HETATM    7  C10 UNL     1      -4.479  -0.780   0.045  1.00  0.00     0.046 C 
HETATM    8  C11 UNL     1      -4.790   0.617   0.578  1.00  0.00     0.025 C 
HETATM    9  C12 UNL     1      -3.432   1.304   0.369  1.00  0.00     0.127 C 
ENDBRANCH   4   5
ENDBRANCH   3   4
ENDBRANCH   2   3
BRANCH   1  10
HETATM   10  C4  UNL     1       3.243  -0.770  -1.235  1.00  0.00     0.023 A 
HETATM   11  C2  UNL     1       4.352   0.112  -0.850  1.00  0.00     0.095 A 
HETATM   12  C3  UNL     1       4.510  -1.371  -0.577  1.00  0.00     0.025 A 
BRANCH  11  13
HETATM   13  C1  UNL     1       4.348   1.032   0.292  1.00  0.00     0.177 C 
HETATM   14  O1  UNL     1       3.798   0.698   1.365  1.00  0.00    -0.648 OA
HETATM   15  O2  UNL     1       4.942   2.303   0.248  1.00  0.00    -0.648 OA
ENDBRANCH  11  13
ENDBRANCH   1  10
TORSDOF 5
