REMARK  5 active torsions:
REMARK  status: ('A' for Active; 'I' for Inactive)
REMARK    1  A    between atoms: C2_2  and  C3_3 
REMARK    2  A    between atoms: C2_2  and  C7_7 
REMARK    3  A    between atoms: C3_3  and  C4_4 
REMARK    4  A    between atoms: C7_7  and  C8_8 
REMARK    5  A    between atoms: C7_7  and  N2_11 
ROOT
HETATM    1  C7  UNL     1      -0.373   0.274  -0.574  1.00  0.00     0.314 C 
ENDROOT
BRANCH   1   2
HETATM    2  C2  UNL     1       0.675  -0.592   0.037  1.00  0.00     0.024 C 
HETATM    3  C1  UNL     1       1.120  -0.169   1.418  1.00  0.00     0.012 C 
BRANCH   2   4
HETATM    4  C3  UNL     1       1.725  -1.086  -0.865  1.00  0.00     0.011 C 
BRANCH   4   5
HETATM    5  C4  UNL     1       2.860  -0.205  -1.215  1.00  0.00    -0.014 A 
HETATM    6  C5  UNL     1       3.805   0.384  -0.259  1.00  0.00     0.005 A 
HETATM    7  C6  UNL     1       4.240  -0.877  -0.949  1.00  0.00     0.005 A 
ENDBRANCH   4   5
ENDBRANCH   2   4
ENDBRANCH   1   2
BRANCH   1   8
HETATM    8  C8  UNL     1       0.011   1.679  -0.720  1.00  0.00     0.265 C 
HETATM    9  N1  UNL     1      -0.528   2.684   0.154  1.00  0.00    -0.060 NA
HETATM   10  O1  UNL     1       0.820   2.043  -1.607  1.00  0.00    -0.274 OA
ENDBRANCH   1   8
BRANCH   1  11
HETATM   11  N2  UNL     1      -1.590   0.237   0.250  1.00  0.00     0.102 N 
HETATM   12  C9  UNL     1      -2.666   0.740  -0.616  1.00  0.00     0.273 C 
HETATM   13  C10 UNL     1      -3.929   0.291   0.131  1.00  0.00     0.032 C 
HETATM   14  C11 UNL     1      -3.529  -1.074   0.597  1.00  0.00     0.032 C 
HETATM   15  C12 UNL     1      -2.021  -1.150   0.484  1.00  0.00     0.273 C 
ENDBRANCH   1  11
TORSDOF 5
