REMARK  17 active torsions:
REMARK  status: ('A' for Active; 'I' for Inactive)
REMARK    1  A    between atoms: C2_2  and  C3_3 
REMARK    2  A    between atoms: C3_3  and  N1_5 
REMARK    3  A    between atoms: N1_5  and  N2_7 
REMARK       I    between atoms: N2_7  and  C6_9 
REMARK    4  A    between atoms: C6_9  and  C7_11 
REMARK    5  A    between atoms: C7_11  and  C8_12 
REMARK    6  A    between atoms: C7_11  and  N5_21 
REMARK    7  A    between atoms: C10_15  and  N3_16 
REMARK    8  A    between atoms: C12_23  and  N6_24 
REMARK       I    between atoms: N6_24  and  C13_26 
REMARK    9  A    between atoms: C13_26  and  C14_28 
REMARK   10  A    between atoms: C15_31  and  N7_32 
REMARK   11  A    between atoms: N7_32  and  C16_34 
REMARK   12  A    between atoms: C16_34  and  O5_35 
REMARK   13  A    between atoms: C16_34  and  C17_37 
REMARK   14  A    between atoms: C19_39  and  N8_40 
REMARK   15  A    between atoms: C21_44  and  N9_45 
REMARK   16  A    between atoms: C22_48  and  O10_49 
REMARK   17  A    between atoms: C23_51  and  O11_52 
ROOT
HETATM    1  N5  UNL     1      -0.236  -0.231   0.191  1.00  0.00    -0.314 N 
HETATM    2  C11 UNL     1       0.317   0.325  -0.909  1.00  0.00     0.126 A 
HETATM    3  C12 UNL     1       1.503   0.966  -0.532  1.00  0.00     0.082 A 
HETATM    4  C15 UNL     1       1.677   0.795   0.825  1.00  0.00     0.110 A 
HETATM    5  C23 UNL     1       0.543   0.030   1.224  1.00  0.00     0.172 A 
ENDROOT
BRANCH   1   6
HETATM    6  C7  UNL     1      -1.469  -0.985   0.248  1.00  0.00     0.235 C 
BRANCH   6   7
HETATM    7  C6  UNL     1      -2.466  -0.377   1.121  1.00  0.00     0.261 C 
HETATM    8  N2  UNL     1      -3.720  -0.977   1.341  1.00  0.00    -0.287 N 
ATOM      9  H2  UNL     1      -3.910  -1.854   0.857  1.00  0.00     0.184 HD
HETATM   10  O1  UNL     1      -2.233   0.720   1.717  1.00  0.00    -0.269 OA
BRANCH   8  11
HETATM   11  N1  UNL     1      -4.729  -0.470   2.169  1.00  0.00    -0.229 NA
HETATM   12  C5  UNL     1      -5.415  -1.599   2.802  1.00  0.00     0.137 C 
BRANCH  11  13
HETATM   13  C3  UNL     1      -5.708   0.327   1.477  1.00  0.00     0.075 C 
HETATM   14  C4  UNL     1      -5.245   1.698   1.095  1.00  0.00     0.028 C 
BRANCH  13  15
HETATM   15  C2  UNL     1      -6.400  -0.382   0.349  1.00  0.00     0.017 C 
HETATM   16  C1  UNL     1      -7.613   0.466  -0.042  1.00  0.00     0.006 C 
ENDBRANCH  13  15
ENDBRANCH  11  13
ENDBRANCH   8  11
ENDBRANCH   6   7
BRANCH   6  17
HETATM   17  C8  UNL     1      -2.021  -1.137  -1.164  1.00  0.00     0.050 A 
HETATM   18  C9  UNL     1      -2.748  -0.114  -1.726  1.00  0.00     0.081 A 
HETATM   19  S1  UNL     1      -3.134  -0.749  -3.260  1.00  0.00    -0.064 SA
HETATM   20  C10 UNL     1      -2.366  -2.257  -3.111  1.00  0.00     0.142 A 
HETATM   21  N4  UNL     1      -1.842  -2.213  -1.887  1.00  0.00    -0.338 N 
ATOM     22  H4  UNL     1      -1.311  -3.003  -1.520  1.00  0.00     0.168 HD
BRANCH  20  23
HETATM   23  N3  UNL     1      -2.291  -3.243  -3.976  1.00  0.00    -0.380 N 
ATOM     24  H32 UNL     1      -2.692  -3.277  -4.913  1.00  0.00     0.158 HD
ATOM     25  H31 UNL     1      -1.830  -4.148  -3.887  1.00  0.00     0.158 HD
ENDBRANCH  20  23
ENDBRANCH   6  17
ENDBRANCH   1   6
BRANCH   5  26
HETATM   26  O11 UNL     1       0.311  -0.372   2.529  1.00  0.00    -0.344 OA
ATOM     27  H11 UNL     1       0.872  -0.184   3.273  1.00  0.00     0.219 HD
ENDBRANCH   5  26
BRANCH   3  28
HETATM   28  N6  UNL     1       2.310   1.721  -1.408  1.00  0.00    -0.315 N 
HETATM   29  C13 UNL     1       2.189   1.737  -2.800  1.00  0.00     0.322 C 
HETATM   30  O2  UNL     1       1.333   1.046  -3.396  1.00  0.00    -0.261 OA
ATOM     31  H6  UNL     1       3.039   2.301  -0.993  1.00  0.00     0.169 HD
BRANCH  29  32
HETATM   32  C14 UNL     1       3.101   2.600  -3.587  1.00  0.00     0.270 C 
HETATM   33  O3  UNL     1       3.940   3.306  -3.002  1.00  0.00    -0.640 OA
HETATM   34  O4  UNL     1       3.002   2.603  -4.965  1.00  0.00    -0.640 OA
ENDBRANCH  29  32
ENDBRANCH   3  28
BRANCH   4  35
HETATM   35  N7  UNL     1       2.684   1.156   1.692  1.00  0.00    -0.355 N 
ATOM     36  H7  UNL     1       2.426   1.119   2.678  1.00  0.00     0.162 HD
BRANCH  35  37
HETATM   37  C16 UNL     1       4.010   1.568   1.452  1.00  0.00     0.255 C 
BRANCH  37  38
HETATM   38  O5  UNL     1       4.691   1.827   2.703  1.00  0.00    -0.372 OA
ATOM     39  H5  UNL     1       5.585   2.105   2.541  1.00  0.00     0.212 HD
ENDBRANCH  37  38
BRANCH  37  40
HETATM   40  C17 UNL     1       4.843   0.505   0.817  1.00  0.00     0.028 A 
HETATM   41  C18 UNL     1       4.724  -0.822   1.168  1.00  0.00     0.050 A 
HETATM   42  C19 UNL     1       5.491  -1.792   0.535  1.00  0.00     0.106 A 
HETATM   43  C20 UNL     1       6.379  -1.451  -0.450  1.00  0.00     0.075 A 
HETATM   44  C21 UNL     1       6.507  -0.118  -0.812  1.00  0.00     0.139 A 
HETATM   45  C22 UNL     1       5.751   0.836  -0.185  1.00  0.00     0.109 A 
BRANCH  42  46
HETATM   46  N8  UNL     1       5.352  -3.162   0.917  1.00  0.00    -0.116 N 
HETATM   47  O6  UNL     1       6.041  -4.034   0.352  1.00  0.00    -0.532 OA
HETATM   48  O7  UNL     1       4.469  -3.501   1.896  1.00  0.00    -0.532 OA
ENDBRANCH  42  46
BRANCH  44  49
HETATM   49  N9  UNL     1       7.437   0.179  -1.831  1.00  0.00    -0.113 N 
HETATM   50  O8  UNL     1       7.359   1.066  -2.676  1.00  0.00    -0.532 OA
HETATM   51  O9  UNL     1       8.571  -0.638  -1.898  1.00  0.00    -0.532 OA
ENDBRANCH  44  49
BRANCH  45  52
HETATM   52  O10 UNL     1       5.854   2.160  -0.509  1.00  0.00    -0.357 OA
ATOM     53  H10 UNL     1       6.474   2.386  -1.193  1.00  0.00     0.217 HD
ENDBRANCH  45  52
ENDBRANCH  37  40
ENDBRANCH  35  37
ENDBRANCH   4  35
TORSDOF 17
