REMARK  17 active torsions:
REMARK  status: ('A' for Active; 'I' for Inactive)
REMARK    1  A    between atoms: O1_2  and  C2_3 
REMARK       I    between atoms: C2_3  and  N1_5 
REMARK    2  A    between atoms: N1_5  and  C3_7 
REMARK    3  A    between atoms: C6_11  and  S2_12 
REMARK    4  A    between atoms: S2_12  and  C7_13 
REMARK    5  A    between atoms: C7_13  and  C8_14 
REMARK       I    between atoms: C8_14  and  N2_16 
REMARK    6  A    between atoms: N2_16  and  C9_18 
REMARK    7  A    between atoms: C9_18  and  C10_19 
REMARK    8  A    between atoms: C10_19  and  C11_20 
REMARK    9  A    between atoms: C11_20  and  C12_21 
REMARK   10  A    between atoms: C12_21  and  C13_22 
REMARK   11  A    between atoms: C13_22  and  C14_23 
REMARK   12  A    between atoms: C14_23  and  O4_24 
REMARK   13  A    between atoms: C15_26  and  C16_27 
REMARK   14  A    between atoms: C17_31  and  C18_32 
REMARK   15  A    between atoms: C22_39  and  N5_40 
REMARK   16  A    between atoms: N5_40  and  N6_42 
REMARK   17  A    between atoms: N7_46  and  O7_47 
ROOT
HETATM    1  C3  UNL     1       3.593   0.060  -0.863  1.00  0.00     0.148 C 
HETATM    2  C4  UNL     1       2.274   0.471  -1.552  1.00  0.00     0.177 C 
HETATM    3  S1  UNL     1       1.578  -0.975  -2.341  1.00  0.00    -0.112 SA
HETATM    4  C5  UNL     1       0.365  -1.567  -1.203  1.00  0.00     0.068 C 
HETATM    5  C6  UNL     1      -0.185  -0.652  -0.232  1.00  0.00     0.040 C 
HETATM    6  C15 UNL     1       0.446   0.399   0.241  1.00  0.00     0.127 C 
HETATM    7  N3  UNL     1       1.758   0.672  -0.210  1.00  0.00    -0.346 N 
HETATM    8  C17 UNL     1       3.068   1.131   0.101  1.00  0.00     0.162 C 
ENDROOT
BRANCH   8   9
HETATM    9  C18 UNL     1       3.440   2.520  -0.380  1.00  0.00     0.047 C 
HETATM   10  C19 UNL     1       2.600   3.474  -0.725  1.00  0.00     0.076 C 
HETATM   11  S3  UNL     1       3.605   4.878  -1.199  1.00  0.00    -0.093 SA
HETATM   12  C20 UNL     1       5.113   3.847  -1.498  1.00  0.00     0.260 C 
HETATM   13  N4  UNL     1       6.291   4.507  -1.077  1.00  0.00    -0.355 N 
HETATM   14  N8  UNL     1       4.813   2.874  -0.444  1.00  0.00    -0.299 N 
HETATM   15  C21 UNL     1       6.971   3.605  -0.214  1.00  0.00     0.107 A 
ATOM     16  H4  UNL     1       6.593   5.445  -1.341  1.00  0.00     0.162 HD
HETATM   17  C22 UNL     1       8.219   3.370   0.377  1.00  0.00     0.096 A 
HETATM   18  C24 UNL     1       6.091   2.606   0.185  1.00  0.00     0.166 A 
HETATM   19  C23 UNL     1       8.048   2.222   1.124  1.00  0.00     0.158 A 
HETATM   20  N7  UNL     1       6.788   1.787   1.000  1.00  0.00    -0.214 N 
BRANCH  17  21
HETATM   21  N5  UNL     1       9.405   4.130   0.234  1.00  0.00    -0.304 N 
ATOM     22  H5  UNL     1       9.413   4.954  -0.367  1.00  0.00     0.186 HD
BRANCH  21  23
HETATM   23  N6  UNL     1      10.561   3.752   0.914  1.00  0.00    -0.345 N 
ATOM     24  H62 UNL     1      10.536   2.925   1.511  1.00  0.00     0.176 HD
ATOM     25  H61 UNL     1      11.415   4.300   0.811  1.00  0.00     0.176 HD
ENDBRANCH  21  23
ENDBRANCH  17  21
BRANCH  20  26
HETATM   26  O7  UNL     1       6.293   0.669   1.625  1.00  0.00    -0.281 OA
ATOM     27  H7  UNL     1       5.399   0.360   1.537  1.00  0.00     0.245 HD
ENDBRANCH  20  26
ENDBRANCH   8   9
BRANCH   1  28
HETATM   28  N1  UNL     1       3.543  -1.226  -0.241  1.00  0.00    -0.327 N 
HETATM   29  C2  UNL     1       4.633  -2.142  -0.351  1.00  0.00     0.360 C 
HETATM   30  O2  UNL     1       5.672  -1.803  -1.020  1.00  0.00    -0.239 OA
ATOM     31  H1  UNL     1       2.715  -1.494   0.290  1.00  0.00     0.165 HD
BRANCH  29  32
HETATM   32  O1  UNL     1       4.672  -3.380   0.209  1.00  0.00    -0.309 OA
HETATM   33  C1  UNL     1       5.677  -4.335   0.162  1.00  0.00     0.215 C 
ENDBRANCH  29  32
ENDBRANCH   1  28
BRANCH   6  34
HETATM   34  C16 UNL     1      -0.234   1.238   1.226  1.00  0.00     0.228 C 
HETATM   35  O5  UNL     1      -1.398   0.930   1.599  1.00  0.00    -0.643 OA
HETATM   36  O6  UNL     1       0.396   2.349   1.734  1.00  0.00    -0.643 OA
ENDBRANCH   6  34
BRANCH   5  37
HETATM   37  S2  UNL     1      -1.867  -0.970   0.359  1.00  0.00    -0.118 SA
BRANCH  37  38
HETATM   38  C7  UNL     1      -2.582  -2.244  -0.697  1.00  0.00     0.182 C 
BRANCH  38  39
HETATM   39  C8  UNL     1      -3.905  -2.641  -0.148  1.00  0.00     0.227 C 
HETATM   40  O3  UNL     1      -4.070  -3.714   0.423  1.00  0.00    -0.273 OA
HETATM   41  N2  UNL     1      -5.030  -1.731  -0.292  1.00  0.00    -0.360 N 
ATOM     42  H2  UNL     1      -4.950  -0.825  -0.753  1.00  0.00     0.162 HD
BRANCH  41  43
HETATM   43  C9  UNL     1      -6.290  -2.221   0.279  1.00  0.00     0.122 C 
BRANCH  43  44
HETATM   44  C10 UNL     1      -7.331  -1.154   0.069  1.00  0.00     0.020 C 
BRANCH  44  45
HETATM   45  C11 UNL     1      -8.667  -1.674   0.642  1.00  0.00     0.002 C 
BRANCH  45  46
HETATM   46  C12 UNL     1      -9.646  -0.572   0.457  1.00  0.00     0.002 C 
BRANCH  46  47
HETATM   47  C13 UNL     1     -11.038  -0.815   0.927  1.00  0.00     0.026 C 
BRANCH  47  48
HETATM   48  C14 UNL     1     -11.770  -1.937   0.286  1.00  0.00     0.164 C 
BRANCH  48  49
HETATM   49  O4  UNL     1     -11.185  -3.172   0.441  1.00  0.00    -0.401 OA
ATOM     50  H4  UNL     1     -11.653  -3.890   0.031  1.00  0.00     0.209 HD
ENDBRANCH  48  49
ENDBRANCH  47  48
ENDBRANCH  46  47
ENDBRANCH  45  46
ENDBRANCH  44  45
ENDBRANCH  43  44
ENDBRANCH  41  43
ENDBRANCH  38  39
ENDBRANCH  37  38
ENDBRANCH   5  37
TORSDOF 17
