REMARK  8 active torsions:
REMARK  status: ('A' for Active; 'I' for Inactive)
REMARK    1  A    between atoms: C2_2  and  C3_3 
REMARK    2  A    between atoms: C3_3  and  N1_4 
REMARK    3  A    between atoms: N1_4  and  C4_6 
REMARK    4  A    between atoms: C4_6  and  N2_8 
REMARK    5  A    between atoms: C7_11  and  N3_12 
REMARK    6  A    between atoms: N3_12  and  C8_15 
REMARK    7  A    between atoms: C8_15  and  C9_16 
REMARK    8  A    between atoms: C9_16  and  C10_17 
ROOT
HETATM    1  N3  UNL     1       0.736   0.665   0.915  1.00  0.00    -0.069 N 
ATOM      2  H31 UNL     1       1.181   1.549   1.162  1.00  0.00     0.277 HD
ATOM      3  H32 UNL     1       0.940   0.141   1.766  1.00  0.00     0.277 HD
ENDROOT
BRANCH   1   4
HETATM    4  C7  UNL     1       1.354   0.074  -0.217  1.00  0.00     0.205 C 
HETATM    5  C6  UNL     1       2.130  -1.184   0.084  1.00  0.00     0.054 C 
HETATM    6  C5  UNL     1       3.552  -0.646   0.339  1.00  0.00     0.127 C 
HETATM    7  N2  UNL     1       3.694   0.441  -0.560  1.00  0.00    -0.356 N 
HETATM    8  C20 UNL     1       2.332   0.982  -0.852  1.00  0.00     0.158 C 
BRANCH   7   9
HETATM    9  C4  UNL     1       4.792   1.075  -1.145  1.00  0.00     0.170 C 
HETATM   10  S1  UNL     1       4.513   2.332  -2.223  1.00  0.00    -0.041 SA
BRANCH   9  11
HETATM   11  N1  UNL     1       6.127   0.779  -0.936  1.00  0.00    -0.364 N 
ATOM     12  H1  UNL     1       6.798   1.344  -1.457  1.00  0.00     0.162 HD
BRANCH  11  13
HETATM   13  C3  UNL     1       6.694  -0.246  -0.059  1.00  0.00     0.148 C 
BRANCH  13  14
HETATM   14  C2  UNL     1       8.151   0.012   0.024  1.00  0.00    -0.018 C 
HETATM   15  C1  UNL     1       9.037  -0.854  -0.430  1.00  0.00     0.008 C 
ENDBRANCH  13  14
ENDBRANCH  11  13
ENDBRANCH   9  11
ENDBRANCH   7   9
ENDBRANCH   1   4
BRANCH   1  16
HETATM   16  C8  UNL     1      -0.664   0.824   0.729  1.00  0.00     0.233 C 
BRANCH  16  17
HETATM   17  C9  UNL     1      -1.416  -0.452   0.643  1.00  0.00     0.037 C 
BRANCH  17  18
HETATM   18  C10 UNL     1      -2.901  -0.170   0.424  1.00  0.00    -0.038 C 
HETATM   19  C11 UNL     1      -3.514   0.637   1.515  1.00  0.00     0.014 C 
HETATM   20  C12 UNL     1      -4.983   0.856   1.149  1.00  0.00    -0.013 C 
HETATM   21  C13 UNL     1      -5.650  -0.488   1.255  1.00  0.00     0.009 C 
HETATM   22  C17 UNL     1      -5.112   1.483  -0.214  1.00  0.00     0.009 C 
HETATM   23  C14 UNL     1      -5.049  -1.390   0.219  1.00  0.00    -0.013 C 
HETATM   24  C15 UNL     1      -5.284  -0.772  -1.151  1.00  0.00     0.009 C 
HETATM   25  C19 UNL     1      -3.566  -1.557   0.465  1.00  0.00     0.014 C 
HETATM   26  C16 UNL     1      -4.557   0.525  -1.241  1.00  0.00    -0.013 C 
HETATM   27  C18 UNL     1      -3.073   0.396  -0.937  1.00  0.00     0.014 C 
ENDBRANCH  17  18
ENDBRANCH  16  17
ENDBRANCH   1  16
TORSDOF 8
