REMARK  6 active torsions:
REMARK  status: ('A' for Active; 'I' for Inactive)
REMARK    1  A    between atoms: C2_2  and  C3_3 
REMARK    2  A    between atoms: C3_3  and  C4_4 
REMARK    3  A    between atoms: C4_4  and  C5_5 
REMARK    4  A    between atoms: C5_5  and  C6_6 
REMARK    5  A    between atoms: C9_9  and  N1_10 
REMARK       I    between atoms: N2_13  and  C12_14 
REMARK       I    between atoms: C12_14  and  N3_16 
REMARK    6  A    between atoms: N3_16  and  C13_18 
ROOT
HETATM    1  N1  UNL     1       0.439   0.753  -0.652  1.00  0.00     0.112 N 
HETATM    2  C10 UNL     1       1.189   0.632  -1.848  1.00  0.00     0.295 C 
HETATM    3  C11 UNL     1       2.389  -0.237  -1.525  1.00  0.00     0.159 C 
HETATM    4  N2  UNL     1       2.355  -0.294  -0.083  1.00  0.00    -0.306 N 
HETATM    5  C12 UNL     1       3.453  -0.363   0.798  1.00  0.00     0.320 C 
HETATM    6  O1  UNL     1       3.222  -0.413   2.031  1.00  0.00    -0.247 OA
HETATM    7  N3  UNL     1       4.805  -0.378   0.367  1.00  0.00    -0.337 N 
ATOM      8  H3  UNL     1       4.997  -0.338  -0.634  1.00  0.00     0.164 HD
HETATM    9  C18 UNL     1       0.927  -0.257   0.267  1.00  0.00     0.402 C 
ENDROOT
BRANCH   7  10
HETATM   10  C13 UNL     1       5.922  -0.448   1.282  1.00  0.00     0.111 C 
HETATM   11  C14 UNL     1       6.652  -1.745   1.094  1.00  0.00     0.028 C 
HETATM   12  C15 UNL     1       7.835  -1.635   0.175  1.00  0.00     0.029 C 
HETATM   13  C16 UNL     1       8.728  -0.538   0.765  1.00  0.00     0.232 C 
HETATM   14  N4  UNL     1       7.986   0.697   0.528  1.00  0.00    -0.073 N 
HETATM   15  C17 UNL     1       6.770   0.776   1.266  1.00  0.00     0.257 C 
ATOM     16  H42 UNL     1       8.572   1.512   0.708  1.00  0.00     0.277 HD
ATOM     17  H41 UNL     1       7.814   0.830  -0.469  1.00  0.00     0.277 HD
ENDBRANCH   7  10
BRANCH   1  18
HETATM   18  C9  UNL     1      -0.967   0.851  -0.767  1.00  0.00     0.225 C 
HETATM   19  C8  UNL     1      -1.670  -0.337  -1.364  1.00  0.00     0.036 C 
HETATM   20  C7  UNL     1      -3.153  -0.296  -0.955  1.00  0.00     0.007 C 
HETATM   21  C6  UNL     1      -3.579   1.137  -0.952  1.00  0.00    -0.014 C 
HETATM   22  C20 UNL     1      -2.987   1.822   0.265  1.00  0.00     0.007 C 
HETATM   23  C19 UNL     1      -1.659   1.133   0.551  1.00  0.00     0.036 C 
BRANCH  21  24
HETATM   24  C5  UNL     1      -5.050   1.367  -1.076  1.00  0.00     0.004 C 
BRANCH  24  25
HETATM   25  C4  UNL     1      -5.876   0.760   0.029  1.00  0.00     0.000 C 
BRANCH  25  26
HETATM   26  C3  UNL     1      -7.331   1.095  -0.253  1.00  0.00    -0.000 C 
BRANCH  26  27
HETATM   27  C2  UNL     1      -8.268   0.557   0.775  1.00  0.00    -0.005 C 
HETATM   28  C1  UNL     1      -8.205  -0.944   0.882  1.00  0.00     0.005 C 
ENDBRANCH  26  27
ENDBRANCH  25  26
ENDBRANCH  24  25
ENDBRANCH  21  24
ENDBRANCH   1  18
TORSDOF 6
