REMARK  8 active torsions:
REMARK  status: ('A' for Active; 'I' for Inactive)
REMARK    1  A    between atoms: C2_2  and  C3_3 
REMARK    2  A    between atoms: C3_3  and  N1_5 
REMARK    3  A    between atoms: C3_3  and  C16_20 
REMARK    4  A    between atoms: N1_5  and  C5_7 
REMARK    5  A    between atoms: C5_7  and  C6_8 
REMARK    6  A    between atoms: C6_8  and  C7_9 
REMARK    7  A    between atoms: C16_20  and  O1_21 
REMARK    8  A    between atoms: C16_20  and  N3_23 
ROOT
HETATM    1  N1  UNL     1      -0.950  -0.233   0.355  1.00  0.00    -0.386 N 
ATOM      2  H1  UNL     1      -1.155   0.051   1.313  1.00  0.00     0.159 HD
ENDROOT
BRANCH   1   3
HETATM    3  C3  UNL     1      -1.777   0.226  -0.781  1.00  0.00     0.090 C 
HETATM    4  C4  UNL     1      -1.808  -0.751  -1.865  1.00  0.00     0.047 C 
BRANCH   3   5
HETATM    5  C2  UNL     1      -1.030   1.456  -1.360  1.00  0.00     0.035 C 
HETATM    6  C1  UNL     1      -0.997   2.598  -0.378  1.00  0.00     0.008 C 
ENDBRANCH   3   5
BRANCH   3   7
HETATM    7  C16 UNL     1      -3.045   0.746  -0.333  1.00  0.00     0.142 C 
BRANCH   7   8
HETATM    8  O1  UNL     1      -3.289   2.030  -0.542  1.00  0.00    -0.348 OA
ATOM      9  H1  UNL     1      -4.124   2.373  -0.247  1.00  0.00     0.219 HD
ENDBRANCH   7   8
BRANCH   7  10
HETATM   10  N3  UNL     1      -4.085   0.119   0.323  1.00  0.00    -0.363 N 
HETATM   11  C17 UNL     1      -5.103   1.007   0.934  1.00  0.00     0.124 C 
HETATM   12  C18 UNL     1      -6.438   0.740   0.290  1.00  0.00     0.020 C 
HETATM   13  C19 UNL     1      -6.731  -0.731   0.507  1.00  0.00     0.003 C 
HETATM   14  C20 UNL     1      -5.708  -1.595  -0.144  1.00  0.00     0.020 C 
HETATM   15  C21 UNL     1      -4.323  -1.257   0.478  1.00  0.00     0.124 C 
ENDBRANCH   7  10
ENDBRANCH   3   7
ENDBRANCH   1   3
BRANCH   1  16
HETATM   16  C5  UNL     1       0.117  -1.066   0.059  1.00  0.00     0.061 C 
BRANCH  16  17
HETATM   17  C6  UNL     1       1.373  -0.707  -0.577  1.00  0.00     0.084 C 
BRANCH  17  18
HETATM   18  C7  UNL     1       2.410   0.029   0.128  1.00  0.00    -0.030 A 
HETATM   19  C8  UNL     1       2.387   1.253   0.732  1.00  0.00     0.096 A 
HETATM   20  N2  UNL     1       3.570   1.532   1.354  1.00  0.00    -0.368 N 
HETATM   21  C9  UNL     1       4.355   0.491   1.160  1.00  0.00     0.015 A 
ATOM     22  H2  UNL     1       3.801   2.381   1.869  1.00  0.00     0.165 HD
HETATM   23  C10 UNL     1       3.704  -0.446   0.433  1.00  0.00    -0.028 A 
HETATM   24  C15 UNL     1       5.789   0.456   1.630  1.00  0.00     0.057 C 
HETATM   25  C11 UNL     1       4.224  -1.761   0.012  1.00  0.00     0.041 C 
HETATM   26  C12 UNL     1       5.743  -1.734  -0.101  1.00  0.00     0.005 C 
HETATM   27  C13 UNL     1       6.204  -0.416  -0.674  1.00  0.00     0.001 C 
HETATM   28  C14 UNL     1       6.685   0.548   0.385  1.00  0.00     0.006 C 
ENDBRANCH  17  18
ENDBRANCH  16  17
ENDBRANCH   1  16
TORSDOF 8
