REMARK  7 active torsions:
REMARK  status: ('A' for Active; 'I' for Inactive)
REMARK    1  A    between atoms: N1_2  and  C3_4 
REMARK    2  A    between atoms: C3_4  and  C4_5 
REMARK    3  A    between atoms: C4_5  and  C5_6 
REMARK    4  A    between atoms: C4_5  and  N3_14 
REMARK    5  A    between atoms: C5_6  and  N2_7 
REMARK       I    between atoms: N2_7  and  C6_9 
REMARK    6  A    between atoms: C6_9  and  C7_11 
REMARK    7  A    between atoms: N3_14  and  C10_16 
ROOT
HETATM    1  N3  UNL     1      -0.264   0.707   0.730  1.00  0.00    -0.409 N 
ATOM      2  H3  UNL     1      -0.646   1.448   1.317  1.00  0.00     0.154 HD
ENDROOT
BRANCH   1   3
HETATM    3  C4  UNL     1       1.044   0.780   0.187  1.00  0.00     0.123 C 
BRANCH   3   4
HETATM    4  C3  UNL     1       1.830   1.894   0.846  1.00  0.00     0.297 C 
BRANCH   4   5
HETATM    5  N1  UNL     1       1.136   3.158   0.823  1.00  0.00     0.082 N 
HETATM    6  C1  UNL     1       1.092   3.581  -0.579  1.00  0.00     0.309 C 
HETATM    7  C2  UNL     1       2.009   4.126   1.496  1.00  0.00     0.309 C 
ENDBRANCH   4   5
ENDBRANCH   3   4
BRANCH   3   8
HETATM    8  C5  UNL     1       1.865  -0.471   0.277  1.00  0.00     0.149 C 
BRANCH   8   9
HETATM    9  N2  UNL     1       3.140  -0.346  -0.384  1.00  0.00    -0.359 N 
HETATM   10  C6  UNL     1       4.040  -1.440  -0.401  1.00  0.00     0.221 C 
HETATM   11  O1  UNL     1       3.702  -2.506   0.167  1.00  0.00    -0.273 OA
ATOM     12  H2  UNL     1       3.394   0.530  -0.840  1.00  0.00     0.162 HD
BRANCH  10  13
HETATM   13  C7  UNL     1       5.361  -1.377  -1.062  1.00  0.00     0.078 A 
HETATM   14  C8  UNL     1       6.490  -2.156  -0.383  1.00  0.00     0.015 A 
HETATM   15  C9  UNL     1       5.945  -2.599  -1.679  1.00  0.00     0.015 A 
ENDBRANCH  10  13
ENDBRANCH   8   9
ENDBRANCH   3   8
ENDBRANCH   1   3
BRANCH   1  16
HETATM   16  C10 UNL     1      -1.010  -0.454   0.410  1.00  0.00     0.085 C 
HETATM   17  C11 UNL     1      -1.315  -0.688  -1.027  1.00  0.00     0.009 C 
HETATM   18  C12 UNL     1      -1.707  -2.173  -1.133  1.00  0.00     0.011 C 
HETATM   19  C16 UNL     1      -2.454   0.089  -1.593  1.00  0.00     0.012 C 
HETATM   20  C13 UNL     1      -2.968  -2.427  -0.317  1.00  0.00    -0.013 C 
HETATM   21  C14 UNL     1      -4.067  -1.618  -0.945  1.00  0.00     0.010 C 
HETATM   22  C21 UNL     1      -2.686  -2.048   1.101  1.00  0.00     0.012 C 
HETATM   23  C15 UNL     1      -3.712  -0.160  -0.784  1.00  0.00    -0.006 C 
HETATM   24  C17 UNL     1      -3.429   0.225   0.635  1.00  0.00    -0.038 C 
HETATM   25  C18 UNL     1      -4.682  -0.105   1.441  1.00  0.00     0.015 C 
HETATM   26  C19 UNL     1      -3.243   1.709   0.723  1.00  0.00     0.015 C 
HETATM   27  C20 UNL     1      -2.299  -0.568   1.215  1.00  0.00     0.017 C 
ENDBRANCH   1  16
TORSDOF 7
