REMARK  5 active torsions:
REMARK  status: ('A' for Active; 'I' for Inactive)
REMARK    1  A    between atoms: C2_2  and  C3_3 
REMARK    2  A    between atoms: N1_8  and  C8_9 
REMARK    3  A    between atoms: C8_9  and  C9_10 
REMARK    4  A    between atoms: C9_10  and  C10_11 
REMARK    5  A    between atoms: C10_11  and  C11_12 
ROOT
HETATM    1  C3  UNL     1      -0.020   2.438   0.014  1.00  0.00     0.042 C 
HETATM    2  C4  UNL     1      -1.126   2.204   0.919  1.00  0.00     0.020 C 
HETATM    3  C5  UNL     1      -1.418   0.814   1.383  1.00  0.00     0.024 C 
HETATM    4  C6  UNL     1      -0.268   0.008   1.816  1.00  0.00     0.039 C 
HETATM    5  C7  UNL     1       1.087   0.436   1.413  1.00  0.00     0.273 C 
HETATM    6  N1  UNL     1       1.364   0.412  -0.003  1.00  0.00     0.094 N 
HETATM    7  C13 UNL     1       0.511   1.275  -0.775  1.00  0.00     0.236 C 
HETATM    8  C14 UNL     1      -0.485   0.603  -1.639  1.00  0.00     0.094 C 
HETATM    9  C15 UNL     1      -1.661   0.040  -0.996  1.00  0.00     0.019 A 
HETATM   10  N2  UNL     1      -2.542  -0.689  -1.681  1.00  0.00    -0.361 N 
ATOM     11  H2  UNL     1      -2.470  -0.902  -2.676  1.00  0.00     0.165 HD
HETATM   12  C16 UNL     1      -3.548  -1.109  -0.872  1.00  0.00     0.027 A 
HETATM   13  C17 UNL     1      -3.304  -0.626   0.398  1.00  0.00     0.063 A 
HETATM   14  C18 UNL     1      -2.122   0.089   0.300  1.00  0.00    -0.014 A 
HETATM   15  C19 UNL     1      -4.174  -0.895   1.516  1.00  0.00     0.254 C 
HETATM   16  O1  UNL     1      -3.967  -0.471   2.649  1.00  0.00    -0.268 OA
HETATM   17  N3  UNL     1      -5.331  -1.703   1.253  1.00  0.00    -0.356 N 
ATOM     18  H3  UNL     1      -6.148  -1.657   1.862  1.00  0.00     0.162 HD
HETATM   19  C20 UNL     1      -5.313  -2.588   0.101  1.00  0.00     0.129 C 
HETATM   20  C21 UNL     1      -4.760  -1.916  -1.115  1.00  0.00     0.078 C 
ENDROOT
BRANCH   6  21
HETATM   21  C8  UNL     1       2.749   0.703  -0.258  1.00  0.00     0.273 C 
BRANCH  21  22
HETATM   22  C9  UNL     1       3.734  -0.298   0.167  1.00  0.00     0.030 C 
BRANCH  22  23
HETATM   23  C10 UNL     1       3.496  -1.617  -0.517  1.00  0.00     0.001 C 
BRANCH  23  24
HETATM   24  C11 UNL     1       4.536  -2.607  -0.047  1.00  0.00    -0.005 C 
HETATM   25  C12 UNL     1       5.916  -2.107  -0.387  1.00  0.00     0.005 C 
ENDBRANCH  23  24
ENDBRANCH  22  23
ENDBRANCH  21  22
ENDBRANCH   6  21
BRANCH   1  26
HETATM   26  C2  UNL     1      -0.375   3.509  -0.969  1.00  0.00    -0.030 C 
HETATM   27  C1  UNL     1       0.191   4.706  -0.937  1.00  0.00     0.007 C 
ENDBRANCH   1  26
TORSDOF 5
