REMARK  11 active torsions:
REMARK  status: ('A' for Active; 'I' for Inactive)
REMARK    1  A    between atoms: C3_3  and  C4_4 
REMARK    2  A    between atoms: C4_4  and  O1_5 
REMARK    3  A    between atoms: N1_8  and  S1_9 
REMARK    4  A    between atoms: S1_9  and  C6_12 
REMARK    5  A    between atoms: C16_22  and  C17_23 
REMARK    6  A    between atoms: C17_23  and  C18_24 
REMARK    7  A    between atoms: C17_23  and  C19_27 
REMARK    8  A    between atoms: C18_24  and  O4_25 
REMARK    9  A    between atoms: C19_27  and  C20_28 
REMARK   10  A    between atoms: C20_28  and  C21_29 
REMARK   11  A    between atoms: C21_29  and  C22_30 
ROOT
HETATM    1  C1  UNL     1      -3.197  -0.811   4.520  1.00  0.00     0.112 C 
HETATM    2  C2  UNL     1      -2.645  -0.732   3.173  1.00  0.00    -0.105 C 
HETATM    3  C3  UNL     1      -2.188  -0.688   2.044  1.00  0.00    -0.033 C 
ENDROOT
BRANCH   3   4
HETATM    4  C4  UNL     1      -1.610  -0.652   0.673  1.00  0.00     0.267 C 
HETATM    5  C5  UNL     1      -2.737  -0.713  -0.284  1.00  0.00     0.158 C 
HETATM    6  N1  UNL     1      -3.435   0.509  -0.331  1.00  0.00    -0.283 N 
HETATM    7  C10 UNL     1      -2.616   1.643  -0.677  1.00  0.00     0.144 C 
HETATM    8  C11 UNL     1      -1.394   1.237  -1.471  1.00  0.00     0.064 C 
HETATM    9  C12 UNL     1      -0.262   0.817  -0.559  1.00  0.00     0.089 C 
HETATM   10  C13 UNL     1       0.498  -0.223  -1.270  1.00  0.00     0.018 C 
HETATM   11  C25 UNL     1       0.579   2.004  -0.278  1.00  0.00     0.070 C 
HETATM   12  O5  UNL     1      -0.680   0.277   0.621  1.00  0.00    -0.325 OA
HETATM   13  C14 UNL     1       1.778  -0.224  -1.497  1.00  0.00    -0.056 C 
HETATM   14  C15 UNL     1       2.347  -1.378  -2.234  1.00  0.00     0.048 C 
HETATM   15  C16 UNL     1       2.598   0.900  -1.120  1.00  0.00    -0.050 C 
HETATM   16  C24 UNL     1       2.020   1.935  -0.550  1.00  0.00    -0.015 C 
BRANCH   4  17
HETATM   17  O1  UNL     1      -0.956  -1.915   0.577  1.00  0.00    -0.351 OA
ATOM     18  H1  UNL     1      -0.587  -1.892  -0.298  1.00  0.00     0.214 HD
ENDBRANCH   4  17
BRANCH   6  19
HETATM   19  S1  UNL     1      -4.974   0.547  -1.001  1.00  0.00     0.239 S 
HETATM   20  O2  UNL     1      -4.872   0.003  -2.426  1.00  0.00    -0.205 OA
HETATM   21  O3  UNL     1      -5.539   1.938  -1.130  1.00  0.00    -0.205 OA
BRANCH  19  22
HETATM   22  C6  UNL     1      -6.207  -0.431  -0.204  1.00  0.00     0.072 C 
HETATM   23  C7  UNL     1      -6.323   0.041   1.235  1.00  0.00     0.033 C 
HETATM   24  C8  UNL     1      -7.575  -0.193  -0.883  1.00  0.00     0.033 C 
HETATM   25  C9  UNL     1      -5.976  -1.895  -0.236  1.00  0.00     0.033 C 
ENDBRANCH  19  22
ENDBRANCH   6  19
BRANCH  15  26
HETATM   26  C17 UNL     1       4.088   0.963  -1.395  1.00  0.00     0.042 C 
BRANCH  26  27
HETATM   27  C18 UNL     1       4.611   2.318  -1.114  1.00  0.00     0.173 C 
BRANCH  27  28
HETATM   28  O4  UNL     1       5.964   2.475  -1.407  1.00  0.00    -0.400 OA
ATOM     29  H4  UNL     1       6.300   3.345  -1.227  1.00  0.00     0.209 HD
ENDBRANCH  27  28
ENDBRANCH  26  27
BRANCH  26  30
HETATM   30  C19 UNL     1       4.688  -0.100  -0.481  1.00  0.00     0.011 C 
BRANCH  30  31
HETATM   31  C20 UNL     1       6.161  -0.254  -0.562  1.00  0.00     0.001 C 
BRANCH  31  32
HETATM   32  C21 UNL     1       6.780  -1.362   0.224  1.00  0.00    -0.000 C 
BRANCH  32  33
HETATM   33  C22 UNL     1       6.663  -1.379   1.689  1.00  0.00    -0.005 C 
HETATM   34  C23 UNL     1       5.304  -1.509   2.275  1.00  0.00     0.005 C 
ENDBRANCH  32  33
ENDBRANCH  31  32
ENDBRANCH  30  31
ENDBRANCH  26  30
ENDBRANCH  15  26
ENDBRANCH   3   4
TORSDOF 11
