REMARK  8 active torsions:
REMARK  status: ('A' for Active; 'I' for Inactive)
REMARK    1  A    between atoms: C2_2  and  C3_3 
REMARK    2  A    between atoms: C3_3  and  C4_4 
REMARK    3  A    between atoms: C3_3  and  C7_7 
REMARK    4  A    between atoms: C14_15  and  C15_16 
REMARK    5  A    between atoms: C15_16  and  C16_17 
REMARK       I    between atoms: C16_17  and  N1_19 
REMARK    6  A    between atoms: N1_19  and  C17_21 
REMARK    7  A    between atoms: C17_21  and  C20_24 
REMARK    8  A    between atoms: C20_24  and  O3_25 
ROOT
HETATM    1  C7  UNL     1      -3.406  -0.508   0.079  1.00  0.00     0.204 C 
HETATM    2  O1  UNL     1      -2.708   0.367  -0.659  1.00  0.00    -0.371 OA
HETATM    3  C8  UNL     1      -2.152   1.512  -0.141  1.00  0.00     0.139 C 
HETATM    4  C9  UNL     1      -1.593   2.215  -1.325  1.00  0.00     0.034 C 
HETATM    5  C10 UNL     1      -0.373   3.022  -1.235  1.00  0.00     0.007 C 
HETATM    6  C11 UNL     1       0.918   2.320  -1.002  1.00  0.00    -0.014 C 
HETATM    7  C12 UNL     1       1.886   3.201  -0.249  1.00  0.00     0.010 C 
HETATM    8  C13 UNL     1       0.737   0.967  -0.381  1.00  0.00    -0.001 C 
HETATM    9  C14 UNL     1       2.125   0.428   0.020  1.00  0.00    -0.001 C 
HETATM   10  C21 UNL     1       1.693  -0.845   0.730  1.00  0.00     0.006 C 
HETATM   11  C22 UNL     1       0.317  -0.552   1.307  1.00  0.00     0.007 C 
HETATM   12  C23 UNL     1       0.080   0.907   0.930  1.00  0.00     0.009 C 
HETATM   13  C24 UNL     1      -1.305   1.354   1.071  1.00  0.00     0.055 C 
HETATM   14  C25 UNL     1      -1.346   2.663   1.893  1.00  0.00     0.027 C 
HETATM   15  C26 UNL     1      -1.993   0.394   1.967  1.00  0.00     0.208 C 
HETATM   16  O4  UNL     1      -1.640   0.296   3.160  1.00  0.00    -0.288 OA
HETATM   17  C27 UNL     1      -3.068  -0.436   1.505  1.00  0.00     0.224 C 
HETATM   18  O5  UNL     1      -3.736  -1.119   2.338  1.00  0.00    -0.286 OA
ENDROOT
BRANCH   9  19
HETATM   19  C15 UNL     1       2.905  -0.016  -1.185  1.00  0.00     0.108 C 
BRANCH  19  20
HETATM   20  C16 UNL     1       4.236  -0.511  -0.692  1.00  0.00     0.218 C 
HETATM   21  O2  UNL     1       4.534  -0.423   0.525  1.00  0.00    -0.274 OA
HETATM   22  N1  UNL     1       5.167  -1.081  -1.585  1.00  0.00    -0.350 N 
ATOM     23  H1  UNL     1       4.871  -1.123  -2.560  1.00  0.00     0.163 HD
BRANCH  22  24
HETATM   24  C17 UNL     1       6.455  -1.603  -1.315  1.00  0.00     0.046 C 
HETATM   25  C18 UNL     1       7.315  -0.532  -0.671  1.00  0.00     0.040 C 
HETATM   26  C19 UNL     1       7.181  -1.911  -2.656  1.00  0.00     0.040 C 
BRANCH  24  27
HETATM   27  C20 UNL     1       6.526  -2.856  -0.492  1.00  0.00     0.194 C 
BRANCH  27  28
HETATM   28  O3  UNL     1       5.999  -2.769   0.779  1.00  0.00    -0.398 OA
ATOM     29  H3  UNL     1       6.044  -3.562   1.300  1.00  0.00     0.209 HD
ENDBRANCH  27  28
ENDBRANCH  24  27
ENDBRANCH  22  24
ENDBRANCH  19  20
ENDBRANCH   9  19
BRANCH   1  30
HETATM   30  C3  UNL     1      -4.891  -0.540  -0.209  1.00  0.00     0.025 C 
BRANCH  30  31
HETATM   31  C2  UNL     1      -5.622   0.722   0.039  1.00  0.00     0.003 C 
HETATM   32  C1  UNL     1      -5.904   1.033   1.473  1.00  0.00     0.005 C 
ENDBRANCH  30  31
BRANCH  30  33
HETATM   33  C4  UNL     1      -5.598  -1.776   0.271  1.00  0.00    -0.016 C 
HETATM   34  C5  UNL     1      -6.967  -1.892  -0.450  1.00  0.00     0.010 C 
HETATM   35  C6  UNL     1      -4.862  -3.041  -0.098  1.00  0.00     0.010 C 
ENDBRANCH  30  33
ENDBRANCH   1  30
TORSDOF 8
