REMARK  11 active torsions:
REMARK  status: ('A' for Active; 'I' for Inactive)
REMARK    1  A    between atoms: C2_2  and  N1_3 
REMARK    2  A    between atoms: C3_5  and  N2_6 
REMARK    3  A    between atoms: C3_5  and  O4_32 
REMARK    4  A    between atoms: N2_6  and  C4_8 
REMARK    5  A    between atoms: C4_8  and  C5_9 
REMARK    6  A    between atoms: C4_8  and  C12_16 
REMARK    7  A    between atoms: C5_9  and  C6_10 
REMARK       I    between atoms: C12_16  and  N3_18 
REMARK    8  A    between atoms: C16_22  and  C18_24 
REMARK    9  A    between atoms: C18_24  and  O2_25 
REMARK   10  A    between atoms: O2_25  and  C19_26 
REMARK       I    between atoms: C19_26  and  N4_28 
REMARK   11  A    between atoms: O4_32  and  C22_33 
ROOT
HETATM    1  C4  UNL     1      -0.626   0.243  -0.410  1.00  0.00     0.177 C 
ENDROOT
BRANCH   1   2
HETATM    2  N2  UNL     1      -1.566  -0.618  -1.077  1.00  0.00    -0.343 N 
ATOM      3  H2  UNL     1      -1.211  -1.040  -1.935  1.00  0.00     0.164 HD
BRANCH   2   4
HETATM    4  C3  UNL     1      -2.868  -0.977  -0.763  1.00  0.00     0.216 C 
HETATM    5  N1  UNL     1      -3.860  -0.873  -1.597  1.00  0.00    -0.357 N 
ATOM      6  H1  UNL     1      -4.802  -1.150  -1.322  1.00  0.00     0.163 HD
BRANCH   5   7
HETATM    7  C2  UNL     1      -3.596  -0.350  -2.939  1.00  0.00     0.118 C 
HETATM    8  C1  UNL     1      -3.215  -1.475  -3.879  1.00  0.00     0.026 C 
ENDBRANCH   5   7
BRANCH   4   9
HETATM    9  O4  UNL     1      -3.220  -1.479   0.461  1.00  0.00    -0.312 OA
BRANCH   9  10
HETATM   10  C22 UNL     1      -4.238  -2.353   0.759  1.00  0.00     0.060 C 
HETATM   11  C23 UNL     1      -4.226  -2.616   2.266  1.00  0.00     0.046 C 
HETATM   12  C24 UNL     1      -3.942  -3.684   0.094  1.00  0.00     0.046 C 
HETATM   13  C25 UNL     1      -5.622  -1.948   0.395  1.00  0.00     0.046 C 
ENDBRANCH   9  10
ENDBRANCH   4   9
ENDBRANCH   2   4
ENDBRANCH   1   2
BRANCH   1  14
HETATM   14  C5  UNL     1      -1.059   1.668  -0.454  1.00  0.00     0.039 C 
BRANCH  14  15
HETATM   15  C6  UNL     1      -2.316   2.052   0.226  1.00  0.00    -0.012 C 
HETATM   16  C7  UNL     1      -2.305   1.801   1.714  1.00  0.00     0.005 C 
HETATM   17  C8  UNL     1      -3.292   2.754   2.349  1.00  0.00     0.000 C 
HETATM   18  C9  UNL     1      -4.426   3.129   1.407  1.00  0.00     0.000 C 
HETATM   19  C10 UNL     1      -3.891   3.918   0.219  1.00  0.00     0.000 C 
HETATM   20  C11 UNL     1      -2.438   3.586   0.087  1.00  0.00     0.005 C 
ENDBRANCH  14  15
ENDBRANCH   1  14
BRANCH   1  21
HETATM   21  C12 UNL     1       0.693   0.113  -1.077  1.00  0.00     0.242 C 
HETATM   22  O1  UNL     1       0.769  -0.515  -2.181  1.00  0.00    -0.271 OA
HETATM   23  N3  UNL     1       1.921   0.647  -0.568  1.00  0.00    -0.350 N 
HETATM   24  C13 UNL     1       1.956   1.324   0.719  1.00  0.00     0.126 C 
HETATM   25  C21 UNL     1       3.150   0.554  -1.309  1.00  0.00     0.137 C 
HETATM   26  C14 UNL     1       3.097   0.840   1.591  1.00  0.00     0.021 C 
HETATM   27  C15 UNL     1       3.843  -0.297   0.926  1.00  0.00     0.014 C 
HETATM   28  C16 UNL     1       4.350   0.129  -0.449  1.00  0.00    -0.006 C 
HETATM   29  C17 UNL     1       5.312   1.246  -0.305  1.00  0.00     0.019 C 
BRANCH  28  30
HETATM   30  C18 UNL     1       4.920  -1.089  -1.085  1.00  0.00     0.191 C 
BRANCH  30  31
HETATM   31  O2  UNL     1       5.926  -1.762  -0.487  1.00  0.00    -0.303 OA
BRANCH  31  32
HETATM   32  C19 UNL     1       7.222  -1.576  -0.232  1.00  0.00     0.360 C 
HETATM   33  O3  UNL     1       7.795  -0.516  -0.629  1.00  0.00    -0.239 OA
HETATM   34  N4  UNL     1       8.026  -2.547   0.491  1.00  0.00    -0.341 N 
HETATM   35  C20 UNL     1       9.413  -2.309   0.744  1.00  0.00     0.151 C 
ATOM     36  H4  UNL     1       7.595  -3.410   0.822  1.00  0.00     0.164 HD
ENDBRANCH  31  32
ENDBRANCH  30  31
ENDBRANCH  28  30
ENDBRANCH   1  21
TORSDOF 11
