REMARK  7 active torsions:
REMARK  status: ('A' for Active; 'I' for Inactive)
REMARK    1  A    between atoms: N1_2  and  C3_4 
REMARK    2  A    between atoms: C10_13  and  O3_14 
REMARK    3  A    between atoms: O3_14  and  C11_15 
REMARK    4  A    between atoms: C11_15  and  C12_17 
REMARK    5  A    between atoms: C12_17  and  O5_18 
REMARK    6  A    between atoms: C12_17  and  C13_20 
REMARK    7  A    between atoms: C13_20  and  O6_23 
ROOT
HETATM    1  C3  UNL     1      -1.530  -1.287  -0.164  1.00  0.00     0.112 C 
HETATM    2  C4  UNL     1      -2.840  -0.593   0.165  1.00  0.00     0.062 C 
HETATM    3  C5  UNL     1      -2.537   0.413   1.225  1.00  0.00     0.159 C 
HETATM    4  O1  UNL     1      -3.070   1.681   0.957  1.00  0.00    -0.348 OA
HETATM    5  C6  UNL     1      -2.256   2.272   0.012  1.00  0.00     0.158 C 
HETATM    6  C7  UNL     1      -1.720   3.631   0.445  1.00  0.00     0.078 C 
HETATM    7  C8  UNL     1      -3.057   2.508  -1.252  1.00  0.00     0.078 C 
HETATM    8  O2  UNL     1      -1.157   1.467  -0.196  1.00  0.00    -0.345 OA
HETATM    9  C9  UNL     1      -1.062   0.698   0.986  1.00  0.00     0.185 C 
HETATM   10  C10 UNL     1      -0.490  -0.655   0.727  1.00  0.00     0.186 C 
ENDROOT
BRANCH  10  11
HETATM   11  O3  UNL     1       0.705  -0.525   0.001  1.00  0.00    -0.309 OA
BRANCH  11  12
HETATM   12  C11 UNL     1       1.925  -1.015   0.427  1.00  0.00     0.291 C 
HETATM   13  O4  UNL     1       1.894  -1.612   1.550  1.00  0.00    -0.262 OA
BRANCH  12  14
HETATM   14  C12 UNL     1       3.154  -0.857  -0.357  1.00  0.00     0.251 C 
BRANCH  14  15
HETATM   15  O5  UNL     1       4.231  -1.486   0.269  1.00  0.00    -0.383 OA
ATOM     16  H5  UNL     1       5.027  -1.384  -0.239  1.00  0.00     0.210 HD
ENDBRANCH  14  15
BRANCH  14  17
HETATM   17  C13 UNL     1       3.522   0.587  -0.595  1.00  0.00     0.086 C 
HETATM   18  C14 UNL     1       3.930   1.286   0.682  1.00  0.00     0.049 C 
HETATM   19  C15 UNL     1       4.751   0.568  -1.504  1.00  0.00     0.049 C 
BRANCH  17  20
HETATM   20  O6  UNL     1       2.527   1.302  -1.214  1.00  0.00    -0.387 OA
ATOM     21  H6  UNL     1       2.759   2.211  -1.364  1.00  0.00     0.210 HD
ENDBRANCH  17  20
ENDBRANCH  14  17
ENDBRANCH  12  14
ENDBRANCH  11  12
ENDBRANCH  10  11
BRANCH   1  22
HETATM   22  N1  UNL     1      -1.697  -2.672   0.011  1.00  0.00    -0.414 N 
HETATM   23  C1  UNL     1      -1.999  -3.193   1.266  1.00  0.00     0.143 C 
HETATM   24  C2  UNL     1      -1.862  -3.475  -1.127  1.00  0.00     0.143 C 
ENDBRANCH   1  22
TORSDOF 7
