REMARK  7 active torsions:
REMARK  status: ('A' for Active; 'I' for Inactive)
REMARK       I    between atoms: C2_2  and  N1_4 
REMARK    1  A    between atoms: N1_4  and  C3_6 
REMARK    2  A    between atoms: C3_6  and  C5_9 
REMARK       I    between atoms: C5_9  and  N3_11 
REMARK    3  A    between atoms: N3_11  and  C6_13 
REMARK    4  A    between atoms: C6_13  and  N4_14 
REMARK       I    between atoms: N4_14  and  C7_16 
REMARK    5  A    between atoms: C7_16  and  O4_18 
REMARK    6  A    between atoms: O4_18  and  C8_19 
REMARK    7  A    between atoms: C12_23  and  O5_25 
ROOT
HETATM    1  C3  UNL     1       3.069  -0.566  -0.836  1.00  0.00     0.285 C 
HETATM    2  C4  UNL     1       3.103  -2.014  -1.033  1.00  0.00     0.094 C 
HETATM    3  N2  UNL     1       3.137  -3.174  -1.211  1.00  0.00    -0.195 NA
ENDROOT
BRANCH   1   4
HETATM    4  N1  UNL     1       4.382  -0.056  -0.871  1.00  0.00    -0.337 N 
HETATM    5  C2  UNL     1       4.868   0.693   0.189  1.00  0.00     0.215 C 
HETATM    6  C1  UNL     1       6.259   1.263   0.209  1.00  0.00     0.117 C 
HETATM    7  O1  UNL     1       4.167   0.917   1.153  1.00  0.00    -0.274 OA
ATOM      8  H1  UNL     1       4.977  -0.239  -1.679  1.00  0.00     0.164 HD
ENDBRANCH   1   4
BRANCH   1   9
HETATM    9  C5  UNL     1       2.169   0.086  -1.843  1.00  0.00     0.260 C 
HETATM   10  O2  UNL     1       2.484   1.294  -2.134  1.00  0.00    -0.270 OA
HETATM   11  N3  UNL     1       1.084  -0.455  -2.467  1.00  0.00    -0.307 N 
ATOM     12  H3  UNL     1       1.279  -0.816  -3.401  1.00  0.00     0.170 HD
BRANCH  11  13
HETATM   13  C6  UNL     1      -0.168  -0.598  -2.088  1.00  0.00     0.161 C 
HETATM   14  C12 UNL     1      -1.014  -1.234  -3.073  1.00  0.00     0.194 C 
HETATM   15  N5  UNL     1      -2.370  -1.561  -3.027  1.00  0.00    -0.071 NA
BRANCH  13  16
HETATM   16  N4  UNL     1      -0.528  -0.148  -0.848  1.00  0.00    -0.285 N 
HETATM   17  C7  UNL     1      -1.705  -0.107  -0.105  1.00  0.00     0.367 C 
HETATM   18  O3  UNL     1      -2.784  -0.546  -0.532  1.00  0.00    -0.238 OA
ATOM     19  H4  UNL     1       0.260   0.258  -0.343  1.00  0.00     0.172 HD
BRANCH  17  20
HETATM   20  O4  UNL     1      -1.772   0.436   1.192  1.00  0.00    -0.294 OA
BRANCH  20  21
HETATM   21  C8  UNL     1      -2.984   0.456   1.916  1.00  0.00     0.061 C 
HETATM   22  C9  UNL     1      -3.569  -0.898   2.174  1.00  0.00     0.046 C 
HETATM   23  C10 UNL     1      -3.970   1.298   1.122  1.00  0.00     0.046 C 
HETATM   24  C11 UNL     1      -2.809   1.166   3.247  1.00  0.00     0.046 C 
ENDBRANCH  20  21
ENDBRANCH  17  20
ENDBRANCH  13  16
BRANCH  14  25
HETATM   25  O5  UNL     1      -0.462  -1.580  -4.214  1.00  0.00    -0.346 OA
ATOM     26  H5  UNL     1      -1.018  -1.998  -4.861  1.00  0.00     0.219 HD
ENDBRANCH  14  25
ENDBRANCH  11  13
ENDBRANCH   1   9
TORSDOF 7
