REMARK  8 active torsions:
REMARK  status: ('A' for Active; 'I' for Inactive)
REMARK    1  A    between atoms: C3_3  and  C4_4 
REMARK    2  A    between atoms: C4_4  and  C5_5 
REMARK    3  A    between atoms: N2_12  and  O1_13 
REMARK    4  A    between atoms: C10_15  and  N3_16 
REMARK    5  A    between atoms: N3_16  and  C11_18 
REMARK    6  A    between atoms: C11_18  and  C12_19 
REMARK    7  A    between atoms: C14_23  and  N5_24 
REMARK    8  A    between atoms: N6_27  and  O2_28 
ROOT
HETATM    1  C1  UNL     1      -4.091   4.006  -0.395  1.00  0.00     0.012 C 
HETATM    2  C2  UNL     1      -4.074   2.833  -0.110  1.00  0.00    -0.114 C 
HETATM    3  C3  UNL     1      -4.027   1.378   0.242  1.00  0.00     0.121 C 
ENDROOT
BRANCH   3   4
HETATM    4  C4  UNL     1      -2.626   0.936   0.284  1.00  0.00     0.001 C 
BRANCH   4   5
HETATM    5  C5  UNL     1      -2.213  -0.276   0.564  1.00  0.00     0.021 A 
HETATM    6  C6  UNL     1      -2.908  -1.420   0.876  1.00  0.00     0.036 A 
HETATM    7  C7  UNL     1      -4.205  -1.590   0.982  1.00  0.00     0.044 C 
HETATM    8  N1  UNL     1      -1.997  -2.432   1.072  1.00  0.00    -0.338 N 
HETATM    9  C8  UNL     1      -0.769  -1.974   0.899  1.00  0.00     0.183 A 
ATOM     10  H1  UNL     1      -2.234  -3.394   1.315  1.00  0.00     0.167 HD
HETATM   11  C9  UNL     1      -0.848  -0.624   0.580  1.00  0.00     0.140 A 
HETATM   12  N6  UNL     1       0.371  -2.718   0.998  1.00  0.00    -0.033 N 
HETATM   13  N2  UNL     1       0.171   0.232   0.357  1.00  0.00    -0.048 N 
HETATM   14  C10 UNL     1       1.328  -0.082  -0.267  1.00  0.00     0.719 C 
HETATM   15  N4  UNL     1       1.889  -1.307  -0.305  1.00  0.00    -0.018 N 
HETATM   16  C14 UNL     1       1.546  -2.428   0.393  1.00  0.00     0.718 C 
ATOM     17  H4  UNL     1       2.678  -1.410  -0.943  1.00  0.00     0.203 HD
BRANCH  13  18
HETATM   18  O1  UNL     1      -0.005   1.499   0.837  1.00  0.00    -0.269 OA
ATOM     19  H1  UNL     1       0.712   2.102   0.680  1.00  0.00     0.245 HD
ENDBRANCH  13  18
BRANCH  14  20
HETATM   20  N3  UNL     1       1.897   0.906  -0.845  1.00  0.00    -0.223 N 
ATOM     21  H3  UNL     1       1.445   1.819  -0.788  1.00  0.00     0.177 HD
BRANCH  20  22
HETATM   22  C11 UNL     1       3.128   0.810  -1.566  1.00  0.00     0.138 C 
BRANCH  22  23
HETATM   23  C12 UNL     1       4.271   0.842  -0.565  1.00  0.00     0.016 C 
HETATM   24  C13 UNL     1       4.154   2.169   0.168  1.00  0.00     0.006 C 
ENDBRANCH  22  23
ENDBRANCH  20  22
ENDBRANCH  14  20
BRANCH  16  25
HETATM   25  N5  UNL     1       2.449  -3.340   0.501  1.00  0.00    -0.232 N 
ATOM     26  H52 UNL     1       3.335  -3.121   0.045  1.00  0.00     0.174 HD
ATOM     27  H51 UNL     1       2.193  -4.178   1.023  1.00  0.00     0.174 HD
ENDBRANCH  16  25
BRANCH  12  28
HETATM   28  O2  UNL     1       0.259  -3.832   1.775  1.00  0.00    -0.268 OA
ATOM     29  H2  UNL     1       1.052  -4.350   1.844  1.00  0.00     0.246 HD
ENDBRANCH  12  28
ENDBRANCH   4   5
ENDBRANCH   3   4
TORSDOF 8
