REMARK  8 active torsions:
REMARK  status: ('A' for Active; 'I' for Inactive)
REMARK    1  A    between atoms: C3_3  and  N1_4 
REMARK    2  A    between atoms: N1_4  and  C4_6 
REMARK    3  A    between atoms: C6_10  and  C7_11 
REMARK    4  A    between atoms: C8_12  and  C9_13 
REMARK    5  A    between atoms: C12_16  and  N3_17 
REMARK    6  A    between atoms: N3_17  and  C13_19 
REMARK    7  A    between atoms: C13_19  and  C14_20 
REMARK    8  A    between atoms: C14_20  and  N4_21 
ROOT
HETATM    1  C1  UNL     1       9.844  -0.406   0.627  1.00  0.00     0.014 C 
HETATM    2  C2  UNL     1       8.919  -0.183  -0.114  1.00  0.00    -0.097 C 
HETATM    3  C3  UNL     1       7.786   0.107  -1.001  1.00  0.00     0.231 C 
ENDROOT
BRANCH   3   4
HETATM    4  N1  UNL     1       6.860  -1.008  -1.006  1.00  0.00    -0.214 N 
ATOM      5  H1  UNL     1       7.190  -1.967  -1.116  1.00  0.00     0.178 HD
BRANCH   4   6
HETATM    6  C4  UNL     1       5.589  -0.743  -0.865  1.00  0.00     0.693 A 
HETATM    7  N2  UNL     1       5.145   0.512  -0.720  1.00  0.00    -0.198 N 
HETATM    8  C5  UNL     1       3.825   0.787  -0.574  1.00  0.00     0.146 A 
ATOM      9  H2  UNL     1       5.816   1.280  -0.719  1.00  0.00     0.183 HD
HETATM   10  C6  UNL     1       2.935  -0.268  -0.577  1.00  0.00     0.118 A 
HETATM   11  N6  UNL     1       3.428  -1.493  -0.724  1.00  0.00    -0.277 N 
HETATM   12  N7  UNL     1       4.707  -1.746  -0.865  1.00  0.00    -0.131 N 
ATOM     13  H6  UNL     1       2.777  -2.278  -0.727  1.00  0.00     0.188 HD
ATOM     14  H7  UNL     1       5.028  -2.708  -0.975  1.00  0.00     0.205 HD
BRANCH  10  15
HETATM   15  C7  UNL     1       1.519  -0.088  -0.429  1.00  0.00    -0.041 C 
HETATM   16  C8  UNL     1       0.315   0.084  -0.294  1.00  0.00    -0.059 C 
BRANCH  16  17
HETATM   17  C9  UNL     1      -1.090   0.302  -0.117  1.00  0.00     0.033 A 
HETATM   18  C10 UNL     1      -1.868  -0.630   0.536  1.00  0.00     0.026 A 
HETATM   19  C11 UNL     1      -3.235  -0.393   0.695  1.00  0.00     0.050 A 
HETATM   20  C12 UNL     1      -3.836   0.753   0.216  1.00  0.00     0.100 A 
HETATM   21  N5  UNL     1      -3.048   1.641  -0.417  1.00  0.00    -0.351 N 
HETATM   22  C15 UNL     1      -1.727   1.445  -0.588  1.00  0.00     0.110 A 
ATOM     23  H5  UNL     1      -3.468   2.496  -0.782  1.00  0.00     0.166 HD
BRANCH  20  24
HETATM   24  N3  UNL     1      -5.098   1.003   0.346  1.00  0.00    -0.375 N 
ATOM     25  H3  UNL     1      -5.457   1.876  -0.040  1.00  0.00     0.161 HD
BRANCH  24  26
HETATM   26  C13 UNL     1      -6.020   0.126   1.000  1.00  0.00     0.148 C 
BRANCH  26  27
HETATM   27  C14 UNL     1      -7.446   0.458   0.568  1.00  0.00     0.249 C 
BRANCH  27  28
HETATM   28  N4  UNL     1      -8.411  -0.393   1.195  1.00  0.00    -0.078 N 
ATOM     29  H43 UNL     1      -8.196  -1.377   1.034  1.00  0.00     0.274 HD
ATOM     30  H42 UNL     1      -8.318  -0.371   2.211  1.00  0.00     0.274 HD
ATOM     31  H41 UNL     1      -9.364  -0.171   0.906  1.00  0.00     0.274 HD
ENDBRANCH  27  28
ENDBRANCH  26  27
ENDBRANCH  24  26
ENDBRANCH  20  24
ENDBRANCH  16  17
ENDBRANCH  10  15
ENDBRANCH   4   6
ENDBRANCH   3   4
TORSDOF 8
