REMARK  4 active torsions:
REMARK  status: ('A' for Active; 'I' for Inactive)
REMARK       I    between atoms: C2_4  and  N2_5 
REMARK       I    between atoms: C2_4  and  N4_14 
REMARK    1  A    between atoms: N2_5  and  C3_7 
REMARK    2  A    between atoms: N4_14  and  S1_16 
REMARK    3  A    between atoms: S1_16  and  N5_19 
REMARK    4  A    between atoms: N5_19  and  S2_21 
ROOT
HETATM    1  C1  UNL     1      -1.796  -3.191   0.036  1.00  0.00     0.165 C 
HETATM    2  N1  UNL     1      -0.462  -2.696   0.243  1.00  0.00    -0.230 N 
ATOM      3  H1  UNL     1       0.076  -3.062   1.029  1.00  0.00     0.177 HD
HETATM    4  C2  UNL     1       0.087  -1.811  -0.517  1.00  0.00     0.690 C 
HETATM    5  N2  UNL     1      -0.670  -1.311  -1.603  1.00  0.00    -0.176 N 
ATOM      6  H2  UNL     1      -0.503  -1.717  -2.524  1.00  0.00     0.186 HD
HETATM    7  N4  UNL     1       1.409  -1.354  -0.277  1.00  0.00    -0.099 N 
ATOM      8  H4  UNL     1       2.128  -1.439  -0.996  1.00  0.00     0.199 HD
ENDROOT
BRANCH   5   9
HETATM    9  C3  UNL     1      -1.559  -0.375  -1.511  1.00  0.00     0.120 A 
HETATM   10  C4  UNL     1      -2.230   0.027  -2.638  1.00  0.00     0.049 A 
HETATM   11  C5  UNL     1      -3.171   1.014  -2.547  1.00  0.00     0.005 A 
HETATM   12  C6  UNL     1      -3.433   1.591  -1.334  1.00  0.00     0.017 A 
HETATM   13  C7  UNL     1      -2.724   1.144  -0.228  1.00  0.00     0.089 A 
HETATM   14  N3  UNL     1      -1.814   0.187  -0.325  1.00  0.00    -0.352 N 
ATOM     15  H3  UNL     1      -1.308  -0.121   0.505  1.00  0.00     0.166 HD
ENDBRANCH   5   9
BRANCH   7  16
HETATM   16  S1  UNL     1       1.771  -0.659   1.238  1.00  0.00     0.345 S 
HETATM   17  O1  UNL     1       3.203  -0.919   1.623  1.00  0.00    -0.181 OA
HETATM   18  O2  UNL     1       0.871  -1.209   2.335  1.00  0.00    -0.181 OA
BRANCH  16  19
HETATM   19  N5  UNL     1       1.550   1.055   1.265  1.00  0.00    -0.194 N 
ATOM     20  H5  UNL     1       0.698   1.557   1.514  1.00  0.00     0.193 HD
BRANCH  19  21
HETATM   21  S2  UNL     1       3.058   1.751   0.787  1.00  0.00     0.236 S 
HETATM   22  C8  UNL     1       4.108   2.051   2.184  1.00  0.00     0.186 C 
HETATM   23  O3  UNL     1       3.782   0.780  -0.111  1.00  0.00    -0.205 OA
HETATM   24  O4  UNL     1       2.813   2.987  -0.006  1.00  0.00    -0.205 OA
ENDBRANCH  19  21
ENDBRANCH  16  19
ENDBRANCH   7  16
TORSDOF 4
