REMARK  5 active torsions:
REMARK  status: ('A' for Active; 'I' for Inactive)
REMARK       I    between atoms: C2_2  and  N1_4 
REMARK    1  A    between atoms: N1_4  and  S1_6 
REMARK    2  A    between atoms: S1_6  and  N2_9 
REMARK    3  A    between atoms: N2_9  and  C3_11 
REMARK    4  A    between atoms: C6_14  and  S2_15 
REMARK    5  A    between atoms: S2_15  and  N3_16 
ROOT
HETATM    1  C3  UNL     1       0.263   0.550   1.352  1.00  0.00     0.130 A 
HETATM    2  C4  UNL     1       0.716  -0.481   0.564  1.00  0.00     0.053 A 
HETATM    3  C5  UNL     1       1.940  -0.386  -0.109  1.00  0.00     0.049 A 
HETATM    4  C6  UNL     1       2.641   0.792   0.074  1.00  0.00     0.163 A 
HETATM    5  N4  UNL     1       2.160   1.766   0.850  1.00  0.00    -0.287 N 
ATOM      6  H4  UNL     1       2.709   2.619   0.957  1.00  0.00     0.188 HD
HETATM    7  N5  UNL     1       1.000   1.676   1.488  1.00  0.00    -0.284 N 
ATOM      8  H5  UNL     1       0.669   2.444   2.072  1.00  0.00     0.188 HD
ENDROOT
BRANCH   1   9
HETATM    9  N2  UNL     1      -0.851   0.469   1.968  1.00  0.00    -0.252 N 
ATOM     10  H2  UNL     1      -1.120   1.274   2.534  1.00  0.00     0.182 HD
BRANCH   9  11
HETATM   11  S1  UNL     1      -1.930  -0.838   1.943  1.00  0.00     0.327 S 
HETATM   12  O2  UNL     1      -1.321  -2.135   2.343  1.00  0.00    -0.182 OA
HETATM   13  O3  UNL     1      -3.036  -0.546   2.949  1.00  0.00    -0.182 OA
BRANCH  11  14
HETATM   14  N1  UNL     1      -2.669  -0.953   0.389  1.00  0.00    -0.237 N 
HETATM   15  C2  UNL     1      -3.777  -0.116   0.088  1.00  0.00     0.228 C 
HETATM   16  C1  UNL     1      -4.398  -0.230  -1.256  1.00  0.00     0.118 C 
HETATM   17  O1  UNL     1      -4.226   0.700   0.929  1.00  0.00    -0.273 OA
ATOM     18  H1  UNL     1      -2.316  -1.613  -0.304  1.00  0.00     0.183 HD
ENDBRANCH  11  14
ENDBRANCH   9  11
ENDBRANCH   1   9
BRANCH   4  19
HETATM   19  S2  UNL     1       4.181   0.985  -0.736  1.00  0.00     0.273 S 
HETATM   20  O4  UNL     1       4.044   2.190  -1.639  1.00  0.00    -0.199 OA
HETATM   21  O5  UNL     1       5.229   1.257   0.313  1.00  0.00    -0.199 OA
BRANCH  19  22
HETATM   22  N3  UNL     1       4.560  -0.407  -1.664  1.00  0.00    -0.323 N 
ATOM     23  H32 UNL     1       3.959  -1.229  -1.725  1.00  0.00     0.169 HD
ATOM     24  H31 UNL     1       5.457  -0.295  -2.136  1.00  0.00     0.169 HD
ENDBRANCH  19  22
ENDBRANCH   4  19
TORSDOF 5
