REMARK  18 active torsions:
REMARK  status: ('A' for Active; 'I' for Inactive)
REMARK    1  A    between atoms: C2_2  and  C4_4 
REMARK    2  A    between atoms: C4_4  and  C5_5 
REMARK    3  A    between atoms: C5_5  and  N1_6 
REMARK    4  A    between atoms: N1_6  and  C7_8 
REMARK    5  A    between atoms: N1_6  and  C30_47 
REMARK    6  A    between atoms: C7_8  and  C8_9 
REMARK    7  A    between atoms: C8_9  and  C9_10 
REMARK    8  A    between atoms: C9_10  and  C10_11 
REMARK    9  A    between atoms: C10_11  and  N2_12 
REMARK   10  A    between atoms: N2_12  and  C11_14 
REMARK   11  A    between atoms: C12_17  and  N4_18 
REMARK   12  A    between atoms: N4_18  and  C13_20 
REMARK   13  A    between atoms: C13_20  and  C14_21 
REMARK   14  A    between atoms: C19_30  and  N6_31 
REMARK       I    between atoms: N6_31  and  C20_33 
REMARK   15  A    between atoms: C20_33  and  C21_35 
REMARK   16  A    between atoms: C30_47  and  C31_48 
REMARK   17  A    between atoms: C31_48  and  C32_49 
REMARK   18  A    between atoms: C32_49  and  N9_50 
ROOT
HETATM    1  C11 UNL     1       1.345  -1.082   1.691  1.00  0.00     0.680 A 
HETATM    2  N3  UNL     1       1.830  -0.645   0.523  1.00  0.00    -0.176 N 
ATOM      3  H3  UNL     1       1.166  -0.559  -0.247  1.00  0.00     0.186 HD
HETATM    4  C12 UNL     1       3.091  -0.312   0.267  1.00  0.00     0.129 A 
HETATM    5  C17 UNL     1       4.019  -0.426   1.318  1.00  0.00     0.038 A 
HETATM    6  C18 UNL     1       5.330  -0.103   1.139  1.00  0.00     0.047 A 
HETATM    7  C19 UNL     1       6.248  -0.218   2.191  1.00  0.00     0.036 A 
HETATM    8  C27 UNL     1       5.794  -0.662   3.401  1.00  0.00     0.032 A 
HETATM    9  C28 UNL     1       4.448  -0.984   3.550  1.00  0.00     0.033 A 
HETATM   10  C29 UNL     1       3.544  -0.874   2.523  1.00  0.00     0.063 A 
HETATM   11  N8  UNL     1       2.234  -1.196   2.710  1.00  0.00    -0.191 N 
ATOM     12  H8  UNL     1       1.919  -1.525   3.623  1.00  0.00     0.184 HD
ENDROOT
BRANCH   1  13
HETATM   13  N2  UNL     1       0.118  -1.387   1.917  1.00  0.00    -0.226 N 
ATOM     14  H2  UNL     1      -0.101  -1.707   2.860  1.00  0.00     0.177 HD
BRANCH  13  15
HETATM   15  C10 UNL     1      -0.974  -1.330   0.999  1.00  0.00     0.138 C 
BRANCH  15  16
HETATM   16  C9  UNL     1      -1.528   0.044   0.777  1.00  0.00     0.022 C 
BRANCH  16  17
HETATM   17  C8  UNL     1      -2.680   0.064  -0.203  1.00  0.00     0.029 C 
BRANCH  17  18
HETATM   18  C7  UNL     1      -3.825  -0.760   0.275  1.00  0.00     0.237 C 
BRANCH  18  19
HETATM   19  N1  UNL     1      -4.969  -0.787  -0.608  1.00  0.00    -0.071 N 
HETATM   20  C6  UNL     1      -4.920  -2.041  -1.370  1.00  0.00     0.272 C 
BRANCH  19  21
HETATM   21  C5  UNL     1      -6.138  -0.872   0.241  1.00  0.00     0.237 C 
BRANCH  21  22
HETATM   22  C4  UNL     1      -7.358  -1.411  -0.473  1.00  0.00     0.032 C 
BRANCH  22  23
HETATM   23  C2  UNL     1      -8.540  -1.464   0.479  1.00  0.00    -0.021 C 
HETATM   24  C1  UNL     1      -8.193  -2.369   1.639  1.00  0.00     0.009 C 
HETATM   25  C3  UNL     1      -9.792  -1.919  -0.193  1.00  0.00     0.009 C 
ENDBRANCH  22  23
ENDBRANCH  21  22
ENDBRANCH  19  21
BRANCH  19  26
HETATM   26  C30 UNL     1      -5.020   0.262  -1.567  1.00  0.00     0.238 C 
BRANCH  26  27
HETATM   27  C31 UNL     1      -5.693   1.527  -1.127  1.00  0.00     0.058 C 
BRANCH  27  28
HETATM   28  C32 UNL     1      -5.679   2.544  -2.252  1.00  0.00     0.273 C 
BRANCH  28  29
HETATM   29  N9  UNL     1      -6.290   3.788  -1.920  1.00  0.00     0.080 N 
HETATM   30  C33 UNL     1      -5.538   4.550  -0.940  1.00  0.00     0.309 C 
HETATM   31  C34 UNL     1      -7.682   3.651  -1.532  1.00  0.00     0.309 C 
ENDBRANCH  28  29
ENDBRANCH  27  28
ENDBRANCH  26  27
ENDBRANCH  19  26
ENDBRANCH  18  19
ENDBRANCH  17  18
ENDBRANCH  16  17
ENDBRANCH  15  16
ENDBRANCH  13  15
ENDBRANCH   1  13
BRANCH   4  32
HETATM   32  N4  UNL     1       3.557   0.106  -0.840  1.00  0.00    -0.373 N 
ATOM     33  H4  UNL     1       4.555   0.315  -0.855  1.00  0.00     0.161 HD
BRANCH  32  34
HETATM   34  C13 UNL     1       2.855   0.319  -2.063  1.00  0.00     0.155 C 
BRANCH  34  35
HETATM   35  C14 UNL     1       3.598  -0.372  -3.186  1.00  0.00     0.169 C 
HETATM   36  C15 UNL     1       2.988  -0.100  -4.545  1.00  0.00     0.159 C 
HETATM   37  N5  UNL     1       4.110  -0.398  -5.410  1.00  0.00    -0.334 N 
HETATM   38  C16 UNL     1       5.302  -0.200  -4.664  1.00  0.00     0.361 C 
ATOM     39  H5  UNL     1       4.054  -0.697  -6.383  1.00  0.00     0.164 HD
HETATM   40  O1  UNL     1       6.469  -0.300  -5.118  1.00  0.00    -0.239 OA
HETATM   41  O2  UNL     1       4.911   0.121  -3.349  1.00  0.00    -0.295 OA
ENDBRANCH  34  35
ENDBRANCH  32  34
ENDBRANCH   4  32
BRANCH   7  42
HETATM   42  N6  UNL     1       7.592   0.145   1.992  1.00  0.00    -0.323 N 
HETATM   43  C20 UNL     1       8.728  -0.164   2.735  1.00  0.00     0.258 C 
HETATM   44  O3  UNL     1       8.650  -0.880   3.763  1.00  0.00    -0.267 OA
ATOM     45  H6  UNL     1       7.762   0.728   1.172  1.00  0.00     0.169 HD
BRANCH  43  46
HETATM   46  C21 UNL     1      10.070   0.309   2.387  1.00  0.00     0.056 A 
HETATM   47  C22 UNL     1      10.331   1.094   1.306  1.00  0.00     0.019 A 
HETATM   48  C23 UNL     1      11.602   1.512   1.021  1.00  0.00     0.001 A 
HETATM   49  C24 UNL     1      12.693   1.168   1.804  1.00  0.00     0.002 A 
HETATM   50  C25 UNL     1      12.415   0.374   2.893  1.00  0.00     0.027 A 
HETATM   51  C26 UNL     1      11.130  -0.050   3.184  1.00  0.00     0.062 A 
HETATM   52  N7  UNL     1      10.978  -0.864   4.338  1.00  0.00    -0.101 NA
ENDBRANCH  43  46
ENDBRANCH   7  42
TORSDOF 18
