REMARK  16 active torsions:
REMARK  status: ('A' for Active; 'I' for Inactive)
REMARK    1  A    between atoms: C2_2  and  C3_3 
REMARK    2  A    between atoms: C3_3  and  C4_4 
REMARK       I    between atoms: C4_4  and  N1_6 
REMARK    3  A    between atoms: N1_6  and  C5_8 
REMARK    4  A    between atoms: C5_8  and  C6_9 
REMARK    5  A    between atoms: N2_11  and  C8_12 
REMARK    6  A    between atoms: C11_15  and  N3_16 
REMARK    7  A    between atoms: C17_23  and  N4_24 
REMARK       I    between atoms: N4_24  and  C18_26 
REMARK    8  A    between atoms: C18_26  and  C19_28 
REMARK    9  A    between atoms: C19_28  and  C20_29 
REMARK   10  A    between atoms: C20_29  and  C21_30 
REMARK   11  A    between atoms: C24_35  and  C25_36 
REMARK   12  A    between atoms: C25_36  and  C26_37 
REMARK   13  A    between atoms: C26_37  and  C27_38 
REMARK   14  A    between atoms: C27_38  and  N5_39 
REMARK   15  A    between atoms: C30_45  and  C32_47 
REMARK       I    between atoms: C32_47  and  N6_49 
REMARK   16  A    between atoms: N6_49  and  C33_51 
ROOT
HETATM    1  N3  UNL     1       2.006   0.131  -0.428  1.00  0.00    -0.305 N 
HETATM    2  C12 UNL     1       2.630  -0.440   0.693  1.00  0.00     0.260 C 
HETATM    3  O2  UNL     1       2.079  -1.016   1.677  1.00  0.00    -0.267 OA
HETATM    4  C13 UNL     1       4.078  -0.246   0.518  1.00  0.00     0.049 A 
HETATM    5  C14 UNL     1       4.280   0.409  -0.678  1.00  0.00    -0.018 A 
HETATM    6  C15 UNL     1       5.571   0.797  -1.021  1.00  0.00     0.012 A 
HETATM    7  C16 UNL     1       6.588   0.502  -0.149  1.00  0.00     0.031 A 
HETATM    8  C17 UNL     1       6.440  -0.150   1.047  1.00  0.00     0.041 A 
HETATM    9  C22 UNL     1       5.118  -0.534   1.379  1.00  0.00    -0.019 A 
HETATM   10  C23 UNL     1       4.919  -1.238   2.666  1.00  0.00     0.052 C 
HETATM   11  C24 UNL     1       2.990   0.485  -1.400  1.00  0.00     0.127 C 
ENDROOT
BRANCH   1  12
HETATM   12  C11 UNL     1       0.576   0.298  -0.482  1.00  0.00     0.038 A 
HETATM   13  C10 UNL     1       0.015   1.552  -0.558  1.00  0.00     0.032 A 
HETATM   14  C9  UNL     1      -1.353   1.704  -0.603  1.00  0.00     0.031 A 
HETATM   15  C8  UNL     1      -2.224   0.635  -0.577  1.00  0.00     0.031 A 
HETATM   16  C29 UNL     1      -1.645  -0.615  -0.501  1.00  0.00     0.031 A 
HETATM   17  C28 UNL     1      -0.276  -0.782  -0.454  1.00  0.00     0.032 A 
BRANCH  15  18
HETATM   18  N2  UNL     1      -3.665   0.818  -0.632  1.00  0.00    -0.362 N 
HETATM   19  C7  UNL     1      -4.428   2.009  -0.804  1.00  0.00     0.133 A 
HETATM   20  C6  UNL     1      -5.694   1.253  -0.651  1.00  0.00     0.059 A 
HETATM   21  C30 UNL     1      -4.837   0.039  -0.560  1.00  0.00     0.117 A 
HETATM   22  C31 UNL     1      -4.978  -0.885  -1.760  1.00  0.00     0.049 C 
BRANCH  20  23
HETATM   23  C5  UNL     1      -6.604   1.377  -1.855  1.00  0.00     0.132 C 
BRANCH  23  24
HETATM   24  N1  UNL     1      -7.836   0.668  -1.747  1.00  0.00    -0.361 N 
HETATM   25  C4  UNL     1      -8.821   0.882  -0.758  1.00  0.00     0.217 C 
HETATM   26  O1  UNL     1      -8.617   1.765   0.110  1.00  0.00    -0.274 OA
ATOM     27  H1  UNL     1      -8.022  -0.055  -2.443  1.00  0.00     0.162 HD
BRANCH  25  28
HETATM   28  C3  UNL     1     -10.062   0.091  -0.737  1.00  0.00     0.102 C 
BRANCH  28  29
HETATM   29  C2  UNL     1     -10.973   0.465   0.399  1.00  0.00     0.005 C 
HETATM   30  C1  UNL     1     -10.268   0.239   1.718  1.00  0.00     0.005 C 
ENDBRANCH  28  29
ENDBRANCH  25  28
ENDBRANCH  23  24
ENDBRANCH  20  23
BRANCH  21  31
HETATM   31  C32 UNL     1      -5.068  -0.775   0.669  1.00  0.00     0.246 C 
HETATM   32  O6  UNL     1      -6.036  -1.586   0.611  1.00  0.00    -0.271 OA
HETATM   33  N6  UNL     1      -4.310  -0.699   1.840  1.00  0.00    -0.359 N 
ATOM     34  H6  UNL     1      -3.532  -0.041   1.883  1.00  0.00     0.162 HD
BRANCH  33  35
HETATM   35  C33 UNL     1      -4.591  -1.513   2.977  1.00  0.00     0.118 C 
HETATM   36  C34 UNL     1      -4.498  -2.993   2.691  1.00  0.00     0.026 C 
ENDBRANCH  33  35
ENDBRANCH  21  31
ENDBRANCH  15  18
ENDBRANCH   1  12
BRANCH  11  37
HETATM   37  C25 UNL     1       2.956  -0.470  -2.578  1.00  0.00     0.032 C 
BRANCH  37  38
HETATM   38  C26 UNL     1       3.926  -0.191  -3.660  1.00  0.00     0.029 C 
BRANCH  38  39
HETATM   39  C27 UNL     1       3.746   1.171  -4.296  1.00  0.00     0.230 C 
BRANCH  39  40
HETATM   40  N5  UNL     1       4.773   1.286  -5.336  1.00  0.00    -0.079 N 
ATOM     41  H53 UNL     1       5.718   1.125  -4.989  1.00  0.00     0.274 HD
ATOM     42  H52 UNL     1       4.752   0.520  -6.010  1.00  0.00     0.274 HD
ATOM     43  H51 UNL     1       4.652   2.204  -5.765  1.00  0.00     0.274 HD
ENDBRANCH  39  40
ENDBRANCH  38  39
ENDBRANCH  37  38
ENDBRANCH  11  37
BRANCH   8  44
HETATM   44  N4  UNL     1       7.485  -0.463   1.929  1.00  0.00    -0.327 N 
HETATM   45  C18 UNL     1       8.817  -0.111   1.774  1.00  0.00     0.222 C 
HETATM   46  O3  UNL     1       9.322   0.532   0.850  1.00  0.00    -0.273 OA
ATOM     47  H4  UNL     1       7.242  -0.999   2.762  1.00  0.00     0.169 HD
BRANCH  45  48
HETATM   48  C19 UNL     1       9.777  -0.562   2.860  1.00  0.00     0.113 C 
BRANCH  48  49
HETATM   49  C20 UNL     1      11.158  -0.072   2.570  1.00  0.00     0.122 C 
BRANCH  49  50
HETATM   50  C21 UNL     1      12.084  -0.519   3.632  1.00  0.00     0.172 C 
HETATM   51  O4  UNL     1      11.655  -1.212   4.580  1.00  0.00    -0.648 OA
HETATM   52  O5  UNL     1      13.419  -0.155   3.551  1.00  0.00    -0.648 OA
ENDBRANCH  49  50
ENDBRANCH  48  49
ENDBRANCH  45  48
ENDBRANCH   8  44
TORSDOF 16
