REMARK  16 active torsions:
REMARK  status: ('A' for Active; 'I' for Inactive)
REMARK    1  A    between atoms: C2_2  and  C3_3 
REMARK    2  A    between atoms: C3_3  and  C4_4 
REMARK    3  A    between atoms: C4_4  and  N1_5 
REMARK    4  A    between atoms: C4_4  and  C5_9 
REMARK    5  A    between atoms: C8_15  and  C9_16 
REMARK    6  A    between atoms: C9_16  and  C10_17 
REMARK    7  A    between atoms: C14_24  and  C15_25 
REMARK    8  A    between atoms: C19_32  and  C20_33 
REMARK    9  A    between atoms: C20_33  and  C21_34 
REMARK   10  A    between atoms: N6_41  and  C25_42 
REMARK   11  A    between atoms: C25_42  and  C26_43 
REMARK   12  A    between atoms: C26_43  and  C27_44 
REMARK   13  A    between atoms: C27_44  and  C28_45 
REMARK   14  A    between atoms: C28_45  and  C29_46 
REMARK   15  A    between atoms: C29_46  and  C30_47 
REMARK   16  A    between atoms: C30_47  and  S1_48 
ROOT
HETATM    1  C5  UNL     1      -0.169  -1.198  -0.142  1.00  0.00     0.118 C 
HETATM    2  C6  UNL     1      -0.868  -2.161   0.712  1.00  0.00     0.119 C 
HETATM    3  C7  UNL     1      -1.294  -1.787   2.049  1.00  0.00     0.219 C 
HETATM    4  O1  UNL     1      -0.370  -1.650   2.942  1.00  0.00    -0.274 OA
HETATM    5  N2  UNL     1      -2.646  -1.575   2.411  1.00  0.00    -0.348 N 
ATOM      6  H2  UNL     1      -2.842  -1.483   3.408  1.00  0.00     0.163 HD
HETATM    7  C8  UNL     1      -3.767  -1.476   1.526  1.00  0.00     0.177 C 
HETATM    8  C13 UNL     1      -4.462  -0.136   1.708  1.00  0.00     0.241 C 
HETATM    9  O2  UNL     1      -5.655  -0.236   2.173  1.00  0.00    -0.271 OA
HETATM   10  N3  UNL     1      -3.980   1.116   1.444  1.00  0.00    -0.346 N 
ATOM     11  H3  UNL     1      -4.041   1.775   2.220  1.00  0.00     0.163 HD
HETATM   12  C14 UNL     1      -3.387   1.659   0.213  1.00  0.00     0.180 C 
HETATM   13  C18 UNL     1      -2.702   2.937   0.500  1.00  0.00     0.245 C 
HETATM   14  O3  UNL     1      -3.390   3.696   1.296  1.00  0.00    -0.271 OA
HETATM   15  N4  UNL     1      -1.478   3.447   0.072  1.00  0.00    -0.324 N 
ATOM     16  H4  UNL     1      -1.549   4.346  -0.404  1.00  0.00     0.169 HD
HETATM   17  C19 UNL     1      -0.151   2.953   0.173  1.00  0.00     0.082 C 
HETATM   18  C24 UNL     1       0.076   2.097   1.347  1.00  0.00     0.282 C 
HETATM   19  O4  UNL     1      -0.854   2.193   2.239  1.00  0.00    -0.265 OA
HETATM   20  N5  UNL     1       1.087   1.211   1.690  1.00  0.00    -0.260 N 
ATOM     21  H5  UNL     1       1.454   1.372   2.628  1.00  0.00     0.190 HD
HETATM   22  N6  UNL     1       1.706   0.161   1.044  1.00  0.00    -0.258 N 
HETATM   23  C32 UNL     1       1.215  -0.818   0.152  1.00  0.00     0.244 C 
HETATM   24  O5  UNL     1       2.068  -1.511  -0.535  1.00  0.00    -0.271 OA
ENDROOT
BRANCH   1  25
HETATM   25  C4  UNL     1      -0.391  -1.581  -1.610  1.00  0.00     0.197 C 
BRANCH  25  26
HETATM   26  C3  UNL     1       0.053  -2.934  -1.981  1.00  0.00     0.033 C 
BRANCH  26  27
HETATM   27  C2  UNL     1       0.053  -3.261  -3.446  1.00  0.00    -0.002 C 
HETATM   28  C1  UNL     1      -1.261  -3.226  -4.145  1.00  0.00     0.005 C 
ENDBRANCH  26  27
ENDBRANCH  25  26
BRANCH  25  29
HETATM   29  N1  UNL     1      -1.722  -1.295  -1.986  1.00  0.00    -0.074 N 
ATOM     30  H13 UNL     1      -1.856  -1.456  -2.984  1.00  0.00     0.274 HD
ATOM     31  H12 UNL     1      -2.360  -1.998  -1.612  1.00  0.00     0.274 HD
ATOM     32  H11 UNL     1      -2.030  -0.357  -1.729  1.00  0.00     0.274 HD
ENDBRANCH  25  29
ENDBRANCH   1  25
BRANCH  22  33
HETATM   33  C25 UNL     1       3.155   0.019   1.334  1.00  0.00     0.152 C 
BRANCH  33  34
HETATM   34  C26 UNL     1       4.001   0.793   0.388  1.00  0.00     0.022 C 
BRANCH  34  35
HETATM   35  C27 UNL     1       5.475   0.645   0.689  1.00  0.00     0.002 C 
BRANCH  35  36
HETATM   36  C28 UNL     1       5.832   1.112   2.056  1.00  0.00     0.001 C 
BRANCH  36  37
HETATM   37  C29 UNL     1       7.303   0.964   2.300  1.00  0.00     0.010 C 
BRANCH  37  38
HETATM   38  C30 UNL     1       7.761  -0.454   2.190  1.00  0.00     0.073 C 
BRANCH  38  39
HETATM   39  S1  UNL     1       9.561  -0.444   2.529  1.00  0.00    -0.173 SA
HETATM   40  C31 UNL     1      10.369   0.467   1.190  1.00  0.00     0.089 C 
ENDBRANCH  38  39
ENDBRANCH  37  38
ENDBRANCH  36  37
ENDBRANCH  35  36
ENDBRANCH  34  35
ENDBRANCH  33  34
ENDBRANCH  22  33
BRANCH   7  41
HETATM   41  C9  UNL     1      -4.764  -2.540   1.832  1.00  0.00     0.038 C 
BRANCH  41  42
HETATM   42  C10 UNL     1      -4.417  -3.956   1.746  1.00  0.00    -0.020 C 
HETATM   43  C11 UNL     1      -3.329  -4.464   2.623  1.00  0.00     0.009 C 
HETATM   44  C12 UNL     1      -4.219  -4.516   0.352  1.00  0.00     0.009 C 
ENDBRANCH  41  42
ENDBRANCH   7  41
BRANCH  17  45
HETATM   45  C20 UNL     1       0.445   2.514  -1.100  1.00  0.00     0.067 C 
BRANCH  45  46
HETATM   46  C21 UNL     1       0.632   3.513  -2.156  1.00  0.00    -0.017 C 
HETATM   47  C22 UNL     1      -0.509   4.232  -2.741  1.00  0.00     0.010 C 
HETATM   48  C23 UNL     1       1.318   2.780  -3.335  1.00  0.00     0.010 C 
ENDBRANCH  45  46
ENDBRANCH  17  45
BRANCH  12  49
HETATM   49  C15 UNL     1      -4.577   1.975  -0.685  1.00  0.00     0.009 C 
HETATM   50  C16 UNL     1      -4.219   2.538  -2.012  1.00  0.00     0.012 C 
HETATM   51  C17 UNL     1      -5.563   2.910  -0.026  1.00  0.00     0.012 C 
ENDBRANCH  12  49
TORSDOF 16
