REMARK  17 active torsions:
REMARK  status: ('A' for Active; 'I' for Inactive)
REMARK    1  A    between atoms: C2_2  and  N1_3 
REMARK    2  A    between atoms: C3_4  and  C4_5 
REMARK    3  A    between atoms: C4_5  and  C5_6 
REMARK    4  A    between atoms: C8_11  and  C9_12 
REMARK    5  A    between atoms: C9_12  and  C10_13 
REMARK    6  A    between atoms: C10_13  and  C12_15 
REMARK       I    between atoms: C12_15  and  N3_17 
REMARK    7  A    between atoms: N3_17  and  C13_19 
REMARK    8  A    between atoms: C13_19  and  C14_20 
REMARK    9  A    between atoms: C14_20  and  C15_21 
REMARK   10  A    between atoms: C15_21  and  O2_22 
REMARK   11  A    between atoms: C20_28  and  O3_29 
REMARK   12  A    between atoms: N5_34  and  C22_36 
REMARK   13  A    between atoms: C22_36  and  C24_38 
REMARK   14  A    between atoms: C24_38  and  C25_39 
REMARK   15  A    between atoms: C25_39  and  O4_41 
REMARK   16  A    between atoms: N6_43  and  C28_44 
REMARK   17  A    between atoms: C28_44  and  C29_45 
ROOT
HETATM    1  N1  UNL     1      -0.977  -1.447   0.818  1.00  0.00    -0.258 N 
HETATM    2  C3  UNL     1      -0.921  -0.142   1.356  1.00  0.00     0.079 C 
HETATM    3  C20 UNL     1      -1.802   0.841   1.127  1.00  0.00     0.179 C 
HETATM    4  N4  UNL     1      -2.972   0.940   0.347  1.00  0.00    -0.168 N 
ATOM      5  H4  UNL     1      -3.361   1.879   0.264  1.00  0.00     0.186 HD
HETATM    6  C21 UNL     1      -3.690  -0.075  -0.341  1.00  0.00     0.697 C 
HETATM    7  N5  UNL     1      -4.891   0.086  -0.569  1.00  0.00    -0.198 N 
ATOM      8  H5  UNL     1      -5.184  -0.757  -1.062  1.00  0.00     0.183 HD
HETATM    9  N6  UNL     1      -3.178  -1.334  -0.865  1.00  0.00    -0.090 N 
HETATM   10  S1  UNL     1      -1.541  -1.828  -0.792  1.00  0.00     0.341 S 
HETATM   11  O5  UNL     1      -0.728  -1.115  -1.823  1.00  0.00    -0.181 OA
HETATM   12  O6  UNL     1      -1.369  -3.302  -0.977  1.00  0.00    -0.181 OA
ENDROOT
BRANCH   2  13
HETATM   13  C4  UNL     1       0.171   0.198   2.232  1.00  0.00     0.103 C 
BRANCH  13  14
HETATM   14  C5  UNL     1       1.537   0.204   1.743  1.00  0.00    -0.025 A 
HETATM   15  C6  UNL     1       2.527  -0.680   2.107  1.00  0.00     0.096 A 
HETATM   16  N2  UNL     1       3.673  -0.394   1.531  1.00  0.00    -0.364 N 
HETATM   17  C7  UNL     1       3.526   0.686   0.753  1.00  0.00     0.049 A 
ATOM     18  H2  UNL     1       4.541  -0.915   1.657  1.00  0.00     0.165 HD
HETATM   19  C8  UNL     1       4.434   1.372  -0.054  1.00  0.00    -0.030 A 
HETATM   20  C19 UNL     1       2.210   1.071   0.873  1.00  0.00    -0.001 A 
HETATM   21  C16 UNL     1       3.954   2.469  -0.737  1.00  0.00     0.009 A 
HETATM   22  C17 UNL     1       2.641   2.877  -0.636  1.00  0.00     0.002 A 
HETATM   23  C18 UNL     1       1.789   2.168   0.170  1.00  0.00     0.014 A 
BRANCH  19  24
HETATM   24  C9  UNL     1       5.820   0.903  -0.141  1.00  0.00     0.054 C 
BRANCH  24  25
HETATM   25  C10 UNL     1       6.020  -0.306  -1.017  1.00  0.00     0.078 C 
HETATM   26  C11 UNL     1       5.613  -0.090  -2.441  1.00  0.00     0.020 C 
BRANCH  25  27
HETATM   27  C12 UNL     1       7.446  -0.727  -0.884  1.00  0.00     0.221 C 
HETATM   28  O1  UNL     1       7.747  -1.891  -0.479  1.00  0.00    -0.273 OA
HETATM   29  N3  UNL     1       8.473   0.191  -1.219  1.00  0.00    -0.361 N 
ATOM     30  H3  UNL     1       8.205   1.120  -1.544  1.00  0.00     0.162 HD
BRANCH  29  31
HETATM   31  C13 UNL     1       9.880  -0.123  -1.124  1.00  0.00     0.124 C 
BRANCH  31  32
HETATM   32  C14 UNL     1      10.315  -0.478   0.273  1.00  0.00     0.046 C 
BRANCH  32  33
HETATM   33  C15 UNL     1      11.814  -0.785   0.274  1.00  0.00     0.165 C 
BRANCH  33  34
HETATM   34  O2  UNL     1      12.551   0.317  -0.157  1.00  0.00    -0.401 OA
ATOM     35  H2  UNL     1      13.482   0.126  -0.156  1.00  0.00     0.209 HD
ENDBRANCH  33  34
ENDBRANCH  32  33
ENDBRANCH  31  32
ENDBRANCH  29  31
ENDBRANCH  25  27
ENDBRANCH  24  25
ENDBRANCH  19  24
ENDBRANCH  13  14
ENDBRANCH   2  13
BRANCH   1  36
HETATM   36  C2  UNL     1      -0.603  -2.557   1.637  1.00  0.00     0.139 C 
HETATM   37  C1  UNL     1      -1.820  -3.090   2.433  1.00  0.00     0.028 C 
ENDBRANCH   1  36
BRANCH   3  38
HETATM   38  O3  UNL     1      -1.476   2.024   1.814  1.00  0.00    -0.344 OA
ATOM     39  H3  UNL     1      -2.101   2.721   1.652  1.00  0.00     0.219 HD
ENDBRANCH   3  38
BRANCH   9  40
HETATM   40  C28 UNL     1      -4.144  -2.140  -1.516  1.00  0.00     0.166 C 
BRANCH  40  41
HETATM   41  C29 UNL     1      -4.544  -3.415  -0.873  1.00  0.00    -0.003 C 
HETATM   42  C30 UNL     1      -5.128  -3.168   0.489  1.00  0.00     0.011 C 
HETATM   43  C31 UNL     1      -5.658  -4.100  -1.684  1.00  0.00     0.011 C 
ENDBRANCH  40  41
ENDBRANCH   9  40
BRANCH   7  44
HETATM   44  C22 UNL     1      -6.030   0.864  -0.475  1.00  0.00     0.003 C 
HETATM   45  C23 UNL     1      -7.244   0.055   0.018  1.00  0.00     0.064 C 
BRANCH  44  46
HETATM   46  C24 UNL     1      -5.936   2.235   0.068  1.00  0.00     0.084 C 
BRANCH  46  47
HETATM   47  C25 UNL     1      -7.167   3.078   0.171  1.00  0.00     0.122 C 
HETATM   48  C26 UNL     1      -8.262   2.632   1.057  1.00  0.00     0.040 C 
BRANCH  47  49
HETATM   49  O4  UNL     1      -6.818   4.410   0.518  1.00  0.00    -0.391 OA
HETATM   50  C27 UNL     1      -7.121   5.311  -0.485  1.00  0.00     0.202 C 
ENDBRANCH  47  49
ENDBRANCH  46  47
ENDBRANCH  44  46
ENDBRANCH   7  44
TORSDOF 17
