REMARK  4 active torsions:
REMARK  status: ('A' for Active; 'I' for Inactive)
REMARK    1  A    between atoms: N1_4  and  C4_5 
REMARK    2  A    between atoms: C4_5  and  C5_6 
REMARK    3  A    between atoms: C5_6  and  C6_8 
REMARK    4  A    between atoms: C6_8  and  O2_9 
ROOT
HETATM    1  C5  UNL     1      -0.493  -0.268  -0.796  1.00  0.00     0.199 C 
HETATM    2  O1  UNL     1      -0.267   0.037  -1.959  1.00  0.00    -0.292 OA
ENDROOT
BRANCH   1   3
HETATM    3  C4  UNL     1       0.549  -0.921   0.044  1.00  0.00     0.354 C 
BRANCH   3   4
HETATM    4  N1  UNL     1       1.806  -1.113  -0.595  1.00  0.00     0.100 N 
HETATM    5  C3  UNL     1       2.552   0.067  -0.869  1.00  0.00     0.304 C 
HETATM    6  C2  UNL     1       3.309   0.616   0.319  1.00  0.00     0.145 C 
HETATM    7  C1  UNL     1       4.330   1.628  -0.202  1.00  0.00     0.041 C 
HETATM    8  O3  UNL     1       4.037  -0.363   0.974  1.00  0.00    -0.383 OA
HETATM    9  C12 UNL     1       3.106  -1.328   1.397  1.00  0.00     0.198 C 
HETATM   10  C11 UNL     1       2.601  -2.037   0.181  1.00  0.00     0.299 C 
ENDBRANCH   3   4
ENDBRANCH   1   3
BRANCH   1  11
HETATM   11  C6  UNL     1      -1.811  -0.009  -0.156  1.00  0.00     0.168 C 
HETATM   12  C7  UNL     1      -2.858  -0.789  -0.895  1.00  0.00     0.057 C 
HETATM   13  C8  UNL     1      -4.222  -0.178  -0.845  1.00  0.00     0.005 C 
HETATM   14  C9  UNL     1      -4.447   0.711   0.349  1.00  0.00     0.010 C 
HETATM   15  C10 UNL     1      -3.813   2.073   0.213  1.00  0.00     0.077 C 
HETATM   16  S1  UNL     1      -2.086   1.781  -0.257  1.00  0.00    -0.124 SA
BRANCH  11  17
HETATM   17  O2  UNL     1      -1.780  -0.460   1.148  1.00  0.00    -0.372 OA
ATOM     18  H2  UNL     1      -2.622  -0.295   1.557  1.00  0.00     0.212 HD
ENDBRANCH  11  17
ENDBRANCH   1  11
TORSDOF 4
