REMARK  4 active torsions:
REMARK  status: ('A' for Active; 'I' for Inactive)
REMARK    1  A    between atoms: O1_2  and  C2_3 
REMARK    2  A    between atoms: C2_3  and  C3_5 
REMARK    3  A    between atoms: C6_10  and  C7_11 
REMARK    4  A    between atoms: C7_11  and  O3_12 
ROOT
HETATM    1  C3  UNL     1       0.918   0.834   0.401  1.00  0.00     0.201 C 
HETATM    2  C4  UNL     1       0.780   2.166   1.042  1.00  0.00     0.086 C 
HETATM    3  N1  UNL     1       0.686   3.198   1.555  1.00  0.00    -0.196 NA
HETATM    4  C5  UNL     1       0.218   0.983  -0.949  1.00  0.00     0.212 C 
HETATM    5  F1  UNL     1       0.679   0.111  -1.880  1.00  0.00    -0.246 F 
HETATM    6  C6  UNL     1      -1.207   0.780  -0.547  1.00  0.00     0.056 C 
HETATM    7  C8  UNL     1      -1.164  -0.422   0.325  1.00  0.00    -0.003 C 
HETATM    8  C9  UNL     1      -2.391  -0.523   1.206  1.00  0.00     0.018 C 
HETATM    9  C10 UNL     1      -0.971  -1.721  -0.377  1.00  0.00     0.018 C 
HETATM   10  C11 UNL     1       0.079  -0.147   1.181  1.00  0.00     0.177 C 
HETATM   11  C12 UNL     1       0.772  -1.390   1.496  1.00  0.00     0.087 C 
HETATM   12  N2  UNL     1       1.299  -2.373   1.757  1.00  0.00    -0.195 NA
HETATM   13  C13 UNL     1      -0.402   0.485   2.423  1.00  0.00     0.087 C 
HETATM   14  N3  UNL     1      -0.766   0.983   3.402  1.00  0.00    -0.195 NA
ENDROOT
BRANCH   1  15
HETATM   15  C2  UNL     1       2.313   0.448   0.261  1.00  0.00     0.287 C 
HETATM   16  O2  UNL     1       3.219   1.186   0.710  1.00  0.00    -0.263 OA
BRANCH  15  17
HETATM   17  O1  UNL     1       2.667  -0.728  -0.363  1.00  0.00    -0.325 OA
HETATM   18  C1  UNL     1       4.042  -1.052  -0.475  1.00  0.00     0.213 C 
ENDBRANCH  15  17
ENDBRANCH   1  15
BRANCH   6  19
HETATM   19  C7  UNL     1      -2.153   0.686  -1.703  1.00  0.00     0.172 C 
BRANCH  19  20
HETATM   20  O3  UNL     1      -2.061   1.887  -2.419  1.00  0.00    -0.400 OA
ATOM     21  H3  UNL     1      -2.661   1.827  -3.153  1.00  0.00     0.209 HD
ENDBRANCH  19  20
ENDBRANCH   6  19
TORSDOF 4
