REMARK  3 active torsions:
REMARK  status: ('A' for Active; 'I' for Inactive)
REMARK    1  A    between atoms: C7_9  and  C8_10 
REMARK    2  A    between atoms: C11_15  and  C12_16 
REMARK    3  A    between atoms: C12_16  and  O4_17 
ROOT
HETATM    1  C1  UNL     1      -1.714   1.194  -1.443  1.00  0.00     0.048 C 
HETATM    2  C2  UNL     1      -1.782   0.342  -0.172  1.00  0.00     0.083 C 
HETATM    3  C3  UNL     1      -3.028  -0.477  -0.152  1.00  0.00     0.048 C 
HETATM    4  O1  UNL     1      -1.793   1.239   0.909  1.00  0.00    -0.308 OA
HETATM    5  C4  UNL     1      -1.232   1.048   2.133  1.00  0.00     0.273 C 
HETATM    6  O2  UNL     1      -1.471   1.910   3.042  1.00  0.00    -0.264 OA
HETATM    7  C5  UNL     1      -0.356  -0.082   2.519  1.00  0.00     0.148 C 
HETATM    8  C6  UNL     1       0.979   0.092   1.815  1.00  0.00     0.034 C 
HETATM    9  C7  UNL     1       0.569   0.421   0.374  1.00  0.00     0.040 C 
HETATM   10  C11 UNL     1      -0.509  -0.507  -0.046  1.00  0.00     0.067 C 
HETATM   11  S1  UNL     1      -0.911  -1.500   1.465  1.00  0.00    -0.138 SA
ENDROOT
BRANCH   9  12
HETATM   12  C8  UNL     1       1.734   0.567  -0.528  1.00  0.00     0.135 C 
HETATM   13  C9  UNL     1       2.687  -0.543  -0.721  1.00  0.00     0.098 C 
HETATM   14  C10 UNL     1       3.657   0.625  -0.713  1.00  0.00     0.309 C 
HETATM   15  F1  UNL     1       4.856   0.395  -0.115  1.00  0.00    -0.220 F 
HETATM   16  O3  UNL     1       2.760   1.274   0.144  1.00  0.00    -0.351 OA
ENDBRANCH   9  12
BRANCH  10  17
HETATM   17  C12 UNL     1      -0.288  -1.394  -1.193  1.00  0.00     0.188 C 
BRANCH  17  18
HETATM   18  O4  UNL     1      -1.416  -2.253  -1.269  1.00  0.00    -0.399 OA
ATOM     19  H4  UNL     1      -1.273  -2.828  -2.012  1.00  0.00     0.209 HD
ENDBRANCH  17  18
ENDBRANCH  10  17
TORSDOF 3
