REMARK  8 active torsions:
REMARK  status: ('A' for Active; 'I' for Inactive)
REMARK    1  A    between atoms: C2_2  and  C4_4 
REMARK    2  A    between atoms: C4_4  and  N1_5 
REMARK    3  A    between atoms: N1_5  and  C6_7 
REMARK    4  A    between atoms: N1_5  and  C8_11 
REMARK    5  A    between atoms: C6_7  and  C7_8 
REMARK    6  A    between atoms: C7_8  and  O1_9 
REMARK    7  A    between atoms: C8_11  and  C9_12 
REMARK    8  A    between atoms: C9_12  and  C10_13 
ROOT
HETATM    1  C10 UNL     1       0.271  -0.158   1.096  1.00  0.00    -0.054 A 
HETATM    2  C11 UNL     1       0.892   0.743   1.902  1.00  0.00     0.008 A 
HETATM    3  C12 UNL     1       2.278   0.889   1.784  1.00  0.00     0.015 A 
HETATM    4  C13 UNL     1       2.989   0.140   0.877  1.00  0.00    -0.002 A 
HETATM    5  C14 UNL     1       4.378   0.250   0.724  1.00  0.00    -0.029 A 
HETATM    6  C15 UNL     1       5.025  -0.521  -0.189  1.00  0.00    -0.033 A 
HETATM    7  C16 UNL     1       4.298  -1.406  -0.958  1.00  0.00     0.098 A 
HETATM    8  N2  UNL     1       2.977  -1.539  -0.842  1.00  0.00    -0.360 N 
HETATM    9  C17 UNL     1       2.247  -2.478  -1.665  1.00  0.00     0.155 C 
HETATM   10  C18 UNL     1       2.343  -0.786   0.052  1.00  0.00     0.045 A 
HETATM   11  C19 UNL     1       0.984  -0.909   0.188  1.00  0.00     0.037 A 
HETATM   12  C20 UNL     1       6.444  -0.594  -0.528  1.00  0.00     0.060 C 
HETATM   13  C21 UNL     1       7.048   0.764  -0.767  1.00  0.00     0.127 C 
HETATM   14  N3  UNL     1       7.231   1.481   0.472  1.00  0.00    -0.360 N 
ATOM     15  H3  UNL     1       8.097   2.011   0.572  1.00  0.00     0.162 HD
HETATM   16  C22 UNL     1       6.338   1.522   1.553  1.00  0.00     0.221 C 
HETATM   17  O2  UNL     1       6.876   1.835   2.653  1.00  0.00    -0.273 OA
HETATM   18  C23 UNL     1       4.879   1.269   1.667  1.00  0.00     0.142 C 
ENDROOT
BRANCH   1  19
HETATM   19  C9  UNL     1      -1.220  -0.395   1.132  1.00  0.00     0.066 C 
BRANCH  19  20
HETATM   20  C8  UNL     1      -1.803   0.539   0.142  1.00  0.00     0.241 C 
BRANCH  20  21
HETATM   21  N1  UNL     1      -3.273   0.473   0.014  1.00  0.00    -0.068 N 
HETATM   22  C5  UNL     1      -3.527   1.504  -0.990  1.00  0.00     0.272 C 
BRANCH  21  23
HETATM   23  C4  UNL     1      -3.672  -0.774  -0.546  1.00  0.00     0.241 C 
BRANCH  23  24
HETATM   24  C2  UNL     1      -4.888  -1.445  -0.053  1.00  0.00     0.003 C 
HETATM   25  C1  UNL     1      -6.181  -0.699  -0.212  1.00  0.00     0.011 C 
HETATM   26  C3  UNL     1      -5.036  -2.725  -0.907  1.00  0.00     0.011 C 
ENDBRANCH  23  24
ENDBRANCH  21  23
BRANCH  21  27
HETATM   27  C6  UNL     1      -3.907   0.865   1.230  1.00  0.00     0.262 C 
BRANCH  27  28
HETATM   28  C7  UNL     1      -4.649   2.158   1.223  1.00  0.00     0.192 C 
BRANCH  28  29
HETATM   29  O1  UNL     1      -3.853   3.267   0.914  1.00  0.00    -0.399 OA
ATOM     30  H1  UNL     1      -4.326   4.091   0.910  1.00  0.00     0.209 HD
ENDBRANCH  28  29
ENDBRANCH  27  28
ENDBRANCH  21  27
ENDBRANCH  20  21
ENDBRANCH  19  20
ENDBRANCH   1  19
TORSDOF 8
