REMARK  7 active torsions:
REMARK  status: ('A' for Active; 'I' for Inactive)
REMARK    1  A    between atoms: O1_2  and  C2_3 
REMARK    2  A    between atoms: C2_3  and  C3_4 
REMARK    3  A    between atoms: C7_10  and  C8_11 
REMARK    4  A    between atoms: C8_11  and  O2_13 
REMARK    5  A    between atoms: C8_11  and  C10_15 
REMARK    6  A    between atoms: C10_15  and  O3_16 
REMARK    7  A    between atoms: C11_19  and  O5_20 
ROOT
HETATM    1  C3  UNL     1       2.674  -0.168  -0.267  1.00  0.00     0.152 C 
HETATM    2  C4  UNL     1       3.365  -0.020   1.078  1.00  0.00     0.073 C 
HETATM    3  N1  UNL     1       1.509   0.688  -0.355  1.00  0.00    -0.361 N 
ATOM      4  H1  UNL     1       1.645   1.670  -0.595  1.00  0.00     0.162 HD
HETATM    5  C5  UNL     1       0.345   0.281  -0.151  1.00  0.00     0.029 C 
HETATM    6  C6  UNL     1      -0.910   1.113  -0.225  1.00  0.00     0.091 C 
HETATM    7  C7  UNL     1      -1.872   0.483   0.734  1.00  0.00     0.166 C 
HETATM    8  O4  UNL     1      -2.233  -0.789   0.307  1.00  0.00    -0.349 OA
HETATM    9  C11 UNL     1      -1.230  -1.556  -0.227  1.00  0.00     0.302 C 
HETATM   10  C13 UNL     1       0.143  -1.152   0.202  1.00  0.00     0.176 C 
HETATM   11  O6  UNL     1       0.330  -1.444   1.542  1.00  0.00    -0.364 OA
HETATM   12  C14 UNL     1       1.146  -2.509   1.195  1.00  0.00     0.205 C 
HETATM   13  C15 UNL     1       1.250  -2.024  -0.200  1.00  0.00     0.194 C 
HETATM   14  O7  UNL     1       2.423  -1.456  -0.608  1.00  0.00    -0.348 OA
ENDROOT
BRANCH   7  15
HETATM   15  C8  UNL     1      -3.162   1.224   0.953  1.00  0.00     0.102 C 
HETATM   16  C9  UNL     1      -4.055   1.248  -0.255  1.00  0.00     0.051 C 
BRANCH  15  17
HETATM   17  O2  UNL     1      -3.848   0.440   1.938  1.00  0.00    -0.385 OA
ATOM     18  H2  UNL     1      -4.663   0.908   2.076  1.00  0.00     0.210 HD
ENDBRANCH  15  17
BRANCH  15  19
HETATM   19  C10 UNL     1      -3.061   2.579   1.541  1.00  0.00     0.204 C 
BRANCH  19  20
HETATM   20  O3  UNL     1      -2.462   3.497   0.715  1.00  0.00    -0.398 OA
ATOM     21  H3  UNL     1      -2.397   4.366   1.092  1.00  0.00     0.209 HD
ENDBRANCH  19  20
ENDBRANCH  15  19
ENDBRANCH   7  15
BRANCH   9  22
HETATM   22  O5  UNL     1      -1.461  -2.867   0.172  1.00  0.00    -0.362 OA
HETATM   23  C12 UNL     1      -1.802  -3.712  -0.862  1.00  0.00     0.205 C 
ENDBRANCH   9  22
BRANCH   1  24
HETATM   24  C2  UNL     1       3.662   0.397  -1.299  1.00  0.00     0.227 C 
BRANCH  24  25
HETATM   25  O1  UNL     1       3.918   1.703  -0.913  1.00  0.00    -0.391 OA
HETATM   26  C1  UNL     1       4.816   2.333  -1.785  1.00  0.00     0.201 C 
ENDBRANCH  24  25
ENDBRANCH   1  24
TORSDOF 7
