REMARK  4 active torsions:
REMARK  status: ('A' for Active; 'I' for Inactive)
REMARK    1  A    between atoms: C2_2  and  O1_4 
REMARK    2  A    between atoms: O1_4  and  C4_5 
REMARK    3  A    between atoms: C5_6  and  O2_7 
REMARK    4  A    between atoms: C10_15  and  O4_16 
ROOT
HETATM    1  C4  UNL     1       0.089   0.268  -0.052  1.00  0.00     0.185 C 
HETATM    2  C5  UNL     1      -0.662  -0.977  -0.349  1.00  0.00     0.178 C 
HETATM    3  C6  UNL     1      -2.153  -0.808  -0.242  1.00  0.00     0.150 C 
HETATM    4  C7  UNL     1      -2.857  -2.144  -0.271  1.00  0.00     0.042 C 
HETATM    5  O3  UNL     1      -2.517  -0.183   0.943  1.00  0.00    -0.361 OA
HETATM    6  C8  UNL     1      -2.099   1.154   0.828  1.00  0.00     0.259 C 
HETATM    7  C9  UNL     1      -2.703   1.820  -0.314  1.00  0.00     0.094 C 
HETATM    8  N1  UNL     1      -3.178   2.352  -1.222  1.00  0.00    -0.194 NA
HETATM    9  C10 UNL     1      -0.613   1.277   0.769  1.00  0.00     0.192 C 
ENDROOT
BRANCH   9  10
HETATM   10  O4  UNL     1      -0.305   2.574   0.321  1.00  0.00    -0.389 OA
ATOM     11  H4  UNL     1      -0.756   3.222   0.849  1.00  0.00     0.210 HD
ENDBRANCH   9  10
BRANCH   1  12
HETATM   12  O1  UNL     1       1.313  -0.107   0.544  1.00  0.00    -0.376 OA
BRANCH  12  13
HETATM   13  C2  UNL     1       2.398   0.222  -0.225  1.00  0.00     0.114 C 
HETATM   14  C1  UNL     1       3.325   1.110   0.588  1.00  0.00     0.039 C 
HETATM   15  C3  UNL     1       3.201  -1.043  -0.501  1.00  0.00     0.039 C 
ENDBRANCH  12  13
ENDBRANCH   1  12
BRANCH   2  16
HETATM   16  O2  UNL     1      -0.196  -2.028   0.445  1.00  0.00    -0.390 OA
ATOM     17  H2  UNL     1      -0.677  -2.825   0.255  1.00  0.00     0.210 HD
ENDBRANCH   2  16
TORSDOF 4
