REMARK  4 active torsions:
REMARK  status: ('A' for Active; 'I' for Inactive)
REMARK    1  A    between atoms: C2_3  and  N2_4 
REMARK    2  A    between atoms: N3_7  and  C5_8 
REMARK    3  A    between atoms: C7_10  and  O1_11 
REMARK    4  A    between atoms: C8_13  and  O2_14 
ROOT
HETATM    1  N1  UNL     1       4.782   1.332   2.032  1.00  0.00    -0.196 NA
HETATM    2  C1  UNL     1       4.481   1.137   0.938  1.00  0.00     0.079 C 
HETATM    3  C2  UNL     1       4.079   0.886  -0.437  1.00  0.00     0.256 C 
ENDROOT
BRANCH   3   4
HETATM    4  N2  UNL     1       2.802   0.169  -0.490  1.00  0.00    -0.295 N 
HETATM    5  C3  UNL     1       2.645  -1.164  -0.500  1.00  0.00     0.114 A 
HETATM    6  C4  UNL     1       1.307  -1.439  -0.554  1.00  0.00     0.113 A 
HETATM    7  N3  UNL     1       0.640  -0.268  -0.577  1.00  0.00    -0.303 N 
HETATM    8  C10 UNL     1       1.561   0.683  -0.538  1.00  0.00     0.329 A 
HETATM    9  O3  UNL     1       1.319   1.917  -0.543  1.00  0.00    -0.246 OA
BRANCH   7  10
HETATM   10  C5  UNL     1      -0.796  -0.212  -0.634  1.00  0.00     0.099 C 
HETATM   11  C6  UNL     1      -1.443  -1.269   0.267  1.00  0.00     0.060 C 
HETATM   12  C7  UNL     1      -2.887  -0.799   0.249  1.00  0.00     0.148 C 
HETATM   13  C8  UNL     1      -2.727   0.688   0.446  1.00  0.00     0.148 C 
HETATM   14  C9  UNL     1      -1.384   1.064  -0.148  1.00  0.00     0.060 C 
BRANCH  12  15
HETATM   15  O1  UNL     1      -3.596  -1.330   1.318  1.00  0.00    -0.393 OA
ATOM     16  H1  UNL     1      -4.499  -1.036   1.307  1.00  0.00     0.210 HD
ENDBRANCH  12  15
BRANCH  13  17
HETATM   17  O2  UNL     1      -3.779   1.341  -0.203  1.00  0.00    -0.393 OA
ATOM     18  H2  UNL     1      -3.678   2.277  -0.079  1.00  0.00     0.210 HD
ENDBRANCH  13  17
ENDBRANCH   7  10
ENDBRANCH   3   4
TORSDOF 4
