REMARK  4 active torsions:
REMARK  status: ('A' for Active; 'I' for Inactive)
REMARK    1  A    between atoms: C6_10  and  C7_11 
REMARK    2  A    between atoms: C7_11  and  O5_12 
REMARK    3  A    between atoms: C7_11  and  C8_14 
REMARK    4  A    between atoms: C8_14  and  O6_15 
ROOT
HETATM    1  C1  UNL     1       0.068  -2.490   0.326  1.00  0.00     0.042 C 
HETATM    2  C2  UNL     1      -0.461  -1.086   0.441  1.00  0.00     0.152 C 
HETATM    3  O1  UNL     1      -1.087  -0.760  -0.759  1.00  0.00    -0.375 OA
HETATM    4  C3  UNL     1      -2.431  -0.436  -0.572  1.00  0.00     0.163 A 
HETATM    5  C4  UNL     1      -2.931   0.687  -1.427  1.00  0.00     0.165 A 
HETATM    6  O2  UNL     1      -2.030   1.691  -1.738  1.00  0.00    -0.349 OA
HETATM    7  C5  UNL     1      -1.630   1.920  -0.413  1.00  0.00     0.306 A 
HETATM    8  O3  UNL     1      -0.313   1.582  -0.231  1.00  0.00    -0.207 OA
HETATM    9  O4  UNL     1      -0.036   1.146   0.979  1.00  0.00    -0.228 OA
HETATM   10  C6  UNL     1       0.590  -0.088   0.828  1.00  0.00     0.219 C 
HETATM   11  C9  UNL     1      -2.611   0.886   0.026  1.00  0.00     0.107 A 
ENDROOT
BRANCH  10  12
HETATM   12  C7  UNL     1       1.718  -0.021  -0.177  1.00  0.00     0.176 C 
BRANCH  12  13
HETATM   13  O5  UNL     1       2.340  -1.260  -0.323  1.00  0.00    -0.391 OA
ATOM     14  H5  UNL     1       3.049  -1.218  -0.954  1.00  0.00     0.210 HD
ENDBRANCH  12  13
BRANCH  12  15
HETATM   15  C8  UNL     1       2.779   0.949   0.294  1.00  0.00     0.198 C 
BRANCH  15  16
HETATM   16  O6  UNL     1       3.814   1.055  -0.605  1.00  0.00    -0.398 OA
ATOM     17  H6  UNL     1       4.480   1.664  -0.309  1.00  0.00     0.209 HD
ENDBRANCH  15  16
ENDBRANCH  12  15
ENDBRANCH  10  12
TORSDOF 4
