REMARK  4 active torsions:
REMARK  status: ('A' for Active; 'I' for Inactive)
REMARK    1  A    between atoms: C2_2  and  O1_3 
REMARK    2  A    between atoms: O1_3  and  C3_4 
REMARK    3  A    between atoms: C3_4  and  C4_6 
REMARK    4  A    between atoms: C11_14  and  O3_15 
ROOT
HETATM    1  C4  UNL     1       0.285   0.732   0.841  1.00  0.00     0.106 C 
HETATM    2  C5  UNL     1       0.109   2.216   0.812  1.00  0.00     0.053 C 
HETATM    3  C6  UNL     1      -0.756   2.761  -0.250  1.00  0.00     0.171 C 
HETATM    4  F1  UNL     1      -1.391   3.943   0.165  1.00  0.00    -0.249 F 
HETATM    5  C7  UNL     1      -1.820   1.873  -0.794  1.00  0.00     0.038 C 
HETATM    6  C8  UNL     1      -1.147   0.529  -1.106  1.00  0.00     0.023 C 
HETATM    7  C9  UNL     1      -0.796  -0.054   0.224  1.00  0.00     0.063 C 
HETATM    8  C10 UNL     1      -0.607  -1.549   0.234  1.00  0.00     0.054 C 
HETATM    9  C11 UNL     1      -1.743  -2.256  -0.473  1.00  0.00     0.143 C 
HETATM   10  C12 UNL     1      -3.091  -1.906   0.081  1.00  0.00     0.210 C 
HETATM   11  O4  UNL     1      -3.155  -0.619   0.669  1.00  0.00    -0.318 OA
HETATM   12  C13 UNL     1      -2.071   0.108   1.053  1.00  0.00     0.268 C 
HETATM   13  O5  UNL     1      -2.060   0.879   2.017  1.00  0.00    -0.264 OA
ENDROOT
BRANCH   1  14
HETATM   14  C3  UNL     1       1.599   0.429   0.274  1.00  0.00     0.264 C 
HETATM   15  O2  UNL     1       1.699  -0.166  -0.808  1.00  0.00    -0.265 OA
BRANCH  14  16
HETATM   16  O1  UNL     1       2.805   0.784   0.900  1.00  0.00    -0.322 OA
BRANCH  16  17
HETATM   17  C2  UNL     1       4.052   0.453   0.281  1.00  0.00     0.174 C 
HETATM   18  C1  UNL     1       4.160  -1.048   0.111  1.00  0.00     0.034 C 
ENDBRANCH  16  17
ENDBRANCH  14  16
ENDBRANCH   1  14
BRANCH   9  19
HETATM   19  O3  UNL     1      -1.495  -3.639  -0.308  1.00  0.00    -0.393 OA
ATOM     20  H3  UNL     1      -2.208  -4.083  -0.752  1.00  0.00     0.210 HD
ENDBRANCH   9  19
TORSDOF 4
