REMARK  5 active torsions:
REMARK  status: ('A' for Active; 'I' for Inactive)
REMARK    1  A    between atoms: O1_1  and  C1_3 
REMARK    2  A    between atoms: C1_3  and  C2_4 
REMARK    3  A    between atoms: N1_8  and  C6_9 
REMARK    4  A    between atoms: C9_12  and  C10_13 
REMARK    5  A    between atoms: C10_13  and  N2_14 
ROOT
HETATM    1  C6  UNL     1      -0.552   0.096  -0.512  1.00  0.00     0.223 C 
HETATM    2  C7  UNL     1       0.112   0.173   0.821  1.00  0.00     0.036 C 
HETATM    3  C8  UNL     1       1.540  -0.296   0.635  1.00  0.00     0.008 C 
HETATM    4  C9  UNL     1       1.869  -0.723  -0.754  1.00  0.00     0.006 C 
HETATM    5  C13 UNL     1       0.909  -1.655  -1.402  1.00  0.00     0.008 C 
HETATM    6  C14 UNL     1      -0.504  -1.325  -0.996  1.00  0.00     0.036 C 
ENDROOT
BRANCH   1   7
HETATM    7  N1  UNL     1      -1.844   0.702  -0.577  1.00  0.00     0.099 N 
HETATM    8  C2  UNL     1      -2.869   0.193   0.238  1.00  0.00     0.246 C 
HETATM    9  C3  UNL     1      -3.873   1.347   0.329  1.00  0.00     0.040 C 
HETATM   10  C4  UNL     1      -3.259   2.500  -0.408  1.00  0.00     0.032 C 
HETATM   11  C5  UNL     1      -1.789   2.145  -0.455  1.00  0.00     0.273 C 
BRANCH   8  12
HETATM   12  C1  UNL     1      -3.649  -0.976  -0.301  1.00  0.00     0.199 C 
BRANCH  12  13
HETATM   13  O1  UNL     1      -4.616  -1.293   0.688  1.00  0.00    -0.399 OA
ATOM     14  H1  UNL     1      -5.108  -2.031   0.348  1.00  0.00     0.209 HD
ENDBRANCH  12  13
ENDBRANCH   8  12
ENDBRANCH   1   7
BRANCH   4  15
HETATM   15  C10 UNL     1       3.218  -1.419  -0.702  1.00  0.00     0.154 C 
BRANCH  15  16
HETATM   16  N2  UNL     1       4.280  -0.568  -0.210  1.00  0.00    -0.287 N 
HETATM   17  C11 UNL     1       4.665  -0.423   1.051  1.00  0.00     0.130 A 
HETATM   18  C12 UNL     1       5.705   0.479   1.057  1.00  0.00     0.127 A 
HETATM   19  N3  UNL     1       5.920   0.856  -0.210  1.00  0.00    -0.296 N 
HETATM   20  N4  UNL     1       5.060   0.223  -0.965  1.00  0.00    -0.241 N 
ATOM     21  H3  UNL     1       6.627   1.518  -0.529  1.00  0.00     0.187 HD
ATOM     22  H4  UNL     1       4.992   0.316  -1.978  1.00  0.00     0.208 HD
ENDBRANCH  15  16
ENDBRANCH   4  15
TORSDOF 5
