REMARK  7 active torsions:
REMARK  status: ('A' for Active; 'I' for Inactive)
REMARK    1  A    between atoms: N1_6  and  C6_7 
REMARK    2  A    between atoms: C6_7  and  O1_8 
REMARK    3  A    between atoms: C6_7  and  O3_12 
REMARK    4  A    between atoms: O1_8  and  C7_9 
REMARK    5  A    between atoms: C7_9  and  O2_10 
REMARK    6  A    between atoms: O3_12  and  C8_13 
REMARK    7  A    between atoms: C8_13  and  C9_15 
ROOT
HETATM    1  C6  UNL     1      -0.497   0.553   0.604  1.00  0.00     0.517 C 
ENDROOT
BRANCH   1   2
HETATM    2  N1  UNL     1      -1.447  -0.498   0.389  1.00  0.00     0.149 N 
HETATM    3  C5  UNL     1      -2.776  -0.040   0.173  1.00  0.00     0.233 C 
HETATM    4  C2  UNL     1      -3.471  -1.326  -0.303  1.00  0.00     0.021 C 
HETATM    5  C4  UNL     1      -2.839   0.357  -1.310  1.00  0.00     0.043 C 
HETATM    6  C1  UNL     1      -3.166  -2.533   0.540  1.00  0.00     0.012 C 
HETATM    7  C3  UNL     1      -2.540  -1.139  -1.491  1.00  0.00     0.022 C 
HETATM    8  C13 UNL     1      -1.192  -1.235  -0.837  1.00  0.00     0.284 C 
ENDBRANCH   1   2
BRANCH   1   9
HETATM    9  O1  UNL     1      -0.818   1.329   1.722  1.00  0.00    -0.312 OA
BRANCH   9  10
HETATM   10  C7  UNL     1      -1.099   2.637   1.425  1.00  0.00     0.340 C 
BRANCH  10  11
HETATM   11  O2  UNL     1      -1.398   3.287   2.621  1.00  0.00    -0.377 OA
ATOM     12  H2  UNL     1      -1.593   4.194   2.415  1.00  0.00     0.212 HD
ENDBRANCH  10  11
ENDBRANCH   9  10
ENDBRANCH   1   9
BRANCH   1  13
HETATM   13  O3  UNL     1       0.834   0.081   0.673  1.00  0.00    -0.262 OA
BRANCH  13  14
HETATM   14  C8  UNL     1       1.822   0.497  -0.207  1.00  0.00     0.270 C 
HETATM   15  O4  UNL     1       1.484   1.330  -1.089  1.00  0.00    -0.264 OA
BRANCH  14  16
HETATM   16  C9  UNL     1       3.227  -0.021  -0.113  1.00  0.00     0.037 C 
HETATM   17  C10 UNL     1       3.261  -1.530  -0.283  1.00  0.00     0.025 C 
HETATM   18  C11 UNL     1       3.897   0.393   1.157  1.00  0.00     0.025 C 
HETATM   19  C12 UNL     1       3.992   0.567  -1.279  1.00  0.00     0.025 C 
ENDBRANCH  14  16
ENDBRANCH  13  14
ENDBRANCH   1  13
TORSDOF 7
