REMARK  3 active torsions:
REMARK  status: ('A' for Active; 'I' for Inactive)
REMARK    1  A    between atoms: N4_11  and  C5_12 
REMARK    2  A    between atoms: C5_12  and  C6_13 
REMARK    3  A    between atoms: C6_13  and  N5_14 
ROOT
HETATM    1  S1  UNL     1       5.744  -1.574  -1.395  1.00  0.00    -0.039 SA
HETATM    2  C1  UNL     1       4.916  -0.321  -0.752  1.00  0.00     0.194 A 
HETATM    3  N1  UNL     1       5.388   0.786  -0.161  1.00  0.00    -0.275 N 
ATOM      4  H1  UNL     1       6.374   1.011  -0.027  1.00  0.00     0.189 HD
HETATM    5  N2  UNL     1       4.380   1.534   0.218  1.00  0.00    -0.285 N 
ATOM      6  H2  UNL     1       4.454   2.433   0.694  1.00  0.00     0.188 HD
HETATM    7  C2  UNL     1       3.234   0.923  -0.122  1.00  0.00     0.129 A 
HETATM    8  N3  UNL     1       3.592  -0.235  -0.727  1.00  0.00    -0.308 N 
HETATM    9  C3  UNL     1       2.443  -1.041  -1.159  1.00  0.00     0.163 C 
HETATM   10  C4  UNL     1       1.505  -0.987   0.059  1.00  0.00     0.293 C 
HETATM   11  N4  UNL     1       0.862   0.302  -0.003  1.00  0.00     0.098 N 
HETATM   12  C11 UNL     1       1.847   1.344   0.076  1.00  0.00     0.350 C 
ENDROOT
BRANCH  11  13
HETATM   13  C5  UNL     1      -0.063   0.517   1.085  1.00  0.00     0.303 C 
BRANCH  13  14
HETATM   14  C6  UNL     1      -1.272  -0.334   1.081  1.00  0.00     0.302 C 
BRANCH  14  15
HETATM   15  N5  UNL     1      -2.131  -0.238  -0.052  1.00  0.00     0.090 N 
HETATM   16  C7  UNL     1      -2.839   0.990  -0.196  1.00  0.00     0.272 C 
HETATM   17  C8  UNL     1      -4.306   0.613  -0.454  1.00  0.00     0.032 C 
HETATM   18  C9  UNL     1      -4.409  -0.631   0.442  1.00  0.00     0.032 C 
HETATM   19  C10 UNL     1      -3.098  -1.319   0.038  1.00  0.00     0.272 C 
ENDBRANCH  14  15
ENDBRANCH  13  14
ENDBRANCH  11  13
TORSDOF 3
