REMARK  6 active torsions:
REMARK  status: ('A' for Active; 'I' for Inactive)
REMARK    1  A    between atoms: C2_2  and  O2_4 
REMARK    2  A    between atoms: O2_4  and  C3_5 
REMARK    3  A    between atoms: C4_6  and  O3_7 
REMARK    4  A    between atoms: O3_7  and  C5_8 
REMARK    5  A    between atoms: C5_8  and  C6_10 
REMARK    6  A    between atoms: C11_15  and  O5_16 
ROOT
HETATM    1  C3  UNL     1      -1.774  -0.572  -0.329  1.00  0.00     0.167 C 
HETATM    2  C4  UNL     1      -0.446  -1.323  -0.309  1.00  0.00     0.164 C 
HETATM    3  C10 UNL     1      -0.882  -2.653   0.259  1.00  0.00     0.067 C 
HETATM    4  C11 UNL     1      -1.707  -2.212   1.458  1.00  0.00     0.127 C 
HETATM    5  C12 UNL     1      -2.409  -0.962   0.971  1.00  0.00     0.042 C 
HETATM    6  C13 UNL     1      -3.859  -1.318   0.691  1.00  0.00     0.015 C 
ENDROOT
BRANCH   2   7
HETATM    7  O3  UNL     1       0.419  -0.619   0.537  1.00  0.00    -0.310 OA
BRANCH   7   8
HETATM    8  C5  UNL     1       1.644  -0.078   0.106  1.00  0.00     0.283 C 
HETATM    9  O4  UNL     1       1.904  -0.277  -1.108  1.00  0.00    -0.260 OA
BRANCH   8  10
HETATM   10  C6  UNL     1       2.515   0.645   1.008  1.00  0.00     0.084 C 
HETATM   11  C7  UNL     1       3.669   1.170   0.658  1.00  0.00    -0.082 C 
HETATM   12  C8  UNL     1       4.175   1.056  -0.727  1.00  0.00     0.043 C 
HETATM   13  C9  UNL     1       4.490   1.895   1.664  1.00  0.00     0.043 C 
ENDBRANCH   8  10
ENDBRANCH   7   8
ENDBRANCH   2   7
BRANCH   1  14
HETATM   14  O2  UNL     1      -1.591   0.811  -0.467  1.00  0.00    -0.313 OA
BRANCH  14  15
HETATM   15  C2  UNL     1      -2.108   1.472  -1.571  1.00  0.00     0.255 C 
HETATM   16  C1  UNL     1      -1.952   2.934  -1.780  1.00  0.00     0.126 C 
HETATM   17  O1  UNL     1      -2.732   0.783  -2.419  1.00  0.00    -0.266 OA
ENDBRANCH  14  15
ENDBRANCH   1  14
BRANCH   4  18
HETATM   18  O5  UNL     1      -0.879  -1.928   2.541  1.00  0.00    -0.395 OA
ATOM     19  H5  UNL     1      -1.394  -1.653   3.290  1.00  0.00     0.210 HD
ENDBRANCH   4  18
TORSDOF 6
