REMARK  6 active torsions:
REMARK  status: ('A' for Active; 'I' for Inactive)
REMARK    1  A    between atoms: N1_2  and  C2_4 
REMARK    2  A    between atoms: C2_4  and  O2_28 
REMARK    3  A    between atoms: N2_5  and  C3_7 
REMARK    4  A    between atoms: C3_7  and  C5_9 
REMARK    5  A    between atoms: C9_15  and  C10_16 
REMARK    6  A    between atoms: C11_17  and  C12_18 
ROOT
HETATM    1  C5  UNL     1      -1.703  -1.641   0.470  1.00  0.00     0.120 C 
HETATM    2  C6  UNL     1      -1.583  -2.617   1.642  1.00  0.00     0.106 C 
HETATM    3  S1  UNL     1      -0.094  -3.540   1.069  1.00  0.00    -0.107 SA
HETATM    4  C7  UNL     1       0.390  -2.368  -0.264  1.00  0.00     0.190 C 
HETATM    5  C8  UNL     1      -0.064  -2.849  -1.600  1.00  0.00     0.085 C 
HETATM    6  O1  UNL     1       1.724  -2.020  -0.185  1.00  0.00    -0.308 OA
HETATM    7  C9  UNL     1       1.815  -0.647  -0.067  1.00  0.00     0.095 C 
HETATM    8  C17 UNL     1       0.612  -0.154   0.158  1.00  0.00     0.040 C 
HETATM    9  C18 UNL     1       0.323   1.294   0.341  1.00  0.00     0.071 C 
HETATM   10  N4  UNL     1      -0.358  -1.193   0.197  1.00  0.00    -0.334 N 
ENDROOT
BRANCH   1  11
HETATM   11  C3  UNL     1      -2.640  -0.555   0.847  1.00  0.00     0.104 C 
HETATM   12  C4  UNL     1      -3.997  -1.161   1.124  1.00  0.00     0.034 C 
BRANCH  11  13
HETATM   13  N2  UNL     1      -2.807   0.411  -0.230  1.00  0.00    -0.350 N 
HETATM   14  C2  UNL     1      -3.544   1.443   0.005  1.00  0.00     0.214 C 
ATOM     15  H2  UNL     1      -2.358   0.276  -1.136  1.00  0.00     0.163 HD
BRANCH  14  16
HETATM   16  N1  UNL     1      -4.193   1.680   1.247  1.00  0.00    -0.361 N 
HETATM   17  C1  UNL     1      -5.528   2.221   1.342  1.00  0.00     0.150 C 
ATOM     18  H1  UNL     1      -3.694   1.458   2.108  1.00  0.00     0.162 HD
ENDBRANCH  14  16
BRANCH  14  19
HETATM   19  O2  UNL     1      -3.718   2.377  -1.005  1.00  0.00    -0.327 OA
HETATM   20  C19 UNL     1      -3.522   1.930  -2.353  1.00  0.00     0.213 C 
ENDBRANCH  14  19
ENDBRANCH  11  13
ENDBRANCH   1  11
BRANCH   7  21
HETATM   21  C10 UNL     1       3.073   0.134  -0.177  1.00  0.00     0.040 C 
HETATM   22  C11 UNL     1       4.189  -0.522  -0.404  1.00  0.00     0.015 C 
BRANCH  22  23
HETATM   23  C12 UNL     1       5.459   0.172  -0.525  1.00  0.00    -0.021 A 
HETATM   24  C13 UNL     1       5.573   1.555  -0.410  1.00  0.00     0.014 A 
HETATM   25  C14 UNL     1       6.817   2.127  -0.538  1.00  0.00     0.018 A 
HETATM   26  C15 UNL     1       7.910   1.324  -0.776  1.00  0.00     0.087 A 
HETATM   27  N3  UNL     1       7.772  -0.017  -0.884  1.00  0.00    -0.374 N 
HETATM   28  C16 UNL     1       6.595  -0.606  -0.767  1.00  0.00     0.099 A 
ATOM     29  H3  UNL     1       8.598  -0.589  -1.060  1.00  0.00     0.164 HD
ENDBRANCH  22  23
ENDBRANCH   7  21
TORSDOF 6
