REMARK  5 active torsions:
REMARK  status: ('A' for Active; 'I' for Inactive)
REMARK    1  A    between atoms: O1_2  and  C2_3 
REMARK    2  A    between atoms: C5_6  and  N1_7 
REMARK    3  A    between atoms: N1_7  and  N2_9 
REMARK    4  A    between atoms: C6_11  and  C7_12 
REMARK    5  A    between atoms: C20_29  and  O2_30 
ROOT
HETATM    1  C2  UNL     1      -1.954  -2.891   0.564  1.00  0.00     0.102 A 
HETATM    2  C3  UNL     1      -0.984  -1.947   0.300  1.00  0.00     0.057 A 
HETATM    3  C4  UNL     1      -1.230  -0.586   0.319  1.00  0.00     0.041 A 
HETATM    4  C5  UNL     1      -0.208   0.340   0.039  1.00  0.00     0.156 A 
HETATM    5  N3  UNL     1      -0.542   1.634   0.079  1.00  0.00    -0.221 N 
HETATM    6  N4  UNL     1       0.205   2.728  -0.139  1.00  0.00    -0.295 N 
ATOM      7  H4  UNL     1       1.195   2.716  -0.382  1.00  0.00     0.187 HD
HETATM    8  C13 UNL     1      -0.533   3.842   0.008  1.00  0.00     0.026 A 
HETATM    9  C14 UNL     1      -0.123   5.259  -0.134  1.00  0.00     0.070 C 
HETATM   10  C15 UNL     1      -1.792   3.398   0.332  1.00  0.00     0.076 A 
HETATM   11  C16 UNL     1      -1.813   2.014   0.380  1.00  0.00     0.133 A 
HETATM   12  N5  UNL     1      -2.803   1.132   0.651  1.00  0.00    -0.335 N 
HETATM   13  C17 UNL     1      -4.132   1.622   0.958  1.00  0.00     0.158 C 
HETATM   14  C18 UNL     1      -2.506  -0.164   0.618  1.00  0.00     0.052 A 
HETATM   15  C19 UNL     1      -3.507  -1.101   0.891  1.00  0.00     0.070 A 
HETATM   16  C20 UNL     1      -3.225  -2.452   0.861  1.00  0.00     0.103 A 
ENDROOT
BRANCH   4  17
HETATM   17  N1  UNL     1       0.894  -0.099  -0.219  1.00  0.00    -0.284 N 
ATOM     18  H1  UNL     1       0.725  -1.102  -0.147  1.00  0.00     0.188 HD
BRANCH  17  19
HETATM   19  N2  UNL     1       2.138  -0.082  -0.526  1.00  0.00    -0.309 N 
HETATM   20  C6  UNL     1       3.222   0.460  -0.182  1.00  0.00     0.118 C 
ATOM     21  H2  UNL     1       2.306  -0.717  -1.306  1.00  0.00     0.186 HD
BRANCH  20  22
HETATM   22  C7  UNL     1       4.500   0.163  -0.857  1.00  0.00    -0.019 A 
HETATM   23  C8  UNL     1       4.555  -0.751  -1.897  1.00  0.00     0.013 A 
HETATM   24  C9  UNL     1       5.742  -1.023  -2.516  1.00  0.00     0.001 A 
HETATM   25  C10 UNL     1       6.937  -0.416  -2.152  1.00  0.00     0.000 A 
HETATM   26  C11 UNL     1       6.858   0.492  -1.114  1.00  0.00     0.001 A 
HETATM   27  C12 UNL     1       5.676   0.777  -0.482  1.00  0.00     0.013 A 
ENDBRANCH  20  22
ENDBRANCH  17  19
ENDBRANCH   4  17
BRANCH   1  28
HETATM   28  O1  UNL     1      -1.655  -4.262   0.532  1.00  0.00    -0.353 OA
HETATM   29  C1  UNL     1      -0.317  -4.646   0.216  1.00  0.00     0.210 C 
ENDBRANCH   1  28
BRANCH  16  30
HETATM   30  O2  UNL     1      -4.247  -3.338   1.136  1.00  0.00    -0.353 OA
HETATM   31  C21 UNL     1      -5.558  -3.000   1.451  1.00  0.00     0.210 C 
ENDBRANCH  16  30
TORSDOF 5
