REMARK  5 active torsions:
REMARK  status: ('A' for Active; 'I' for Inactive)
REMARK    1  A    between atoms: O1_2  and  C2_3 
REMARK    2  A    between atoms: C6_9  and  C7_10 
REMARK    3  A    between atoms: C7_10  and  C12_18 
REMARK       I    between atoms: N2_11  and  C8_13 
REMARK    4  A    between atoms: C8_13  and  C9_15 
REMARK       I    between atoms: C12_18  and  N3_20 
REMARK    5  A    between atoms: N3_20  and  C13_22 
ROOT
HETATM    1  C7  UNL     1      -0.891   0.075  -0.100  1.00  0.00     0.130 C 
HETATM    2  N2  UNL     1      -1.108   1.144  -0.731  1.00  0.00    -0.320 N 
ATOM      3  H2  UNL     1      -2.059   1.149  -1.099  1.00  0.00     0.169 HD
HETATM    4  C8  UNL     1      -0.466   2.292  -1.072  1.00  0.00     0.225 C 
HETATM    5  O2  UNL     1       0.505   2.275  -1.903  1.00  0.00    -0.273 OA
ENDROOT
BRANCH   1   6
HETATM    6  C6  UNL     1      -2.017  -0.862  -0.052  1.00  0.00     0.067 A 
HETATM    7  N1  UNL     1      -3.170  -0.486  -0.684  1.00  0.00    -0.358 N 
HETATM    8  C4  UNL     1      -4.282  -1.228  -0.730  1.00  0.00     0.008 A 
ATOM      9  H1  UNL     1      -3.183   0.421  -1.151  1.00  0.00     0.166 HD
HETATM   10  C3  UNL     1      -4.260  -2.456  -0.095  1.00  0.00     0.061 A 
HETATM   11  C5  UNL     1      -5.506  -0.766  -1.434  1.00  0.00     0.068 C 
HETATM   12  C2  UNL     1      -3.134  -2.897   0.560  1.00  0.00     0.072 A 
HETATM   13  C18 UNL     1      -1.993  -2.069   0.573  1.00  0.00     0.068 A 
BRANCH  12  14
HETATM   14  O1  UNL     1      -3.061  -4.112   1.207  1.00  0.00    -0.356 OA
HETATM   15  C1  UNL     1      -4.157  -4.997   1.241  1.00  0.00     0.210 C 
ENDBRANCH  12  14
ENDBRANCH   1   6
BRANCH   1  16
HETATM   16  C12 UNL     1       0.377  -0.201   0.522  1.00  0.00     0.276 C 
HETATM   17  O3  UNL     1       0.705  -1.213   1.170  1.00  0.00    -0.266 OA
HETATM   18  N3  UNL     1       1.437   0.779   0.416  1.00  0.00    -0.302 N 
ATOM     19  H3  UNL     1       1.258   1.782   0.470  1.00  0.00     0.171 HD
BRANCH  18  20
HETATM   20  C13 UNL     1       2.646   0.292   0.245  1.00  0.00     0.152 A 
HETATM   21  N4  UNL     1       3.790   0.962   0.118  1.00  0.00    -0.339 N 
HETATM   22  C14 UNL     1       4.894   0.292  -0.045  1.00  0.00     0.020 A 
ATOM     23  H4  UNL     1       3.801   1.982   0.148  1.00  0.00     0.168 HD
HETATM   24  C15 UNL     1       6.248   0.969  -0.199  1.00  0.00     0.069 C 
HETATM   25  C16 UNL     1       4.809  -1.077  -0.076  1.00  0.00     0.004 A 
HETATM   26  C17 UNL     1       5.930  -2.069  -0.252  1.00  0.00     0.058 C 
HETATM   27  S1  UNL     1       3.136  -1.335   0.132  1.00  0.00    -0.057 SA
ENDBRANCH  18  20
ENDBRANCH   1  16
BRANCH   4  28
HETATM   28  C9  UNL     1      -0.869   3.615  -0.499  1.00  0.00     0.070 C 
HETATM   29  C10 UNL     1       0.080   4.675  -0.982  1.00  0.00     0.019 C 
HETATM   30  C11 UNL     1      -0.942   3.594   0.988  1.00  0.00     0.019 C 
ENDBRANCH   4  28
TORSDOF 5
