REMARK  4 active torsions:
REMARK  status: ('A' for Active; 'I' for Inactive)
REMARK    1  A    between atoms: C3_3  and  N1_4 
REMARK    2  A    between atoms: C9_12  and  N3_13 
REMARK    3  A    between atoms: N4_16  and  C12_17 
REMARK    4  A    between atoms: C12_17  and  C13_18 
ROOT
HETATM    1  C1  UNL     1      -5.366  -2.494   0.637  1.00  0.00     0.051 C 
HETATM    2  C2  UNL     1      -4.359  -1.391   0.463  1.00  0.00    -0.027 A 
HETATM    3  C3  UNL     1      -4.861  -0.150   0.134  1.00  0.00     0.044 A 
HETATM    4  C6  UNL     1      -3.945   0.865  -0.029  1.00  0.00    -0.005 A 
HETATM    5  C7  UNL     1      -4.437   2.215  -0.394  1.00  0.00     0.053 C 
HETATM    6  C8  UNL     1      -2.581   0.634   0.131  1.00  0.00     0.085 A 
HETATM    7  N2  UNL     1      -1.532   1.487  -0.002  1.00  0.00    -0.189 N 
ATOM      8  H2  UNL     1      -1.581   2.478  -0.239  1.00  0.00     0.184 HD
HETATM    9  C9  UNL     1      -0.406   0.769   0.240  1.00  0.00     0.681 A 
HETATM   10  N5  UNL     1      -0.779  -0.489   0.514  1.00  0.00    -0.189 N 
ATOM     11  H5  UNL     1      -0.133  -1.247   0.735  1.00  0.00     0.184 HD
HETATM   12  C20 UNL     1      -2.121  -0.621   0.459  1.00  0.00     0.083 A 
HETATM   13  C21 UNL     1      -3.015  -1.637   0.626  1.00  0.00    -0.024 A 
HETATM   14  C22 UNL     1      -2.541  -2.995   0.992  1.00  0.00     0.051 C 
ENDROOT
BRANCH   9  15
HETATM   15  N3  UNL     1       0.872   1.380   0.155  1.00  0.00    -0.214 N 
HETATM   16  C10 UNL     1       1.562   1.733   1.356  1.00  0.00     0.161 C 
HETATM   17  C11 UNL     1       3.080   1.744   1.146  1.00  0.00     0.142 C 
HETATM   18  N4  UNL     1       3.446   1.184  -0.081  1.00  0.00    -0.389 N 
HETATM   19  C18 UNL     1       2.864   1.767  -1.243  1.00  0.00     0.142 C 
HETATM   20  C19 UNL     1       1.363   1.610  -1.195  1.00  0.00     0.161 C 
BRANCH  18  21
HETATM   21  C12 UNL     1       3.997  -0.080  -0.224  1.00  0.00     0.069 C 
BRANCH  21  22
HETATM   22  C13 UNL     1       5.398  -0.303   0.211  1.00  0.00     0.011 C 
HETATM   23  C14 UNL     1       5.714  -0.050   1.648  1.00  0.00     0.023 C 
HETATM   24  C15 UNL     1       5.822  -1.762  -0.095  1.00  0.00     0.043 C 
HETATM   25  C16 UNL     1       7.288  -1.580  -0.356  1.00  0.00     0.168 C 
HETATM   26  O1  UNL     1       7.361  -0.418  -1.077  1.00  0.00    -0.390 OA
HETATM   27  C17 UNL     1       6.399   0.456  -0.642  1.00  0.00     0.182 C 
ENDBRANCH  21  22
ENDBRANCH  18  21
ENDBRANCH   9  15
BRANCH   3  28
HETATM   28  N1  UNL     1      -6.229   0.131  -0.072  1.00  0.00    -0.389 N 
HETATM   29  C4  UNL     1      -6.764   0.025  -1.419  1.00  0.00     0.149 C 
HETATM   30  C5  UNL     1      -7.145   0.517   0.975  1.00  0.00     0.149 C 
ENDBRANCH   3  28
TORSDOF 4
