REMARK  7 active torsions:
REMARK  status: ('A' for Active; 'I' for Inactive)
REMARK    1  A    between atoms: C2_2  and  C5_5 
REMARK    2  A    between atoms: C6_10  and  N3_11 
REMARK    3  A    between atoms: C7_13  and  O1_14 
REMARK    4  A    between atoms: C7_13  and  C8_16 
REMARK    5  A    between atoms: N5_23  and  C13_24 
REMARK    6  A    between atoms: C13_24  and  C14_25 
REMARK    7  A    between atoms: C14_25  and  C15_26 
ROOT
HETATM    1  C15 UNL     1       2.627  -1.164  -0.834  1.00  0.00    -0.053 A 
HETATM    2  C16 UNL     1       3.907  -0.732  -0.646  1.00  0.00     0.009 A 
HETATM    3  C17 UNL     1       4.931  -1.670  -0.467  1.00  0.00     0.023 A 
HETATM    4  C18 UNL     1       4.701  -3.018  -0.468  1.00  0.00     0.044 A 
HETATM    5  C19 UNL     1       5.721  -3.999  -0.264  1.00  0.00     0.099 C 
HETATM    6  N6  UNL     1       6.543  -4.793  -0.123  1.00  0.00    -0.191 NA
HETATM    7  C20 UNL     1       3.389  -3.453  -0.663  1.00  0.00     0.023 A 
HETATM    8  C21 UNL     1       2.365  -2.554  -0.844  1.00  0.00     0.009 A 
ENDROOT
BRANCH   1   9
HETATM    9  C14 UNL     1       1.492  -0.218  -1.039  1.00  0.00     0.084 C 
BRANCH   9  10
HETATM   10  C13 UNL     1       0.924   0.191   0.298  1.00  0.00     0.094 C 
BRANCH  10  11
HETATM   11  N5  UNL     1      -0.195   1.044   0.239  1.00  0.00    -0.147 N 
HETATM   12  C5  UNL     1      -0.301   2.345   0.265  1.00  0.00     0.127 A 
HETATM   13  N1  UNL     1      -1.643   2.647   0.173  1.00  0.00    -0.273 N 
HETATM   14  N2  UNL     1      -2.346   1.534   0.089  1.00  0.00    -0.130 N 
ATOM     15  H1  UNL     1      -2.034   3.589   0.170  1.00  0.00     0.189 HD
HETATM   16  C6  UNL     1      -1.485   0.518   0.130  1.00  0.00     0.706 A 
ATOM     17  H2  UNL     1      -3.360   1.464   0.008  1.00  0.00     0.205 HD
BRANCH  12  18
HETATM   18  C2  UNL     1       0.697   3.419   0.386  1.00  0.00     0.010 C 
HETATM   19  C1  UNL     1       0.018   4.736   0.812  1.00  0.00     0.023 C 
HETATM   20  C3  UNL     1       1.283   3.785  -0.991  1.00  0.00     0.023 C 
HETATM   21  C4  UNL     1       1.780   3.219   1.403  1.00  0.00     0.023 C 
ENDBRANCH  12  18
BRANCH  16  22
HETATM   22  N3  UNL     1      -1.702  -0.670   0.074  1.00  0.00    -0.166 N 
HETATM   23  C7  UNL     1      -2.391  -1.775  -0.021  1.00  0.00     0.182 C 
ATOM     24  H3  UNL     1      -0.755  -1.041   0.146  1.00  0.00     0.186 HD
BRANCH  23  25
HETATM   25  O1  UNL     1      -1.715  -2.885  -0.310  1.00  0.00    -0.344 OA
ATOM     26  H1  UNL     1      -2.216  -3.689  -0.379  1.00  0.00     0.219 HD
ENDBRANCH  23  25
BRANCH  23  27
HETATM   27  C8  UNL     1      -3.830  -2.031   0.141  1.00  0.00     0.084 A 
HETATM   28  C9  UNL     1      -4.299  -3.311   0.023  1.00  0.00     0.034 A 
HETATM   29  C10 UNL     1      -5.668  -3.572   0.197  1.00  0.00     0.004 A 
HETATM   30  C11 UNL     1      -6.546  -2.568   0.482  1.00  0.00     0.017 A 
HETATM   31  C12 UNL     1      -6.007  -1.279   0.591  1.00  0.00     0.088 A 
HETATM   32  N4  UNL     1      -4.720  -1.072   0.420  1.00  0.00    -0.362 N 
ATOM     33  H4  UNL     1      -4.377  -0.115   0.506  1.00  0.00     0.165 HD
ENDBRANCH  23  27
ENDBRANCH  16  22
ENDBRANCH  10  11
ENDBRANCH   9  10
ENDBRANCH   1   9
TORSDOF 7
