REMARK  7 active torsions:
REMARK  status: ('A' for Active; 'I' for Inactive)
REMARK    1  A    between atoms: C2_2  and  C3_3 
REMARK    2  A    between atoms: C3_3  and  C4_4 
REMARK    3  A    between atoms: C3_3  and  N2_9 
REMARK    4  A    between atoms: C3_3  and  C9_23 
REMARK    5  A    between atoms: C4_4  and  N1_5 
REMARK       I    between atoms: N2_9  and  C5_11 
REMARK    6  A    between atoms: C5_11  and  C6_13 
REMARK    7  A    between atoms: C6_13  and  N3_14 
REMARK       I    between atoms: N3_14  and  C7_16 
REMARK       I    between atoms: C7_16  and  N5_20 
REMARK       I    between atoms: C9_23  and  N6_25 
ROOT
HETATM    1  N2  UNL     1      -0.194   1.005   0.697  1.00  0.00    -0.340 N 
ATOM      2  H2  UNL     1      -0.147   1.519   1.576  1.00  0.00     0.163 HD
HETATM    3  C5  UNL     1       1.015   0.705   0.004  1.00  0.00     0.236 C 
HETATM    4  O1  UNL     1       1.033   0.070  -1.075  1.00  0.00    -0.272 OA
ENDROOT
BRANCH   1   5
HETATM    5  C3  UNL     1      -1.500   0.595   0.181  1.00  0.00     0.137 C 
BRANCH   5   6
HETATM    6  C2  UNL     1      -2.499   1.052   1.234  1.00  0.00     0.038 C 
HETATM    7  C1  UNL     1      -3.917   0.768   0.914  1.00  0.00     0.008 C 
ENDBRANCH   5   6
BRANCH   5   8
HETATM    8  C4  UNL     1      -1.823   1.295  -1.110  1.00  0.00     0.270 C 
BRANCH   8   9
HETATM    9  N1  UNL     1      -1.758   2.715  -1.013  1.00  0.00    -0.076 N 
ATOM     10  H13 UNL     1      -2.354   3.054  -0.258  1.00  0.00     0.274 HD
ATOM     11  H12 UNL     1      -0.850   3.013  -0.657  1.00  0.00     0.274 HD
ATOM     12  H11 UNL     1      -1.977   3.190  -1.889  1.00  0.00     0.274 HD
ENDBRANCH   8   9
ENDBRANCH   5   8
BRANCH   5  13
HETATM   13  C9  UNL     1      -1.554  -0.870   0.121  1.00  0.00     0.250 C 
HETATM   14  O2  UNL     1      -0.821  -1.464   0.998  1.00  0.00    -0.270 OA
HETATM   15  N6  UNL     1      -2.321  -1.632  -0.797  1.00  0.00    -0.347 N 
HETATM   16  C10 UNL     1      -3.247  -1.843  -1.924  1.00  0.00     0.145 A 
HETATM   17  C11 UNL     1      -2.713  -2.965  -1.223  1.00  0.00     0.145 A 
ENDBRANCH   5  13
ENDBRANCH   1   5
BRANCH   3  18
HETATM   18  C6  UNL     1       2.303   1.155   0.567  1.00  0.00     0.240 C 
BRANCH  18  19
HETATM   19  N3  UNL     1       3.386   0.733  -0.285  1.00  0.00    -0.218 N 
HETATM   20  C7  UNL     1       3.812  -0.611  -0.464  1.00  0.00     0.667 C 
HETATM   21  N4  UNL     1       3.656  -1.233  -1.584  1.00  0.00    -0.235 N 
HETATM   22  N5  UNL     1       4.437  -1.277   0.636  1.00  0.00    -0.231 N 
ATOM     23  H42 UNL     1       3.210  -0.758  -2.369  1.00  0.00     0.174 HD
ATOM     24  H41 UNL     1       3.962  -2.198  -1.712  1.00  0.00     0.174 HD
HETATM   25  C8  UNL     1       5.738  -0.776   1.031  1.00  0.00     0.165 C 
ATOM     26  H5  UNL     1       3.992  -2.060   1.115  1.00  0.00     0.177 HD
ATOM     27  H3  UNL     1       3.887   1.457  -0.801  1.00  0.00     0.178 HD
ENDBRANCH  18  19
ENDBRANCH   3  18
TORSDOF 7
