REMARK  8 active torsions:
REMARK  status: ('A' for Active; 'I' for Inactive)
REMARK    1  A    between atoms: C2_2  and  N1_3 
REMARK    2  A    between atoms: N1_3  and  C3_5 
REMARK    3  A    between atoms: C3_5  and  N2_7 
REMARK    4  A    between atoms: N2_7  and  N3_9 
REMARK       I    between atoms: N3_9  and  C4_11 
REMARK    5  A    between atoms: C4_11  and  C5_13 
REMARK    6  A    between atoms: C5_13  and  N4_14 
REMARK       I    between atoms: N4_14  and  C6_15 
REMARK    7  A    between atoms: C6_15  and  C7_17 
REMARK    8  A    between atoms: C7_17  and  C8_18 
ROOT
HETATM    1  N3  UNL     1       0.635  -0.866  -1.133  1.00  0.00    -0.262 N 
ATOM      2  H3  UNL     1       0.092  -0.020  -1.304  1.00  0.00     0.190 HD
HETATM    3  C4  UNL     1       0.342  -1.667  -0.022  1.00  0.00     0.288 C 
HETATM    4  O1  UNL     1       1.007  -2.696   0.217  1.00  0.00    -0.264 OA
ENDROOT
BRANCH   1   5
HETATM    5  N2  UNL     1       1.655  -1.214  -2.000  1.00  0.00    -0.274 N 
ATOM      6  H2  UNL     1       1.336  -1.666  -2.857  1.00  0.00     0.189 HD
BRANCH   5   7
HETATM    7  C3  UNL     1       3.030  -1.062  -1.920  1.00  0.00     0.186 C 
HETATM    8  S1  UNL     1       3.914  -1.668  -3.241  1.00  0.00    -0.040 SA
BRANCH   7   9
HETATM    9  N1  UNL     1       3.776  -0.481  -0.912  1.00  0.00    -0.366 N 
ATOM     10  H1  UNL     1       4.784  -0.473  -1.067  1.00  0.00     0.161 HD
BRANCH   9  11
HETATM   11  C2  UNL     1       3.346   0.108   0.311  1.00  0.00     0.117 C 
HETATM   12  C1  UNL     1       4.516   0.709   1.090  1.00  0.00     0.026 C 
ENDBRANCH   9  11
ENDBRANCH   7   9
ENDBRANCH   5   7
ENDBRANCH   1   5
BRANCH   3  13
HETATM   13  C5  UNL     1      -0.745  -1.340   0.923  1.00  0.00     0.262 C 
BRANCH  13  14
HETATM   14  N4  UNL     1      -1.527  -0.248   0.604  1.00  0.00    -0.377 NA
HETATM   15  C6  UNL     1      -2.285   0.839   0.288  1.00  0.00     0.299 C 
HETATM   16  O2  UNL     1      -1.860   1.983   0.040  1.00  0.00    -0.257 OA
BRANCH  15  17
HETATM   17  C7  UNL     1      -3.776   0.577   0.263  1.00  0.00     0.218 C 
BRANCH  17  18
HETATM   18  C8  UNL     1      -4.592   1.729  -0.101  1.00  0.00     0.240 C 
HETATM   19  N5  UNL     1      -6.007   1.708   0.239  1.00  0.00    -0.062 NA
HETATM   20  O3  UNL     1      -4.222   2.744  -0.680  1.00  0.00    -0.276 OA
ENDBRANCH  17  18
ENDBRANCH  15  17
ENDBRANCH  13  14
ENDBRANCH   3  13
TORSDOF 8
