REMARK  5 active torsions:
REMARK  status: ('A' for Active; 'I' for Inactive)
REMARK    1  A    between atoms: C2_2  and  C4_4 
REMARK    2  A    between atoms: C4_4  and  N1_5 
REMARK    3  A    between atoms: C4_4  and  C6_10 
REMARK       I    between atoms: C6_10  and  N4_12 
REMARK    4  A    between atoms: N4_12  and  C7_14 
REMARK    5  A    between atoms: C7_14  and  C8_15 
ROOT
HETATM    1  C6  UNL     1      -0.426  -0.413  -0.626  1.00  0.00     0.241 C 
HETATM    2  O1  UNL     1      -0.005  -0.851  -1.720  1.00  0.00    -0.271 OA
HETATM    3  N4  UNL     1       0.529   0.122   0.273  1.00  0.00    -0.340 N 
ATOM      4  H4  UNL     1       0.185   0.478   1.165  1.00  0.00     0.163 HD
ENDROOT
BRANCH   3   5
HETATM    5  C7  UNL     1       1.928   0.203   0.034  1.00  0.00     0.137 C 
HETATM    6  C9  UNL     1       2.608   0.849   1.222  1.00  0.00     0.070 C 
HETATM    7  C10 UNL     1       3.847   0.009   1.453  1.00  0.00     0.235 C 
HETATM    8  N6  UNL     1       3.297  -1.335   1.224  1.00  0.00    -0.072 N 
HETATM    9  C11 UNL     1       2.607  -1.145  -0.019  1.00  0.00     0.272 C 
ATOM     10  H62 UNL     1       3.978  -2.094   1.234  1.00  0.00     0.277 HD
ATOM     11  H61 UNL     1       2.732  -1.711   1.985  1.00  0.00     0.277 HD
BRANCH   5  12
HETATM   12  C8  UNL     1       2.290   1.038  -1.154  1.00  0.00     0.261 C 
HETATM   13  N5  UNL     1       3.639   1.215  -1.542  1.00  0.00    -0.060 NA
HETATM   14  O2  UNL     1       1.433   1.628  -1.874  1.00  0.00    -0.274 OA
ENDBRANCH   5  12
ENDBRANCH   3   5
BRANCH   1  15
HETATM   15  C4  UNL     1      -1.880  -0.495  -0.377  1.00  0.00     0.179 C 
BRANCH  15  16
HETATM   16  C2  UNL     1      -2.695   0.275  -1.386  1.00  0.00     0.009 C 
HETATM   17  C1  UNL     1      -2.347   1.733  -1.422  1.00  0.00     0.012 C 
HETATM   18  C3  UNL     1      -2.598  -0.326  -2.752  1.00  0.00     0.012 C 
ENDBRANCH  15  16
BRANCH  15  19
HETATM   19  N1  UNL     1      -2.127   0.066   0.936  1.00  0.00    -0.353 N 
HETATM   20  C5  UNL     1      -2.525  -0.642   1.935  1.00  0.00     0.197 C 
HETATM   21  N2  UNL     1      -2.721  -2.029   1.705  1.00  0.00    -0.067 NA
HETATM   22  N3  UNL     1      -2.764  -0.093   3.206  1.00  0.00    -0.067 NA
ATOM     23  H1  UNL     1      -1.979   1.066   1.075  1.00  0.00     0.162 HD
ENDBRANCH  15  19
ENDBRANCH   1  15
TORSDOF 5
