REMARK  4 active torsions:
REMARK  status: ('A' for Active; 'I' for Inactive)
REMARK       I    between atoms: N1_2  and  C2_4 
REMARK       I    between atoms: C2_4  and  N3_8 
REMARK    1  A    between atoms: N3_8  and  N4_10 
REMARK    2  A    between atoms: C3_12  and  C4_13 
REMARK       I    between atoms: C4_13  and  N5_15 
REMARK    3  A    between atoms: N5_15  and  C5_17 
REMARK    4  A    between atoms: C5_17  and  C6_18 
ROOT
HETATM    1  C4  UNL     1       1.618   0.772  -0.430  1.00  0.00     0.258 C 
HETATM    2  O1  UNL     1       1.804   1.181  -1.608  1.00  0.00    -0.267 OA
HETATM    3  N5  UNL     1       0.311   0.538   0.074  1.00  0.00    -0.353 N 
ATOM      4  H5  UNL     1       0.191   0.208   1.032  1.00  0.00     0.162 HD
ENDROOT
BRANCH   1   5
HETATM    5  C3  UNL     1       2.809   0.546   0.410  1.00  0.00     0.181 C 
HETATM    6  N4  UNL     1       3.984   0.748  -0.018  1.00  0.00    -0.292 N 
ATOM      7  H4  UNL     1       4.131   1.078  -0.972  1.00  0.00     0.186 HD
BRANCH   6   8
HETATM    8  N3  UNL     1       5.073   0.518   0.817  1.00  0.00    -0.133 N 
HETATM    9  C2  UNL     1       6.090  -0.441   0.498  1.00  0.00     0.685 C 
HETATM   10  N1  UNL     1       7.455  -0.118   0.692  1.00  0.00    -0.230 N 
HETATM   11  N2  UNL     1       5.786  -1.609   0.030  1.00  0.00    -0.234 N 
HETATM   12  C1  UNL     1       8.053   0.923  -0.107  1.00  0.00     0.165 C 
ATOM     13  H1  UNL     1       8.009  -0.616   1.389  1.00  0.00     0.177 HD
ATOM     14  H22 UNL     1       6.509  -2.291  -0.197  1.00  0.00     0.174 HD
ATOM     15  H21 UNL     1       4.803  -1.842  -0.110  1.00  0.00     0.174 HD
ATOM     16  H3  UNL     1       5.150   1.049   1.684  1.00  0.00     0.205 HD
ENDBRANCH   6   8
ENDBRANCH   1   5
BRANCH   3  17
HETATM   17  C5  UNL     1      -0.834   0.759  -0.744  1.00  0.00     0.186 C 
BRANCH  17  18
HETATM   18  C6  UNL     1      -2.148   0.479  -0.110  1.00  0.00     0.404 C 
HETATM   19  N6  UNL     1      -3.192   0.764  -1.091  1.00  0.00    -0.034 N 
HETATM   20  C7  UNL     1      -4.367   0.307  -0.375  1.00  0.00     0.145 C 
ATOM     21  H62 UNL     1      -3.228   1.726  -1.428  1.00  0.00     0.280 HD
ATOM     22  H61 UNL     1      -3.052   0.354  -2.014  1.00  0.00     0.280 HD
HETATM   23  C8  UNL     1      -4.769   1.259   0.722  1.00  0.00     0.048 C 
HETATM   24  C9  UNL     1      -5.527   0.053  -1.301  1.00  0.00     0.048 C 
HETATM   25  C10 UNL     1      -3.851  -0.955   0.265  1.00  0.00     0.277 C 
HETATM   26  N7  UNL     1      -2.397  -0.875   0.236  1.00  0.00    -0.042 N 
HETATM   27  C11 UNL     1      -1.963  -1.241   1.578  1.00  0.00     0.274 C 
HETATM   28  C12 UNL     1      -1.941  -1.835  -0.740  1.00  0.00     0.274 C 
ENDBRANCH  17  18
ENDBRANCH   3  17
TORSDOF 4
