REMARK  6 active torsions:
REMARK  status: ('A' for Active; 'I' for Inactive)
REMARK    1  A    between atoms: C2_2  and  N1_3 
REMARK    2  A    between atoms: C2_2  and  C3_7 
REMARK    3  A    between atoms: C2_2  and  C7_16 
REMARK    4  A    between atoms: C3_7  and  C4_8 
REMARK       I    between atoms: C4_8  and  N2_10 
REMARK    5  A    between atoms: C5_12  and  C6_13 
REMARK       I    between atoms: C7_16  and  N4_18 
REMARK    6  A    between atoms: N4_18  and  C8_20 
ROOT
HETATM    1  C1  UNL     1      -1.356  -0.978  -2.611  1.00  0.00     0.057 C 
HETATM    2  C2  UNL     1      -0.993  -0.922  -1.146  1.00  0.00     0.207 C 
ENDROOT
BRANCH   2   3
HETATM    3  N1  UNL     1      -0.521  -2.223  -0.762  1.00  0.00    -0.061 N 
ATOM      4  H13 UNL     1      -1.187  -2.965  -0.977  1.00  0.00     0.275 HD
ATOM      5  H12 UNL     1       0.245  -2.555  -1.348  1.00  0.00     0.275 HD
ATOM      6  H11 UNL     1      -0.276  -2.185   0.227  1.00  0.00     0.275 HD
ENDBRANCH   2   3
BRANCH   2   7
HETATM    7  C3  UNL     1      -2.209  -0.529  -0.303  1.00  0.00     0.151 C 
BRANCH   7   8
HETATM    8  C4  UNL     1      -3.305  -1.498  -0.462  1.00  0.00     0.224 C 
HETATM    9  O1  UNL     1      -3.157  -2.479  -1.218  1.00  0.00    -0.273 OA
HETATM   10  N2  UNL     1      -4.515  -1.329   0.229  1.00  0.00    -0.332 N 
HETATM   11  C5  UNL     1      -4.718  -0.203   0.863  1.00  0.00     0.161 C 
ATOM     12  H2  UNL     1      -5.219  -2.067   0.237  1.00  0.00     0.168 HD
BRANCH  11  13
HETATM   13  C6  UNL     1      -5.952   0.033   1.598  1.00  0.00     0.270 C 
HETATM   14  N3  UNL     1      -6.137   1.253   2.268  1.00  0.00    -0.057 NA
HETATM   15  O2  UNL     1      -6.821  -0.883   1.604  1.00  0.00    -0.270 OA
ENDBRANCH  11  13
ENDBRANCH   7   8
ENDBRANCH   2   7
BRANCH   2  16
HETATM   16  C7  UNL     1       0.005   0.146  -0.959  1.00  0.00     0.255 C 
HETATM   17  O3  UNL     1      -0.334   1.316  -1.277  1.00  0.00    -0.271 OA
HETATM   18  N4  UNL     1       1.310  -0.077  -0.445  1.00  0.00    -0.331 N 
ATOM     19  H4  UNL     1       1.569  -1.031  -0.192  1.00  0.00     0.164 HD
BRANCH  18  20
HETATM   20  C8  UNL     1       2.284   0.956  -0.261  1.00  0.00     0.286 C 
HETATM   21  C9  UNL     1       3.543   0.712  -1.079  1.00  0.00     0.054 C 
HETATM   22  C10 UNL     1       4.671   1.463  -0.362  1.00  0.00     0.005 C 
HETATM   23  C11 UNL     1       5.027   0.603   0.845  1.00  0.00     0.028 C 
HETATM   24  C12 UNL     1       3.749  -0.003   1.357  1.00  0.00     0.235 C 
HETATM   25  N5  UNL     1       2.677   0.941   1.143  1.00  0.00    -0.054 N 
ATOM     26  H52 UNL     1       2.919   1.873   1.479  1.00  0.00     0.279 HD
ATOM     27  H51 UNL     1       1.883   0.760   1.757  1.00  0.00     0.279 HD
ENDBRANCH  18  20
ENDBRANCH   2  16
TORSDOF 6
