REMARK  7 active torsions:
REMARK  status: ('A' for Active; 'I' for Inactive)
REMARK    1  A    between atoms: C2_2  and  C3_3 
REMARK    2  A    between atoms: C7_7  and  C8_8 
REMARK       I    between atoms: C8_8  and  N1_10 
REMARK    3  A    between atoms: N1_10  and  N2_12 
REMARK       I    between atoms: N2_12  and  C9_14 
REMARK    4  A    between atoms: C9_14  and  C10_16 
REMARK    5  A    between atoms: C10_16  and  N3_17 
REMARK    6  A    between atoms: N3_17  and  S1_19 
REMARK    7  A    between atoms: S1_19  and  N4_20 
ROOT
HETATM    1  N2  UNL     1       1.210   0.095   0.774  1.00  0.00    -0.266 N 
ATOM      2  H2  UNL     1       1.235  -0.753   1.340  1.00  0.00     0.190 HD
HETATM    3  C9  UNL     1       2.370   0.559   0.114  1.00  0.00     0.254 C 
HETATM    4  O2  UNL     1       2.372   1.601  -0.594  1.00  0.00    -0.270 OA
ENDROOT
BRANCH   1   5
HETATM    5  N1  UNL     1       0.023   0.828   0.633  1.00  0.00    -0.267 N 
HETATM    6  C8  UNL     1      -1.147   0.268   0.050  1.00  0.00     0.240 C 
HETATM    7  O1  UNL     1      -1.054  -0.926  -0.334  1.00  0.00    -0.271 OA
ATOM      8  H1  UNL     1      -0.002   1.794   0.959  1.00  0.00     0.190 HD
BRANCH   6   9
HETATM    9  C7  UNL     1      -2.340   1.100  -0.056  1.00  0.00     0.087 C 
HETATM   10  C3  UNL     1      -3.553   0.487  -0.666  1.00  0.00     0.020 C 
HETATM   11  C4  UNL     1      -4.612   0.489   0.403  1.00  0.00     0.009 C 
HETATM   12  C5  UNL     1      -3.751   0.425   1.676  1.00  0.00     0.002 C 
HETATM   13  C6  UNL     1      -2.774   1.565   1.346  1.00  0.00     0.015 C 
BRANCH  10  14
HETATM   14  C2  UNL     1      -3.351  -0.770  -1.359  1.00  0.00    -0.031 C 
HETATM   15  C1  UNL     1      -3.942  -1.875  -0.998  1.00  0.00     0.007 C 
ENDBRANCH  10  14
ENDBRANCH   6   9
ENDBRANCH   1   5
BRANCH   3  16
HETATM   16  C10 UNL     1       3.631  -0.211   0.263  1.00  0.00     0.238 C 
BRANCH  16  17
HETATM   17  N3  UNL     1       4.709   0.440  -0.502  1.00  0.00    -0.294 N 
ATOM     18  H3  UNL     1       4.613   1.291  -1.056  1.00  0.00     0.174 HD
BRANCH  17  19
HETATM   19  S1  UNL     1       6.176  -0.484  -0.306  1.00  0.00     0.313 S 
HETATM   20  O3  UNL     1       7.378   0.398  -0.390  1.00  0.00    -0.183 OA
HETATM   21  O4  UNL     1       6.132  -1.164   1.044  1.00  0.00    -0.183 OA
BRANCH  19  22
HETATM   22  N4  UNL     1       6.318  -1.705  -1.503  1.00  0.00    -0.312 N 
ATOM     23  H42 UNL     1       5.622  -1.859  -2.233  1.00  0.00     0.170 HD
ATOM     24  H41 UNL     1       7.176  -2.245  -1.388  1.00  0.00     0.170 HD
ENDBRANCH  19  22
ENDBRANCH  17  19
ENDBRANCH  16  17
ENDBRANCH   3  16
TORSDOF 7
