REMARK  6 active torsions:
REMARK  status: ('A' for Active; 'I' for Inactive)
REMARK       I    between atoms: N1_2  and  C2_4 
REMARK       I    between atoms: C2_4  and  N4_9 
REMARK    1  A    between atoms: N4_9  and  S1_11 
REMARK    2  A    between atoms: S1_11  and  N5_14 
REMARK    3  A    between atoms: N5_14  and  C4_16 
REMARK    4  A    between atoms: C4_16  and  C5_17 
REMARK    5  A    between atoms: C5_17  and  N6_18 
REMARK       I    between atoms: N6_18  and  C6_20 
REMARK       I    between atoms: C6_20  and  N7_22 
REMARK    6  A    between atoms: N7_22  and  N8_24 
ROOT
HETATM    1  C1  UNL     1       4.029  -1.254   0.819  1.00  0.00     0.165 C 
HETATM    2  N1  UNL     1       3.681   0.140   0.774  1.00  0.00    -0.229 N 
ATOM      3  H1  UNL     1       4.375   0.833   0.492  1.00  0.00     0.177 HD
HETATM    4  C2  UNL     1       2.375   0.545   1.122  1.00  0.00     0.697 C 
HETATM    5  N2  UNL     1       1.924   0.142   2.274  1.00  0.00    -0.125 N 
ATOM      6  H2  UNL     1       2.518  -0.438   2.867  1.00  0.00     0.197 HD
HETATM    7  C3  UNL     1       0.645   0.485   2.718  1.00  0.00     0.196 C 
HETATM    8  N3  UNL     1      -0.410   0.766   3.105  1.00  0.00    -0.171 NA
HETATM    9  N4  UNL     1       1.561   1.354   0.283  1.00  0.00    -0.099 N 
ATOM     10  H4  UNL     1       1.117   2.183   0.678  1.00  0.00     0.199 HD
ENDROOT
BRANCH   9  11
HETATM   11  S1  UNL     1       1.299   0.979  -1.383  1.00  0.00     0.333 S 
HETATM   12  O1  UNL     1       2.495   0.264  -1.970  1.00  0.00    -0.182 OA
HETATM   13  O2  UNL     1       1.155   2.260  -2.193  1.00  0.00    -0.182 OA
BRANCH  11  14
HETATM   14  N5  UNL     1      -0.077  -0.032  -1.588  1.00  0.00    -0.301 N 
ATOM     15  H5  UNL     1      -0.043  -1.051  -1.579  1.00  0.00     0.173 HD
BRANCH  14  16
HETATM   16  C4  UNL     1      -1.288   0.736  -1.774  1.00  0.00     0.153 C 
BRANCH  16  17
HETATM   17  C5  UNL     1      -2.456  -0.193  -1.948  1.00  0.00     0.144 C 
BRANCH  17  18
HETATM   18  N6  UNL     1      -2.681  -1.071  -0.829  1.00  0.00    -0.340 N 
HETATM   19  C6  UNL     1      -2.963  -0.650   0.477  1.00  0.00     0.335 C 
HETATM   20  O3  UNL     1      -3.033   0.581   0.720  1.00  0.00    -0.246 OA
HETATM   21  N7  UNL     1      -3.181  -1.523   1.569  1.00  0.00    -0.237 N 
ATOM     22  H7  UNL     1      -2.469  -2.195   1.854  1.00  0.00     0.193 HD
ATOM     23  H6  UNL     1      -2.631  -2.075  -1.000  1.00  0.00     0.164 HD
BRANCH  21  24
HETATM   24  N8  UNL     1      -4.268  -1.447   2.172  1.00  0.00    -0.245 N 
HETATM   25  N9  UNL     1      -5.443  -1.810   2.393  1.00  0.00    -0.331 N 
ATOM     26  H92 UNL     1      -5.550  -2.564   1.715  1.00  0.00     0.178 HD
ATOM     27  H91 UNL     1      -6.333  -1.748   2.887  1.00  0.00     0.178 HD
ATOM     28  H8  UNL     1      -4.122  -0.687   2.836  1.00  0.00     0.208 HD
ENDBRANCH  21  24
ENDBRANCH  17  18
ENDBRANCH  16  17
ENDBRANCH  14  16
ENDBRANCH  11  14
ENDBRANCH   9  11
TORSDOF 6
