REMARK  9 active torsions:
REMARK  status: ('A' for Active; 'I' for Inactive)
REMARK    1  A    between atoms: C2_2  and  C4_4 
REMARK    2  A    between atoms: C4_4  and  C5_5 
REMARK    3  A    between atoms: N1_7  and  C7_8 
REMARK       I    between atoms: N2_11  and  C10_12 
REMARK    4  A    between atoms: C10_12  and  C11_14 
REMARK    5  A    between atoms: C11_14  and  N3_15 
REMARK    6  A    between atoms: C11_14  and  C15_24 
REMARK       I    between atoms: N3_15  and  C12_17 
REMARK    7  A    between atoms: C12_17  and  C13_19 
REMARK    8  A    between atoms: C13_19  and  O3_20 
REMARK    9  A    between atoms: C13_19  and  C14_22 
ROOT
HETATM    1  C7  UNL     1       1.803  -1.689  -0.408  1.00  0.00     0.112 C 
HETATM    2  C8  UNL     1       1.229  -0.751   0.625  1.00  0.00     0.047 C 
HETATM    3  C9  UNL     1      -0.201  -1.139   0.954  1.00  0.00     0.128 C 
HETATM    4  N2  UNL     1      -0.983  -1.357  -0.233  1.00  0.00    -0.350 N 
HETATM    5  C10 UNL     1      -2.338  -0.986  -0.262  1.00  0.00     0.243 C 
HETATM    6  O1  UNL     1      -2.925  -1.181  -1.393  1.00  0.00    -0.271 OA
HETATM    7  C18 UNL     1      -0.381  -1.959  -1.403  1.00  0.00     0.128 C 
HETATM    8  C19 UNL     1       1.021  -1.438  -1.681  1.00  0.00     0.047 C 
ENDROOT
BRANCH   5   9
HETATM    9  C11 UNL     1      -3.156  -0.414   0.805  1.00  0.00     0.180 C 
BRANCH   9  10
HETATM   10  N3  UNL     1      -4.272   0.388   0.216  1.00  0.00    -0.345 N 
HETATM   11  C12 UNL     1      -4.520   1.697   0.676  1.00  0.00     0.247 C 
HETATM   12  O2  UNL     1      -3.802   2.171   1.580  1.00  0.00    -0.271 OA
ATOM     13  H3  UNL     1      -4.854  -0.013  -0.519  1.00  0.00     0.163 HD
BRANCH  11  14
HETATM   14  C13 UNL     1      -5.594   2.553   0.145  1.00  0.00     0.220 C 
BRANCH  14  15
HETATM   15  O3  UNL     1      -6.289   1.965  -0.906  1.00  0.00    -0.385 OA
ATOM     16  H3  UNL     1      -6.982   2.517  -1.249  1.00  0.00     0.210 HD
ENDBRANCH  14  15
BRANCH  14  17
HETATM   17  C14 UNL     1      -4.921   3.823  -0.343  1.00  0.00     0.127 C 
HETATM   18  S1  UNL     1      -6.062   5.012  -1.035  1.00  0.00    -0.095 SA
ENDBRANCH  14  17
ENDBRANCH  11  14
ENDBRANCH   9  10
BRANCH   9  19
HETATM   19  C15 UNL     1      -3.934  -1.473   1.602  1.00  0.00     0.009 C 
HETATM   20  C16 UNL     1      -3.093  -2.487   2.275  1.00  0.00     0.012 C 
HETATM   21  C17 UNL     1      -5.011  -2.124   0.797  1.00  0.00     0.012 C 
ENDBRANCH   9  19
ENDBRANCH   5   9
BRANCH   1  22
HETATM   22  N1  UNL     1       3.214  -1.561  -0.547  1.00  0.00    -0.282 N 
HETATM   23  C6  UNL     1       3.956  -0.441  -0.488  1.00  0.00     0.138 A 
HETATM   24  C5  UNL     1       5.255  -0.821  -0.675  1.00  0.00     0.044 A 
HETATM   25  N5  UNL     1       5.247  -2.173  -0.841  1.00  0.00    -0.289 N 
HETATM   26  N4  UNL     1       4.023  -2.603  -0.763  1.00  0.00    -0.240 N 
ATOM     27  H5  UNL     1       6.070  -2.755  -1.001  1.00  0.00     0.188 HD
ATOM     28  H4  UNL     1       3.728  -3.575  -0.852  1.00  0.00     0.208 HD
BRANCH  24  29
HETATM   29  C4  UNL     1       6.518  -0.062  -0.712  1.00  0.00     0.064 C 
BRANCH  29  30
HETATM   30  C2  UNL     1       6.355   1.405  -0.493  1.00  0.00    -0.017 C 
HETATM   31  C1  UNL     1       5.746   1.693   0.839  1.00  0.00     0.010 C 
HETATM   32  C3  UNL     1       7.759   2.022  -0.559  1.00  0.00     0.010 C 
ENDBRANCH  29  30
ENDBRANCH  24  29
ENDBRANCH   1  22
TORSDOF 9
