REMARK  9 active torsions:
REMARK  status: ('A' for Active; 'I' for Inactive)
REMARK    1  A    between atoms: C2_2  and  C3_3 
REMARK    2  A    between atoms: C3_3  and  C4_4 
REMARK    3  A    between atoms: C4_4  and  C5_5 
REMARK    4  A    between atoms: C5_5  and  C6_6 
REMARK    5  A    between atoms: C9_12  and  C10_13 
REMARK    6  A    between atoms: C9_12  and  C12_15 
REMARK    7  A    between atoms: C12_15  and  N3_19 
REMARK    8  A    between atoms: N3_19  and  O2_21 
REMARK    9  A    between atoms: O2_21  and  C13_22 
ROOT
HETATM    1  C5  UNL     1      -2.257  -0.403  -1.241  1.00  0.00     0.144 C 
HETATM    2  C8  UNL     1      -1.055  -0.569  -0.340  1.00  0.00     0.242 C 
HETATM    3  O1  UNL     1      -0.821  -1.738   0.015  1.00  0.00    -0.272 OA
HETATM    4  N1  UNL     1      -0.257   0.481   0.074  1.00  0.00    -0.342 N 
ATOM      5  H1  UNL     1       0.195   0.377   0.982  1.00  0.00     0.163 HD
HETATM    6  C9  UNL     1       0.007   1.711  -0.639  1.00  0.00     0.106 C 
HETATM    7  C18 UNL     1      -1.006   2.103  -1.645  1.00  0.00     0.180 C 
HETATM    8  S1  UNL     1      -2.575   1.300  -1.393  1.00  0.00     0.164 S 
HETATM    9  O3  UNL     1      -3.228   1.934  -0.236  1.00  0.00    -0.226 OA
HETATM   10  O4  UNL     1      -3.412   1.643  -2.600  1.00  0.00    -0.226 OA
ENDROOT
BRANCH   6  11
HETATM   11  C10 UNL     1       0.347   2.821   0.327  1.00  0.00     0.035 C 
HETATM   12  C11 UNL     1      -0.702   3.143   1.331  1.00  0.00     0.008 C 
ENDBRANCH   6  11
BRANCH   6  13
HETATM   13  C12 UNL     1       1.297   1.450  -1.376  1.00  0.00     0.141 C 
HETATM   14  N2  UNL     1       1.798   2.214  -2.250  1.00  0.00    -0.284 N 
HETATM   15 CL1  UNL     1       1.204   3.709  -2.841  1.00  0.00     0.012 Cl
ATOM     16  H2  UNL     1       2.677   1.897  -2.660  1.00  0.00     0.182 HD
BRANCH  13  17
HETATM   17  N3  UNL     1       2.053   0.272  -1.069  1.00  0.00    -0.251 N 
ATOM     18  H3  UNL     1       1.738  -0.645  -1.387  1.00  0.00     0.196 HD
BRANCH  17  19
HETATM   19  O2  UNL     1       3.183   0.397  -0.356  1.00  0.00    -0.272 OA
BRANCH  19  20
HETATM   20  C13 UNL     1       3.482  -0.751   0.376  1.00  0.00     0.178 C 
HETATM   21  C14 UNL     1       3.518  -0.505   1.850  1.00  0.00     0.038 C 
HETATM   22  C15 UNL     1       4.959  -0.502   2.315  1.00  0.00     0.030 C 
HETATM   23  C16 UNL     1       5.623  -1.841   2.061  1.00  0.00     0.232 C 
HETATM   24  N4  UNL     1       5.199  -2.416   0.801  1.00  0.00    -0.073 N 
HETATM   25  C17 UNL     1       4.770  -1.398  -0.139  1.00  0.00     0.266 C 
ATOM     26  H42 UNL     1       5.926  -3.009   0.400  1.00  0.00     0.277 HD
ATOM     27  H41 UNL     1       4.476  -3.122   0.940  1.00  0.00     0.277 HD
ENDBRANCH  19  20
ENDBRANCH  17  19
ENDBRANCH  13  17
ENDBRANCH   6  13
BRANCH   1  28
HETATM   28  C4  UNL     1      -3.369  -1.269  -0.852  1.00  0.00     0.035 C 
BRANCH  28  29
HETATM   29  C3  UNL     1      -4.106  -1.033   0.403  1.00  0.00     0.002 C 
BRANCH  29  30
HETATM   30  C2  UNL     1      -3.348  -1.095   1.683  1.00  0.00    -0.004 C 
HETATM   31  C1  UNL     1      -4.394  -0.825   2.787  1.00  0.00     0.005 C 
ENDBRANCH  29  30
ENDBRANCH  28  29
ENDBRANCH   1  28
BRANCH   1  32
HETATM   32  C6  UNL     1      -1.727  -0.904  -2.592  1.00  0.00     0.031 C 
HETATM   33  C7  UNL     1      -2.716  -0.888  -3.691  1.00  0.00     0.007 C 
ENDBRANCH   1  32
TORSDOF 9
