REMARK  10 active torsions:
REMARK  status: ('A' for Active; 'I' for Inactive)
REMARK    1  A    between atoms: C3_5  and  C4_6 
REMARK    2  A    between atoms: C4_6  and  N2_7 
REMARK    3  A    between atoms: N2_7  and  C5_9 
REMARK    4  A    between atoms: C5_9  and  N3_11 
REMARK    5  A    between atoms: N3_11  and  C6_13 
REMARK    6  A    between atoms: C6_13  and  C7_14 
REMARK    7  A    between atoms: C7_14  and  N4_15 
REMARK    8  A    between atoms: N4_15  and  C8_17 
REMARK    9  A    between atoms: C8_17  and  C9_18 
REMARK       I    between atoms: N5_22  and  C12_23 
REMARK   10  A    between atoms: C12_23  and  C13_25 
ROOT
HETATM    1  C7  UNL     1       1.310  -0.536  -0.743  1.00  0.00     0.138 C 
ENDROOT
BRANCH   1   2
HETATM    2  C6  UNL     1       2.371  -1.593  -1.157  1.00  0.00     0.141 C 
BRANCH   2   3
HETATM    3  N3  UNL     1       2.954  -1.266  -2.401  1.00  0.00    -0.366 N 
ATOM      4  H3  UNL     1       2.601  -1.828  -3.176  1.00  0.00     0.161 HD
BRANCH   3   5
HETATM    5  C5  UNL     1       3.900  -0.345  -2.780  1.00  0.00     0.167 C 
HETATM    6  S1  UNL     1       4.224  -0.262  -4.462  1.00  0.00    -0.041 SA
BRANCH   5   7
HETATM    7  N2  UNL     1       4.668   0.554  -2.058  1.00  0.00    -0.362 N 
ATOM      8  H2  UNL     1       5.265   1.157  -2.624  1.00  0.00     0.162 HD
BRANCH   7   9
HETATM    9  C4  UNL     1       4.758   0.772  -0.658  1.00  0.00     0.179 C 
BRANCH   9  10
HETATM   10  C3  UNL     1       5.955   0.006  -0.082  1.00  0.00     0.034 A 
HETATM   11  N1  UNL     1       6.831   0.602   0.670  1.00  0.00    -0.356 N 
HETATM   12  C2  UNL     1       7.863  -0.076   1.144  1.00  0.00     0.047 A 
ATOM     13  H1  UNL     1       6.723   1.591   0.894  1.00  0.00     0.166 HD
HETATM   14  C1  UNL     1       8.983   0.439   2.025  1.00  0.00     0.076 C 
HETATM   15  S2  UNL     1       7.600  -1.639   0.506  1.00  0.00    -0.087 SA
HETATM   16  C19 UNL     1       6.155  -1.320  -0.346  1.00  0.00     0.078 A 
ENDBRANCH   9  10
ENDBRANCH   7   9
ENDBRANCH   5   7
ENDBRANCH   3   5
ENDBRANCH   2   3
ENDBRANCH   1   2
BRANCH   1  17
HETATM   17  N4  UNL     1       0.755  -0.871   0.517  1.00  0.00    -0.398 N 
ATOM     18  H4  UNL     1       1.012  -1.743   0.980  1.00  0.00     0.158 HD
BRANCH  17  19
HETATM   19  C8  UNL     1      -0.152   0.013   1.117  1.00  0.00     0.099 C 
BRANCH  19  20
HETATM   20  C9  UNL     1      -1.510   0.212   0.600  1.00  0.00     0.138 C 
HETATM   21  F1  UNL     1      -2.118   1.154   1.491  1.00  0.00    -0.237 F 
HETATM   22  C10 UNL     1      -1.542   0.934  -0.725  1.00  0.00     0.069 C 
HETATM   23  C11 UNL     1      -2.955   1.585  -0.873  1.00  0.00     0.129 C 
HETATM   24  N5  UNL     1      -3.847   0.602  -0.264  1.00  0.00    -0.352 N 
HETATM   25  C12 UNL     1      -4.992   1.042   0.419  1.00  0.00     0.224 C 
HETATM   26  C17 UNL     1      -3.502  -0.784  -0.380  1.00  0.00     0.129 C 
HETATM   27  O1  UNL     1      -5.273   2.278   0.531  1.00  0.00    -0.273 OA
HETATM   28  C18 UNL     1      -2.318  -1.038   0.572  1.00  0.00     0.069 C 
BRANCH  25  29
HETATM   29  C13 UNL     1      -5.918   0.089   1.037  1.00  0.00     0.078 C 
HETATM   30  C14 UNL     1      -6.864  -0.654   0.126  1.00  0.00     0.014 C 
HETATM   31  C15 UNL     1      -7.929  -0.479   1.228  1.00  0.00     0.002 C 
HETATM   32  C16 UNL     1      -7.130   0.719   1.694  1.00  0.00     0.014 C 
ENDBRANCH  25  29
ENDBRANCH  19  20
ENDBRANCH  17  19
ENDBRANCH   1  17
TORSDOF 10
