REMARK  4 active torsions:
REMARK  status: ('A' for Active; 'I' for Inactive)
REMARK    1  A    between atoms: C5_6  and  O2_7 
REMARK    2  A    between atoms: C8_11  and  C10_13 
REMARK    3  A    between atoms: C10_13  and  O3_14 
REMARK    4  A    between atoms: C11_16  and  O4_18 
ROOT
HETATM    1  C1  UNL     1       0.239  -2.216  -1.417  1.00  0.00     0.016 C 
HETATM    2  C2  UNL     1       0.498  -1.314  -0.249  1.00  0.00    -0.034 C 
HETATM    3  C3  UNL     1       1.848  -1.618   0.361  1.00  0.00     0.042 C 
HETATM    4  C4  UNL     1       2.349  -0.305   0.916  1.00  0.00     0.134 C 
HETATM    5  O1  UNL     1       3.563   0.134   0.412  1.00  0.00    -0.355 OA
HETATM    6  C5  UNL     1       2.919   0.841  -0.574  1.00  0.00     0.264 C 
HETATM    7  C6  UNL     1       1.606   0.768   0.173  1.00  0.00     0.075 C 
HETATM    8  C7  UNL     1       0.534   0.153  -0.629  1.00  0.00     0.018 C 
HETATM    9  C8  UNL     1      -0.843   0.672  -0.389  1.00  0.00     0.013 C 
HETATM   10  C9  UNL     1      -1.507   0.867  -1.759  1.00  0.00     0.021 C 
HETATM   11  C11 UNL     1      -1.578  -0.320   0.455  1.00  0.00     0.065 C 
HETATM   12  C12 UNL     1      -2.843  -0.777  -0.229  1.00  0.00     0.047 C 
HETATM   13  C13 UNL     1      -0.628  -1.427   0.747  1.00  0.00     0.048 C 
ENDROOT
BRANCH   9  14
HETATM   14  C10 UNL     1      -0.880   2.016   0.291  1.00  0.00     0.176 C 
BRANCH  14  15
HETATM   15  O3  UNL     1      -0.238   3.009  -0.439  1.00  0.00    -0.400 OA
ATOM     16  H3  UNL     1      -0.261   3.856  -0.010  1.00  0.00     0.209 HD
ENDBRANCH  14  15
ENDBRANCH   9  14
BRANCH  11  17
HETATM   17  O4  UNL     1      -1.979   0.237   1.689  1.00  0.00    -0.389 OA
ATOM     18  H4  UNL     1      -2.446  -0.393   2.225  1.00  0.00     0.210 HD
ENDBRANCH  11  17
BRANCH   6  19
HETATM   19  O2  UNL     1       3.367   2.141  -0.797  1.00  0.00    -0.371 OA
ATOM     20  H2  UNL     1       2.922   2.630  -1.479  1.00  0.00     0.212 HD
ENDBRANCH   6  19
TORSDOF 4
