REMARK  4 active torsions:
REMARK  status: ('A' for Active; 'I' for Inactive)
REMARK    1  A    between atoms: S1_2  and  C2_3 
REMARK    2  A    between atoms: C5_6  and  C6_7 
REMARK    3  A    between atoms: C8_9  and  O1_10 
REMARK    4  A    between atoms: C9_12  and  O2_13 
ROOT
HETATM    1  C6  UNL     1      -1.682  -0.404  -0.288  1.00  0.00     0.195 C 
HETATM    2  C7  UNL     1      -2.032   1.055  -0.541  1.00  0.00     0.069 C 
HETATM    3  C8  UNL     1      -3.032   1.374   0.556  1.00  0.00     0.176 C 
HETATM    4  C9  UNL     1      -3.574  -0.015   0.857  1.00  0.00     0.348 C 
HETATM    5  N1  UNL     1      -2.334  -0.783   0.937  1.00  0.00    -0.042 N 
ATOM      6  H11 UNL     1      -1.786  -0.637   1.785  1.00  0.00     0.280 HD
ATOM      7  H12 UNL     1      -2.452  -1.787   1.075  1.00  0.00     0.280 HD
ENDROOT
BRANCH   1   8
HETATM    8  C5  UNL     1      -0.203  -0.512  -0.268  1.00  0.00     0.016 C 
HETATM    9  C4  UNL     1       0.418  -0.191   1.087  1.00  0.00     0.008 C 
HETATM   10  C3  UNL     1       1.840   0.197   0.750  1.00  0.00     0.015 C 
HETATM   11  C2  UNL     1       2.572  -0.798  -0.071  1.00  0.00     0.047 C 
HETATM   12  C11 UNL     1       1.786  -1.693  -0.947  1.00  0.00     0.015 C 
HETATM   13  C10 UNL     1       0.343  -1.871  -0.605  1.00  0.00     0.008 C 
BRANCH  11  14
HETATM   14  S1  UNL     1       3.693   0.139  -1.171  1.00  0.00    -0.169 SA
HETATM   15  C1  UNL     1       4.928   1.021  -0.203  1.00  0.00     0.090 C 
ENDBRANCH  11  14
ENDBRANCH   1   8
BRANCH   3  16
HETATM   16  O1  UNL     1      -4.021   2.231   0.106  1.00  0.00    -0.391 OA
ATOM     17  H1  UNL     1      -4.647   2.431   0.792  1.00  0.00     0.210 HD
ENDBRANCH   3  16
BRANCH   4  18
HETATM   18  O2  UNL     1      -4.409  -0.476  -0.145  1.00  0.00    -0.368 OA
ATOM     19  H2  UNL     1      -4.748  -1.344   0.043  1.00  0.00     0.212 HD
ENDBRANCH   4  18
TORSDOF 4
