REMARK  12 active torsions:
REMARK  status: ('A' for Active; 'I' for Inactive)
REMARK    1  A    between atoms: S1_2  and  C2_3 
REMARK    2  A    between atoms: C2_3  and  C3_4 
REMARK    3  A    between atoms: C2_3  and  N5_32 
REMARK    4  A    between atoms: C3_4  and  C4_5 
REMARK    5  A    between atoms: C4_5  and  S2_6 
REMARK    6  A    between atoms: S2_6  and  C5_7 
REMARK    7  A    between atoms: C5_7  and  C6_8 
REMARK    8  A    between atoms: C6_8  and  C7_9 
REMARK    9  A    between atoms: C10_14  and  C11_15 
REMARK   10  A    between atoms: C13_17  and  S3_18 
REMARK   11  A    between atoms: S3_18  and  N2_21 
REMARK   12  A    between atoms: N5_32  and  S4_34 
ROOT
HETATM    1  C7  UNL     1       0.518  -0.653  -0.595  1.00  0.00     0.035 A 
HETATM    2  C8  UNL     1       0.456  -1.771   0.194  1.00  0.00     0.029 A 
HETATM    3  C9  UNL     1       1.493  -2.821   0.425  1.00  0.00     0.070 C 
HETATM    4  N1  UNL     1      -0.759  -1.757   0.753  1.00  0.00    -0.344 N 
ATOM      5  H1  UNL     1      -1.105  -2.468   1.398  1.00  0.00     0.167 HD
HETATM    6  C10 UNL     1      -1.477  -0.668   0.349  1.00  0.00     0.120 A 
HETATM    7  N4  UNL     1      -0.677   0.003  -0.481  1.00  0.00    -0.339 N 
HETATM    8  C20 UNL     1      -1.027   1.237  -1.149  1.00  0.00     0.158 C 
ENDROOT
BRANCH   6   9
HETATM    9  C11 UNL     1      -2.840  -0.401   0.802  1.00  0.00     0.033 A 
HETATM   10  C12 UNL     1      -3.643   0.686   0.531  1.00  0.00     0.060 A 
HETATM   11  C13 UNL     1      -4.880   0.534   1.159  1.00  0.00     0.145 A 
HETATM   12  N3  UNL     1      -4.828  -0.641   1.807  1.00  0.00    -0.349 N 
HETATM   13  C18 UNL     1      -3.622  -1.207   1.604  1.00  0.00     0.020 A 
ATOM     14  H3  UNL     1      -5.582  -1.042   2.365  1.00  0.00     0.166 HD
HETATM   15  C19 UNL     1      -3.158  -2.519   2.146  1.00  0.00     0.069 C 
BRANCH  11  16
HETATM   16  S3  UNL     1      -6.232   1.610   1.149  1.00  0.00     0.259 S 
HETATM   17  O1  UNL     1      -5.822   3.054   1.169  1.00  0.00    -0.204 OA
HETATM   18  O2  UNL     1      -7.057   1.339   2.395  1.00  0.00    -0.204 OA
BRANCH  16  19
HETATM   19  N2  UNL     1      -7.254   1.310  -0.199  1.00  0.00    -0.205 NA
HETATM   20  C14 UNL     1      -7.818  -0.000  -0.201  1.00  0.00     0.107 C 
HETATM   21  C15 UNL     1      -9.286   0.153   0.171  1.00  0.00     0.017 C 
HETATM   22  C16 UNL     1      -9.578   1.625   0.212  1.00  0.00     0.017 C 
HETATM   23  C17 UNL     1      -8.327   2.246  -0.321  1.00  0.00     0.107 C 
ENDBRANCH  16  19
ENDBRANCH  11  16
ENDBRANCH   6   9
BRANCH   1  24
HETATM   24  C6  UNL     1       1.662  -0.210  -1.404  1.00  0.00     0.069 C 
BRANCH  24  25
HETATM   25  C5  UNL     1       2.712   0.498  -0.546  1.00  0.00     0.080 C 
BRANCH  25  26
HETATM   26  S2  UNL     1       4.071   1.027  -1.578  1.00  0.00    -0.169 SA
BRANCH  26  27
HETATM   27  C4  UNL     1       5.057  -0.332  -2.247  1.00  0.00     0.076 C 
BRANCH  27  28
HETATM   28  C3  UNL     1       5.809  -1.059  -1.124  1.00  0.00     0.047 C 
BRANCH  28  29
HETATM   29  C2  UNL     1       6.734  -0.089  -0.408  1.00  0.00     0.154 C 
BRANCH  29  30
HETATM   30  S1  UNL     1       7.935   0.581  -1.626  1.00  0.00    -0.148 SA
HETATM   31  C1  UNL     1       9.017  -0.747  -2.197  1.00  0.00     0.092 C 
ENDBRANCH  29  30
BRANCH  29  32
HETATM   32  N5  UNL     1       6.055   1.013   0.194  1.00  0.00    -0.306 N 
ATOM     33  H5  UNL     1       5.444   1.667  -0.296  1.00  0.00     0.173 HD
BRANCH  32  34
HETATM   34  S4  UNL     1       6.427   1.068   1.876  1.00  0.00     0.223 S 
HETATM   35  C21 UNL     1       8.185   1.314   2.090  1.00  0.00     0.186 C 
HETATM   36  O3  UNL     1       6.026  -0.251   2.493  1.00  0.00    -0.206 OA
HETATM   37  O4  UNL     1       5.739   2.202   2.572  1.00  0.00    -0.206 OA
ENDBRANCH  32  34
ENDBRANCH  29  32
ENDBRANCH  28  29
ENDBRANCH  27  28
ENDBRANCH  26  27
ENDBRANCH  25  26
ENDBRANCH  24  25
ENDBRANCH   1  24
TORSDOF 12
