REMARK  14 active torsions:
REMARK  status: ('A' for Active; 'I' for Inactive)
REMARK    1  A    between atoms: C2_2  and  N1_3 
REMARK    2  A    between atoms: N1_3  and  C3_4 
REMARK    3  A    between atoms: C3_4  and  C4_5 
REMARK    4  A    between atoms: C4_5  and  C5_6 
REMARK    5  A    between atoms: C5_6  and  C6_7 
REMARK    6  A    between atoms: C6_7  and  C7_8 
REMARK    7  A    between atoms: C7_8  and  N2_9 
REMARK    8  A    between atoms: C9_14  and  S1_15 
REMARK    9  A    between atoms: S1_15  and  C10_16 
REMARK   10  A    between atoms: C10_16  and  C11_17 
REMARK   11  A    between atoms: C11_17  and  O2_18 
REMARK   12  A    between atoms: C11_17  and  C12_20 
REMARK   13  A    between atoms: C12_20  and  N4_21 
REMARK   14  A    between atoms: N5_24  and  C15_25 
ROOT
HETATM    1  N2  UNL     1      -3.682   1.207   0.804  1.00  0.00    -0.251 N 
HETATM    2  C8  UNL     1      -2.876   2.278   1.101  1.00  0.00     0.332 A 
HETATM    3  O1  UNL     1      -3.348   3.269   1.713  1.00  0.00    -0.246 OA
HETATM    4  N3  UNL     1      -1.584   2.325   0.766  1.00  0.00    -0.288 N 
ATOM      5  H3  UNL     1      -1.028   3.145   1.010  1.00  0.00     0.172 HD
HETATM    6  C9  UNL     1      -1.010   1.304   0.111  1.00  0.00     0.152 A 
HETATM    7  N6  UNL     1      -1.785   0.252  -0.185  1.00  0.00    -0.288 N 
ATOM      8  H6  UNL     1      -1.374  -0.537  -0.683  1.00  0.00     0.172 HD
HETATM    9  C25 UNL     1      -3.115   0.199   0.159  1.00  0.00     0.332 A 
HETATM   10  O3  UNL     1      -3.755  -0.829  -0.158  1.00  0.00    -0.246 OA
ENDROOT
BRANCH   6  11
HETATM   11  S1  UNL     1       0.717   1.338  -0.352  1.00  0.00    -0.091 SA
BRANCH  11  12
HETATM   12  C10 UNL     1       1.766   0.626   0.975  1.00  0.00     0.115 C 
BRANCH  12  13
HETATM   13  C11 UNL     1       3.202   0.741   0.444  1.00  0.00     0.145 C 
BRANCH  13  14
HETATM   14  O2  UNL     1       3.401   2.105   0.245  1.00  0.00    -0.393 OA
ATOM     15  H2  UNL     1       4.290   2.176  -0.084  1.00  0.00     0.210 HD
ENDBRANCH  13  14
BRANCH  13  16
HETATM   16  C12 UNL     1       4.206   0.246   1.457  1.00  0.00     0.149 C 
BRANCH  16  17
HETATM   17  N4  UNL     1       5.521   0.474   0.980  1.00  0.00    -0.407 N 
HETATM   18  C13 UNL     1       6.569   0.050   1.858  1.00  0.00     0.136 C 
HETATM   19  C14 UNL     1       7.913   0.553   1.466  1.00  0.00     0.142 C 
HETATM   20  N5  UNL     1       8.181   0.193   0.099  1.00  0.00    -0.377 N 
HETATM   21  C23 UNL     1       7.135   0.402  -0.870  1.00  0.00     0.142 C 
HETATM   22  C24 UNL     1       5.751   0.190  -0.399  1.00  0.00     0.136 C 
BRANCH  20  23
HETATM   23  C15 UNL     1       9.413  -0.343  -0.374  1.00  0.00     0.036 A 
HETATM   24  C16 UNL     1      10.141   0.407  -1.310  1.00  0.00     0.036 A 
HETATM   25  C17 UNL     1      11.338  -0.043  -1.803  1.00  0.00    -0.060 A 
HETATM   26  C18 UNL     1      12.067   0.782  -2.786  1.00  0.00     0.048 C 
HETATM   27  C19 UNL     1      11.801  -1.258  -1.348  1.00  0.00     0.007 A 
HETATM   28  C20 UNL     1      11.090  -1.997  -0.430  1.00  0.00     0.009 A 
HETATM   29  C21 UNL     1       9.865  -1.544   0.080  1.00  0.00    -0.035 A 
HETATM   30  C22 UNL     1       9.140  -2.370   1.053  1.00  0.00     0.050 C 
ENDBRANCH  20  23
ENDBRANCH  16  17
ENDBRANCH  13  16
ENDBRANCH  12  13
ENDBRANCH  11  12
ENDBRANCH   6  11
BRANCH   1  31
HETATM   31  C7  UNL     1      -5.042   1.323   1.276  1.00  0.00     0.139 C 
BRANCH  31  32
HETATM   32  C6  UNL     1      -5.953   2.081   0.378  1.00  0.00     0.020 C 
BRANCH  32  33
HETATM   33  C5  UNL     1      -6.257   1.486  -0.950  1.00  0.00     0.003 C 
BRANCH  33  34
HETATM   34  C4  UNL     1      -7.048   0.200  -0.923  1.00  0.00     0.028 C 
BRANCH  34  35
HETATM   35  C3  UNL     1      -8.394   0.449  -0.275  1.00  0.00     0.237 C 
BRANCH  35  36
HETATM   36  N1  UNL     1      -9.255  -0.689  -0.214  1.00  0.00    -0.067 N 
HETATM   37  C26 UNL     1      -9.820  -0.758   1.137  1.00  0.00     0.237 C 
HETATM   38  C27 UNL     1      -8.728  -1.465   1.936  1.00  0.00     0.029 C 
HETATM   39  C28 UNL     1      -8.154  -2.441   0.926  1.00  0.00     0.029 C 
HETATM   40  C29 UNL     1      -8.591  -1.938  -0.427  1.00  0.00     0.237 C 
BRANCH  36  41
HETATM   41  C2  UNL     1     -10.369  -0.507  -1.146  1.00  0.00     0.233 C 
HETATM   42  C1  UNL     1     -10.147  -1.213  -2.450  1.00  0.00     0.035 C 
ENDBRANCH  36  41
ENDBRANCH  35  36
ENDBRANCH  34  35
ENDBRANCH  33  34
ENDBRANCH  32  33
ENDBRANCH  31  32
ENDBRANCH   1  31
TORSDOF 14
