REMARK  6 active torsions:
REMARK  status: ('A' for Active; 'I' for Inactive)
REMARK    1  A    between atoms: N1_2  and  C2_3 
REMARK    2  A    between atoms: N1_2  and  C7_21 
REMARK    3  A    between atoms: C3_6  and  N3_7 
REMARK    4  A    between atoms: N3_7  and  C4_9 
REMARK    5  A    between atoms: C4_9  and  C5_10 
REMARK    6  A    between atoms: C6_15  and  N6_16 
ROOT
HETATM    1  C2  UNL     1       0.253  -1.406   0.504  1.00  0.00     0.727 A 
HETATM    2  N2  UNL     1       1.004  -0.320   0.269  1.00  0.00    -0.021 N 
ATOM      3  H2  UNL     1       0.550   0.593   0.282  1.00  0.00     0.203 HD
HETATM    4  C3  UNL     1       2.343  -0.373   0.013  1.00  0.00     0.707 A 
HETATM    5  N5  UNL     1       2.890  -1.599   0.007  1.00  0.00    -0.022 N 
ATOM      6  H5  UNL     1       3.889  -1.691  -0.180  1.00  0.00     0.203 HD
HETATM    7  C6  UNL     1       2.171  -2.708   0.238  1.00  0.00     0.705 A 
HETATM    8  N7  UNL     1       0.860  -2.632   0.486  1.00  0.00    -0.021 N 
ATOM      9  H7  UNL     1       0.318  -3.478   0.660  1.00  0.00     0.203 HD
ENDROOT
BRANCH   1  10
HETATM   10  N1  UNL     1      -1.154  -1.319   0.770  1.00  0.00    -0.017 N 
HETATM   11  C1  UNL     1      -1.941  -2.497   1.010  1.00  0.00     0.195 C 
BRANCH  10  12
HETATM   12  C7  UNL     1      -1.764  -0.049   0.791  1.00  0.00     0.708 A 
HETATM   13  N8  UNL     1      -1.149   0.967   1.467  1.00  0.00    -0.186 N 
HETATM   14  C8  UNL     1      -1.665   2.192   1.522  1.00  0.00     0.199 A 
ATOM     15  H8  UNL     1      -0.267   0.780   1.944  1.00  0.00     0.185 HD
HETATM   16  N9  UNL     1      -2.817   2.444   0.900  1.00  0.00    -0.334 N 
HETATM   17  C9  UNL     1      -3.466   1.499   0.224  1.00  0.00     0.172 A 
ATOM     18  H9  UNL     1      -3.211   3.384   0.943  1.00  0.00     0.168 HD
HETATM   19  C10 UNL     1      -4.663   1.521  -0.503  1.00  0.00     0.162 A 
HETATM   20  N12 UNL     1      -2.931   0.257   0.175  1.00  0.00    -0.124 N 
HETATM   21  N10 UNL     1      -5.488   2.672  -0.656  1.00  0.00    -0.079 NA
HETATM   22  N11 UNL     1      -4.816   0.279  -0.973  1.00  0.00    -0.337 N 
HETATM   23  C11 UNL     1      -3.761  -0.476  -0.557  1.00  0.00     0.210 A 
ATOM     24  H11 UNL     1      -5.593  -0.049  -1.547  1.00  0.00     0.168 HD
ENDBRANCH  10  12
ENDBRANCH   1  10
BRANCH   4  25
HETATM   25  N3  UNL     1       2.968   0.728  -0.196  1.00  0.00    -0.217 N 
ATOM     26  H3  UNL     1       2.477   1.622  -0.172  1.00  0.00     0.178 HD
BRANCH  25  27
HETATM   27  C4  UNL     1       4.387   0.668  -0.466  1.00  0.00     0.237 C 
BRANCH  27  28
HETATM   28  C5  UNL     1       4.984   2.027  -0.552  1.00  0.00     0.249 C 
HETATM   29  N4  UNL     1       4.128   3.138  -0.365  1.00  0.00    -0.061 NA
HETATM   30  O1  UNL     1       6.211   2.175  -0.784  1.00  0.00    -0.275 OA
ENDBRANCH  27  28
ENDBRANCH  25  27
ENDBRANCH   4  25
BRANCH   7  31
HETATM   31  N6  UNL     1       2.749  -3.845   0.219  1.00  0.00    -0.234 N 
ATOM     32  H62 UNL     1       3.750  -3.903   0.030  1.00  0.00     0.174 HD
ATOM     33  H61 UNL     1       2.202  -4.688   0.395  1.00  0.00     0.174 HD
ENDBRANCH   7  31
TORSDOF 6
