REMARK  7 active torsions:
REMARK  status: ('A' for Active; 'I' for Inactive)
REMARK    1  A    between atoms: C2_2  and  C3_3 
REMARK       I    between atoms: C3_3  and  N1_5 
REMARK    2  A    between atoms: N1_5  and  O2_7 
REMARK    3  A    between atoms: N4_14  and  C6_15 
REMARK    4  A    between atoms: C7_18  and  N6_19 
REMARK    5  A    between atoms: N6_19  and  C8_21 
REMARK    6  A    between atoms: C8_21  and  C9_22 
REMARK    7  A    between atoms: C9_22  and  N7_23 
ROOT
HETATM    1  C6  UNL     1      -0.609  -0.723   0.098  1.00  0.00     0.691 A 
HETATM    2  N5  UNL     1       0.591  -0.127  -0.022  1.00  0.00    -0.174 N 
ATOM      3  H5  UNL     1       0.613   0.878  -0.192  1.00  0.00     0.186 HD
HETATM    4  C7  UNL     1       1.763  -0.779   0.069  1.00  0.00     0.144 A 
HETATM    5  C10 UNL     1       1.778  -2.142   0.299  1.00  0.00     0.132 A 
HETATM    6  N8  UNL     1       3.016  -2.833   0.396  1.00  0.00    -0.095 NA
HETATM    7  C11 UNL     1       0.558  -2.774   0.426  1.00  0.00     0.159 A 
HETATM    8  N9  UNL     1       0.572  -4.175   0.662  1.00  0.00    -0.080 NA
HETATM    9  N10 UNL     1      -0.580  -2.067   0.325  1.00  0.00    -0.176 N 
ATOM     10  H10 UNL     1      -1.467  -2.561   0.423  1.00  0.00     0.185 HD
ENDROOT
BRANCH   1  11
HETATM   11  N4  UNL     1      -1.828  -0.009  -0.002  1.00  0.00    -0.135 N 
HETATM   12  C2  UNL     1      -2.658   0.289  -1.148  1.00  0.00     0.152 C 
HETATM   13  C1  UNL     1      -2.474  -0.723  -2.255  1.00  0.00     0.052 C 
HETATM   14  C4  UNL     1      -4.029   0.182  -0.513  1.00  0.00     0.164 C 
HETATM   15  N2  UNL     1      -3.775   0.708   0.806  1.00  0.00    -0.361 N 
HETATM   16  C5  UNL     1      -2.526   0.593   1.090  1.00  0.00     0.206 C 
ATOM     17  H2  UNL     1      -4.481   1.111   1.422  1.00  0.00     0.162 HD
HETATM   18  N3  UNL     1      -1.952   1.024   2.332  1.00  0.00    -0.063 NA
BRANCH  12  19
HETATM   19  C3  UNL     1      -2.512   1.668  -1.644  1.00  0.00     0.272 C 
HETATM   20  O1  UNL     1      -3.191   2.042  -2.659  1.00  0.00    -0.268 OA
HETATM   21  N1  UNL     1      -1.659   2.646  -1.078  1.00  0.00    -0.235 N 
ATOM     22  H1  UNL     1      -1.098   2.390  -0.266  1.00  0.00     0.197 HD
BRANCH  21  23
HETATM   23  O2  UNL     1      -1.554   3.899  -1.562  1.00  0.00    -0.287 OA
ATOM     24  H2  UNL     1      -0.982   4.555  -1.182  1.00  0.00     0.244 HD
ENDBRANCH  21  23
ENDBRANCH  12  19
ENDBRANCH   1  11
BRANCH   4  25
HETATM   25  N6  UNL     1       2.911  -0.168  -0.054  1.00  0.00    -0.373 N 
ATOM     26  H6  UNL     1       3.793  -0.676   0.017  1.00  0.00     0.161 HD
BRANCH  25  27
HETATM   27  C8  UNL     1       2.882   1.254  -0.294  1.00  0.00     0.148 C 
BRANCH  27  28
HETATM   28  C9  UNL     1       4.171   1.942   0.089  1.00  0.00     0.249 C 
BRANCH  28  29
HETATM   29  N7  UNL     1       4.497   1.790   1.470  1.00  0.00    -0.078 N 
ATOM     30  H73 UNL     1       3.728   2.103   2.062  1.00  0.00     0.274 HD
ATOM     31  H72 UNL     1       4.519   0.805   1.732  1.00  0.00     0.274 HD
ATOM     32  H71 UNL     1       5.367   2.255   1.729  1.00  0.00     0.274 HD
ENDBRANCH  28  29
ENDBRANCH  27  28
ENDBRANCH  25  27
ENDBRANCH   4  25
TORSDOF 7
