REMARK  9 active torsions:
REMARK  status: ('A' for Active; 'I' for Inactive)
REMARK    1  A    between atoms: N1_1  and  N2_4 
REMARK    2  A    between atoms: N2_4  and  C1_6 
REMARK    3  A    between atoms: C1_6  and  O1_7 
REMARK    4  A    between atoms: C1_6  and  C2_9 
REMARK    5  A    between atoms: C2_9  and  N3_10 
REMARK    6  A    between atoms: C2_9  and  C4_22 
REMARK    7  A    between atoms: N3_10  and  N4_12 
REMARK    8  A    between atoms: N4_12  and  C3_14 
REMARK    9  A    between atoms: C5_25  and  C6_26 
REMARK       I    between atoms: C6_26  and  N10_28 
ROOT
HETATM    1  C2  UNL     1      -0.465  -0.193   0.813  1.00  0.00     0.129 C 
ENDROOT
BRANCH   1   2
HETATM    2  C1  UNL     1      -1.195   0.476   1.831  1.00  0.00     0.185 C 
BRANCH   2   3
HETATM    3  N2  UNL     1      -0.876   1.573   2.644  1.00  0.00    -0.285 N 
ATOM      4  H2  UNL     1       0.033   2.022   2.538  1.00  0.00     0.188 HD
BRANCH   3   5
HETATM    5  N1  UNL     1      -1.785   2.073   3.609  1.00  0.00    -0.343 N 
ATOM      6  H12 UNL     1      -2.690   1.612   3.702  1.00  0.00     0.176 HD
ATOM      7  H11 UNL     1      -1.553   2.871   4.200  1.00  0.00     0.176 HD
ENDBRANCH   3   5
ENDBRANCH   2   3
BRANCH   2   8
HETATM    8  O1  UNL     1      -2.396   0.018   2.092  1.00  0.00    -0.343 OA
ATOM      9  H1  UNL     1      -2.612  -0.725   1.541  1.00  0.00     0.219 HD
ENDBRANCH   2   8
ENDBRANCH   1   2
BRANCH   1  10
HETATM   10  N3  UNL     1      -1.073  -1.211   0.234  1.00  0.00    -0.280 N 
ATOM     11  H3  UNL     1      -0.550  -1.694  -0.497  1.00  0.00     0.188 HD
BRANCH  10  12
HETATM   12  N4  UNL     1      -2.320  -1.691   0.501  1.00  0.00    -0.129 N 
ATOM     13  H4  UNL     1      -2.529  -1.986   1.455  1.00  0.00     0.205 HD
BRANCH  12  14
HETATM   14  C3  UNL     1      -3.266  -1.794  -0.402  1.00  0.00     0.725 A 
HETATM   15  N5  UNL     1      -4.514  -2.257  -0.209  1.00  0.00    -0.112 N 
HETATM   16  N6  UNL     1      -5.157  -2.200  -1.365  1.00  0.00     0.009 NA
ATOM     17  H5  UNL     1      -4.898  -2.593   0.674  1.00  0.00     0.203 HD
HETATM   18  N7  UNL     1      -4.360  -1.713  -2.300  1.00  0.00    -0.211 N 
HETATM   19  N8  UNL     1      -3.209  -1.469  -1.704  1.00  0.00    -0.117 N 
ATOM     20  H7  UNL     1      -4.588  -1.558  -3.282  1.00  0.00     0.206 HD
ATOM     21  H8  UNL     1      -2.386  -1.085  -2.169  1.00  0.00     0.207 HD
ENDBRANCH  12  14
ENDBRANCH  10  12
ENDBRANCH   1  10
BRANCH   1  22
HETATM   22  C4  UNL     1       0.871   0.063   0.292  1.00  0.00     0.090 A 
HETATM   23  N9  UNL     1       1.758   0.984   0.626  1.00  0.00    -0.348 N 
HETATM   24  C5  UNL     1       2.909   0.881  -0.116  1.00  0.00     0.109 A 
ATOM     25  H9  UNL     1       1.606   1.687   1.349  1.00  0.00     0.166 HD
HETATM   26  C7  UNL     1       2.739  -0.168  -0.971  1.00  0.00     0.064 A 
HETATM   27  C8  UNL     1       1.483  -0.686  -0.732  1.00  0.00     0.077 A 
HETATM   28  N11 UNL     1       0.942  -1.791  -1.428  1.00  0.00    -0.100 NA
BRANCH  24  29
HETATM   29  C6  UNL     1       4.060   1.732   0.006  1.00  0.00     0.334 C 
HETATM   30  O2  UNL     1       4.041   2.674   0.871  1.00  0.00    -0.259 OA
HETATM   31  N10 UNL     1       5.217   1.605  -0.761  1.00  0.00    -0.071 N 
HETATM   32  O3  UNL     1       6.196   2.414  -0.580  1.00  0.00    -0.529 OA
HETATM   33  O4  UNL     1       5.368   0.639  -1.722  1.00  0.00    -0.529 OA
ENDBRANCH  24  29
ENDBRANCH   1  22
TORSDOF 9
