REMARK  7 active torsions:
REMARK  status: ('A' for Active; 'I' for Inactive)
REMARK    1  A    between atoms: O1_2  and  N1_3 
REMARK    2  A    between atoms: N1_3  and  C2_5 
REMARK    3  A    between atoms: C4_9  and  C5_10 
REMARK    4  A    between atoms: C5_10  and  N3_11 
REMARK    5  A    between atoms: C6_14  and  C7_15 
REMARK    6  A    between atoms: N6_18  and  N7_19 
REMARK    7  A    between atoms: C8_22  and  N8_23 
REMARK       I    between atoms: N8_23  and  C9_25 
ROOT
HETATM    1  N3  UNL     1      -1.503   0.279  -0.388  1.00  0.00    -0.116 N 
HETATM    2  N4  UNL     1      -1.548   1.600  -0.526  1.00  0.00    -0.262 N 
ATOM      3  H4  UNL     1      -0.995   2.119  -1.208  1.00  0.00     0.189 HD
HETATM    4  C6  UNL     1      -2.394   2.167   0.324  1.00  0.00     0.225 A 
HETATM    5  N6  UNL     1      -2.919   1.186   1.041  1.00  0.00    -0.068 N 
HETATM    6  C8  UNL     1      -2.362  -0.015   0.596  1.00  0.00     0.724 A 
ENDROOT
BRANCH   1   7
HETATM    7  C5  UNL     1      -0.661  -0.611  -1.141  1.00  0.00     0.212 C 
BRANCH   7   8
HETATM    8  C4  UNL     1       0.741  -0.720  -0.598  1.00  0.00     0.022 A 
HETATM    9  C3  UNL     1       1.094  -1.751   0.243  1.00  0.00     0.118 A 
HETATM   10  N2  UNL     1       2.342  -1.801   0.755  1.00  0.00    -0.199 N 
HETATM   11  C2  UNL     1       3.258  -0.866   0.463  1.00  0.00     0.703 A 
ATOM     12  H2  UNL     1       2.594  -2.568   1.379  1.00  0.00     0.183 HD
HETATM   13  N12 UNL     1       2.979   0.155  -0.346  1.00  0.00    -0.175 N 
HETATM   14  C10 UNL     1       1.717   0.232  -0.883  1.00  0.00     0.124 A 
ATOM     15  H12 UNL     1       3.684   0.861  -0.561  1.00  0.00     0.186 HD
HETATM   16  N11 UNL     1       1.498   1.181  -1.709  1.00  0.00    -0.385 N 
ATOM     17 2H11 UNL     1       0.561   1.238  -2.108  1.00  0.00     0.157 HD
ATOM     18 1H11 UNL     1       2.213   1.878  -1.918  1.00  0.00     0.157 HD
BRANCH  11  19
HETATM   19  N1  UNL     1       4.445  -0.962   0.982  1.00  0.00    -0.097 N 
ATOM     20  H1  UNL     1       4.656  -1.746   1.599  1.00  0.00     0.213 HD
BRANCH  19  21
HETATM   21  O1  UNL     1       5.424  -0.032   0.720  1.00  0.00    -0.272 OA
HETATM   22  C1  UNL     1       6.224  -0.035  -0.433  1.00  0.00     0.238 C 
ENDBRANCH  19  21
ENDBRANCH  11  19
ENDBRANCH   7   8
ENDBRANCH   1   7
BRANCH   6  23
HETATM   23  N8  UNL     1      -2.728  -1.074   1.092  1.00  0.00    -0.160 N 
HETATM   24  C9  UNL     1      -2.639  -2.415   1.100  1.00  0.00     0.200 C 
HETATM   25  N9  UNL     1      -2.084  -3.018   2.133  1.00  0.00    -0.373 N 
HETATM   26  N10 UNL     1      -3.116  -3.303   0.070  1.00  0.00    -0.063 NA
ATOM     27  H92 UNL     1      -1.746  -2.390   2.862  1.00  0.00     0.158 HD
ATOM     28  H91 UNL     1      -2.016  -4.036   2.139  1.00  0.00     0.158 HD
ATOM     29  H8  UNL     1      -3.396  -0.829   1.823  1.00  0.00     0.187 HD
ENDBRANCH   6  23
BRANCH   4  30
HETATM   30  C7  UNL     1      -2.711   3.598   0.473  1.00  0.00     0.302 C 
HETATM   31  N5  UNL     1      -2.055   4.551  -0.382  1.00  0.00    -0.054 NA
HETATM   32  O2  UNL     1      -3.537   3.930   1.337  1.00  0.00    -0.268 OA
ENDBRANCH   4  30
BRANCH   5  33
HETATM   33  N7  UNL     1      -3.850   1.261   2.054  1.00  0.00    -0.322 N 
ATOM     34  H72 UNL     1      -4.257   2.138   2.379  1.00  0.00     0.178 HD
ATOM     35  H71 UNL     1      -4.255   0.505   2.607  1.00  0.00     0.178 HD
ENDBRANCH   5  33
TORSDOF 7
