REMARK  5 active torsions:
REMARK  status: ('A' for Active; 'I' for Inactive)
REMARK    1  A    between atoms: N8_21  and  C8_22 
REMARK    2  A    between atoms: C8_22  and  C9_23 
REMARK    3  A    between atoms: C9_23  and  C10_24 
REMARK    4  A    between atoms: C10_24  and  O1_25 
REMARK    5  A    between atoms: C10_24  and  C11_27 
ROOT
HETATM    1  N1  UNL     1      -2.441  -3.208  -2.969  1.00  0.00    -0.172 NA
HETATM    2  C1  UNL     1      -1.802  -2.677  -2.136  1.00  0.00     0.183 C 
HETATM    3  N2  UNL     1      -1.031  -2.071  -1.158  1.00  0.00    -0.281 N 
ATOM      4  H2  UNL     1      -0.143  -2.491  -0.883  1.00  0.00     0.179 HD
HETATM    5  C2  UNL     1      -1.418  -0.996  -0.599  1.00  0.00     0.115 C 
HETATM    6  C3  UNL     1      -2.714  -0.442  -1.046  1.00  0.00     0.170 C 
HETATM    7  C4  UNL     1      -2.593   0.954  -1.578  1.00  0.00     0.154 C 
HETATM    8  N3  UNL     1      -1.731   1.827  -0.836  1.00  0.00    -0.374 N 
ATOM      9  H3  UNL     1      -1.525   2.693  -1.334  1.00  0.00     0.161 HD
HETATM   10  C5  UNL     1      -1.104   1.763   0.423  1.00  0.00     0.114 C 
HETATM   11  N4  UNL     1      -0.700   2.887   0.888  1.00  0.00    -0.386 N 
ATOM     12  H41 UNL     1      -0.246   2.841   1.800  1.00  0.00     0.157 HD
ATOM     13  H42 UNL     1      -0.888   3.685   0.281  1.00  0.00     0.157 HD
HETATM   14  C6  UNL     1      -0.831   0.605   1.303  1.00  0.00     0.255 C 
HETATM   15  N5  UNL     1      -2.045   0.198   2.006  1.00  0.00    -0.337 N 
ATOM     16  H5  UNL     1      -1.984   0.225   3.024  1.00  0.00     0.164 HD
HETATM   17  C7  UNL     1      -3.187  -0.192   1.535  1.00  0.00     0.186 C 
HETATM   18  N6  UNL     1      -4.198  -0.529   2.509  1.00  0.00    -0.064 NA
HETATM   19  N7  UNL     1      -3.544  -0.322   0.167  1.00  0.00    -0.351 N 
ATOM     20  H7  UNL     1      -4.549  -0.335  -0.007  1.00  0.00     0.163 HD
HETATM   21  N8  UNL     1      -0.515  -0.504   0.381  1.00  0.00    -0.340 N 
ENDROOT
BRANCH  21  22
HETATM   22  C8  UNL     1       0.788  -1.101   0.503  1.00  0.00     0.130 C 
BRANCH  22  23
HETATM   23  C9  UNL     1       1.859  -0.104   0.066  1.00  0.00     0.059 C 
BRANCH  23  24
HETATM   24  C10 UNL     1       3.217  -0.771   0.211  1.00  0.00     0.190 C 
BRANCH  24  25
HETATM   25  O1  UNL     1       3.295  -1.910  -0.582  1.00  0.00    -0.388 OA
ATOM     26  H1  UNL     1       4.144  -2.327  -0.491  1.00  0.00     0.210 HD
ENDBRANCH  24  25
BRANCH  24  27
HETATM   27  C11 UNL     1       4.314   0.181  -0.010  1.00  0.00     0.142 A 
HETATM   28  N9  UNL     1       4.209   1.522  -0.142  1.00  0.00    -0.270 N 
HETATM   29  N10 UNL     1       5.439   1.994  -0.325  1.00  0.00    -0.227 N 
ATOM     30  H9  UNL     1       3.349   2.069  -0.108  1.00  0.00     0.190 HD
HETATM   31  N11 UNL     1       6.319   1.011  -0.315  1.00  0.00    -0.227 N 
ATOM     32  H10 UNL     1       5.670   2.979  -0.455  1.00  0.00     0.210 HD
HETATM   33  N12 UNL     1       5.620  -0.089  -0.122  1.00  0.00    -0.270 N 
ATOM     34  H11 UNL     1       7.329   1.087  -0.432  1.00  0.00     0.210 HD
ATOM     35  H12 UNL     1       6.022  -1.025  -0.065  1.00  0.00     0.190 HD
ENDBRANCH  24  27
ENDBRANCH  23  24
ENDBRANCH  22  23
ENDBRANCH  21  22
TORSDOF 5
