REMARK  8 active torsions:
REMARK  status: ('A' for Active; 'I' for Inactive)
REMARK    1  A    between atoms: O1_2  and  C2_3 
REMARK    2  A    between atoms: C3_6  and  N2_7 
REMARK    3  A    between atoms: C5_14  and  C6_15 
REMARK    4  A    between atoms: C7_20  and  S1_21 
REMARK    5  A    between atoms: S1_21  and  N6_22 
REMARK       I    between atoms: N6_22  and  C8_24 
REMARK    6  A    between atoms: C8_24  and  C9_26 
REMARK    7  A    between atoms: C10_27  and  N7_28 
REMARK    8  A    between atoms: N8_31  and  N9_32 
ROOT
HETATM    1  C6  UNL     1      -0.627   0.313   1.555  1.00  0.00     0.164 A 
HETATM    2  N4  UNL     1      -0.122  -0.490   2.504  1.00  0.00    -0.281 N 
ATOM      3  H4  UNL     1      -0.639  -1.209   3.010  1.00  0.00     0.188 HD
HETATM    4  N5  UNL     1       1.150  -0.198   2.676  1.00  0.00    -0.275 N 
ATOM      5  H5  UNL     1       1.769  -0.661   3.342  1.00  0.00     0.189 HD
HETATM    6  C7  UNL     1       1.526   0.817   1.833  1.00  0.00     0.203 A 
HETATM    7  N8  UNL     1       0.399   1.107   1.156  1.00  0.00    -0.219 N 
ENDROOT
BRANCH   1   8
HETATM    8  C5  UNL     1      -2.004   0.345   1.066  1.00  0.00     0.131 A 
HETATM    9  C2  UNL     1      -2.463  -0.435   0.033  1.00  0.00     0.176 A 
HETATM   10  N1  UNL     1      -3.748  -0.352  -0.369  1.00  0.00    -0.170 N 
HETATM   11  C3  UNL     1      -4.637   0.468   0.188  1.00  0.00     0.680 A 
ATOM     12  H1  UNL     1      -4.054  -0.947  -1.139  1.00  0.00     0.186 HD
HETATM   13  N3  UNL     1      -4.216   1.253   1.209  1.00  0.00    -0.155 N 
HETATM   14  C4  UNL     1      -2.946   1.193   1.631  1.00  0.00     0.278 A 
ATOM     15  H3  UNL     1      -4.870   1.893   1.659  1.00  0.00     0.187 HD
HETATM   16  O2  UNL     1      -2.570   1.924   2.576  1.00  0.00    -0.266 OA
BRANCH   9  17
HETATM   17  O1  UNL     1      -1.565  -1.308  -0.584  1.00  0.00    -0.340 OA
HETATM   18  C1  UNL     1      -2.062  -2.103  -1.643  1.00  0.00     0.211 C 
ENDBRANCH   9  17
BRANCH  11  19
HETATM   19  N2  UNL     1      -5.875   0.566  -0.171  1.00  0.00    -0.234 N 
ATOM     20  H22 UNL     1      -6.192  -0.025  -0.940  1.00  0.00     0.174 HD
ATOM     21  H21 UNL     1      -6.556   1.194   0.256  1.00  0.00     0.174 HD
ENDBRANCH  11  19
ENDBRANCH   1   8
BRANCH   7  22
HETATM   22  N9  UNL     1       0.280   2.101   0.195  1.00  0.00    -0.335 N 
ATOM     23  H92 UNL     1      -0.574   2.321  -0.318  1.00  0.00     0.177 HD
ATOM     24  H91 UNL     1       1.051   2.698  -0.105  1.00  0.00     0.177 HD
ENDBRANCH   7  22
BRANCH   6  25
HETATM   25  S1  UNL     1       3.153   1.533   1.784  1.00  0.00     0.029 SA
BRANCH  25  26
HETATM   26  N6  UNL     1       4.282   0.668   0.812  1.00  0.00    -0.283 N 
HETATM   27  C8  UNL     1       3.976   0.055  -0.397  1.00  0.00     0.308 C 
HETATM   28  O3  UNL     1       2.823   0.096  -0.879  1.00  0.00    -0.257 OA
ATOM     29  H6  UNL     1       5.243   0.601   1.148  1.00  0.00     0.178 HD
BRANCH  27  30
HETATM   30  C9  UNL     1       4.955  -0.671  -1.185  1.00  0.00     0.018 C 
HETATM   31  C10 UNL     1       5.772  -1.275  -1.863  1.00  0.00     0.013 C 
BRANCH  31  32
HETATM   32  N7  UNL     1       6.685  -1.967  -2.650  1.00  0.00    -0.359 N 
ATOM     33  H72 UNL     1       5.697  -1.714  -2.652  1.00  0.00     0.166 HD
ATOM     34  H71 UNL     1       7.367  -2.471  -3.216  1.00  0.00     0.166 HD
ENDBRANCH  31  32
ENDBRANCH  27  30
ENDBRANCH  25  26
ENDBRANCH   6  25
TORSDOF 8
