REMARK  6 active torsions:
REMARK  status: ('A' for Active; 'I' for Inactive)
REMARK    1  A    between atoms: N1_2  and  C3_4 
REMARK    2  A    between atoms: C4_7  and  N3_8 
REMARK    3  A    between atoms: N3_8  and  C5_10 
REMARK    4  A    between atoms: N7_21  and  C10_23 
REMARK    5  A    between atoms: C10_23  and  O1_24 
REMARK    6  A    between atoms: C10_23  and  N8_26 
REMARK       I    between atoms: N8_26  and  C11_29 
REMARK       I    between atoms: C11_29  and  N9_30 
REMARK       I    between atoms: C11_29  and  N10_34 
ROOT
HETATM    1  C3  UNL     1      -0.934  -2.420  -0.052  1.00  0.00     0.708 A 
HETATM    2  N2  UNL     1      -2.083  -1.739   0.007  1.00  0.00    -0.021 N 
ATOM      3  H2  UNL     1      -2.956  -2.265   0.059  1.00  0.00     0.203 HD
HETATM    4  C4  UNL     1      -2.146  -0.395   0.001  1.00  0.00     0.713 A 
HETATM    5  N6  UNL     1      -0.978   0.269  -0.068  1.00  0.00    -0.021 N 
ATOM      6  H6  UNL     1      -0.995   1.289  -0.074  1.00  0.00     0.203 HD
HETATM    7  C9  UNL     1       0.212  -0.358  -0.130  1.00  0.00     0.710 A 
HETATM    8  N7  UNL     1       1.338   0.238  -0.196  1.00  0.00    -0.173 N 
ATOM      9  H7  UNL     1       2.168  -0.354  -0.237  1.00  0.00     0.182 HD
HETATM   10  N11 UNL     1       0.216  -1.725  -0.121  1.00  0.00    -0.021 N 
ATOM     11  H11 UNL     1       1.104  -2.225  -0.167  1.00  0.00     0.203 HD
ENDROOT
BRANCH   8  12
HETATM   12  C10 UNL     1       1.555   1.642  -0.218  1.00  0.00     0.445 C 
BRANCH  12  13
HETATM   13  O1  UNL     1       1.326   2.169   1.052  1.00  0.00    -0.354 OA
ATOM     14  H1  UNL     1       1.471   3.108   1.037  1.00  0.00     0.214 HD
ENDBRANCH  12  13
BRANCH  12  15
HETATM   15  N8  UNL     1       2.890   1.971  -0.623  1.00  0.00     0.024 N 
HETATM   16  C11 UNL     1       3.874   1.454   0.294  1.00  0.00     0.579 C 
HETATM   17  N9  UNL     1       5.210   1.874  -0.125  1.00  0.00    -0.026 N 
HETATM   18  N10 UNL     1       3.816  -0.017   0.242  1.00  0.00    -0.026 N 
ATOM     19  H93 UNL     1       5.410   1.611  -1.090  1.00  0.00     0.278 HD
ATOM     20  H92 UNL     1       5.278   2.886  -0.230  1.00  0.00     0.278 HD
ATOM     21  H91 UNL     1       5.907   1.508   0.524  1.00  0.00     0.278 HD
ATOM     22 3H10 UNL     1       2.880  -0.382   0.421  1.00  0.00     0.278 HD
ATOM     23 2H10 UNL     1       3.927  -0.383  -0.704  1.00  0.00     0.278 HD
ATOM     24 1H10 UNL     1       4.513  -0.383   0.891  1.00  0.00     0.278 HD
ATOM     25  H82 UNL     1       3.074   1.662  -1.577  1.00  0.00     0.287 HD
ATOM     26  H81 UNL     1       3.000   2.976  -0.756  1.00  0.00     0.287 HD
ENDBRANCH  12  15
ENDBRANCH   8  12
BRANCH   4  27
HETATM   27  N3  UNL     1      -3.298   0.230   0.061  1.00  0.00    -0.174 N 
ATOM     28  H3  UNL     1      -4.164  -0.306   0.113  1.00  0.00     0.186 HD
BRANCH  27  29
HETATM   29  C5  UNL     1      -3.344   1.638   0.054  1.00  0.00     0.136 A 
HETATM   30  C6  UNL     1      -3.562   2.284   1.257  1.00  0.00     0.137 A 
HETATM   31  N4  UNL     1      -3.613   3.639   1.289  1.00  0.00    -0.371 N 
HETATM   32  C7  UNL     1      -3.444   4.283   0.120  1.00  0.00     0.104 A 
ATOM     33  H4  UNL     1      -3.772   4.146   2.159  1.00  0.00     0.164 HD
HETATM   34  C8  UNL     1      -3.229   3.640  -1.071  1.00  0.00     0.106 A 
HETATM   35  N5  UNL     1      -3.178   2.299  -1.103  1.00  0.00    -0.349 N 
ATOM     36  H5  UNL     1      -3.018   1.799  -1.977  1.00  0.00     0.166 HD
ENDBRANCH  27  29
ENDBRANCH   4  27
BRANCH   1  37
HETATM   37  N1  UNL     1      -0.929  -3.865  -0.043  1.00  0.00    -0.225 N 
HETATM   38  C1  UNL     1      -2.195  -4.574   0.031  1.00  0.00     0.168 C 
HETATM   39  C2  UNL     1       0.283  -4.615  -0.104  1.00  0.00     0.168 C 
ENDBRANCH   1  37
TORSDOF 6
