REMARK  12 active torsions:
REMARK  status: ('A' for Active; 'I' for Inactive)
REMARK       I    between atoms: C2_2  and  N1_4 
REMARK    1  A    between atoms: N1_4  and  C3_5 
REMARK    2  A    between atoms: N1_4  and  C15_38 
REMARK    3  A    between atoms: C3_5  and  C4_6 
REMARK    4  A    between atoms: C5_9  and  N3_10 
REMARK    5  A    between atoms: N3_10  and  N4_12 
REMARK    6  A    between atoms: N4_12  and  C6_14 
REMARK    7  A    between atoms: C11_20  and  O3_21 
REMARK       I    between atoms: N6_26  and  C13_27 
REMARK    8  A    between atoms: C13_27  and  C14_29 
REMARK    9  A    between atoms: C14_29  and  N7_30 
REMARK   10  A    between atoms: C14_29  and  N8_34 
REMARK   11  A    between atoms: C15_38  and  N9_39 
REMARK   12  A    between atoms: C15_38  and  O5_43 
ROOT
HETATM    1  C4  UNL     1      -1.460   0.434  -1.334  1.00  0.00     0.141 A 
HETATM    2  N2  UNL     1      -0.174   0.006  -1.169  1.00  0.00    -0.174 N 
ATOM      3  H2  UNL     1       0.176  -0.919  -1.418  1.00  0.00     0.185 HD
HETATM    4  C5  UNL     1       0.557   0.992  -0.629  1.00  0.00     0.713 A 
HETATM    5  N5  UNL     1      -0.289   2.019  -0.468  1.00  0.00    -0.120 N 
ATOM      6  H5  UNL     1      -0.033   2.925  -0.076  1.00  0.00     0.206 HD
HETATM    7  N6  UNL     1      -1.517   1.691  -0.893  1.00  0.00    -0.191 N 
HETATM    8  C13 UNL     1      -2.592   2.604  -0.840  1.00  0.00     0.302 C 
HETATM    9  O4  UNL     1      -3.716   2.243  -1.269  1.00  0.00    -0.267 OA
ENDROOT
BRANCH   4  10
HETATM   10  N3  UNL     1       1.947   0.912  -0.311  1.00  0.00    -0.130 N 
ATOM     11  H3  UNL     1       2.418   1.718   0.099  1.00  0.00     0.205 HD
BRANCH  10  12
HETATM   12  N4  UNL     1       2.658  -0.242  -0.552  1.00  0.00    -0.286 N 
ATOM     13  H4  UNL     1       2.369  -0.846  -1.322  1.00  0.00     0.187 HD
BRANCH  12  14
HETATM   14  C6  UNL     1       3.765  -0.618   0.222  1.00  0.00     0.051 C 
HETATM   15  C7  UNL     1       4.406  -1.800  -0.110  1.00  0.00     0.031 C 
HETATM   16  C8  UNL     1       5.699  -2.216   0.170  1.00  0.00     0.006 C 
HETATM   17  C9  UNL     1       6.595  -1.714   1.089  1.00  0.00     0.058 C 
HETATM   18  C10 UNL     1       6.395  -0.637   1.927  1.00  0.00     0.204 C 
HETATM   19  O2  UNL     1       7.223  -0.472   2.844  1.00  0.00    -0.285 OA
HETATM   20  C11 UNL     1       5.365   0.308   1.877  1.00  0.00     0.118 C 
HETATM   21  C12 UNL     1       4.141   0.209   1.257  1.00  0.00     0.071 C 
BRANCH  20  22
HETATM   22  O3  UNL     1       5.642   1.489   2.548  1.00  0.00    -0.357 OA
ATOM     23  H3  UNL     1       4.942   2.131   2.514  1.00  0.00     0.218 HD
ENDBRANCH  20  22
ENDBRANCH  12  14
ENDBRANCH  10  12
ENDBRANCH   4  10
BRANCH   1  24
HETATM   24  C3  UNL     1      -2.501  -0.415  -1.905  1.00  0.00     0.209 C 
BRANCH  24  25
HETATM   25  N1  UNL     1      -2.852  -1.536  -1.044  1.00  0.00    -0.296 N 
HETATM   26  C2  UNL     1      -2.200  -2.787  -1.122  1.00  0.00     0.219 C 
HETATM   27  C1  UNL     1      -2.521  -3.937  -0.277  1.00  0.00     0.117 C 
HETATM   28  O1  UNL     1      -1.276  -2.910  -1.986  1.00  0.00    -0.274 OA
BRANCH  25  29
HETATM   29  C15 UNL     1      -3.903  -1.344  -0.085  1.00  0.00     0.428 C 
BRANCH  29  30
HETATM   30  N9  UNL     1      -4.971  -2.271  -0.418  1.00  0.00    -0.035 N 
ATOM     31  H93 UNL     1      -5.291  -2.180  -1.382  1.00  0.00     0.279 HD
ATOM     32  H92 UNL     1      -4.655  -3.239  -0.473  1.00  0.00     0.279 HD
ATOM     33  H91 UNL     1      -5.718  -2.135   0.263  1.00  0.00     0.279 HD
ENDBRANCH  29  30
BRANCH  29  34
HETATM   34  O5  UNL     1      -3.479  -1.507   1.229  1.00  0.00    -0.354 OA
ATOM     35  H5  UNL     1      -4.174  -1.380   1.864  1.00  0.00     0.213 HD
ENDBRANCH  29  34
ENDBRANCH  25  29
ENDBRANCH  24  25
ENDBRANCH   1  24
BRANCH   8  36
HETATM   36  C14 UNL     1      -2.488   3.973  -0.310  1.00  0.00     0.470 C 
BRANCH  36  37
HETATM   37  N7  UNL     1      -1.181   4.316   0.162  1.00  0.00    -0.041 N 
ATOM     38  H73 UNL     1      -0.861   3.639   0.854  1.00  0.00     0.277 HD
ATOM     39  H72 UNL     1      -0.485   4.160  -0.567  1.00  0.00     0.277 HD
ATOM     40  H71 UNL     1      -1.109   5.265   0.529  1.00  0.00     0.277 HD
ENDBRANCH  36  37
BRANCH  36  41
HETATM   41  N8  UNL     1      -3.476   4.204   0.759  1.00  0.00    -0.041 N 
ATOM     42  H83 UNL     1      -4.424   3.993   0.447  1.00  0.00     0.277 HD
ATOM     43  H82 UNL     1      -3.398   3.507   1.500  1.00  0.00     0.277 HD
ATOM     44  H81 UNL     1      -3.404   5.153   1.126  1.00  0.00     0.277 HD
ENDBRANCH  36  41
ENDBRANCH   8  36
TORSDOF 12
