REMARK  12 active torsions:
REMARK  status: ('A' for Active; 'I' for Inactive)
REMARK       I    between atoms: C2_2  and  N1_4 
REMARK    1  A    between atoms: C6_11  and  O2_12 
REMARK    2  A    between atoms: C8_16  and  N4_17 
REMARK    3  A    between atoms: N4_17  and  C9_19 
REMARK    4  A    between atoms: C9_19  and  O3_20 
REMARK    5  A    between atoms: C9_19  and  C10_22 
REMARK    6  A    between atoms: C10_22  and  N5_23 
REMARK    7  A    between atoms: C10_22  and  C11_27 
REMARK    8  A    between atoms: C11_27  and  O4_28 
REMARK    9  A    between atoms: C12_31  and  C13_32 
REMARK   10  A    between atoms: C13_32  and  O5_33 
REMARK   11  A    between atoms: C13_32  and  C14_35 
REMARK   12  A    between atoms: C14_35  and  O6_36 
ROOT
HETATM    1  C1  UNL     1       6.536   0.013   0.175  1.00  0.00     0.117 C 
HETATM    2  C2  UNL     1       5.724   0.292  -1.058  1.00  0.00     0.219 C 
HETATM    3  O1  UNL     1       5.836   1.367  -1.684  1.00  0.00    -0.274 OA
HETATM    4  N1  UNL     1       4.815  -0.704  -1.503  1.00  0.00    -0.309 N 
ATOM      5  H1  UNL     1       5.127  -1.420  -2.159  1.00  0.00     0.170 HD
HETATM    6  C3  UNL     1       3.595  -0.706  -1.080  1.00  0.00     0.179 C 
HETATM    7  N2  UNL     1       3.291   0.301  -0.203  1.00  0.00    -0.323 N 
ATOM      8  H2  UNL     1       4.048   0.671   0.372  1.00  0.00     0.169 HD
HETATM    9  C4  UNL     1       2.045   0.848  -0.041  1.00  0.00     0.119 A 
HETATM   10  C5  UNL     1       2.039   2.193   0.214  1.00  0.00     0.087 A 
HETATM   11  C6  UNL     1       0.802   2.830   0.347  1.00  0.00     0.097 A 
HETATM   12  C7  UNL     1      -0.394   2.152   0.226  1.00  0.00     0.124 A 
HETATM   13  N3  UNL     1      -1.559   2.929   0.379  1.00  0.00    -0.095 NA
HETATM   14  C8  UNL     1      -0.327   0.789  -0.037  1.00  0.00     0.144 A 
HETATM   15  N6  UNL     1       0.872   0.167  -0.157  1.00  0.00    -0.268 N 
HETATM   16  C12 UNL     1       0.696  -1.191  -0.238  1.00  0.00     0.125 C 
HETATM   17  N7  UNL     1       1.467  -1.917  -1.090  1.00  0.00    -0.307 N 
ATOM     18  H7  UNL     1       1.033  -2.763  -1.458  1.00  0.00     0.170 HD
HETATM   19  C15 UNL     1       2.743  -1.675  -1.525  1.00  0.00     0.291 C 
HETATM   20  O7  UNL     1       3.158  -2.425  -2.419  1.00  0.00    -0.264 OA
ENDROOT
BRANCH  14  21
HETATM   21  N4  UNL     1      -1.454   0.028  -0.246  1.00  0.00    -0.323 N 
ATOM     22  H4  UNL     1      -1.284  -0.855  -0.727  1.00  0.00     0.169 HD
BRANCH  21  23
HETATM   23  C9  UNL     1      -2.811   0.260   0.092  1.00  0.00     0.150 C 
BRANCH  23  24
HETATM   24  O3  UNL     1      -3.109   0.651   1.380  1.00  0.00    -0.348 OA
ATOM     25  H3  UNL     1      -4.018   0.806   1.607  1.00  0.00     0.219 HD
ENDBRANCH  23  24
BRANCH  23  26
HETATM   26  C10 UNL     1      -3.722   0.713  -0.991  1.00  0.00     0.280 C 
BRANCH  26  27
HETATM   27  N5  UNL     1      -3.251   0.215  -2.288  1.00  0.00    -0.066 N 
ATOM     28  H53 UNL     1      -2.282   0.479  -2.469  1.00  0.00     0.275 HD
ATOM     29  H52 UNL     1      -3.133  -0.798  -2.288  1.00  0.00     0.275 HD
ATOM     30  H51 UNL     1      -3.876   0.526  -3.031  1.00  0.00     0.275 HD
ENDBRANCH  26  27
BRANCH  26  31
HETATM   31  C11 UNL     1      -5.126   0.152  -0.861  1.00  0.00     0.205 C 
BRANCH  31  32
HETATM   32  O4  UNL     1      -5.110  -1.254  -0.896  1.00  0.00    -0.398 OA
ATOM     33  H4  UNL     1      -5.989  -1.605  -0.815  1.00  0.00     0.209 HD
ENDBRANCH  31  32
ENDBRANCH  26  31
ENDBRANCH  23  26
ENDBRANCH  21  23
ENDBRANCH  14  21
BRANCH  11  34
HETATM   34  O2  UNL     1       0.784   4.211   0.614  1.00  0.00    -0.358 OA
ATOM     35  H2  UNL     1      -0.057   4.644   0.704  1.00  0.00     0.217 HD
ENDBRANCH  11  34
BRANCH  16  36
HETATM   36  C13 UNL     1      -0.288  -1.693   0.684  1.00  0.00     0.209 C 
BRANCH  36  37
HETATM   37  O5  UNL     1      -0.194  -1.214   2.033  1.00  0.00    -0.386 OA
ATOM     38  H5  UNL     1      -0.844  -1.545   2.642  1.00  0.00     0.210 HD
ENDBRANCH  36  37
BRANCH  36  39
HETATM   39  C14 UNL     1       0.501  -2.994   1.113  1.00  0.00     0.203 C 
BRANCH  39  40
HETATM   40  O6  UNL     1      -0.181  -3.649   2.093  1.00  0.00    -0.398 OA
ATOM     41  H6  UNL     1       0.293  -4.431   2.351  1.00  0.00     0.209 HD
ENDBRANCH  39  40
ENDBRANCH  36  39
ENDBRANCH  16  36
TORSDOF 12
