REMARK  11 active torsions:
REMARK  status: ('A' for Active; 'I' for Inactive)
REMARK    1  A    between atoms: N1_1  and  C1_4 
REMARK    2  A    between atoms: C4_10  and  C5_11 
REMARK    3  A    between atoms: C5_11  and  C6_12 
REMARK    4  A    between atoms: C6_12  and  N3_13 
REMARK    5  A    between atoms: C6_12  and  C7_17 
REMARK    6  A    between atoms: C7_17  and  O2_18 
REMARK    7  A    between atoms: C7_17  and  C8_20 
REMARK    8  A    between atoms: N5_22  and  N6_24 
REMARK    9  A    between atoms: N7_28  and  C10_29 
REMARK   10  A    between atoms: C12_33  and  N9_34 
REMARK   11  A    between atoms: N10_37  and  O5_38 
ROOT
HETATM    1  C1  UNL     1       2.157  -3.125  -1.797  1.00  0.00     0.680 A 
HETATM    2  N2  UNL     1       0.880  -3.596  -1.860  1.00  0.00    -0.155 N 
ATOM      3  H2  UNL     1       0.653  -4.417  -2.421  1.00  0.00     0.187 HD
HETATM    4  C2  UNL     1      -0.074  -2.952  -1.164  1.00  0.00     0.274 A 
HETATM    5  O1  UNL     1      -1.253  -3.381  -1.217  1.00  0.00    -0.267 OA
HETATM    6  C3  UNL     1       0.236  -1.833  -0.399  1.00  0.00     0.086 A 
HETATM    7  C4  UNL     1      -0.512  -0.985   0.405  1.00  0.00    -0.020 A 
HETATM    8  C9  UNL     1       0.373  -0.079   0.882  1.00  0.00     0.125 A 
HETATM    9  N7  UNL     1       1.634  -0.303   0.428  1.00  0.00    -0.139 N 
HETATM   10  C13 UNL     1       1.536  -1.385  -0.359  1.00  0.00     0.160 A 
HETATM   11  N11 UNL     1       2.486  -2.048  -1.068  1.00  0.00    -0.175 N 
ATOM     12  H11 UNL     1       3.453  -1.726  -1.046  1.00  0.00     0.186 HD
ENDROOT
BRANCH   7  13
HETATM   13  C5  UNL     1      -1.960  -1.194   0.580  1.00  0.00     0.077 C 
BRANCH  13  14
HETATM   14  C6  UNL     1      -2.658  -0.124   1.365  1.00  0.00     0.223 C 
BRANCH  14  15
HETATM   15  N3  UNL     1      -2.066  -0.021   2.710  1.00  0.00    -0.072 N 
ATOM     16  H33 UNL     1      -2.067  -0.916   3.198  1.00  0.00     0.274 HD
ATOM     17  H32 UNL     1      -1.057   0.127   2.674  1.00  0.00     0.274 HD
ATOM     18  H31 UNL     1      -2.541   0.707   3.244  1.00  0.00     0.274 HD
ENDBRANCH  14  15
BRANCH  14  19
HETATM   19  C7  UNL     1      -2.706   1.203   0.694  1.00  0.00     0.214 C 
BRANCH  19  20
HETATM   20  O2  UNL     1      -3.456   2.067   1.568  1.00  0.00    -0.386 OA
ATOM     21  H2  UNL     1      -3.487   2.914   1.140  1.00  0.00     0.210 HD
ENDBRANCH  19  20
BRANCH  19  22
HETATM   22  C8  UNL     1      -3.544   1.247  -0.547  1.00  0.00     0.138 C 
HETATM   23  N4  UNL     1      -3.186   2.323  -1.466  1.00  0.00    -0.083 NA
HETATM   24  N5  UNL     1      -4.496   0.551  -0.885  1.00  0.00    -0.296 N 
ATOM     25  H5  UNL     1      -4.833   0.858  -1.797  1.00  0.00     0.187 HD
BRANCH  24  26
HETATM   26  N6  UNL     1      -5.242  -0.477  -0.459  1.00  0.00    -0.344 N 
ATOM     27  H62 UNL     1      -4.885  -0.764   0.452  1.00  0.00     0.176 HD
ATOM     28  H61 UNL     1      -6.034  -1.056  -0.740  1.00  0.00     0.176 HD
ENDBRANCH  24  26
ENDBRANCH  19  22
ENDBRANCH  14  19
ENDBRANCH  13  14
ENDBRANCH   7  13
BRANCH   9  29
HETATM   29  C10 UNL     1       2.791   0.477   0.742  1.00  0.00     0.718 A 
HETATM   30  N8  UNL     1       3.749   0.231   1.649  1.00  0.00    -0.195 N 
HETATM   31  C11 UNL     1       4.670   1.219   1.628  1.00  0.00     0.164 A 
ATOM     32  H8  UNL     1       3.778  -0.582   2.264  1.00  0.00     0.183 HD
HETATM   33  C12 UNL     1       4.256   2.111   0.664  1.00  0.00     0.234 A 
HETATM   34  N10 UNL     1       3.109   1.621   0.149  1.00  0.00    -0.027 N 
BRANCH  33  35
HETATM   35  N9  UNL     1       4.915   3.304   0.296  1.00  0.00    -0.093 N 
HETATM   36  O3  UNL     1       4.447   4.034  -0.594  1.00  0.00    -0.530 OA
HETATM   37  O4  UNL     1       6.084   3.689   0.904  1.00  0.00    -0.530 OA
ENDBRANCH  33  35
BRANCH  34  38
HETATM   38  O5  UNL     1       2.397   2.236  -0.842  1.00  0.00    -0.268 OA
ATOM     39  H5  UNL     1       2.625   3.055  -1.266  1.00  0.00     0.246 HD
ENDBRANCH  34  38
ENDBRANCH   9  29
BRANCH   1  40
HETATM   40  N1  UNL     1       3.054  -3.753  -2.467  1.00  0.00    -0.234 N 
ATOM     41  H12 UNL     1       2.804  -4.572  -3.021  1.00  0.00     0.174 HD
ATOM     42  H11 UNL     1       4.010  -3.400  -2.420  1.00  0.00     0.174 HD
ENDBRANCH   1  40
TORSDOF 11
