REMARK  8 active torsions:
REMARK  status: ('A' for Active; 'I' for Inactive)
REMARK    1  A    between atoms: C2_2  and  C3_3 
REMARK    2  A    between atoms: C3_3  and  S1_4 
REMARK    3  A    between atoms: S1_4  and  C4_5 
REMARK    4  A    between atoms: C5_8  and  N2_9 
REMARK    5  A    between atoms: C6_14  and  N4_15 
REMARK    6  A    between atoms: N4_15  and  C7_17 
REMARK    7  A    between atoms: N10_28  and  N11_30 
REMARK       I    between atoms: C8_32  and  N13_34 
REMARK    8  A    between atoms: N13_34  and  N14_36 
ROOT
HETATM    1  C4  UNL     1      -1.050  -2.658  -0.367  1.00  0.00     0.174 A 
HETATM    2  N1  UNL     1      -1.794  -3.269   0.605  1.00  0.00    -0.170 N 
ATOM      3  H1  UNL     1      -1.378  -4.033   1.138  1.00  0.00     0.186 HD
HETATM    4  C5  UNL     1      -3.053  -2.895   0.879  1.00  0.00     0.692 A 
HETATM    5  N3  UNL     1      -3.626  -1.892   0.193  1.00  0.00    -0.022 N 
ATOM      6  H3  UNL     1      -4.584  -1.611   0.403  1.00  0.00     0.203 HD
HETATM    7  C6  UNL     1      -2.927  -1.253  -0.782  1.00  0.00     0.713 A 
HETATM    8  N9  UNL     1      -1.671  -1.658  -1.025  1.00  0.00    -0.169 N 
ATOM      9  H9  UNL     1      -1.150  -1.176  -1.758  1.00  0.00     0.186 HD
ENDROOT
BRANCH   1  10
HETATM   10  S1  UNL     1       0.609  -3.154  -0.724  1.00  0.00    -0.087 SA
BRANCH  10  11
HETATM   11  C3  UNL     1       1.828  -2.335   0.283  1.00  0.00     0.136 C 
BRANCH  11  12
HETATM   12  C2  UNL     1       1.932  -0.901   0.026  1.00  0.00     0.009 C 
HETATM   13  C1  UNL     1       0.859   0.025   0.438  1.00  0.00     0.066 C 
HETATM   14  N10 UNL     1       2.975  -0.391  -0.578  1.00  0.00    -0.306 N 
ATOM     15  H10 UNL     1       3.737  -0.999  -0.877  1.00  0.00     0.186 HD
BRANCH  14  16
HETATM   16  N11 UNL     1       3.045   0.964  -0.810  1.00  0.00    -0.273 N 
HETATM   17  C8  UNL     1       3.699   1.767  -0.046  1.00  0.00     0.221 C 
HETATM   18  N12 UNL     1       3.734   3.145  -0.334  1.00  0.00    -0.061 NA
HETATM   19  N13 UNL     1       4.380   1.242   1.084  1.00  0.00    -0.279 N 
ATOM     20  H13 UNL     1       3.857   0.907   1.893  1.00  0.00     0.189 HD
ATOM     21  H11 UNL     1       2.559   1.347  -1.621  1.00  0.00     0.189 HD
BRANCH  19  22
HETATM   22  N14 UNL     1       5.796   1.190   1.073  1.00  0.00    -0.343 N 
ATOM     23 2H14 UNL     1       6.304   1.529   0.256  1.00  0.00     0.176 HD
ATOM     24 1H14 UNL     1       6.285   0.813   1.885  1.00  0.00     0.176 HD
ENDBRANCH  19  22
ENDBRANCH  14  16
ENDBRANCH  11  12
ENDBRANCH  10  11
ENDBRANCH   1  10
BRANCH   4  25
HETATM   25  N2  UNL     1      -3.689  -3.518   1.806  1.00  0.00    -0.234 N 
ATOM     26  H22 UNL     1      -3.254  -4.280   2.327  1.00  0.00     0.174 HD
ATOM     27  H21 UNL     1      -4.646  -3.234   2.014  1.00  0.00     0.174 HD
ENDBRANCH   4  25
BRANCH   7  28
HETATM   28  N4  UNL     1      -3.503  -0.176  -1.536  1.00  0.00    -0.019 N 
ATOM     29  H4  UNL     1      -3.459  -0.219  -2.554  1.00  0.00     0.203 HD
BRANCH  28  30
HETATM   30  C7  UNL     1      -4.064   0.826  -0.999  1.00  0.00     0.728 A 
HETATM   31  N5  UNL     1      -4.221   1.064   0.307  1.00  0.00    -0.115 N 
HETATM   32  N6  UNL     1      -4.855   2.218   0.401  1.00  0.00    -0.213 N 
ATOM     33  H5  UNL     1      -3.912   0.472   1.078  1.00  0.00     0.207 HD
HETATM   34  N7  UNL     1      -5.098   2.708  -0.797  1.00  0.00    -0.213 N 
ATOM     35  H6  UNL     1      -5.119   2.667   1.278  1.00  0.00     0.210 HD
HETATM   36  N8  UNL     1      -4.609   1.847  -1.670  1.00  0.00    -0.115 N 
ATOM     37  H7  UNL     1      -5.573   3.585  -1.010  1.00  0.00     0.210 HD
ATOM     38  H8  UNL     1      -4.641   1.944  -2.685  1.00  0.00     0.207 HD
ENDBRANCH  28  30
ENDBRANCH   7  28
TORSDOF 8
