REMARK  6 active torsions:
REMARK  status: ('A' for Active; 'I' for Inactive)
REMARK    1  A    between atoms: C4_8  and  N4_9 
REMARK    2  A    between atoms: N4_9  and  N5_11 
REMARK    3  A    between atoms: C5_13  and  C6_15 
REMARK    4  A    between atoms: C6_15  and  N7_16 
REMARK    5  A    between atoms: C9_23  and  N8_24 
REMARK    6  A    between atoms: N8_24  and  N9_26 
ROOT
HETATM    1  N1  UNL     1      -4.653  -3.271  -0.461  1.00  0.00    -0.191 NA
HETATM    2  C1  UNL     1      -3.615  -2.714  -0.441  1.00  0.00     0.105 C 
HETATM    3  C2  UNL     1      -2.339  -2.058  -0.417  1.00  0.00     0.113 A 
HETATM    4  C3  UNL     1      -1.175  -2.745  -0.777  1.00  0.00     0.141 A 
HETATM    5  N2  UNL     1      -1.301  -4.100  -1.163  1.00  0.00    -0.081 NA
HETATM    6  N3  UNL     1      -0.018  -2.087  -0.736  1.00  0.00    -0.328 N 
ATOM      7  H3  UNL     1       0.823  -2.600  -1.001  1.00  0.00     0.168 HD
HETATM    8  C4  UNL     1       0.134  -0.781  -0.368  1.00  0.00     0.138 A 
HETATM    9  C7  UNL     1      -1.017  -0.121  -0.019  1.00  0.00     0.092 A 
HETATM   10  C8  UNL     1      -0.759   1.185   0.316  1.00  0.00     0.233 C 
HETATM   11  O1  UNL     1       0.396   1.490   0.676  1.00  0.00    -0.283 OA
HETATM   12  C9  UNL     1      -1.696   2.218   0.289  1.00  0.00     0.175 C 
HETATM   13  N10 UNL     1      -3.036   2.136   0.266  1.00  0.00    -0.290 N 
ATOM     14  H10 UNL     1      -3.519   3.023   0.123  1.00  0.00     0.172 HD
HETATM   15  C10 UNL     1      -3.840   1.066   0.402  1.00  0.00     0.326 C 
HETATM   16  O2  UNL     1      -5.046   1.302   0.665  1.00  0.00    -0.247 OA
HETATM   17  N11 UNL     1      -3.465  -0.217   0.281  1.00  0.00    -0.306 N 
ATOM     18  H11 UNL     1      -4.202  -0.900   0.456  1.00  0.00     0.171 HD
HETATM   19  C11 UNL     1      -2.269  -0.739  -0.035  1.00  0.00     0.078 A 
ENDROOT
BRANCH   8  20
HETATM   20  N4  UNL     1       1.429  -0.194  -0.376  1.00  0.00    -0.283 N 
ATOM     21  H4  UNL     1       1.675   0.505  -1.077  1.00  0.00     0.188 HD
BRANCH  20  22
HETATM   22  N5  UNL     1       2.345  -0.579   0.572  1.00  0.00    -0.288 N 
HETATM   23  C5  UNL     1       3.574  -0.302   0.687  1.00  0.00     0.133 C 
HETATM   24  N6  UNL     1       4.296  -0.840   1.776  1.00  0.00    -0.084 NA
ATOM     25  H5  UNL     1       1.974  -1.187   1.302  1.00  0.00     0.188 HD
BRANCH  23  26
HETATM   26  C6  UNL     1       4.275   0.560  -0.270  1.00  0.00     0.303 C 
BRANCH  26  27
HETATM   27  N7  UNL     1       5.390  -0.105  -0.919  1.00  0.00    -0.073 N 
ATOM     28  H73 UNL     1       6.038  -0.487  -0.230  1.00  0.00     0.274 HD
ATOM     29  H72 UNL     1       5.089  -0.973  -1.363  1.00  0.00     0.274 HD
ATOM     30  H71 UNL     1       5.878   0.495  -1.585  1.00  0.00     0.274 HD
ENDBRANCH  26  27
ENDBRANCH  23  26
ENDBRANCH  20  22
ENDBRANCH   8  20
BRANCH  12  31
HETATM   31  N8  UNL     1      -1.186   3.402   0.284  1.00  0.00    -0.289 N 
ATOM     32  H8  UNL     1      -0.173   3.520   0.300  1.00  0.00     0.188 HD
BRANCH  31  33
HETATM   33  N9  UNL     1      -2.018   4.524   0.257  1.00  0.00    -0.344 N 
ATOM     34  H92 UNL     1      -3.029   4.389   0.241  1.00  0.00     0.176 HD
ATOM     35  H91 UNL     1      -1.614   5.461   0.253  1.00  0.00     0.176 HD
ENDBRANCH  31  33
ENDBRANCH  12  31
TORSDOF 6
