REMARK  6 active torsions:
REMARK  status: ('A' for Active; 'I' for Inactive)
REMARK    1  A    between atoms: N1_1  and  O1_4 
REMARK    2  A    between atoms: O1_4  and  C1_5 
REMARK       I    between atoms: C1_5  and  N2_7 
REMARK    3  A    between atoms: N2_7  and  N3_9 
REMARK       I    between atoms: N3_9  and  C2_11 
REMARK    4  A    between atoms: C2_11  and  C3_13 
REMARK    5  A    between atoms: C7_21  and  N6_22 
REMARK       I    between atoms: N6_22  and  C8_24 
REMARK    6  A    between atoms: C8_24  and  C9_26 
ROOT
HETATM    1  C3  UNL     1       0.358   1.687   0.118  1.00  0.00     0.134 A 
HETATM    2  N4  UNL     1       0.816   2.905  -0.223  1.00  0.00    -0.317 N 
ATOM      3  H4  UNL     1       1.814   3.057  -0.368  1.00  0.00     0.169 HD
HETATM    4  C4  UNL     1      -0.049   3.916  -0.371  1.00  0.00     0.247 A 
HETATM    5  O4  UNL     1       0.389   5.067  -0.694  1.00  0.00    -0.268 OA
HETATM    6  C5  UNL     1      -1.408   3.774  -0.188  1.00  0.00     0.103 A 
HETATM    7  C6  UNL     1      -1.895   2.544   0.159  1.00  0.00     0.081 A 
HETATM    8  N5  UNL     1      -3.303   2.360   0.356  1.00  0.00    -0.100 NA
HETATM    9  C7  UNL     1      -1.010   1.469   0.319  1.00  0.00     0.092 A 
ENDROOT
BRANCH   1  10
HETATM   10  C2  UNL     1       1.294   0.603   0.294  1.00  0.00     0.289 C 
HETATM   11  N3  UNL     1       2.685   0.730   0.103  1.00  0.00    -0.260 N 
ATOM     12  H3  UNL     1       3.063   1.635  -0.176  1.00  0.00     0.190 HD
HETATM   13  O3  UNL     1       0.866  -0.529   0.636  1.00  0.00    -0.264 OA
BRANCH  11  14
HETATM   14  N2  UNL     1       3.562  -0.340   0.283  1.00  0.00    -0.241 N 
HETATM   15  C1  UNL     1       3.462  -1.519  -0.499  1.00  0.00     0.401 C 
HETATM   16  O2  UNL     1       2.582  -1.661  -1.392  1.00  0.00    -0.235 OA
ATOM     17  H2  UNL     1       4.291  -0.273   0.993  1.00  0.00     0.192 HD
BRANCH  15  18
HETATM   18  O1  UNL     1       4.336  -2.564  -0.307  1.00  0.00    -0.187 OA
BRANCH  18  19
HETATM   19  N1  UNL     1       4.268  -3.721  -1.048  1.00  0.00    -0.301 N 
ATOM     20  H12 UNL     1       3.540  -3.790  -1.759  1.00  0.00     0.184 HD
ATOM     21  H11 UNL     1       4.916  -4.496  -0.906  1.00  0.00     0.184 HD
ENDBRANCH  18  19
ENDBRANCH  15  18
ENDBRANCH  11  14
ENDBRANCH   1  10
BRANCH   9  22
HETATM   22  N6  UNL     1      -1.558   0.212   0.663  1.00  0.00    -0.317 N 
HETATM   23  C8  UNL     1      -2.014  -0.654  -0.353  1.00  0.00     0.292 C 
HETATM   24  O5  UNL     1      -1.923  -0.288  -1.550  1.00  0.00    -0.264 OA
ATOM     25  H6  UNL     1      -1.623  -0.068   1.642  1.00  0.00     0.169 HD
BRANCH  23  26
HETATM   26  C9  UNL     1      -2.591  -1.971  -0.040  1.00  0.00     0.200 A 
HETATM   27  N7  UNL     1      -3.055  -2.868  -0.927  1.00  0.00    -0.266 N 
HETATM   28  N8  UNL     1      -3.494  -3.930  -0.249  1.00  0.00    -0.007 NA
ATOM     29  H7  UNL     1      -3.069  -2.756  -1.941  1.00  0.00     0.185 HD
HETATM   30  N9  UNL     1      -3.326  -3.741   1.048  1.00  0.00    -0.007 NA
HETATM   31  N10 UNL     1      -2.774  -2.540   1.163  1.00  0.00    -0.266 N 
ATOM     32  H10 UNL     1      -2.521  -2.105   2.050  1.00  0.00     0.185 HD
ENDBRANCH  23  26
ENDBRANCH   9  22
TORSDOF 6
