REMARK  8 active torsions:
REMARK  status: ('A' for Active; 'I' for Inactive)
REMARK    1  A    between atoms: C5_5  and  N1_6 
REMARK    2  A    between atoms: N1_6  and  O1_8 
REMARK    3  A    between atoms: C6_10  and  C7_11 
REMARK       I    between atoms: C7_11  and  N2_13 
REMARK    4  A    between atoms: N2_13  and  N3_15 
REMARK    5  A    between atoms: C8_17  and  N4_18 
REMARK    6  A    between atoms: C8_17  and  C9_23 
REMARK    7  A    between atoms: N4_18  and  N5_20 
REMARK       I    between atoms: C9_23  and  N6_25 
REMARK    8  A    between atoms: N6_25  and  N7_26 
ROOT
HETATM    1  C7  UNL     1       0.209   0.248   0.264  1.00  0.00     0.248 C 
HETATM    2  O2  UNL     1       0.550   1.460   0.212  1.00  0.00    -0.271 OA
HETATM    3  N2  UNL     1       1.067  -0.693   0.842  1.00  0.00    -0.268 N 
ATOM      4  H2  UNL     1       0.779  -1.670   0.899  1.00  0.00     0.190 HD
ENDROOT
BRANCH   3   5
HETATM    5  N3  UNL     1       2.312  -0.311   1.342  1.00  0.00    -0.276 N 
HETATM    6  C8  UNL     1       3.264  -0.111   0.475  1.00  0.00     0.225 C 
ATOM      7  H3  UNL     1       2.470  -0.193   2.343  1.00  0.00     0.189 HD
BRANCH   6   8
HETATM    8  N4  UNL     1       3.071  -0.263  -0.891  1.00  0.00    -0.218 N 
ATOM      9  H4  UNL     1       2.714   0.530  -1.424  1.00  0.00     0.195 HD
BRANCH   8  10
HETATM   10  N5  UNL     1       3.348  -1.467  -1.574  1.00  0.00    -0.037 N 
HETATM   11  O3  UNL     1       2.977  -1.676  -2.723  1.00  0.00    -0.516 OA
HETATM   12  O4  UNL     1       4.067  -2.425  -0.892  1.00  0.00    -0.516 OA
ENDBRANCH   8  10
ENDBRANCH   6   8
BRANCH   6  13
HETATM   13  C9  UNL     1       4.608   0.293   1.065  1.00  0.00     0.381 C 
HETATM   14  O5  UNL     1       4.631   0.394   2.252  1.00  0.00    -0.246 OA
HETATM   15  N6  UNL     1       5.606   0.482   0.122  1.00  0.00    -0.285 NA
BRANCH  15  16
HETATM   16  N7  UNL     1       6.514   0.654  -0.736  1.00  0.00    -0.276 N 
ATOM     17  H72 UNL     1       5.779   0.517  -0.043  1.00  0.00     0.191 HD
ATOM     18  H71 UNL     1       7.248   0.793  -1.430  1.00  0.00     0.191 HD
ENDBRANCH  15  16
ENDBRANCH   6  13
ENDBRANCH   3   5
BRANCH   1  19
HETATM   19  C6  UNL     1      -1.092  -0.182  -0.294  1.00  0.00     0.155 C 
HETATM   20  C5  UNL     1      -1.899   0.995  -0.654  1.00  0.00     0.046 C 
HETATM   21  C4  UNL     1      -3.232   0.976  -0.477  1.00  0.00     0.038 C 
HETATM   22  C2  UNL     1      -3.827  -0.257   0.071  1.00  0.00     0.073 C 
HETATM   23  C1  UNL     1      -3.987  -1.343  -0.983  1.00  0.00     0.050 C 
HETATM   24  C3  UNL     1      -5.196  -0.029   0.657  1.00  0.00     0.050 C 
HETATM   25  O6  UNL     1      -3.006  -0.678   1.101  1.00  0.00    -0.376 OA
HETATM   26  C10 UNL     1      -1.766  -1.099   0.705  1.00  0.00     0.189 C 
BRANCH  20  27
HETATM   27  N1  UNL     1      -1.343   2.185  -1.184  1.00  0.00    -0.273 N 
ATOM     28  H1  UNL     1      -0.828   2.162  -2.064  1.00  0.00     0.194 HD
BRANCH  27  29
HETATM   29  O1  UNL     1      -1.498   3.347  -0.521  1.00  0.00    -0.290 OA
ATOM     30  H1  UNL     1      -1.125   4.145  -0.876  1.00  0.00     0.244 HD
ENDBRANCH  27  29
ENDBRANCH  20  27
ENDBRANCH   1  19
TORSDOF 8
