REMARK  6 active torsions:
REMARK  status: ('A' for Active; 'I' for Inactive)
REMARK    1  A    between atoms: C2_6  and  N4_7 
REMARK       I    between atoms: N4_7  and  C3_9 
REMARK    2  A    between atoms: C4_14  and  C5_15 
REMARK    3  A    between atoms: C5_15  and  N7_16 
REMARK    4  A    between atoms: C6_20  and  N10_21 
REMARK       I    between atoms: N10_21  and  C7_23 
REMARK       I    between atoms: C7_23  and  N12_27 
REMARK    5  A    between atoms: N12_27  and  N13_29 
REMARK    6  A    between atoms: N13_29  and  O1_33 
ROOT
HETATM    1  N7  UNL     1      -0.290  -0.451  -0.929  1.00  0.00    -0.201 N 
HETATM    2  N8  UNL     1      -0.607  -1.722  -0.747  1.00  0.00     0.011 NA
HETATM    3  N9  UNL     1       0.485  -2.468  -0.572  1.00  0.00    -0.113 N 
ATOM      4  H9  UNL     1       0.519  -3.475  -0.412  1.00  0.00     0.203 HD
HETATM    5  C6  UNL     1       1.526  -1.632  -0.648  1.00  0.00     0.725 A 
HETATM    6  N15 UNL     1       1.024  -0.414  -0.865  1.00  0.00    -0.115 N 
ATOM      7  H15 UNL     1       1.584   0.432  -0.967  1.00  0.00     0.207 HD
ENDROOT
BRANCH   1   8
HETATM    8  C5  UNL     1      -1.202   0.607  -1.159  1.00  0.00     0.196 C 
BRANCH   8   9
HETATM    9  C4  UNL     1      -1.768   1.337  -0.029  1.00  0.00     0.167 C 
HETATM   10  N1  UNL     1      -0.905   2.029   0.874  1.00  0.00    -0.205 NA
HETATM   11  C1  UNL     1      -0.118   1.186   1.744  1.00  0.00     0.134 C 
HETATM   12  N2  UNL     1      -1.940   2.522   1.741  1.00  0.00    -0.046 NA
HETATM   13  N3  UNL     1      -2.668   1.326   1.988  1.00  0.00    -0.276 N 
HETATM   14  C2  UNL     1      -2.595   0.550   0.929  1.00  0.00     0.117 C 
ATOM     15  H3  UNL     1      -3.167   1.105   2.850  1.00  0.00     0.185 HD
BRANCH  14  16
HETATM   16  N4  UNL     1      -3.185  -0.731   0.769  1.00  0.00    -0.318 N 
HETATM   17  C3  UNL     1      -4.262  -0.898  -0.148  1.00  0.00     0.187 C 
HETATM   18  N5  UNL     1      -4.645  -2.067  -0.549  1.00  0.00    -0.373 N 
HETATM   19  N6  UNL     1      -4.971   0.228  -0.665  1.00  0.00    -0.064 NA
ATOM     20  H52 UNL     1      -4.138  -2.872  -0.180  1.00  0.00     0.158 HD
ATOM     21  H51 UNL     1      -5.416  -2.187  -1.206  1.00  0.00     0.158 HD
ATOM     22  H4  UNL     1      -2.840  -1.526   1.307  1.00  0.00     0.169 HD
ENDBRANCH  14  16
ENDBRANCH   8   9
ENDBRANCH   1   8
BRANCH   5  23
HETATM   23  N10 UNL     1       2.764  -1.950  -0.532  1.00  0.00    -0.019 N 
HETATM   24  C7  UNL     1       3.820  -1.002  -0.624  1.00  0.00     0.708 C 
HETATM   25  N11 UNL     1       4.102  -0.509  -1.797  1.00  0.00    -0.233 N 
HETATM   26  N12 UNL     1       4.520  -0.629   0.534  1.00  0.00    -0.090 N 
ATOM     27 2H11 UNL     1       3.593  -0.780  -2.639  1.00  0.00     0.174 HD
ATOM     28 1H11 UNL     1       4.859   0.171  -1.863  1.00  0.00     0.174 HD
ATOM     29  H12 UNL     1       4.033  -0.107   1.263  1.00  0.00     0.210 HD
ATOM     30  H10 UNL     1       3.001  -2.928  -0.366  1.00  0.00     0.203 HD
BRANCH  26  31
HETATM   31  N13 UNL     1       5.861  -0.953   0.713  1.00  0.00    -0.087 N 
HETATM   32  N14 UNL     1       6.523  -0.417   1.623  1.00  0.00    -0.303 N 
ATOM     33 2H14 UNL     1       6.097   0.265   2.250  1.00  0.00     0.181 HD
ATOM     34 1H14 UNL     1       7.506  -0.655   1.754  1.00  0.00     0.181 HD
BRANCH  31  35
HETATM   35  O1  UNL     1       6.432  -1.867  -0.127  1.00  0.00    -0.253 OA
ATOM     36  H1  UNL     1       7.348  -2.088  -0.005  1.00  0.00     0.248 HD
ENDBRANCH  31  35
ENDBRANCH  26  31
ENDBRANCH   5  23
TORSDOF 6
