REMARK  5 active torsions:
REMARK  status: ('A' for Active; 'I' for Inactive)
REMARK    1  A    between atoms: C2_2  and  C3_4 
REMARK    2  A    between atoms: C4_5  and  N1_6 
REMARK    3  A    between atoms: C7_17  and  N5_18 
REMARK    4  A    between atoms: C9_24  and  N8_25 
REMARK    5  A    between atoms: N8_25  and  N9_27 
ROOT
HETATM    1  N5  UNL     1       0.978  -2.224   0.138  1.00  0.00    -0.301 N 
ATOM      2  H5  UNL     1       1.945  -2.522   0.265  1.00  0.00     0.174 HD
HETATM    3  C8  UNL     1       0.186  -2.930  -0.755  1.00  0.00     0.179 C 
HETATM    4  N6  UNL     1      -0.470  -3.520  -1.514  1.00  0.00    -0.172 NA
ENDROOT
BRANCH   1   5
HETATM    5  C7  UNL     1       0.509  -1.094   0.895  1.00  0.00     0.244 C 
HETATM    6  C4  UNL     1      -0.146  -0.056   0.013  1.00  0.00     0.066 C 
HETATM    7  C3  UNL     1       0.722   0.545  -0.852  1.00  0.00     0.039 C 
HETATM    8  C10 UNL     1       2.161   0.266  -0.740  1.00  0.00     0.200 C 
HETATM    9  C9  UNL     1       2.537   0.149   0.718  1.00  0.00     0.116 C 
HETATM   10  C11 UNL     1       2.960   1.364  -1.302  1.00  0.00     0.076 C 
HETATM   11  N7  UNL     1       1.749  -0.475   1.472  1.00  0.00    -0.350 N 
ATOM     12  H7  UNL     1       1.950  -0.560   2.468  1.00  0.00     0.163 HD
HETATM   13  N10 UNL     1       3.639   2.229  -1.724  1.00  0.00    -0.196 NA
BRANCH   6  14
HETATM   14  N1  UNL     1      -1.464   0.151   0.097  1.00  0.00    -0.336 N 
HETATM   15  C5  UNL     1      -2.598  -0.209   0.410  1.00  0.00     0.192 A 
HETATM   16  N2  UNL     1      -3.706   0.616   0.193  1.00  0.00    -0.266 N 
HETATM   17  C6  UNL     1      -3.087  -1.358   0.985  1.00  0.00     0.306 A 
HETATM   18  N3  UNL     1      -4.747  -0.029   0.619  1.00  0.00    -0.238 N 
ATOM     19  H2  UNL     1      -3.697   1.548  -0.222  1.00  0.00     0.190 HD
HETATM   20  N4  UNL     1      -4.436  -1.201   1.097  1.00  0.00    -0.249 N 
ATOM     21  H3  UNL     1      -5.698   0.338   0.584  1.00  0.00     0.208 HD
ATOM     22  H4  UNL     1      -5.088  -1.882   1.487  1.00  0.00     0.192 HD
HETATM   23  O2  UNL     1      -2.511  -2.408   1.373  1.00  0.00    -0.262 OA
ATOM     24  H1  UNL     1      -1.597   1.081  -0.301  1.00  0.00     0.167 HD
ENDBRANCH   6  14
BRANCH   7  25
HETATM   25  C2  UNL     1       0.231   1.498  -1.805  1.00  0.00     0.155 C 
HETATM   26  C1  UNL     1      -1.165   1.960  -1.966  1.00  0.00     0.096 C 
HETATM   27  O1  UNL     1       1.027   2.059  -2.648  1.00  0.00    -0.293 OA
ENDBRANCH   7  25
BRANCH   9  28
HETATM   28  N8  UNL     1       3.723   0.762   1.147  1.00  0.00    -0.294 N 
ATOM     29  H8  UNL     1       4.053   1.617   0.699  1.00  0.00     0.187 HD
BRANCH  28  30
HETATM   30  N9  UNL     1       4.457   0.179   2.210  1.00  0.00    -0.344 N 
ATOM     31  H92 UNL     1       4.113  -0.676   2.647  1.00  0.00     0.176 HD
ATOM     32  H91 UNL     1       5.320   0.625   2.522  1.00  0.00     0.176 HD
ENDBRANCH  28  30
ENDBRANCH   9  28
ENDBRANCH   1   5
TORSDOF 5
