REMARK  6 active torsions:
REMARK  status: ('A' for Active; 'I' for Inactive)
REMARK    1  A    between atoms: C1_4  and  N2_5 
REMARK    2  A    between atoms: C1_4  and  C11_29 
REMARK    3  A    between atoms: N2_5  and  C2_7 
REMARK    4  A    between atoms: C3_10  and  N4_11 
REMARK    5  A    between atoms: C8_19  and  C9_20 
REMARK       I    between atoms: C9_20  and  N6_22 
REMARK    6  A    between atoms: N6_22  and  N7_24 
ROOT
HETATM    1  C2  UNL     1       1.687   0.551  -0.058  1.00  0.00     0.149 A 
HETATM    2  N3  UNL     1       0.723  -0.383  -0.068  1.00  0.00    -0.174 N 
ATOM      3  H3  UNL     1       0.979  -1.353   0.117  1.00  0.00     0.186 HD
HETATM    4  C3  UNL     1      -0.572  -0.089  -0.314  1.00  0.00     0.682 A 
HETATM    5  N5  UNL     1      -0.868   1.200  -0.555  1.00  0.00    -0.184 N 
ATOM      6  H5  UNL     1      -1.842   1.439  -0.743  1.00  0.00     0.184 HD
HETATM    7  C8  UNL     1       0.033   2.192  -0.564  1.00  0.00     0.146 A 
HETATM    8  C10 UNL     1       1.348   1.864  -0.310  1.00  0.00     0.123 A 
HETATM    9  N8  UNL     1       2.308   2.916  -0.319  1.00  0.00    -0.096 NA
ENDROOT
BRANCH   1  10
HETATM   10  N2  UNL     1       3.040   0.241   0.199  1.00  0.00    -0.323 N 
ATOM     11  H2  UNL     1       3.727   0.995   0.191  1.00  0.00     0.169 HD
BRANCH  10  12
HETATM   12  C1  UNL     1       3.482  -1.088   0.469  1.00  0.00     0.167 C 
HETATM   13  N1  UNL     1       3.943  -1.856  -0.454  1.00  0.00    -0.381 N 
ATOM     14  H12 UNL     1       3.988  -1.491  -1.405  1.00  0.00     0.157 HD
ATOM     15  H11 UNL     1       4.259  -2.806  -0.261  1.00  0.00     0.157 HD
BRANCH  12  16
HETATM   16  C11 UNL     1       3.417  -1.610   1.829  1.00  0.00     0.298 C 
HETATM   17  N9  UNL     1       3.847  -2.934   2.149  1.00  0.00    -0.054 NA
HETATM   18  O3  UNL     1       2.967  -0.859   2.732  1.00  0.00    -0.268 OA
ENDBRANCH  12  16
ENDBRANCH  10  12
ENDBRANCH   1  10
BRANCH   4  19
HETATM   19  N4  UNL     1      -1.589  -1.108  -0.318  1.00  0.00    -0.213 N 
HETATM   20  C4  UNL     1      -1.151  -2.463  -0.047  1.00  0.00     0.167 C 
HETATM   21  C5  UNL     1      -2.187  -3.274   0.678  1.00  0.00     0.188 C 
HETATM   22  O1  UNL     1      -3.362  -2.608   0.918  1.00  0.00    -0.388 OA
HETATM   23  C6  UNL     1      -3.854  -1.903  -0.152  1.00  0.00     0.188 C 
HETATM   24  C7  UNL     1      -2.961  -0.771  -0.582  1.00  0.00     0.167 C 
ENDBRANCH   4  19
BRANCH   7  25
HETATM   25  C9  UNL     1      -0.353   3.545  -0.829  1.00  0.00     0.288 C 
HETATM   26  O2  UNL     1       0.522   4.445  -0.829  1.00  0.00    -0.264 OA
HETATM   27  N6  UNL     1      -1.705   3.929  -1.098  1.00  0.00    -0.271 N 
ATOM     28  H6  UNL     1      -2.425   3.207  -1.101  1.00  0.00     0.189 HD
BRANCH  27  29
HETATM   29  N7  UNL     1      -2.077   5.230  -1.353  1.00  0.00    -0.342 N 
ATOM     30  H72 UNL     1      -1.344   5.939  -1.346  1.00  0.00     0.176 HD
ATOM     31  H71 UNL     1      -3.041   5.504  -1.545  1.00  0.00     0.176 HD
ENDBRANCH  27  29
ENDBRANCH   7  25
TORSDOF 6
