REMARK  11 active torsions:
REMARK  status: ('A' for Active; 'I' for Inactive)
REMARK    1  A    between atoms: C2_3  and  N2_4 
REMARK    2  A    between atoms: N2_4  and  O1_6 
REMARK    3  A    between atoms: O1_6  and  C3_7 
REMARK    4  A    between atoms: C3_7  and  O2_8 
REMARK    5  A    between atoms: N3_10  and  O3_11 
REMARK    6  A    between atoms: C4_13  and  O4_14 
REMARK    7  A    between atoms: C5_16  and  C6_17 
REMARK    8  A    between atoms: C6_17  and  N4_18 
REMARK    9  A    between atoms: N4_18  and  N5_20 
REMARK   10  A    between atoms: N5_20  and  C7_22 
REMARK   11  A    between atoms: C8_27  and  N8_28 
ROOT
HETATM    1  C1  UNL     1      -2.417  -1.916   0.813  1.00  0.00     0.179 C 
HETATM    2  N1  UNL     1      -1.810  -0.734   0.206  1.00  0.00    -0.147 N 
HETATM    3  C2  UNL     1      -2.506   0.405   0.105  1.00  0.00     0.735 A 
HETATM    4  N3  UNL     1      -1.969   1.504  -0.450  1.00  0.00    -0.026 N 
HETATM    5  C4  UNL     1      -0.710   1.477  -0.917  1.00  0.00     0.203 A 
HETATM    6  C5  UNL     1       0.044   0.332  -0.836  1.00  0.00     0.103 A 
HETATM    7  C9  UNL     1      -0.548  -0.767  -0.260  1.00  0.00     0.277 A 
HETATM    8  O5  UNL     1       0.104  -1.842  -0.163  1.00  0.00    -0.266 OA
ENDROOT
BRANCH   6   9
HETATM    9  C6  UNL     1       1.399   0.330  -1.348  1.00  0.00     0.129 C 
BRANCH   9  10
HETATM   10  N4  UNL     1       2.163  -0.709  -1.304  1.00  0.00    -0.296 N 
ATOM     11  H4  UNL     1       1.819  -1.578  -0.895  1.00  0.00     0.186 HD
BRANCH  10  12
HETATM   12  N5  UNL     1       3.459  -0.645  -1.815  1.00  0.00    -0.131 N 
ATOM     13  H5  UNL     1       3.641  -0.692  -2.817  1.00  0.00     0.205 HD
BRANCH  12  14
HETATM   14  C7  UNL     1       4.432  -0.521  -0.945  1.00  0.00     0.726 A 
HETATM   15  N6  UNL     1       5.735  -0.444  -1.252  1.00  0.00    -0.116 N 
HETATM   16  N7  UNL     1       6.432  -0.324  -0.114  1.00  0.00    -0.117 N 
ATOM     17  H6  UNL     1       6.129  -0.472  -2.192  1.00  0.00     0.206 HD
HETATM   18  C8  UNL     1       5.581  -0.323   0.928  1.00  0.00     0.705 A 
ATOM     19  H7  UNL     1       7.447  -0.246  -0.048  1.00  0.00     0.206 HD
HETATM   20  N9  UNL     1       4.355  -0.445   0.389  1.00  0.00    -0.019 N 
ATOM     21  H9  UNL     1       3.486  -0.475   0.923  1.00  0.00     0.203 HD
BRANCH  18  22
HETATM   22  N8  UNL     1       5.817  -0.228   2.193  1.00  0.00    -0.233 N 
ATOM     23  H82 UNL     1       6.747  -0.135   2.602  1.00  0.00     0.174 HD
ATOM     24  H81 UNL     1       5.172  -0.227   2.983  1.00  0.00     0.174 HD
ENDBRANCH  18  22
ENDBRANCH  12  14
ENDBRANCH  10  12
ENDBRANCH   9  10
ENDBRANCH   6   9
BRANCH   5  25
HETATM   25  O4  UNL     1      -0.179   2.626  -1.486  1.00  0.00    -0.343 OA
ATOM     26  H4  UNL     1       0.712   2.607  -1.816  1.00  0.00     0.219 HD
ENDBRANCH   5  25
BRANCH   4  27
HETATM   27  O3  UNL     1      -2.721   2.645  -0.530  1.00  0.00    -0.267 OA
ATOM     28  H3  UNL     1      -2.341   3.422  -0.923  1.00  0.00     0.246 HD
ENDBRANCH   4  27
BRANCH   3  29
HETATM   29  N2  UNL     1      -3.849   0.421   0.608  1.00  0.00    -0.092 N 
ATOM     30  H2  UNL     1      -4.026   0.680   1.579  1.00  0.00     0.213 HD
BRANCH  29  31
HETATM   31  O1  UNL     1      -4.868   0.098  -0.191  1.00  0.00    -0.240 OA
BRANCH  31  32
HETATM   32  C3  UNL     1      -6.086   0.577   0.267  1.00  0.00     0.367 C 
BRANCH  32  33
HETATM   33  O2  UNL     1      -6.133   1.952   0.382  1.00  0.00    -0.375 OA
ATOM     34  H2  UNL     1      -6.967   2.280   0.696  1.00  0.00     0.212 HD
ENDBRANCH  32  33
ENDBRANCH  31  32
ENDBRANCH  29  31
ENDBRANCH   3  29
TORSDOF 11
