REMARK  7 active torsions:
REMARK  status: ('A' for Active; 'I' for Inactive)
REMARK    1  A    between atoms: N1_1  and  C1_4 
REMARK    2  A    between atoms: C2_7  and  N3_8 
REMARK    3  A    between atoms: N3_8  and  C3_10 
REMARK    4  A    between atoms: C3_10  and  O1_11 
REMARK    5  A    between atoms: C3_10  and  C4_13 
REMARK    6  A    between atoms: C4_13  and  N4_14 
REMARK    7  A    between atoms: C5_19  and  C6_20 
ROOT
HETATM    1  C1  UNL     1      -3.403  -0.608  -0.084  1.00  0.00     0.145 A 
HETATM    2  N2  UNL     1      -2.181  -1.152   0.129  1.00  0.00    -0.175 N 
ATOM      3  H2  UNL     1      -2.101  -2.164   0.224  1.00  0.00     0.186 HD
HETATM    4  C2  UNL     1      -1.084  -0.411   0.218  1.00  0.00     0.682 A 
HETATM    5  N9  UNL     1      -1.222   0.942   0.085  1.00  0.00    -0.184 N 
ATOM      6  H9  UNL     1      -0.391   1.530   0.150  1.00  0.00     0.184 HD
HETATM    7  C7  UNL     1      -2.408   1.522  -0.127  1.00  0.00     0.150 A 
HETATM    8  C8  UNL     1      -2.575   2.879  -0.265  1.00  0.00     0.290 A 
HETATM    9  O3  UNL     1      -1.560   3.612  -0.187  1.00  0.00    -0.264 OA
HETATM   10  N10 UNL     1      -3.799   3.372  -0.474  1.00  0.00    -0.250 N 
ATOM     11  H10 UNL     1      -3.900   4.382  -0.572  1.00  0.00     0.192 HD
HETATM   12  N11 UNL     1      -4.884   2.629  -0.561  1.00  0.00    -0.239 N 
ATOM     13  H11 UNL     1      -5.798   3.053  -0.723  1.00  0.00     0.208 HD
HETATM   14  N12 UNL     1      -4.756   1.324  -0.433  1.00  0.00    -0.280 N 
ATOM     15  H12 UNL     1      -5.586   0.735  -0.497  1.00  0.00     0.188 HD
HETATM   16  C9  UNL     1      -3.559   0.747  -0.220  1.00  0.00     0.126 A 
ENDROOT
BRANCH   4  17
HETATM   17  N3  UNL     1       0.092  -0.844   0.416  1.00  0.00    -0.198 N 
ATOM     18  H3  UNL     1       0.826  -0.137   0.458  1.00  0.00     0.180 HD
BRANCH  17  19
HETATM   19  C3  UNL     1       0.515  -2.190   0.587  1.00  0.00     0.256 C 
BRANCH  19  20
HETATM   20  O1  UNL     1       0.976  -2.321   1.915  1.00  0.00    -0.374 OA
ATOM     21  H1  UNL     1       1.259  -3.221   2.029  1.00  0.00     0.212 HD
ENDBRANCH  19  20
BRANCH  19  22
HETATM   22  C4  UNL     1       1.725  -2.438  -0.294  1.00  0.00     0.225 C 
BRANCH  22  23
HETATM   23  N4  UNL     1       2.816  -1.541   0.070  1.00  0.00    -0.214 N 
HETATM   24  N5  UNL     1       3.766  -1.768   0.959  1.00  0.00    -0.224 N 
HETATM   25  N6  UNL     1       4.557  -0.718   0.998  1.00  0.00    -0.264 N 
ATOM     26  H5  UNL     1       3.869  -2.614   1.520  1.00  0.00     0.210 HD
HETATM   27  C5  UNL     1       4.090   0.169   0.122  1.00  0.00     0.203 A 
ATOM     28  H6  UNL     1       5.379  -0.604   1.591  1.00  0.00     0.190 HD
HETATM   29  N8  UNL     1       3.004  -0.356  -0.451  1.00  0.00    -0.262 N 
ATOM     30  H8  UNL     1       2.426   0.087  -1.165  1.00  0.00     0.190 HD
BRANCH  27  31
HETATM   31  C6  UNL     1       4.673   1.496  -0.163  1.00  0.00     0.301 C 
HETATM   32  N7  UNL     1       4.052   2.328  -1.131  1.00  0.00    -0.054 NA
HETATM   33  O2  UNL     1       5.705   1.863   0.455  1.00  0.00    -0.268 OA
ENDBRANCH  27  31
ENDBRANCH  22  23
ENDBRANCH  19  22
ENDBRANCH  17  19
ENDBRANCH   4  17
BRANCH   1  34
HETATM   34  N1  UNL     1      -4.474  -1.336  -0.170  1.00  0.00    -0.383 N 
ATOM     35  H12 UNL     1      -4.358  -2.344  -0.069  1.00  0.00     0.157 HD
ATOM     36  H11 UNL     1      -5.394  -0.926  -0.330  1.00  0.00     0.157 HD
ENDBRANCH   1  34
TORSDOF 7
