REMARK  7 active torsions:
REMARK  status: ('A' for Active; 'I' for Inactive)
REMARK    1  A    between atoms: C3_4  and  C4_5 
REMARK    2  A    between atoms: N5_12  and  C5_13 
REMARK    3  A    between atoms: C6_14  and  C7_15 
REMARK       I    between atoms: C7_15  and  N6_17 
REMARK    4  A    between atoms: N6_17  and  N7_19 
REMARK    5  A    between atoms: C8_22  and  C9_23 
REMARK    6  A    between atoms: C9_23  and  N8_24 
REMARK    7  A    between atoms: C9_23  and  O3_28 
ROOT
HETATM    1  N1  UNL     1       1.885   0.143  -2.902  1.00  0.00    -0.190 NA
HETATM    2  C1  UNL     1       2.071  -0.097  -1.781  1.00  0.00     0.122 C 
HETATM    3  C2  UNL     1       2.309  -0.389  -0.387  1.00  0.00     0.171 A 
HETATM    4  C3  UNL     1       3.541  -0.177   0.219  1.00  0.00     0.154 A 
HETATM    5  N3  UNL     1       3.365  -0.562   1.496  1.00  0.00    -0.278 N 
ATOM      6  H3  UNL     1       4.079  -0.537   2.224  1.00  0.00     0.189 HD
HETATM    7  N4  UNL     1       2.137  -0.973   1.655  1.00  0.00    -0.234 N 
ATOM      8  H4  UNL     1       1.755  -1.318   2.536  1.00  0.00     0.209 HD
HETATM    9  N5  UNL     1       1.444  -0.885   0.518  1.00  0.00    -0.223 N 
ENDROOT
BRANCH   4  10
HETATM   10  C4  UNL     1       4.749   0.350  -0.407  1.00  0.00     0.285 C 
HETATM   11  N2  UNL     1       5.917   0.495   0.385  1.00  0.00    -0.056 NA
HETATM   12  O1  UNL     1       4.815   0.683  -1.612  1.00  0.00    -0.269 OA
ENDBRANCH   4  10
BRANCH   9  13
HETATM   13  C5  UNL     1       0.082  -1.245   0.271  1.00  0.00     0.143 A 
HETATM   14  C6  UNL     1      -0.908  -0.256   0.166  1.00  0.00     0.080 A 
HETATM   15  C8  UNL     1      -2.188  -0.672  -0.083  1.00  0.00     0.031 A 
HETATM   16  C10 UNL     1      -2.399  -2.054  -0.215  1.00  0.00     0.104 A 
HETATM   17  N9  UNL     1      -1.429  -2.964  -0.109  1.00  0.00    -0.331 N 
HETATM   18  C11 UNL     1      -0.167  -2.590   0.136  1.00  0.00     0.275 A 
ATOM     19  H9  UNL     1      -1.651  -3.954  -0.216  1.00  0.00     0.168 HD
HETATM   20  O4  UNL     1       0.772  -3.448   0.241  1.00  0.00    -0.266 OA
BRANCH  14  21
HETATM   21  C7  UNL     1      -0.534   1.136   0.363  1.00  0.00     0.272 C 
HETATM   22  O2  UNL     1       0.412   1.403   1.210  1.00  0.00    -0.266 OA
HETATM   23  N6  UNL     1      -1.068   2.269  -0.261  1.00  0.00    -0.272 N 
ATOM     24  H6  UNL     1      -1.810   2.150  -0.951  1.00  0.00     0.189 HD
BRANCH  23  25
HETATM   25  N7  UNL     1      -0.609   3.582   0.037  1.00  0.00    -0.342 N 
ATOM     26  H72 UNL     1       0.133   3.683   0.729  1.00  0.00     0.176 HD
ATOM     27  H71 UNL     1      -0.998   4.408  -0.418  1.00  0.00     0.176 HD
ENDBRANCH  23  25
ENDBRANCH  14  21
BRANCH  15  28
HETATM   28  C9  UNL     1      -3.381   0.218  -0.154  1.00  0.00     0.353 C 
BRANCH  28  29
HETATM   29  N8  UNL     1      -4.425  -0.530   0.617  1.00  0.00    -0.049 N 
ATOM     30  H83 UNL     1      -4.589  -1.482   0.291  1.00  0.00     0.277 HD
ATOM     31  H82 UNL     1      -4.147  -0.788   1.564  1.00  0.00     0.277 HD
ATOM     32  H81 UNL     1      -5.242   0.079   0.568  1.00  0.00     0.277 HD
ENDBRANCH  28  29
BRANCH  28  33
HETATM   33  O3  UNL     1      -3.900   0.352  -1.429  1.00  0.00    -0.366 OA
ATOM     34  H3  UNL     1      -4.661   0.919  -1.474  1.00  0.00     0.212 HD
ENDBRANCH  28  33
ENDBRANCH  15  28
ENDBRANCH   9  13
TORSDOF 7
