REMARK  14 active torsions:
REMARK  status: ('A' for Active; 'I' for Inactive)
REMARK    1  A    between atoms: C2_2  and  C3_3 
REMARK    2  A    between atoms: C3_3  and  C5_5 
REMARK    3  A    between atoms: C7_10  and  C8_11 
REMARK    4  A    between atoms: C8_11  and  C9_12 
REMARK    5  A    between atoms: C10_13  and  C11_14 
REMARK    6  A    between atoms: C11_14  and  C12_15 
REMARK    7  A    between atoms: C12_15  and  O2_17 
REMARK    8  A    between atoms: O2_17  and  C14_18 
REMARK    9  A    between atoms: C14_18  and  C15_20 
REMARK   10  A    between atoms: C15_20  and  C16_21 
REMARK   11  A    between atoms: C16_21  and  S1_22 
REMARK   12  A    between atoms: C19_28  and  C20_29 
REMARK   13  A    between atoms: C23_32  and  C24_33 
REMARK   14  A    between atoms: C28_38  and  O7_39 
ROOT
HETATM    1  C24 UNL     1      -5.190  -1.341  -2.903  1.00  0.00     0.094 C 
HETATM    2  C25 UNL     1      -5.604  -1.694  -4.267  1.00  0.00     0.087 C 
HETATM    3  N2  UNL     1      -5.923  -1.972  -5.344  1.00  0.00    -0.192 NA
ENDROOT
BRANCH   1   4
HETATM    4  C23 UNL     1      -4.095  -1.764  -2.399  1.00  0.00     0.015 C 
HETATM    5  C22 UNL     1      -3.565  -1.504  -1.085  1.00  0.00    -0.059 C 
HETATM    6  C19 UNL     1      -2.826  -2.683  -0.473  1.00  0.00     0.114 C 
HETATM    7  C26 UNL     1      -4.303  -0.686  -0.106  1.00  0.00     0.040 C 
HETATM    8  C18 UNL     1      -2.014  -2.166   0.690  1.00  0.00     0.268 C 
HETATM    9  O5  UNL     1      -1.399  -0.979   0.600  1.00  0.00    -0.306 OA
HETATM   10  O6  UNL     1      -2.004  -2.968   1.692  1.00  0.00    -0.264 OA
HETATM   11  C7  UNL     1      -0.195  -0.552   0.020  1.00  0.00     0.227 C 
HETATM   12  C6  UNL     1      -0.246   0.859  -0.423  1.00  0.00     0.247 C 
HETATM   13  N1  UNL     1      -1.381   1.710  -0.234  1.00  0.00    -0.353 N 
HETATM   14  O1  UNL     1       0.762   1.353  -1.004  1.00  0.00    -0.271 OA
HETATM   15  C5  UNL     1      -2.104   1.926   0.988  1.00  0.00     0.098 C 
ATOM     16  H1  UNL     1      -1.712   2.217  -1.055  1.00  0.00     0.163 HD
HETATM   17  C29 UNL     1      -3.494   1.418   1.039  1.00  0.00     0.034 C 
HETATM   18  C28 UNL     1      -4.033   0.825  -0.234  1.00  0.00     0.131 C 
HETATM   19  C30 UNL     1      -4.495   2.382   1.686  1.00  0.00     0.015 C 
HETATM   20  C27 UNL     1      -5.741  -0.957   0.127  1.00  0.00     0.017 C 
BRANCH   6  21
HETATM   21  C20 UNL     1      -3.669  -3.840  -0.095  1.00  0.00     0.014 C 
HETATM   22  C21 UNL     1      -4.504  -4.448  -1.167  1.00  0.00     0.006 C 
ENDBRANCH   6  21
BRANCH  11  23
HETATM   23  C8  UNL     1       0.389  -1.529  -0.932  1.00  0.00     0.069 C 
BRANCH  23  24
HETATM   24  C9  UNL     1       1.800  -1.216  -1.236  1.00  0.00    -0.028 C 
HETATM   25  C10 UNL     1       2.786  -2.106  -0.944  1.00  0.00    -0.028 C 
BRANCH  25  26
HETATM   26  C11 UNL     1       4.208  -1.855  -1.221  1.00  0.00     0.059 C 
BRANCH  26  27
HETATM   27  C12 UNL     1       5.046  -1.888   0.046  1.00  0.00     0.131 C 
HETATM   28  C13 UNL     1       4.949  -3.239   0.727  1.00  0.00     0.040 C 
BRANCH  27  29
HETATM   29  O2  UNL     1       6.373  -1.501  -0.193  1.00  0.00    -0.316 OA
BRANCH  29  30
HETATM   30  C14 UNL     1       6.981  -0.392   0.382  1.00  0.00     0.260 C 
HETATM   31  O3  UNL     1       6.279   0.298   1.165  1.00  0.00    -0.265 OA
BRANCH  30  32
HETATM   32  C15 UNL     1       8.410  -0.044   0.074  1.00  0.00     0.123 C 
BRANCH  32  33
HETATM   33  C16 UNL     1       8.774   1.198   0.852  1.00  0.00     0.118 C 
BRANCH  33  34
HETATM   34  S1  UNL     1       7.749   2.561   0.421  1.00  0.00     0.011 S 
HETATM   35  C17 UNL     1       8.217   3.986   1.361  1.00  0.00     0.127 C 
HETATM   36  O4  UNL     1       7.894   2.904  -1.215  1.00  0.00    -0.258 OA
ENDBRANCH  33  34
ENDBRANCH  32  33
ENDBRANCH  30  32
ENDBRANCH  29  30
ENDBRANCH  27  29
ENDBRANCH  26  27
ENDBRANCH  25  26
ENDBRANCH  23  24
ENDBRANCH  11  23
BRANCH  15  37
HETATM   37  C3  UNL     1      -1.996   3.423   1.253  1.00  0.00     0.026 C 
HETATM   38  C4  UNL     1      -2.521   4.214   0.073  1.00  0.00     0.016 C 
BRANCH  37  39
HETATM   39  C2  UNL     1      -0.571   3.830   1.403  1.00  0.00    -0.031 C 
HETATM   40  C1  UNL     1      -0.103   4.380   2.504  1.00  0.00     0.007 C 
ENDBRANCH  37  39
ENDBRANCH  15  37
BRANCH  18  41
HETATM   41  O7  UNL     1      -5.142   1.512  -0.717  1.00  0.00    -0.394 OA
ATOM     42  H7  UNL     1      -4.975   2.444  -0.796  1.00  0.00     0.210 HD
ENDBRANCH  18  41
ENDBRANCH   1   4
TORSDOF 14
