REMARK  10 active torsions:
REMARK  status: ('A' for Active; 'I' for Inactive)
REMARK    1  A    between atoms: C2_2  and  C4_4 
REMARK    2  A    between atoms: C4_4  and  C6_6 
REMARK    3  A    between atoms: C4_4  and  C25_43 
REMARK    4  A    between atoms: C6_6  and  N1_7 
REMARK    5  A    between atoms: C6_6  and  C20_31 
REMARK    6  A    between atoms: N1_7  and  C7_10 
REMARK    7  A    between atoms: C10_13  and  C11_14 
REMARK    8  A    between atoms: C12_17  and  C13_18 
REMARK    9  A    between atoms: C22_35  and  O3_36 
REMARK   10  A    between atoms: C23_38  and  C24_39 
ROOT
HETATM    1  N1  UNL     1      -1.666  -0.068   0.841  1.00  0.00    -0.061 N 
ATOM      2  H11 UNL     1      -1.703  -0.937   1.374  1.00  0.00     0.278 HD
ATOM      3  H12 UNL     1      -2.039   0.565   1.548  1.00  0.00     0.278 HD
ENDROOT
BRANCH   1   4
HETATM    4  C6  UNL     1      -2.556  -0.126  -0.378  1.00  0.00     0.238 C 
BRANCH   4   5
HETATM    5  C4  UNL     1      -3.331  -1.428  -0.408  1.00  0.00     0.089 C 
HETATM    6  C5  UNL     1      -4.116  -1.259  -1.762  1.00  0.00     0.027 C 
BRANCH   5   7
HETATM    7  C2  UNL     1      -4.331  -1.779   0.573  1.00  0.00    -0.004 C 
HETATM    8  C1  UNL     1      -5.112  -3.055   0.119  1.00  0.00     0.011 C 
HETATM    9  C3  UNL     1      -3.866  -2.214   1.947  1.00  0.00     0.011 C 
ENDBRANCH   5   7
BRANCH   5  10
HETATM   10  C25 UNL     1      -2.391  -2.584  -0.762  1.00  0.00     0.397 C 
HETATM   11  F4  UNL     1      -3.094  -3.635  -1.319  1.00  0.00    -0.170 F 
HETATM   12  F5  UNL     1      -1.505  -2.130  -1.694  1.00  0.00    -0.170 F 
HETATM   13  F6  UNL     1      -1.785  -3.080   0.385  1.00  0.00    -0.170 F 
ENDBRANCH   5  10
ENDBRANCH   4   5
BRANCH   4  14
HETATM   14  C20 UNL     1      -3.427   1.065  -0.120  1.00  0.00     0.008 A 
HETATM   15  C21 UNL     1      -4.243   1.228   0.977  1.00  0.00     0.100 A 
HETATM   16  N5  UNL     1      -4.739   2.499   0.907  1.00  0.00    -0.346 N 
HETATM   17  C22 UNL     1      -4.260   3.097  -0.171  1.00  0.00     0.155 A 
ATOM     18  H5  UNL     1      -5.378   2.921   1.581  1.00  0.00     0.167 HD
HETATM   19  C23 UNL     1      -3.415   2.243  -0.870  1.00  0.00     0.108 A 
BRANCH  17  20
HETATM   20  O3  UNL     1      -4.592   4.435  -0.526  1.00  0.00    -0.345 OA
ATOM     21  H3  UNL     1      -4.248   4.865  -1.300  1.00  0.00     0.219 HD
ENDBRANCH  17  20
BRANCH  19  22
HETATM   22  C24 UNL     1      -2.725   2.648  -2.076  1.00  0.00     0.422 C 
HETATM   23  F1  UNL     1      -2.786   1.859  -3.186  1.00  0.00    -0.166 F 
HETATM   24  F2  UNL     1      -1.483   3.199  -1.959  1.00  0.00    -0.166 F 
HETATM   25  F3  UNL     1      -3.486   3.795  -2.579  1.00  0.00    -0.166 F 
ENDBRANCH  19  22
ENDBRANCH   4  14
ENDBRANCH   1   4
BRANCH   1  26
HETATM   26  C7  UNL     1      -0.311   0.277   0.481  1.00  0.00     0.186 C 
HETATM   27  C8  UNL     1       0.770  -0.651   0.892  1.00  0.00     0.034 C 
HETATM   28  C9  UNL     1       1.932   0.000   1.610  1.00  0.00     0.015 C 
HETATM   29  C10 UNL     1       2.426   1.273   0.940  1.00  0.00     0.063 C 
HETATM   30  C18 UNL     1       1.365   1.994   0.197  1.00  0.00     0.015 C 
HETATM   31  C19 UNL     1       0.064   1.680   0.979  1.00  0.00     0.034 C 
BRANCH  29  32
HETATM   32  C11 UNL     1       3.650   1.029   0.152  1.00  0.00     0.152 A 
HETATM   33  N2  UNL     1       4.800   0.510   0.602  1.00  0.00    -0.322 N 
HETATM   34  C12 UNL     1       5.725   0.430  -0.411  1.00  0.00     0.143 A 
ATOM     35  H2  UNL     1       4.966   0.215   1.564  1.00  0.00     0.169 HD
HETATM   36  N4  UNL     1       5.075   0.922  -1.472  1.00  0.00    -0.242 N 
HETATM   37  O2  UNL     1       3.844   1.268  -1.114  1.00  0.00    -0.222 OA
ATOM     38  H4  UNL     1       5.465   1.017  -2.410  1.00  0.00     0.196 HD
BRANCH  34  39
HETATM   39  C13 UNL     1       7.060  -0.127  -0.260  1.00  0.00     0.078 A 
HETATM   40  C14 UNL     1       7.364  -0.795   0.921  1.00  0.00     0.022 A 
HETATM   41  C15 UNL     1       8.609  -1.370   1.164  1.00  0.00     0.018 A 
HETATM   42  C16 UNL     1       9.524  -1.231   0.147  1.00  0.00     0.091 A 
HETATM   43  N3  UNL     1       9.245  -0.592  -0.989  1.00  0.00    -0.333 N 
HETATM   44  C17 UNL     1       8.015  -0.032  -1.211  1.00  0.00     0.259 A 
ATOM     45  H3  UNL     1       9.964  -0.518  -1.709  1.00  0.00     0.168 HD
HETATM   46  O1  UNL     1       7.779   0.573  -2.301  1.00  0.00    -0.267 OA
ENDBRANCH  34  39
ENDBRANCH  29  32
ENDBRANCH   1  26
TORSDOF 10
