REMARK  9 active torsions:
REMARK  status: ('A' for Active; 'I' for Inactive)
REMARK    1  A    between atoms: C2_2  and  C3_3 
REMARK    2  A    between atoms: C3_3  and  N1_4 
REMARK    3  A    between atoms: N1_4  and  C4_7 
REMARK    4  A    between atoms: C7_10  and  C8_11 
REMARK    5  A    between atoms: C8_11  and  N2_12 
REMARK    6  A    between atoms: C10_14  and  C11_15 
REMARK    7  A    between atoms: C17_24  and  N4_25 
REMARK    8  A    between atoms: C18_28  and  N5_29 
REMARK    9  A    between atoms: C19_34  and  C20_35 
ROOT
HETATM    1  C11 UNL     1      -2.463  -2.103  -0.853  1.00  0.00     0.016 A 
HETATM    2  C12 UNL     1      -3.355  -1.237  -0.300  1.00  0.00     0.030 A 
HETATM    3  C13 UNL     1      -4.613  -1.629   0.226  1.00  0.00     0.007 A 
HETATM    4  C14 UNL     1      -5.425  -0.545   0.661  1.00  0.00     0.048 C 
HETATM    5  C15 UNL     1      -6.154  -0.613   1.806  1.00  0.00     0.072 C 
HETATM    6  C16 UNL     1      -7.347   0.068   2.114  1.00  0.00     0.107 C 
HETATM    7 CL1  UNL     1      -8.434  -0.645   3.270  1.00  0.00    -0.064 Cl
HETATM    8  N3  UNL     1      -7.765   1.250   1.608  1.00  0.00    -0.330 N 
ATOM      9  H3  UNL     1      -8.720   1.532   1.827  1.00  0.00     0.168 HD
HETATM   10  C17 UNL     1      -7.032   2.105   0.831  1.00  0.00     0.144 C 
HETATM   11  C18 UNL     1      -5.895   1.787   0.120  1.00  0.00     0.144 C 
HETATM   12  N6  UNL     1      -5.319   0.600  -0.085  1.00  0.00    -0.339 N 
ATOM     13  H6  UNL     1      -4.719   0.537  -0.908  1.00  0.00     0.167 HD
HETATM   14  C19 UNL     1      -4.947  -2.949   0.172  1.00  0.00     0.062 A 
HETATM   15  C21 UNL     1      -4.035  -3.856  -0.396  1.00  0.00     0.041 A 
HETATM   16  C22 UNL     1      -2.820  -3.430  -0.896  1.00  0.00     0.047 A 
HETATM   17 CL2  UNL     1      -1.763  -4.644  -1.581  1.00  0.00    -0.083 Cl
ENDROOT
BRANCH   1  18
HETATM   18  C10 UNL     1      -1.176  -1.678  -1.387  1.00  0.00     0.078 A 
HETATM   19  C9  UNL     1      -0.698  -0.385  -1.398  1.00  0.00     0.143 A 
HETATM   20  N2  UNL     1       0.538  -0.376  -1.975  1.00  0.00    -0.286 N 
HETATM   21  N8  UNL     1       0.772  -1.639  -2.292  1.00  0.00    -0.240 N 
HETATM   22  N7  UNL     1      -0.233  -2.420  -1.950  1.00  0.00    -0.284 N 
ATOM     23  H8  UNL     1       1.625  -1.968  -2.745  1.00  0.00     0.208 HD
ATOM     24  H7  UNL     1      -0.278  -3.429  -2.095  1.00  0.00     0.188 HD
BRANCH  20  25
HETATM   25  C8  UNL     1       1.397   0.760  -2.201  1.00  0.00     0.154 C 
BRANCH  25  26
HETATM   26  C7  UNL     1       2.274   0.951  -0.990  1.00  0.00     0.006 C 
HETATM   27  C6  UNL     1       3.155  -0.235  -0.686  1.00  0.00     0.008 C 
HETATM   28  C5  UNL     1       3.826   0.050   0.664  1.00  0.00     0.033 C 
HETATM   29  C4  UNL     1       4.737   1.240   0.579  1.00  0.00     0.185 C 
HETATM   30  C24 UNL     1       3.850   2.429   0.182  1.00  0.00     0.033 C 
HETATM   31  C23 UNL     1       3.169   2.166  -1.137  1.00  0.00     0.008 C 
BRANCH  29  32
HETATM   32  N1  UNL     1       5.732   1.121  -0.451  1.00  0.00    -0.071 N 
ATOM     33  H12 UNL     1       6.243   1.997  -0.559  1.00  0.00     0.277 HD
ATOM     34  H11 UNL     1       5.292   1.064  -1.370  1.00  0.00     0.277 HD
BRANCH  32  35
HETATM   35  C3  UNL     1       6.640   0.029  -0.259  1.00  0.00     0.232 C 
BRANCH  35  36
HETATM   36  C2  UNL     1       7.560   0.237   0.944  1.00  0.00     0.023 C 
HETATM   37  C1  UNL     1       8.387   1.491   0.755  1.00  0.00     0.007 C 
ENDBRANCH  35  36
ENDBRANCH  32  35
ENDBRANCH  29  32
ENDBRANCH  25  26
ENDBRANCH  20  25
ENDBRANCH   1  18
BRANCH  14  38
HETATM   38  C20 UNL     1      -6.224  -3.483   0.632  1.00  0.00     0.418 C 
HETATM   39  F1  UNL     1      -7.340  -2.874   0.060  1.00  0.00    -0.166 F 
HETATM   40  F2  UNL     1      -6.394  -3.692   1.949  1.00  0.00    -0.166 F 
HETATM   41  F3  UNL     1      -6.345  -4.807   0.047  1.00  0.00    -0.166 F 
ENDBRANCH  14  38
BRANCH  11  42
HETATM   42  N5  UNL     1      -5.297   2.780  -0.437  1.00  0.00    -0.382 N 
ATOM     43  H52 UNL     1      -5.737   3.687  -0.280  1.00  0.00     0.157 HD
ATOM     44  H51 UNL     1      -4.456   2.545  -0.963  1.00  0.00     0.157 HD
ENDBRANCH  11  42
BRANCH  10  45
HETATM   45  N4  UNL     1      -7.422   3.324   0.742  1.00  0.00    -0.382 N 
ATOM     46  H42 UNL     1      -8.263   3.559   1.268  1.00  0.00     0.157 HD
ATOM     47  H41 UNL     1      -6.876   3.961   0.163  1.00  0.00     0.157 HD
ENDBRANCH  10  45
TORSDOF 9
