REMARK  5 active torsions:
REMARK  status: ('A' for Active; 'I' for Inactive)
REMARK    1  A    between atoms: C2_2  and  C3_3 
REMARK    2  A    between atoms: C3_3  and  O1_5 
REMARK    3  A    between atoms: O1_5  and  N1_6 
REMARK       I    between atoms: N1_6  and  C5_8 
REMARK    4  A    between atoms: C5_8  and  O3_10 
REMARK    5  A    between atoms: O3_10  and  C6_11 
ROOT
HETATM    1  N1  UNL     1      -0.418   0.799  -1.233  1.00  0.00    -0.210 N 
ATOM      2  H1  UNL     1      -0.475   0.863  -2.249  1.00  0.00     0.200 HD
HETATM    3  C5  UNL     1       0.811   0.433  -0.538  1.00  0.00     0.385 C 
HETATM    4  O2  UNL     1       0.703   0.402   0.740  1.00  0.00    -0.236 OA
ENDROOT
BRANCH   1   5
HETATM    5  O1  UNL     1      -1.398   1.028  -0.489  1.00  0.00    -0.271 OA
BRANCH   5   6
HETATM    6  C3  UNL     1      -2.635   0.766  -0.315  1.00  0.00     0.148 C 
HETATM    7  C4  UNL     1      -3.533   0.276  -1.435  1.00  0.00     0.042 C 
BRANCH   6   8
HETATM    8  C2  UNL     1      -2.927  -0.096   0.906  1.00  0.00     0.029 C 
HETATM    9  C1  UNL     1      -4.339   0.037   1.403  1.00  0.00     0.007 C 
ENDBRANCH   6   8
ENDBRANCH   5   6
ENDBRANCH   1   5
BRANCH   3  10
HETATM   10  O3  UNL     1       1.989   0.136  -1.104  1.00  0.00    -0.292 OA
BRANCH  10  11
HETATM   11  C6  UNL     1       3.070  -0.222  -0.261  1.00  0.00     0.061 C 
HETATM   12  C7  UNL     1       4.346  -0.458  -1.052  1.00  0.00     0.046 C 
HETATM   13  C8  UNL     1       2.731  -1.601   0.327  1.00  0.00     0.046 C 
HETATM   14  C9  UNL     1       3.346   0.739   0.847  1.00  0.00     0.046 C 
ENDBRANCH  10  11
ENDBRANCH   3  10
TORSDOF 5
