REMARK  3 active torsions:
REMARK  status: ('A' for Active; 'I' for Inactive)
REMARK    1  A    between atoms: N2_4  and  O1_5 
REMARK    2  A    between atoms: N2_4  and  O2_7 
REMARK    3  A    between atoms: O2_7  and  C1_8 
ROOT
HETATM    1  C1  UNL     1       0.868   0.256   0.307  1.00  0.00     0.094 C 
HETATM    2  C2  UNL     1       0.047   0.765   1.498  1.00  0.00     0.045 C 
HETATM    3  C3  UNL     1      -1.403   0.426   1.343  1.00  0.00    -0.011 C 
HETATM    4  C4  UNL     1      -1.894   1.136   0.078  1.00  0.00     0.009 C 
HETATM    5  C5  UNL     1      -1.135   0.621  -1.097  1.00  0.00    -0.011 C 
HETATM    6  C6  UNL     1      -1.308  -0.866  -1.261  1.00  0.00     0.009 C 
HETATM    7  C7  UNL     1      -0.804  -1.524   0.002  1.00  0.00    -0.011 C 
HETATM    8  C8  UNL     1      -1.646  -1.042   1.142  1.00  0.00     0.009 C 
HETATM    9  C9  UNL     1       0.663  -1.230   0.183  1.00  0.00     0.045 C 
HETATM   10  C10 UNL     1       0.357   0.889  -0.982  1.00  0.00     0.045 C 
ENDROOT
BRANCH   1  11
HETATM   11  O2  UNL     1       2.181   0.634   0.518  1.00  0.00    -0.228 OA
BRANCH  11  12
HETATM   12  N2  UNL     1       3.249   0.392  -0.285  1.00  0.00    -0.061 N 
HETATM   13  N1  UNL     1       4.364   0.851   0.074  1.00  0.00    -0.298 N 
ATOM     14  H12 UNL     1       5.166   0.669  -0.529  1.00  0.00     0.181 HD
ATOM     15  H11 UNL     1       4.411   1.380   0.945  1.00  0.00     0.181 HD
BRANCH  12  16
HETATM   16  O1  UNL     1       3.186  -0.318  -1.455  1.00  0.00    -0.248 OA
ATOM     17  H1  UNL     1       2.344  -0.665  -1.726  1.00  0.00     0.249 HD
ENDBRANCH  12  16
ENDBRANCH  11  12
ENDBRANCH   1  11
TORSDOF 3
