REMARK  3 active torsions:
REMARK  status: ('A' for Active; 'I' for Inactive)
REMARK    1  A    between atoms: C2_2  and  O1_5 
REMARK    2  A    between atoms: O1_5  and  C5_6 
REMARK       I    between atoms: C5_6  and  N1_8 
REMARK    3  A    between atoms: N1_8  and  C6_10 
ROOT
HETATM    1  C5  UNL     1      -0.867  -0.303  -0.029  1.00  0.00     0.361 C 
HETATM    2  O2  UNL     1      -0.873  -1.521   0.246  1.00  0.00    -0.238 OA
HETATM    3  N1  UNL     1       0.352   0.403   0.013  1.00  0.00    -0.332 N 
ATOM      4  H1  UNL     1       0.357   1.398  -0.212  1.00  0.00     0.165 HD
ENDROOT
BRANCH   3   5
HETATM    5  C6  UNL     1       1.609  -0.250   0.370  1.00  0.00     0.086 C 
HETATM    6  C7  UNL     1       2.525  -0.151  -0.831  1.00  0.00     0.025 C 
HETATM    7  C8  UNL     1       3.231   1.180  -0.817  1.00  0.00     0.002 C 
HETATM    8  C9  UNL     1       4.100   1.331   0.403  1.00  0.00     0.000 C 
HETATM    9  C10 UNL     1       3.717   0.321   1.464  1.00  0.00     0.002 C 
HETATM   10  C11 UNL     1       2.202   0.370   1.606  1.00  0.00     0.025 C 
ENDBRANCH   3   5
BRANCH   1  11
HETATM   11  O1  UNL     1      -2.027   0.352  -0.370  1.00  0.00    -0.294 OA
BRANCH  11  12
HETATM   12  C2  UNL     1      -3.251  -0.395  -0.404  1.00  0.00     0.061 C 
HETATM   13  C1  UNL     1      -3.043  -1.487  -1.430  1.00  0.00     0.046 C 
HETATM   14  C3  UNL     1      -3.486  -0.912   0.975  1.00  0.00     0.046 C 
HETATM   15  C4  UNL     1      -4.402   0.453  -0.841  1.00  0.00     0.046 C 
ENDBRANCH  11  12
ENDBRANCH   1  11
TORSDOF 3
