REMARK  2 active torsions:
REMARK  status: ('A' for Active; 'I' for Inactive)
REMARK       I    between atoms: C2_2  and  N1_4 
REMARK    1  A    between atoms: N1_4  and  O2_5 
REMARK    2  A    between atoms: N1_4  and  C3_7 
ROOT
HETATM    1  C3  UNL     1       0.556  -0.393  -0.194  1.00  0.00     0.122 C 
HETATM    2  C4  UNL     1      -0.265  -0.940   0.953  1.00  0.00     0.033 C 
HETATM    3  C5  UNL     1      -1.695  -1.161   0.553  1.00  0.00    -0.013 C 
HETATM    4  C6  UNL     1      -2.472   0.073   0.919  1.00  0.00     0.005 C 
HETATM    5  C7  UNL     1      -1.726   1.352   0.749  1.00  0.00     0.001 C 
HETATM    6  C8  UNL     1      -1.035   1.547  -0.546  1.00  0.00     0.007 C 
HETATM    7  C9  UNL     1      -0.283   0.420  -1.118  1.00  0.00     0.011 C 
HETATM    8  C10 UNL     1      -1.200  -0.567  -1.835  1.00  0.00     0.007 C 
HETATM    9  C11 UNL     1      -1.853  -1.534  -0.897  1.00  0.00     0.005 C 
ENDROOT
BRANCH   1  10
HETATM   10  N1  UNL     1       1.779   0.227   0.218  1.00  0.00    -0.224 N 
HETATM   11  C2  UNL     1       3.053  -0.291  -0.101  1.00  0.00     0.239 C 
HETATM   12  C1  UNL     1       4.322   0.375   0.341  1.00  0.00     0.119 C 
HETATM   13  O1  UNL     1       3.222  -1.346  -0.775  1.00  0.00    -0.272 OA
BRANCH  10  14
HETATM   14  O2  UNL     1       1.706   1.356   0.941  1.00  0.00    -0.284 OA
ATOM     15  H2  UNL     1       0.849   1.705   1.156  1.00  0.00     0.245 HD
ENDBRANCH  10  14
ENDBRANCH   1  10
TORSDOF 2
