REMARK  2 active torsions:
REMARK  status: ('A' for Active; 'I' for Inactive)
REMARK    1  A    between atoms: C2_2  and  C3_3 
REMARK    2  A    between atoms: C6_6  and  O1_7 
ROOT
HETATM    1  C3  UNL     1       0.223  -0.509  -0.514  1.00  0.00     0.020 C 
HETATM    2  C4  UNL     1       0.783  -1.263   0.650  1.00  0.00     0.010 C 
HETATM    3  C5  UNL     1       2.104  -0.751   1.135  1.00  0.00     0.032 C 
HETATM    4  C6  UNL     1       3.083  -0.427   0.061  1.00  0.00     0.118 C 
HETATM    5  C7  UNL     1       2.453   0.092  -1.205  1.00  0.00     0.032 C 
HETATM    6  C8  UNL     1       1.104   0.690  -0.799  1.00  0.00     0.010 C 
ENDROOT
BRANCH   1   7
HETATM    7  C2  UNL     1      -1.216  -0.111  -0.332  1.00  0.00     0.061 C 
HETATM    8  C1  UNL     1      -1.637   0.639  -1.587  1.00  0.00     0.046 C 
HETATM    9  C9  UNL     1      -1.428   0.812   0.830  1.00  0.00     0.040 C 
HETATM   10  C10 UNL     1      -2.943   0.677   1.035  1.00  0.00     0.029 C 
HETATM   11  C11 UNL     1      -3.189  -0.705   0.509  1.00  0.00     0.168 C 
HETATM   12  O2  UNL     1      -2.026  -1.177  -0.039  1.00  0.00    -0.380 OA
ENDBRANCH   1   7
BRANCH   4  13
HETATM   13  O1  UNL     1       3.933   0.586   0.534  1.00  0.00    -0.396 OA
ATOM     14  H1  UNL     1       4.558   0.793  -0.151  1.00  0.00     0.210 HD
ENDBRANCH   4  13
TORSDOF 2
