REMARK  2 active torsions:
REMARK  status: ('A' for Active; 'I' for Inactive)
REMARK    1  A    between atoms: O1_2  and  C2_3 
REMARK    2  A    between atoms: C11_12  and  O2_13 
ROOT
HETATM    1  C2  UNL     1      -2.173   0.138   0.059  1.00  0.00     0.121 C 
HETATM    2  C3  UNL     1      -2.074  -0.996   1.033  1.00  0.00     0.032 C 
HETATM    3  C4  UNL     1      -0.696  -1.102   1.674  1.00  0.00     0.003 C 
HETATM    4  C5  UNL     1       0.224  -1.371   0.539  1.00  0.00     0.012 C 
HETATM    5  C6  UNL     1       0.327  -0.140  -0.319  1.00  0.00    -0.012 C 
HETATM    6  C7  UNL     1       0.996   0.936   0.484  1.00  0.00     0.012 C 
HETATM    7  C8  UNL     1       2.351   0.569   0.989  1.00  0.00     0.001 C 
HETATM    8  C9  UNL     1       3.248   0.022  -0.080  1.00  0.00     0.002 C 
HETATM    9  C10 UNL     1       2.567   0.172  -1.415  1.00  0.00     0.032 C 
HETATM   10  C11 UNL     1       1.232  -0.509  -1.483  1.00  0.00     0.126 C 
HETATM   11  C12 UNL     1      -0.998   0.377  -0.792  1.00  0.00     0.044 C 
ENDROOT
BRANCH  10  12
HETATM   12  O2  UNL     1       1.347  -1.889  -1.630  1.00  0.00    -0.395 OA
ATOM     13  H2  UNL     1       1.913  -2.120  -2.358  1.00  0.00     0.210 HD
ENDBRANCH  10  12
BRANCH   1  14
HETATM   14  O1  UNL     1      -2.615   1.318   0.606  1.00  0.00    -0.391 OA
HETATM   15  C1  UNL     1      -3.830   1.775   0.237  1.00  0.00     0.202 C 
ENDBRANCH   1  14
TORSDOF 2
