REMARK  16 active torsions:
REMARK  status: ('A' for Active; 'I' for Inactive)
REMARK    1  A    between atoms: O1_2  and  C2_3 
REMARK    2  A    between atoms: C2_3  and  C3_5 
REMARK    3  A    between atoms: C3_5  and  N1_6 
REMARK    4  A    between atoms: C4_7  and  N2_8 
REMARK    5  A    between atoms: N2_8  and  N3_10 
REMARK    6  A    between atoms: N3_10  and  C5_11 
REMARK    7  A    between atoms: C5_11  and  C6_12 
REMARK    8  A    between atoms: C8_14  and  O3_15 
REMARK    9  A    between atoms: C9_17  and  O4_18 
REMARK   10  A    between atoms: C10_20  and  O5_21 
REMARK   11  A    between atoms: C15_30  and  N6_31 
REMARK       I    between atoms: N7_33  and  C16_35 
REMARK   12  A    between atoms: C16_35  and  C17_37 
REMARK   13  A    between atoms: C17_37  and  O7_38 
REMARK   14  A    between atoms: C17_37  and  C18_40 
REMARK   15  A    between atoms: C18_40  and  N8_41 
REMARK   16  A    between atoms: C20_46  and  N9_47 
ROOT
HETATM    1  N1  UNL     1       0.344  -0.186   1.510  1.00  0.00    -0.156 N 
HETATM    2  C4  UNL     1      -0.585   0.155   0.607  1.00  0.00     0.713 A 
HETATM    3  N4  UNL     1      -0.214   1.088  -0.354  1.00  0.00    -0.173 N 
ATOM      4  H4  UNL     1      -0.887   1.381  -1.062  1.00  0.00     0.186 HD
HETATM    5  C13 UNL     1       1.011   1.600  -0.356  1.00  0.00     0.137 A 
HETATM    6  N5  UNL     1       1.620   2.509  -1.165  1.00  0.00    -0.349 N 
ATOM      7  H5  UNL     1       1.187   2.975  -1.963  1.00  0.00     0.167 HD
HETATM    8  C14 UNL     1       2.885   2.695  -0.744  1.00  0.00     0.121 A 
HETATM    9  C15 UNL     1       3.131   1.906   0.357  1.00  0.00     0.081 A 
HETATM   10  C19 UNL     1       1.953   1.235   0.578  1.00  0.00     0.082 A 
HETATM   11  C20 UNL     1       1.600   0.298   1.555  1.00  0.00     0.134 A 
ENDROOT
BRANCH   2  12
HETATM   12  N2  UNL     1      -1.741  -0.295   0.499  1.00  0.00    -0.065 N 
ATOM     13  H2  UNL     1      -2.187   0.175  -0.289  1.00  0.00     0.221 HD
BRANCH  12  14
HETATM   14  N3  UNL     1      -2.564  -1.097   0.980  1.00  0.00    -0.323 NA
BRANCH  14  15
HETATM   15  C5  UNL     1      -3.612  -1.674   1.180  1.00  0.00     0.221 C 
BRANCH  15  16
HETATM   16  C6  UNL     1      -4.849  -1.316   0.453  1.00  0.00     0.000 A 
HETATM   17  C7  UNL     1      -6.011  -2.005   0.701  1.00  0.00     0.053 A 
HETATM   18  C8  UNL     1      -7.180  -1.672   0.036  1.00  0.00     0.102 A 
HETATM   19  C9  UNL     1      -7.229  -0.649  -0.889  1.00  0.00     0.132 A 
HETATM   20  C10 UNL     1      -6.027   0.028  -1.112  1.00  0.00     0.104 A 
HETATM   21  C12 UNL     1      -4.859  -0.299  -0.454  1.00  0.00     0.053 A 
BRANCH  18  22
HETATM   22  O3  UNL     1      -8.323  -2.401   0.322  1.00  0.00    -0.358 OA
ATOM     23  H3  UNL     1      -9.125  -2.173  -0.134  1.00  0.00     0.217 HD
ENDBRANCH  18  22
BRANCH  19  24
HETATM   24  O4  UNL     1      -8.366  -0.272  -1.580  1.00  0.00    -0.356 OA
ATOM     25  H4  UNL     1      -8.400   0.432  -2.217  1.00  0.00     0.218 HD
ENDBRANCH  19  24
BRANCH  20  26
HETATM   26  O5  UNL     1      -6.022   1.062  -2.029  1.00  0.00    -0.353 OA
HETATM   27  C11 UNL     1      -4.829   1.771  -2.293  1.00  0.00     0.210 C 
ENDBRANCH  20  26
ENDBRANCH  15  16
ENDBRANCH  14  15
ENDBRANCH  12  14
ENDBRANCH   2  12
BRANCH   1  28
HETATM   28  C3  UNL     1      -0.003  -1.118   2.560  1.00  0.00     0.260 C 
BRANCH  28  29
HETATM   29  C2  UNL     1       0.220  -2.525   2.187  1.00  0.00     0.277 C 
HETATM   30  O2  UNL     1       0.662  -2.857   1.057  1.00  0.00    -0.263 OA
BRANCH  29  31
HETATM   31  O1  UNL     1      -0.072  -3.504   3.120  1.00  0.00    -0.325 OA
HETATM   32  C1  UNL     1       0.082  -4.874   2.917  1.00  0.00     0.213 C 
ENDBRANCH  29  31
ENDBRANCH  28  29
ENDBRANCH   1  28
BRANCH  11  33
HETATM   33  N9  UNL     1       2.512  -0.032   2.382  1.00  0.00    -0.384 N 
ATOM     34  H92 UNL     1       2.255  -0.715   3.094  1.00  0.00     0.157 HD
ATOM     35  H91 UNL     1       3.463   0.335   2.416  1.00  0.00     0.157 HD
ENDBRANCH  11  33
BRANCH   9  36
HETATM   36  N6  UNL     1       4.319   1.794   1.110  1.00  0.00    -0.296 N 
HETATM   37  N7  UNL     1       5.472   1.558   0.637  1.00  0.00    -0.267 N 
HETATM   38  C16 UNL     1       5.696   1.372  -0.754  1.00  0.00     0.266 C 
ATOM     39  H7  UNL     1       6.265   1.500   1.276  1.00  0.00     0.190 HD
HETATM   40  O6  UNL     1       4.997   0.496  -1.334  1.00  0.00    -0.269 OA
ATOM     41  H6  UNL     1       4.244   1.913   2.120  1.00  0.00     0.187 HD
BRANCH  38  42
HETATM   42  C17 UNL     1       6.678   2.128  -1.534  1.00  0.00     0.237 C 
BRANCH  42  43
HETATM   43  O7  UNL     1       7.393   3.022  -0.779  1.00  0.00    -0.384 OA
ATOM     44  H7  UNL     1       8.030   3.512  -1.285  1.00  0.00     0.210 HD
ENDBRANCH  42  43
BRANCH  42  45
HETATM   45  C18 UNL     1       7.630   1.253  -2.291  1.00  0.00     0.271 C 
BRANCH  45  46
HETATM   46  N8  UNL     1       8.470   2.052  -3.170  1.00  0.00    -0.076 N 
ATOM     47  H83 UNL     1       7.916   2.638  -3.794  1.00  0.00     0.274 HD
ATOM     48  H82 UNL     1       8.957   2.790  -2.661  1.00  0.00     0.274 HD
ATOM     49  H81 UNL     1       9.118   1.456  -3.685  1.00  0.00     0.274 HD
ENDBRANCH  45  46
ENDBRANCH  42  45
ENDBRANCH  38  42
ENDBRANCH   9  36
TORSDOF 16
