REMARK  12 active torsions:
REMARK  status: ('A' for Active; 'I' for Inactive)
REMARK    1  A    between atoms: S1_2  and  C2_3 
REMARK    2  A    between atoms: C5_12  and  O1_13 
REMARK    3  A    between atoms: C7_16  and  N5_17 
REMARK    4  A    between atoms: N5_17  and  N6_19 
REMARK    5  A    between atoms: N6_19  and  C8_21 
REMARK    6  A    between atoms: C8_21  and  C9_22 
REMARK    7  A    between atoms: C10_24  and  O3_25 
REMARK    8  A    between atoms: C10_24  and  C11_27 
REMARK    9  A    between atoms: C12_30  and  O6_31 
REMARK   10  A    between atoms: C14_34  and  C15_36 
REMARK   11  A    between atoms: C15_36  and  S3_37 
REMARK   12  A    between atoms: S3_37  and  C16_38 
ROOT
HETATM    1  C2  UNL     1      -3.323   1.995   0.350  1.00  0.00     0.174 C 
HETATM    2  N1  UNL     1      -3.331   1.486   1.576  1.00  0.00    -0.355 N 
ATOM      3  H1  UNL     1      -3.967   1.749   2.329  1.00  0.00     0.163 HD
HETATM    4  C3  UNL     1      -2.265   0.478   1.660  1.00  0.00     0.241 C 
HETATM    5  N2  UNL     1      -2.167   0.093   0.266  1.00  0.00    -0.163 NA
HETATM    6  N3  UNL     1      -2.290   1.370  -0.369  1.00  0.00    -0.189 N 
HETATM    7  N4  UNL     1      -1.437   1.744  -1.394  1.00  0.00    -0.278 N 
ATOM      8  H4  UNL     1      -1.685   2.055  -2.333  1.00  0.00     0.189 HD
HETATM    9  C4  UNL     1      -0.081   1.589  -0.814  1.00  0.00     0.095 A 
HETATM   10  C5  UNL     1       0.854   2.564  -0.903  1.00  0.00     0.096 A 
HETATM   11  C6  UNL     1       2.075   2.341  -0.272  1.00  0.00     0.072 A 
HETATM   12  C7  UNL     1       2.309   1.180   0.408  1.00  0.00     0.084 A 
HETATM   13  C12 UNL     1       1.332   0.159   0.503  1.00  0.00     0.105 A 
HETATM   14  C13 UNL     1       0.133   0.383  -0.121  1.00  0.00     0.045 A 
HETATM   15  C14 UNL     1      -1.006  -0.526  -0.194  1.00  0.00     0.135 C 
HETATM   16  S2  UNL     1      -1.327  -0.546  -2.093  1.00  0.00    -0.061 SA
ENDROOT
BRANCH  12  17
HETATM   17  N5  UNL     1       3.575   0.963   1.060  1.00  0.00    -0.297 N 
ATOM     18  H5  UNL     1       4.262   1.715   0.997  1.00  0.00     0.187 HD
BRANCH  17  19
HETATM   19  N6  UNL     1       3.938  -0.141   1.746  1.00  0.00    -0.295 N 
ATOM     20  H6  UNL     1       3.535  -0.270   2.674  1.00  0.00     0.187 HD
BRANCH  19  21
HETATM   21  C8  UNL     1       4.770  -1.064   1.313  1.00  0.00     0.126 C 
HETATM   22  C10 UNL     1       5.367  -0.958   0.032  1.00  0.00     0.174 C 
BRANCH  21  23
HETATM   23  C9  UNL     1       4.971  -2.132   2.264  1.00  0.00     0.292 C 
HETATM   24  O2  UNL     1       5.699  -3.123   2.111  1.00  0.00    -0.300 OA
ENDBRANCH  21  23
BRANCH  22  25
HETATM   25  O3  UNL     1       5.008   0.117  -0.642  1.00  0.00    -0.353 OA
ATOM     26  H3  UNL     1       5.408   0.188  -1.501  1.00  0.00     0.218 HD
ENDBRANCH  22  25
BRANCH  22  27
HETATM   27  C11 UNL     1       6.285  -1.822  -0.637  1.00  0.00     0.236 C 
HETATM   28  O4  UNL     1       6.775  -2.874  -0.237  1.00  0.00    -0.642 OA
HETATM   29  O5  UNL     1       6.707  -1.446  -1.939  1.00  0.00    -0.642 OA
ENDBRANCH  22  27
ENDBRANCH  19  21
ENDBRANCH  17  19
ENDBRANCH  12  17
BRANCH  13  30
HETATM   30  O6  UNL     1       1.696  -0.926   1.203  1.00  0.00    -0.358 OA
ATOM     31  H6  UNL     1       1.041  -1.611   1.267  1.00  0.00     0.217 HD
ENDBRANCH  13  30
BRANCH  10  32
HETATM   32  O1  UNL     1       0.603   3.740  -1.599  1.00  0.00    -0.358 OA
ATOM     33  H1  UNL     1       1.259   4.424  -1.661  1.00  0.00     0.217 HD
ENDBRANCH  10  32
BRANCH  15  34
HETATM   34  C15 UNL     1      -0.789  -1.975   0.081  1.00  0.00     0.127 C 
BRANCH  34  35
HETATM   35  S3  UNL     1      -2.033  -2.995  -0.716  1.00  0.00    -0.090 SA
BRANCH  35  36
HETATM   36  C16 UNL     1      -3.659  -2.968  -0.135  1.00  0.00     0.182 C 
HETATM   37  C17 UNL     1      -4.675  -3.795  -0.926  1.00  0.00     0.104 C 
HETATM   38  O7  UNL     1      -4.081  -2.363   0.834  1.00  0.00    -0.286 OA
ENDBRANCH  35  36
ENDBRANCH  34  35
ENDBRANCH  15  34
BRANCH   1  39
HETATM   39  S1  UNL     1      -4.465   3.253  -0.167  1.00  0.00    -0.096 SA
HETATM   40  C1  UNL     1      -5.599   3.728   1.137  1.00  0.00     0.099 C 
ENDBRANCH   1  39
TORSDOF 12
