REMARK  11 active torsions:
REMARK  status: ('A' for Active; 'I' for Inactive)
REMARK    1  A    between atoms: C2_2  and  C3_3 
REMARK    2  A    between atoms: C3_3  and  N1_4 
REMARK    3  A    between atoms: N1_4  and  C4_5 
REMARK    4  A    between atoms: N1_4  and  C6_9 
REMARK    5  A    between atoms: C4_5  and  C5_6 
REMARK    6  A    between atoms: C5_6  and  O1_7 
REMARK    7  A    between atoms: C7_12  and  N3_13 
REMARK    8  A    between atoms: C9_15  and  C10_16 
REMARK    9  A    between atoms: C10_16  and  N4_17 
REMARK   10  A    between atoms: C19_36  and  N11_37 
REMARK   11  A    between atoms: C20_42  and  N13_43 
ROOT
HETATM    1  C6  UNL     1      -2.359  -0.864   0.381  1.00  0.00     0.148 A 
HETATM    2  N2  UNL     1      -1.081  -1.280   0.570  1.00  0.00    -0.173 N 
ATOM      3  H2  UNL     1      -0.905  -2.253   0.821  1.00  0.00     0.186 HD
HETATM    4  C7  UNL     1      -0.045  -0.441   0.434  1.00  0.00     0.704 A 
HETATM    5  N8  UNL     1      -0.294   0.845   0.101  1.00  0.00    -0.186 N 
ATOM      6  H8  UNL     1       0.488   1.491  -0.004  1.00  0.00     0.184 HD
HETATM    7  C16 UNL     1      -1.547   1.295  -0.095  1.00  0.00     0.106 A 
HETATM    8  C17 UNL     1      -1.768   2.591  -0.433  1.00  0.00     0.105 A 
HETATM    9  N9  UNL     1      -0.694   3.519  -0.588  1.00  0.00    -0.097 NA
HETATM   10  C18 UNL     1      -3.066   3.026  -0.633  1.00  0.00     0.106 A 
HETATM   11  N10 UNL     1      -3.282   4.323  -0.971  1.00  0.00    -0.188 N 
ATOM     12  H10 UNL     1      -2.492   4.960  -1.074  1.00  0.00     0.184 HD
HETATM   13  C19 UNL     1      -4.526   4.766  -1.169  1.00  0.00     0.678 A 
HETATM   14  N12 UNL     1      -5.532   3.893  -1.023  1.00  0.00    -0.175 N 
ATOM     15  H12 UNL     1      -6.480   4.236  -1.176  1.00  0.00     0.186 HD
HETATM   16  C20 UNL     1      -5.387   2.618  -0.695  1.00  0.00     0.144 A 
HETATM   17  C21 UNL     1      -4.119   2.135  -0.486  1.00  0.00     0.107 A 
HETATM   18  N14 UNL     1      -3.884   0.844  -0.148  1.00  0.00    -0.346 N 
ATOM     19  H14 UNL     1      -4.661   0.192  -0.041  1.00  0.00     0.166 HD
HETATM   20  C22 UNL     1      -2.636   0.432   0.043  1.00  0.00     0.107 A 
ENDROOT
BRANCH   4  21
HETATM   21  N3  UNL     1       1.287  -0.899   0.637  1.00  0.00    -0.080 N 
HETATM   22  C8  UNL     1       2.387  -0.696  -0.109  1.00  0.00     0.160 A 
HETATM   23  C9  UNL     1       3.477  -1.343   0.482  1.00  0.00     0.059 A 
HETATM   24  N6  UNL     1       2.949  -1.916   1.587  1.00  0.00    -0.284 N 
HETATM   25  N7  UNL     1       1.653  -1.644   1.665  1.00  0.00    -0.001 NA
ATOM     26  H6  UNL     1       3.471  -2.475   2.262  1.00  0.00     0.184 HD
BRANCH  23  27
HETATM   27  C10 UNL     1       4.878  -1.384   0.001  1.00  0.00     0.177 C 
BRANCH  27  28
HETATM   28  N4  UNL     1       5.689  -0.539   0.798  1.00  0.00    -0.401 N 
HETATM   29  C11 UNL     1       5.383   0.840   0.830  1.00  0.00     0.161 C 
HETATM   30  C12 UNL     1       6.274   1.678  -0.025  1.00  0.00     0.075 C 
HETATM   31  N5  UNL     1       7.433   1.111  -0.549  1.00  0.00    -0.395 N 
HETATM   32  C13 UNL     1       7.976  -0.045   0.051  1.00  0.00     0.094 C 
ATOM     33  H5  UNL     1       7.887   1.529  -1.361  1.00  0.00     0.159 HD
HETATM   34  C14 UNL     1       8.574  -0.911  -1.053  1.00  0.00     0.034 C 
HETATM   35  C15 UNL     1       7.066  -0.873   0.872  1.00  0.00     0.142 C 
ENDBRANCH  27  28
ENDBRANCH  23  27
ENDBRANCH   4  21
BRANCH   1  36
HETATM   36  N1  UNL     1      -3.393  -1.852   0.564  1.00  0.00    -0.363 N 
BRANCH  36  37
HETATM   37  C3  UNL     1      -3.303  -3.039  -0.229  1.00  0.00     0.124 C 
BRANCH  37  38
HETATM   38  C2  UNL     1      -4.318  -3.232  -1.291  1.00  0.00     0.015 C 
HETATM   39  C1  UNL     1      -5.709  -3.314  -0.756  1.00  0.00     0.006 C 
ENDBRANCH  37  38
ENDBRANCH  36  37
BRANCH  36  40
HETATM   40  C4  UNL     1      -4.416  -1.559   1.526  1.00  0.00     0.150 C 
BRANCH  40  41
HETATM   41  C5  UNL     1      -4.298  -2.514   2.723  1.00  0.00     0.183 C 
BRANCH  41  42
HETATM   42  O1  UNL     1      -5.305  -2.194   3.625  1.00  0.00    -0.399 OA
ATOM     43  H1  UNL     1      -5.232  -2.785   4.365  1.00  0.00     0.209 HD
ENDBRANCH  41  42
ENDBRANCH  40  41
ENDBRANCH  36  40
ENDBRANCH   1  36
BRANCH  16  44
HETATM   44  N13 UNL     1      -6.399   1.801  -0.564  1.00  0.00    -0.383 N 
ATOM     45 2H13 UNL     1      -7.341   2.160  -0.719  1.00  0.00     0.157 HD
ATOM     46 1H13 UNL     1      -6.287   0.819  -0.311  1.00  0.00     0.157 HD
ENDBRANCH  16  44
BRANCH  13  47
HETATM   47  N11 UNL     1      -4.771   5.995  -1.493  1.00  0.00    -0.234 N 
ATOM     48 2H11 UNL     1      -4.005   6.660  -1.604  1.00  0.00     0.174 HD
ATOM     49 1H11 UNL     1      -5.721   6.333  -1.644  1.00  0.00     0.174 HD
ENDBRANCH  13  47
TORSDOF 11
