REMARK  12 active torsions:
REMARK  status: ('A' for Active; 'I' for Inactive)
REMARK    1  A    between atoms: C2_5  and  N3_6 
REMARK    2  A    between atoms: N3_6  and  N4_8 
REMARK    3  A    between atoms: C3_13  and  N6_14 
REMARK    4  A    between atoms: N6_14  and  N7_15 
REMARK    5  A    between atoms: C4_17  and  C5_18 
REMARK    6  A    between atoms: C6_21  and  N9_22 
REMARK    7  A    between atoms: N9_22  and  C7_24 
REMARK    8  A    between atoms: C7_24  and  C8_25 
REMARK    9  A    between atoms: C11_28  and  C12_29 
REMARK   10  A    between atoms: C12_29  and  O1_30 
REMARK   11  A    between atoms: C17_41  and  N12_42 
REMARK   12  A    between atoms: C19_46  and  N13_47 
ROOT
HETATM    1  C5  UNL     1       2.510  -1.706  -0.833  1.00  0.00     0.085 A 
HETATM    2  N8  UNL     1       1.155  -1.603  -0.644  1.00  0.00    -0.338 N 
ATOM      3  H8  UNL     1       0.542  -1.589  -1.459  1.00  0.00     0.167 HD
HETATM    4  C6  UNL     1       0.593  -1.517   0.620  1.00  0.00     0.135 A 
HETATM    5  C17 UNL     1       1.428  -1.540   1.735  1.00  0.00     0.148 A 
HETATM    6  C18 UNL     1       2.802  -1.672   1.480  1.00  0.00     0.078 A 
HETATM    7  C19 UNL     1       3.359  -1.767   0.230  1.00  0.00     0.133 A 
ENDROOT
BRANCH   4   8
HETATM    8  N9  UNL     1      -0.812  -1.327   0.719  1.00  0.00    -0.370 N 
ATOM      9  H9  UNL     1      -1.210  -0.988   1.595  1.00  0.00     0.161 HD
BRANCH   8  10
HETATM   10  C7  UNL     1      -1.688  -1.603  -0.394  1.00  0.00     0.161 C 
BRANCH  10  11
HETATM   11  C8  UNL     1      -3.009  -0.960  -0.232  1.00  0.00    -0.025 A 
HETATM   12  C9  UNL     1      -3.344  -0.188   0.841  1.00  0.00     0.012 A 
HETATM   13  C10 UNL     1      -4.598   0.467   0.840  1.00  0.00     0.029 A 
HETATM   14  C11 UNL     1      -5.458   0.339  -0.191  1.00  0.00     0.045 A 
HETATM   15  N11 UNL     1      -5.105  -0.421  -1.224  1.00  0.00    -0.366 N 
HETATM   16  C16 UNL     1      -3.921  -1.072  -1.280  1.00  0.00     0.097 A 
ATOM     17  H11 UNL     1      -5.754  -0.517  -2.005  1.00  0.00     0.165 HD
BRANCH  14  18
HETATM   18  C12 UNL     1      -6.733   1.086  -0.129  1.00  0.00     0.125 C 
HETATM   19  C13 UNL     1      -7.889   0.377   0.479  1.00  0.00     0.073 C 
HETATM   20  C14 UNL     1      -9.133   0.984  -0.320  1.00  0.00     0.235 C 
HETATM   21  N10 UNL     1      -8.542   1.902  -1.271  1.00  0.00    -0.072 N 
HETATM   22  C15 UNL     1      -7.242   1.363  -1.514  1.00  0.00     0.276 C 
ATOM     23 2H10 UNL     1      -9.099   2.048  -2.113  1.00  0.00     0.277 HD
ATOM     24 1H10 UNL     1      -8.541   2.876  -0.968  1.00  0.00     0.277 HD
BRANCH  18  25
HETATM   25  O1  UNL     1      -6.574   2.317   0.472  1.00  0.00    -0.382 OA
ATOM     26  H1  UNL     1      -7.393   2.797   0.512  1.00  0.00     0.211 HD
ENDBRANCH  18  25
ENDBRANCH  14  18
ENDBRANCH  10  11
ENDBRANCH   8  10
ENDBRANCH   4   8
BRANCH   5  27
HETATM   27  N12 UNL     1       0.991  -1.349   3.054  1.00  0.00    -0.112 N 
HETATM   28  O2  UNL     1       0.055  -0.718   3.408  1.00  0.00    -0.532 OA
HETATM   29  O3  UNL     1       1.818  -1.984   4.017  1.00  0.00    -0.532 OA
ENDBRANCH   5  27
BRANCH   1  30
HETATM   30  C4  UNL     1       2.987  -1.194  -2.111  1.00  0.00     0.153 C 
HETATM   31  N7  UNL     1       3.971  -0.447  -2.363  1.00  0.00    -0.241 N 
ATOM     32  H7  UNL     1       4.029  -0.279  -3.367  1.00  0.00     0.201 HD
BRANCH  31  33
HETATM   33  N6  UNL     1       4.898   0.154  -1.778  1.00  0.00    -0.286 NA
BRANCH  33  34
HETATM   34  C3  UNL     1       5.824   0.718  -1.214  1.00  0.00     0.312 A 
HETATM   35  N1  UNL     1       5.907   1.902  -0.509  1.00  0.00    -0.238 N 
HETATM   36  C1  UNL     1       4.819   2.900  -0.456  1.00  0.00     0.183 C 
HETATM   37  N2  UNL     1       7.060   1.984   0.066  1.00  0.00    -0.125 N 
HETATM   38  C2  UNL     1       7.788   0.901  -0.175  1.00  0.00     0.714 A 
ATOM     39  H2  UNL     1       7.370   2.775   0.630  1.00  0.00     0.206 HD
HETATM   40  N5  UNL     1       7.087   0.120  -0.956  1.00  0.00    -0.143 N 
ATOM     41  H5  UNL     1       7.399  -0.779  -1.323  1.00  0.00     0.188 HD
BRANCH  38  42
HETATM   42  N3  UNL     1       8.942   0.624   0.358  1.00  0.00    -0.137 N 
ATOM     43  H3  UNL     1       9.366   1.261   1.032  1.00  0.00     0.205 HD
BRANCH  42  44
HETATM   44  N4  UNL     1       9.585  -0.543  -0.000  1.00  0.00    -0.331 N 
ATOM     45  H42 UNL     1       9.148  -1.170  -0.675  1.00  0.00     0.177 HD
ATOM     46  H41 UNL     1      10.490  -0.760   0.418  1.00  0.00     0.177 HD
ENDBRANCH  42  44
ENDBRANCH  38  42
ENDBRANCH  33  34
ENDBRANCH  31  33
ENDBRANCH   1  30
BRANCH   7  47
HETATM   47  N13 UNL     1       4.718  -2.175   0.176  1.00  0.00    -0.113 N 
HETATM   48  O4  UNL     1       5.144  -2.880  -0.749  1.00  0.00    -0.532 OA
HETATM   49  O5  UNL     1       5.549  -1.858   1.274  1.00  0.00    -0.532 OA
ENDBRANCH   7  47
TORSDOF 12
