REMARK  12 active torsions:
REMARK  status: ('A' for Active; 'I' for Inactive)
REMARK    1  A    between atoms: C2_2  and  O1_3 
REMARK    2  A    between atoms: O1_3  and  C3_4 
REMARK    3  A    between atoms: C3_4  and  C4_6 
REMARK    4  A    between atoms: C4_6  and  C5_7 
REMARK    5  A    between atoms: C5_7  and  O3_8 
REMARK    6  A    between atoms: C5_7  and  C6_10 
REMARK    7  A    between atoms: C6_10  and  N1_11 
REMARK    8  A    between atoms: N2_14  and  C8_15 
REMARK    9  A    between atoms: C12_19  and  N3_20 
REMARK       I    between atoms: N3_20  and  C13_22 
REMARK       I    between atoms: C13_22  and  N4_24 
REMARK   10  A    between atoms: N4_24  and  N5_26 
REMARK   11  A    between atoms: C14_29  and  N6_30 
REMARK   12  A    between atoms: C17_36  and  N7_37 
ROOT
HETATM    1  N1  UNL     1       1.100  -1.563   0.899  1.00  0.00    -0.288 N 
HETATM    2  C7  UNL     1      -0.185  -1.192   1.140  1.00  0.00     0.337 A 
HETATM    3  O4  UNL     1      -0.387  -0.347   2.050  1.00  0.00    -0.246 OA
HETATM    4  N2  UNL     1      -1.154  -1.744   0.399  1.00  0.00    -0.227 N 
HETATM    5  C15 UNL     1      -0.910  -2.641  -0.563  1.00  0.00     0.273 A 
HETATM    6  O8  UNL     1      -1.864  -3.146  -1.250  1.00  0.00    -0.266 OA
HETATM    7  C16 UNL     1       0.393  -3.063  -0.858  1.00  0.00     0.112 A 
HETATM    8  C17 UNL     1       0.830  -3.940  -1.773  1.00  0.00     0.123 A 
HETATM    9  N8  UNL     1       2.144  -4.167  -1.850  1.00  0.00    -0.310 N 
ATOM     10  H8  UNL     1       2.638  -4.797  -2.482  1.00  0.00     0.176 HD
HETATM   11  S1  UNL     1       2.793  -3.170  -0.659  1.00  0.00     0.007 SA
HETATM   12  C18 UNL     1       1.350  -2.468  -0.072  1.00  0.00     0.116 A 
ENDROOT
BRANCH   4  13
HETATM   13  C8  UNL     1      -2.488  -1.354   0.656  1.00  0.00     0.082 A 
HETATM   14  C9  UNL     1      -3.178  -1.977   1.670  1.00  0.00     0.033 A 
HETATM   15  C10 UNL     1      -4.467  -1.554   1.866  1.00  0.00     0.005 A 
HETATM   16  C11 UNL     1      -5.038  -0.542   1.072  1.00  0.00     0.032 A 
HETATM   17  C12 UNL     1      -4.325   0.067   0.061  1.00  0.00     0.071 A 
HETATM   18  C14 UNL     1      -2.999  -0.366  -0.143  1.00  0.00     0.157 A 
BRANCH  17  19
HETATM   19  N3  UNL     1      -4.849   1.087  -0.760  1.00  0.00    -0.305 N 
HETATM   20  C13 UNL     1      -6.127   1.645  -0.736  1.00  0.00     0.339 C 
HETATM   21  O5  UNL     1      -7.066   1.343   0.028  1.00  0.00    -0.245 OA
HETATM   22  N4  UNL     1      -6.451   2.690  -1.678  1.00  0.00    -0.258 N 
ATOM     23  H4  UNL     1      -5.729   2.988  -2.334  1.00  0.00     0.191 HD
ATOM     24  H3  UNL     1      -4.212   1.465  -1.461  1.00  0.00     0.171 HD
BRANCH  22  25
HETATM   25  N5  UNL     1      -7.687   3.310  -1.741  1.00  0.00    -0.341 N 
ATOM     26  H52 UNL     1      -8.397   2.999  -1.078  1.00  0.00     0.177 HD
ATOM     27  H51 UNL     1      -7.916   4.048  -2.407  1.00  0.00     0.177 HD
ENDBRANCH  22  25
ENDBRANCH  17  19
BRANCH  18  28
HETATM   28  N6  UNL     1      -2.262   0.263  -1.191  1.00  0.00    -0.111 N 
HETATM   29  O6  UNL     1      -1.371   1.073  -0.878  1.00  0.00    -0.532 OA
HETATM   30  O7  UNL     1      -2.478   0.028  -2.520  1.00  0.00    -0.532 OA
ENDBRANCH  18  28
ENDBRANCH   4  13
BRANCH   1  31
HETATM   31  C6  UNL     1       2.178  -0.988   1.681  1.00  0.00     0.166 C 
BRANCH  31  32
HETATM   32  C5  UNL     1       2.733   0.269   1.071  1.00  0.00     0.145 C 
BRANCH  32  33
HETATM   33  C4  UNL     1       3.844   0.757   1.988  1.00  0.00     0.144 C 
BRANCH  33  34
HETATM   34  C3  UNL     1       4.507   1.962   1.465  1.00  0.00     0.261 C 
HETATM   35  O2  UNL     1       3.924   3.062   1.613  1.00  0.00    -0.265 OA
BRANCH  34  36
HETATM   36  O1  UNL     1       5.724   1.878   0.836  1.00  0.00    -0.322 OA
BRANCH  36  37
HETATM   37  C2  UNL     1       6.344   3.041   0.343  1.00  0.00     0.174 C 
HETATM   38  C1  UNL     1       7.664   2.657  -0.295  1.00  0.00     0.034 C 
ENDBRANCH  36  37
ENDBRANCH  34  36
ENDBRANCH  33  34
ENDBRANCH  32  33
BRANCH  32  39
HETATM   39  O3  UNL     1       1.804   1.278   0.961  1.00  0.00    -0.393 OA
ATOM     40  H3  UNL     1       1.110   0.973   0.388  1.00  0.00     0.210 HD
ENDBRANCH  32  39
ENDBRANCH  31  32
ENDBRANCH   1  31
BRANCH   8  41
HETATM   41  N7  UNL     1       0.041  -4.593  -2.602  1.00  0.00    -0.384 N 
ATOM     42  H72 UNL     1      -0.962  -4.420  -2.543  1.00  0.00     0.157 HD
ATOM     43  H71 UNL     1       0.373  -5.260  -3.298  1.00  0.00     0.157 HD
ENDBRANCH   8  41
TORSDOF 12
