REMARK  11 active torsions:
REMARK  status: ('A' for Active; 'I' for Inactive)
REMARK    1  A    between atoms: C2_2  and  C3_3 
REMARK    2  A    between atoms: C3_3  and  N1_4 
REMARK    3  A    between atoms: C4_8  and  C5_9 
REMARK    4  A    between atoms: C6_11  and  N4_12 
REMARK       I    between atoms: N4_12  and  C7_14 
REMARK    5  A    between atoms: C7_14  and  C8_16 
REMARK    6  A    between atoms: C8_16  and  N5_17 
REMARK    7  A    between atoms: C8_16  and  C10_30 
REMARK    8  A    between atoms: N5_17  and  N6_19 
REMARK       I    between atoms: N6_19  and  C9_21 
REMARK       I    between atoms: C9_21  and  N7_22 
REMARK       I    between atoms: C9_21  and  N8_26 
REMARK    9  A    between atoms: N8_26  and  N9_27 
REMARK   10  A    between atoms: C12_33  and  N10_34 
REMARK   11  A    between atoms: C13_40  and  N12_41 
REMARK       I    between atoms: N12_41  and  C14_43 
ROOT
HETATM    1  N4  UNL     1      -1.700   0.413   1.644  1.00  0.00    -0.296 N 
ATOM      2  H4  UNL     1      -2.169   0.730   2.493  1.00  0.00     0.171 HD
HETATM    3  C7  UNL     1      -2.478   0.022   0.566  1.00  0.00     0.278 C 
HETATM    4  O2  UNL     1      -1.930   0.121  -0.587  1.00  0.00    -0.265 OA
ENDROOT
BRANCH   3   5
HETATM    5  C8  UNL     1      -3.819  -0.477   0.614  1.00  0.00     0.143 C 
BRANCH   5   6
HETATM    6  N5  UNL     1      -4.447  -0.815  -0.486  1.00  0.00    -0.295 N 
ATOM      7  H5  UNL     1      -5.402  -1.167  -0.423  1.00  0.00     0.187 HD
BRANCH   6   8
HETATM    8  N6  UNL     1      -3.859  -0.709  -1.711  1.00  0.00    -0.291 N 
HETATM    9  C9  UNL     1      -4.260   0.401  -2.570  1.00  0.00     0.410 C 
HETATM   10  N7  UNL     1      -3.547   0.366  -3.821  1.00  0.00    -0.041 N 
HETATM   11  N8  UNL     1      -5.677   0.287  -2.857  1.00  0.00    -0.092 NA
ATOM     12  H73 UNL     1      -2.537   0.345  -3.679  1.00  0.00     0.278 HD
ATOM     13  H72 UNL     1      -3.655  -0.533  -4.291  1.00  0.00     0.278 HD
ATOM     14  H71 UNL     1      -3.827   1.142  -4.421  1.00  0.00     0.278 HD
ATOM     15  H6  UNL     1      -3.160  -1.385  -2.018  1.00  0.00     0.184 HD
BRANCH  11  16
HETATM   16  N9  UNL     1      -6.432   0.326  -1.696  1.00  0.00    -0.345 N 
ATOM     17  H92 UNL     1      -6.027   0.423  -0.765  1.00  0.00     0.172 HD
ATOM     18  H91 UNL     1      -7.429   0.246  -1.898  1.00  0.00     0.172 HD
ENDBRANCH  11  16
ENDBRANCH   6   8
ENDBRANCH   5   6
BRANCH   5  19
HETATM   19  C10 UNL     1      -4.593  -0.649   1.891  1.00  0.00     0.074 A 
HETATM   20  C11 UNL     1      -4.060  -0.336   3.102  1.00  0.00     0.085 A 
HETATM   21  S1  UNL     1      -5.359  -0.722   4.186  1.00  0.00    -0.064 SA
HETATM   22  C12 UNL     1      -6.473  -1.247   3.027  1.00  0.00     0.142 A 
HETATM   23  N11 UNL     1      -5.826  -1.112   1.879  1.00  0.00    -0.335 N 
ATOM     24  H11 UNL     1      -6.276  -1.363   0.999  1.00  0.00     0.168 HD
BRANCH  22  25
HETATM   25  N10 UNL     1      -7.700  -1.690   3.210  1.00  0.00    -0.380 N 
ATOM     26 2H10 UNL     1      -8.198  -1.794   4.094  1.00  0.00     0.158 HD
ATOM     27 1H10 UNL     1      -8.372  -2.007   2.511  1.00  0.00     0.158 HD
ENDBRANCH  22  25
ENDBRANCH   5  19
ENDBRANCH   3   5
BRANCH   1  28
HETATM   28  C6  UNL     1      -0.383   0.395   1.624  1.00  0.00     0.197 A 
HETATM   29  O1  UNL     1       0.409   0.043   0.688  1.00  0.00    -0.281 OA
HETATM   30  C5  UNL     1       1.672   0.084   0.828  1.00  0.00     0.158 A 
HETATM   31  C13 UNL     1       2.157   0.521   2.022  1.00  0.00     0.118 A 
HETATM   32  S2  UNL     1       0.690   0.846   2.868  1.00  0.00    -0.025 SA
BRANCH  30  33
HETATM   33  C4  UNL     1       2.563  -0.338  -0.295  1.00  0.00     0.171 A 
HETATM   34  N3  UNL     1       2.139  -0.782  -1.504  1.00  0.00    -0.264 N 
HETATM   35  N2  UNL     1       3.210  -1.063  -2.242  1.00  0.00    -0.003 NA
ATOM     36  H3  UNL     1       1.167  -0.883  -1.797  1.00  0.00     0.186 HD
HETATM   37  N1  UNL     1       4.303  -0.812  -1.542  1.00  0.00    -0.216 N 
HETATM   38  N13 UNL     1       3.880  -0.375  -0.369  1.00  0.00    -0.267 N 
ATOM     39  H13 UNL     1       4.500  -0.098   0.392  1.00  0.00     0.190 HD
BRANCH  37  40
HETATM   40  C3  UNL     1       5.685  -0.985  -1.982  1.00  0.00     0.167 C 
BRANCH  40  41
HETATM   41  C2  UNL     1       6.169   0.295  -2.628  1.00  0.00     0.019 C 
HETATM   42  C1  UNL     1       7.585   0.121  -3.081  1.00  0.00     0.007 C 
ENDBRANCH  40  41
ENDBRANCH  37  40
ENDBRANCH  30  33
BRANCH  31  43
HETATM   43  N12 UNL     1       3.505   0.684   2.494  1.00  0.00    -0.319 N 
HETATM   44  C14 UNL     1       3.760   1.164   3.799  1.00  0.00     0.218 C 
HETATM   45  C15 UNL     1       5.138   1.330   4.281  1.00  0.00     0.117 C 
HETATM   46  O3  UNL     1       2.803   1.448   4.546  1.00  0.00    -0.274 OA
ATOM     47  H12 UNL     1       4.286   0.451   1.881  1.00  0.00     0.169 HD
ENDBRANCH  31  43
ENDBRANCH   1  28
TORSDOF 11
