REMARK  3 active torsions:
REMARK  status: ('A' for Active; 'I' for Inactive)
REMARK    1  A    between atoms: N1_2  and  C3_4 
REMARK    2  A    between atoms: C3_4  and  C4_5 
REMARK    3  A    between atoms: N3_10  and  N4_11 
REMARK       I    between atoms: N4_11  and  C8_13 
ROOT
HETATM    1  C4  UNL     1      -0.070   0.275  -0.518  1.00  0.00     0.344 C 
HETATM    2  N2  UNL     1      -0.114   1.621  -0.031  1.00  0.00     0.106 N 
HETATM    3  C5  UNL     1      -1.123   2.445  -0.640  1.00  0.00     0.312 C 
HETATM    4  C6  UNL     1       1.181   2.239  -0.370  1.00  0.00     0.290 C 
HETATM    5  C7  UNL     1       2.072   1.108  -0.766  1.00  0.00     0.146 C 
HETATM    6  N3  UNL     1       1.320  -0.095  -0.429  1.00  0.00    -0.193 NA
ENDROOT
BRANCH   6   7
HETATM    7  N4  UNL     1       1.747  -0.474   0.828  1.00  0.00    -0.291 N 
HETATM    8  C8  UNL     1       2.828  -1.381   0.932  1.00  0.00     0.196 C 
HETATM    9  N5  UNL     1       3.497  -1.556   2.038  1.00  0.00    -0.373 N 
HETATM   10  N6  UNL     1       3.258  -2.164  -0.178  1.00  0.00    -0.063 NA
ATOM     11  H52 UNL     1       3.189  -0.995   2.833  1.00  0.00     0.158 HD
ATOM     12  H51 UNL     1       4.276  -2.210   2.113  1.00  0.00     0.158 HD
ATOM     13  H4  UNL     1       1.293  -0.108   1.664  1.00  0.00     0.183 HD
ENDBRANCH   6   7
BRANCH   1  14
HETATM   14  C3  UNL     1      -0.898  -0.697   0.252  1.00  0.00     0.324 C 
BRANCH  14  15
HETATM   15  N1  UNL     1      -2.304  -0.421   0.279  1.00  0.00     0.083 N 
HETATM   16  C1  UNL     1      -2.971  -0.601  -0.984  1.00  0.00     0.309 C 
HETATM   17  C2  UNL     1      -2.921  -1.332   1.227  1.00  0.00     0.309 C 
ENDBRANCH  14  15
ENDBRANCH   1  14
TORSDOF 3
