REMARK  4 active torsions:
REMARK  status: ('A' for Active; 'I' for Inactive)
REMARK    1  A    between atoms: N1_1  and  N2_4 
REMARK    2  A    between atoms: C1_6  and  C2_7 
REMARK    3  A    between atoms: C1_6  and  N4_15 
REMARK    4  A    between atoms: C2_7  and  C3_8 
ROOT
HETATM    1  N2  UNL     1      -0.810  -1.019  -1.063  1.00  0.00    -0.295 N 
ATOM      2  H2  UNL     1      -1.617  -1.265  -1.636  1.00  0.00     0.187 HD
HETATM    3  C1  UNL     1      -1.086  -0.652   0.114  1.00  0.00     0.103 C 
ENDROOT
BRANCH   3   4
HETATM    4  C2  UNL     1      -0.192  -0.235   1.188  1.00  0.00     0.135 C 
BRANCH   4   5
HETATM    5  C3  UNL     1       1.240  -0.235   0.899  1.00  0.00     0.016 A 
HETATM    6  C4  UNL     1       1.805   0.908   0.374  1.00  0.00     0.025 A 
HETATM    7  C5  UNL     1       3.146   1.008   0.074  1.00  0.00     0.003 A 
HETATM    8  C6  UNL     1       3.943  -0.082   0.313  1.00  0.00     0.017 A 
HETATM    9  C7  UNL     1       3.373  -1.220   0.838  1.00  0.00     0.088 A 
HETATM   10  N3  UNL     1       2.060  -1.282   1.118  1.00  0.00    -0.369 N 
ATOM     11  H3  UNL     1       1.674  -2.143   1.506  1.00  0.00     0.165 HD
ENDBRANCH   4   5
ENDBRANCH   3   4
BRANCH   3  12
HETATM   12  N4  UNL     1      -2.502  -0.646   0.440  1.00  0.00    -0.321 N 
HETATM   13  C8  UNL     1      -3.286   0.217  -0.121  1.00  0.00     0.202 C 
HETATM   14  N5  UNL     1      -2.746   1.134  -1.039  1.00  0.00    -0.066 NA
HETATM   15  N6  UNL     1      -4.671   0.272   0.156  1.00  0.00    -0.066 NA
ATOM     16  H4  UNL     1      -2.876  -1.319   1.108  1.00  0.00     0.169 HD
ENDBRANCH   3  12
BRANCH   1  17
HETATM   17  N1  UNL     1       0.401  -1.139  -1.692  1.00  0.00    -0.344 N 
ATOM     18  H12 UNL     1       1.195  -0.888  -1.102  1.00  0.00     0.176 HD
ATOM     19  H11 UNL     1       0.624  -1.435  -2.642  1.00  0.00     0.176 HD
ENDBRANCH   1  17
TORSDOF 4
