REMARK  12 active torsions:
REMARK  status: ('A' for Active; 'I' for Inactive)
REMARK    1  A    between atoms: C2_2  and  O1_4 
REMARK    2  A    between atoms: O1_4  and  C4_5 
REMARK    3  A    between atoms: C4_5  and  O2_6 
REMARK    4  A    between atoms: N1_8  and  C5_10 
REMARK    5  A    between atoms: C5_10  and  C6_11 
REMARK    6  A    between atoms: C6_11  and  C7_12 
REMARK    7  A    between atoms: C7_12  and  C8_13 
REMARK    8  A    between atoms: C8_13  and  O3_14 
REMARK    9  A    between atoms: C8_13  and  N2_16 
REMARK   10  A    between atoms: C9_18  and  C10_19 
REMARK   11  A    between atoms: C11_22  and  O6_23 
REMARK   12  A    between atoms: C11_22  and  N3_25 
ROOT
HETATM    1  C5  UNL     1       0.123  -0.429   0.856  1.00  0.00     0.064 C 
HETATM    2  C11 UNL     1      -0.516  -1.644   1.256  1.00  0.00     0.161 C 
ENDROOT
BRANCH   1   3
HETATM    3  N1  UNL     1      -0.699   0.480   0.100  1.00  0.00    -0.316 N 
HETATM    4  C4  UNL     1      -1.302   1.612   0.550  1.00  0.00     0.263 C 
ATOM      5  H1  UNL     1      -0.845   0.249  -0.883  1.00  0.00     0.170 HD
BRANCH   4   6
HETATM    6  O1  UNL     1      -2.083   2.468  -0.098  1.00  0.00    -0.312 OA
BRANCH   6   7
HETATM    7  C2  UNL     1      -2.760   3.620   0.249  1.00  0.00     0.124 C 
HETATM    8  C1  UNL     1      -4.249   3.394   0.111  1.00  0.00     0.040 C 
HETATM    9  C3  UNL     1      -2.409   4.781  -0.688  1.00  0.00     0.040 C 
ENDBRANCH   6   7
ENDBRANCH   4   6
BRANCH   4  10
HETATM   10  O2  UNL     1      -1.117   1.925   1.842  1.00  0.00    -0.327 OA
ATOM     11  H2  UNL     1      -0.558   1.312   2.306  1.00  0.00     0.221 HD
ENDBRANCH   4  10
ENDBRANCH   1   3
BRANCH   1  12
HETATM   12  C6  UNL     1       1.570  -0.392   0.622  1.00  0.00     0.066 C 
BRANCH  12  13
HETATM   13  C7  UNL     1       2.000  -0.638  -0.773  1.00  0.00     0.059 C 
BRANCH  13  14
HETATM   14  C8  UNL     1       3.470  -0.530  -0.991  1.00  0.00     0.217 C 
BRANCH  14  15
HETATM   15  O3  UNL     1       4.101  -1.495  -0.175  1.00  0.00    -0.377 OA
ATOM     16  H3  UNL     1       5.038  -1.426  -0.314  1.00  0.00     0.212 HD
ENDBRANCH  14  15
BRANCH  14  17
HETATM   17  N2  UNL     1       4.071   0.757  -0.716  1.00  0.00    -0.367 N 
HETATM   18  C9  UNL     1       5.196   0.766  -0.044  1.00  0.00     0.170 C 
ATOM     19  H2  UNL     1       3.636   1.624  -1.033  1.00  0.00     0.161 HD
BRANCH  18  20
HETATM   20  C10 UNL     1       5.899   1.972   0.297  1.00  0.00     0.214 C 
HETATM   21  O4  UNL     1       6.999   1.939   0.975  1.00  0.00    -0.644 OA
HETATM   22  O5  UNL     1       5.509   3.257  -0.027  1.00  0.00    -0.644 OA
ENDBRANCH  18  20
ENDBRANCH  14  17
ENDBRANCH  13  14
ENDBRANCH  12  13
ENDBRANCH   1  12
BRANCH   2  23
HETATM   23  O6  UNL     1      -0.844  -1.664   2.569  1.00  0.00    -0.345 OA
ATOM     24  H6  UNL     1      -1.269  -2.471   2.835  1.00  0.00     0.219 HD
ENDBRANCH   2  23
BRANCH   2  25
HETATM   25  N3  UNL     1      -0.899  -2.796   0.610  1.00  0.00    -0.360 N 
HETATM   26  C12 UNL     1      -0.888  -3.198  -0.814  1.00  0.00     0.125 C 
HETATM   27  C13 UNL     1      -2.410  -3.352  -0.966  1.00  0.00     0.021 C 
HETATM   28  C14 UNL     1      -2.766  -4.147   0.272  1.00  0.00     0.021 C 
HETATM   29  C15 UNL     1      -1.552  -3.968   1.208  1.00  0.00     0.125 C 
ENDBRANCH   2  25
TORSDOF 12
