REMARK  9 active torsions:
REMARK  status: ('A' for Active; 'I' for Inactive)
REMARK    1  A    between atoms: C2_2  and  N1_3 
REMARK    2  A    between atoms: C2_2  and  C10_14 
REMARK    3  A    between atoms: N1_3  and  N2_4 
REMARK       I    between atoms: N2_4  and  C3_6 
REMARK    4  A    between atoms: C3_6  and  C4_8 
REMARK       I    between atoms: C10_14  and  N3_16 
REMARK    5  A    between atoms: N3_16  and  C11_18 
REMARK    6  A    between atoms: C11_18  and  C12_19 
REMARK    7  A    between atoms: C11_18  and  C14_23 
REMARK    8  A    between atoms: C12_19  and  C13_20 
REMARK    9  A    between atoms: C14_23  and  O5_26 
ROOT
HETATM    1  C10 UNL     1      -0.851  -0.103  -0.165  1.00  0.00     0.280 C 
HETATM    2  O2  UNL     1      -0.507   0.294  -1.299  1.00  0.00    -0.265 OA
HETATM    3  N3  UNL     1      -2.139  -0.208   0.316  1.00  0.00    -0.347 N 
ATOM      4  H3  UNL     1      -2.188  -0.574   1.267  1.00  0.00     0.163 HD
ENDROOT
BRANCH   1   5
HETATM    5  C2  UNL     1       0.292  -0.489   0.721  1.00  0.00     0.172 C 
HETATM    6  C1  UNL     1      -0.084  -0.964   2.111  1.00  0.00     0.093 C 
BRANCH   5   7
HETATM    7  N1  UNL     1       1.392  -0.423   0.364  1.00  0.00    -0.322 NA
BRANCH   7   8
HETATM    8  N2  UNL     1       2.597  -0.332  -0.076  1.00  0.00    -0.198 N 
HETATM    9  C3  UNL     1       3.568   0.464   0.660  1.00  0.00     0.280 C 
HETATM   10  O1  UNL     1       3.231   1.053   1.708  1.00  0.00    -0.265 OA
ATOM     11  H2  UNL     1       2.870  -0.813  -0.933  1.00  0.00     0.205 HD
BRANCH   9  12
HETATM   12  C4  UNL     1       4.935   0.581   0.189  1.00  0.00     0.034 A 
HETATM   13  C5  UNL     1       5.509  -0.181  -0.800  1.00  0.00     0.017 A 
HETATM   14  C6  UNL     1       6.836  -0.011  -1.211  1.00  0.00     0.001 A 
HETATM   15  C7  UNL     1       7.624   0.942  -0.628  1.00  0.00     0.000 A 
HETATM   16  C8  UNL     1       7.071   1.719   0.366  1.00  0.00     0.001 A 
HETATM   17  C9  UNL     1       5.772   1.549   0.765  1.00  0.00     0.017 A 
ENDBRANCH   9  12
ENDBRANCH   7   8
ENDBRANCH   5   7
ENDBRANCH   1   5
BRANCH   3  18
HETATM   18  C11 UNL     1      -3.413   0.090  -0.242  1.00  0.00     0.128 C 
BRANCH  18  19
HETATM   19  C12 UNL     1      -3.397   0.827  -1.578  1.00  0.00     0.141 C 
BRANCH  19  20
HETATM   20  C13 UNL     1      -2.803   2.176  -1.436  1.00  0.00     0.174 C 
HETATM   21  O3  UNL     1      -2.539   2.618  -0.288  1.00  0.00    -0.648 OA
HETATM   22  O4  UNL     1      -2.543   2.939  -2.544  1.00  0.00    -0.648 OA
ENDBRANCH  19  20
ENDBRANCH  18  19
BRANCH  18  23
HETATM   23  C14 UNL     1      -4.370  -1.047  -0.189  1.00  0.00     0.071 C 
HETATM   24  C15 UNL     1      -3.883  -2.266  -0.929  1.00  0.00     0.047 C 
HETATM   25  C16 UNL     1      -4.710  -1.428   1.258  1.00  0.00     0.047 C 
BRANCH  23  26
HETATM   26  O5  UNL     1      -5.620  -0.706  -0.756  1.00  0.00    -0.389 OA
ATOM     27  H5  UNL     1      -6.231  -1.432  -0.722  1.00  0.00     0.210 HD
ENDBRANCH  23  26
ENDBRANCH  18  23
ENDBRANCH   3  18
TORSDOF 9
