REMARK  15 active torsions:
REMARK  status: ('A' for Active; 'I' for Inactive)
REMARK    1  A    between atoms: N1_1  and  C1_5 
REMARK    2  A    between atoms: C1_5  and  C2_6 
REMARK    3  A    between atoms: C2_6  and  C3_7 
REMARK    4  A    between atoms: C3_7  and  C4_8 
REMARK    5  A    between atoms: C4_8  and  C5_9 
REMARK    6  A    between atoms: C5_9  and  C6_10 
REMARK    7  A    between atoms: C6_10  and  C7_11 
REMARK    8  A    between atoms: C7_11  and  C8_12 
REMARK    9  A    between atoms: C12_16  and  C13_17 
REMARK   10  A    between atoms: C13_17  and  C14_18 
REMARK   11  A    between atoms: C14_18  and  C15_19 
REMARK   12  A    between atoms: C15_19  and  C16_20 
REMARK   13  A    between atoms: C16_20  and  N2_21 
REMARK   14  A    between atoms: N2_21  and  C17_23 
REMARK   15  A    between atoms: C21_29  and  C22_30 
ROOT
HETATM    1  C16 UNL     1      -2.965  -1.854   1.537  1.00  0.00     0.121 C 
ENDROOT
BRANCH   1   2
HETATM    2  C15 UNL     1      -2.159  -2.532   0.463  1.00  0.00     0.020 C 
BRANCH   2   3
HETATM    3  C14 UNL     1      -1.663  -1.570  -0.559  1.00  0.00     0.006 C 
BRANCH   3   4
HETATM    4  C13 UNL     1      -0.731  -0.511  -0.088  1.00  0.00     0.038 C 
BRANCH   4   5
HETATM    5  C12 UNL     1       0.540  -0.975   0.469  1.00  0.00    -0.058 A 
HETATM    6  C11 UNL     1       0.724  -1.216   1.800  1.00  0.00     0.007 A 
HETATM    7  C10 UNL     1       1.924  -1.661   2.329  1.00  0.00     0.001 A 
HETATM    8  C9  UNL     1       2.990  -1.876   1.496  1.00  0.00     0.007 A 
HETATM    9  C8  UNL     1       2.848  -1.645   0.147  1.00  0.00    -0.058 A 
HETATM   10  C29 UNL     1       1.624  -1.195  -0.364  1.00  0.00     0.014 A 
BRANCH   9  11
HETATM   11  C7  UNL     1       3.978  -1.868  -0.775  1.00  0.00     0.038 C 
BRANCH  11  12
HETATM   12  C6  UNL     1       4.838  -0.665  -1.012  1.00  0.00     0.005 C 
BRANCH  12  13
HETATM   13  C5  UNL     1       5.443  -0.181   0.274  1.00  0.00     0.000 C 
BRANCH  13  14
HETATM   14  C4  UNL     1       6.326   1.022   0.134  1.00  0.00     0.000 C 
BRANCH  14  15
HETATM   15  C3  UNL     1       7.478   0.712  -0.788  1.00  0.00     0.002 C 
BRANCH  15  16
HETATM   16  C2  UNL     1       8.369   1.936  -0.921  1.00  0.00     0.027 C 
BRANCH  16  17
HETATM   17  C1  UNL     1       8.941   2.376   0.408  1.00  0.00     0.229 C 
BRANCH  17  18
HETATM   18  N1  UNL     1       9.774   3.549   0.143  1.00  0.00    -0.079 N 
ATOM     19  H13 UNL     1      10.488   3.383  -0.566  1.00  0.00     0.274 HD
ATOM     20  H12 UNL     1       9.276   4.293  -0.346  1.00  0.00     0.274 HD
ATOM     21  H11 UNL     1      10.160   3.846   1.039  1.00  0.00     0.274 HD
ENDBRANCH  17  18
ENDBRANCH  16  17
ENDBRANCH  15  16
ENDBRANCH  14  15
ENDBRANCH  13  14
ENDBRANCH  12  13
ENDBRANCH  11  12
ENDBRANCH   9  11
ENDBRANCH   4   5
ENDBRANCH   3   4
ENDBRANCH   2   3
ENDBRANCH   1   2
BRANCH   1  22
HETATM   22  N2  UNL     1      -4.143  -1.171   1.033  1.00  0.00    -0.376 N 
ATOM     23  H2  UNL     1      -4.186  -0.154   1.100  1.00  0.00     0.161 HD
BRANCH  22  24
HETATM   24  C17 UNL     1      -5.235  -1.861   0.452  1.00  0.00     0.115 A 
HETATM   25  N3  UNL     1      -5.246  -3.197   0.599  1.00  0.00    -0.352 N 
HETATM   26  C18 UNL     1      -6.268  -3.965   0.228  1.00  0.00     0.089 A 
ATOM     27  H3  UNL     1      -4.430  -3.645   1.016  1.00  0.00     0.166 HD
HETATM   28  C19 UNL     1      -7.380  -3.387  -0.337  1.00  0.00     0.018 A 
HETATM   29  C20 UNL     1      -7.390  -2.032  -0.499  1.00  0.00     0.020 A 
HETATM   30  C21 UNL     1      -6.299  -1.232  -0.103  1.00  0.00     0.052 A 
BRANCH  30  31
HETATM   31  C22 UNL     1      -6.375   0.190  -0.458  1.00  0.00     0.120 A 
HETATM   32  N4  UNL     1      -7.555   0.874  -0.591  1.00  0.00    -0.340 N 
HETATM   33  C23 UNL     1      -7.313   2.157  -0.864  1.00  0.00     0.060 A 
ATOM     34  H4  UNL     1      -8.483   0.462  -0.495  1.00  0.00     0.167 HD
HETATM   35  C24 UNL     1      -8.134   3.266  -1.089  1.00  0.00     0.032 A 
HETATM   36  C28 UNL     1      -5.948   2.272  -0.902  1.00  0.00     0.060 A 
HETATM   37  C25 UNL     1      -7.553   4.485  -1.351  1.00  0.00     0.002 A 
HETATM   38  C26 UNL     1      -6.182   4.579  -1.384  1.00  0.00     0.002 A 
HETATM   39  C27 UNL     1      -5.355   3.513  -1.168  1.00  0.00     0.032 A 
HETATM   40  N5  UNL     1      -5.427   1.062  -0.653  1.00  0.00    -0.340 N 
ATOM     41  H5  UNL     1      -4.429   0.854  -0.621  1.00  0.00     0.167 HD
ENDBRANCH  30  31
ENDBRANCH  22  24
ENDBRANCH   1  22
TORSDOF 15
