REMARK  13 active torsions:
REMARK  status: ('A' for Active; 'I' for Inactive)
REMARK    1  A    between atoms: C9_11  and  C10_12 
REMARK    2  A    between atoms: C10_12  and  C11_13 
REMARK    3  A    between atoms: C11_13  and  N2_14 
REMARK    4  A    between atoms: N2_14  and  C12_16 
REMARK    5  A    between atoms: C12_16  and  C13_17 
REMARK    6  A    between atoms: C13_17  and  C14_18 
REMARK    7  A    between atoms: C14_18  and  C15_19 
REMARK    8  A    between atoms: C15_19  and  C16_20 
REMARK    9  A    between atoms: C16_20  and  C17_21 
REMARK   10  A    between atoms: C17_21  and  C18_22 
REMARK   11  A    between atoms: C18_22  and  C19_23 
REMARK   12  A    between atoms: C19_23  and  N3_24 
REMARK   13  A    between atoms: N3_24  and  C20_26 
ROOT
HETATM    1  C20 UNL     1       5.673   0.036   0.083  1.00  0.00     0.049 A 
HETATM    2  C21 UNL     1       5.881   1.392   0.228  1.00  0.00     0.044 A 
HETATM    3  C22 UNL     1       6.791   1.887   1.157  1.00  0.00    -0.007 A 
HETATM    4  C23 UNL     1       6.951   3.261   1.251  1.00  0.00     0.015 A 
HETATM    5  C24 UNL     1       7.855   3.738   2.176  1.00  0.00     0.018 A 
HETATM    6  C25 UNL     1       8.547   2.834   2.953  1.00  0.00     0.088 A 
HETATM    7  N4  UNL     1       8.392   1.508   2.862  1.00  0.00    -0.365 N 
ATOM      8  H4  UNL     1       8.926   0.876   3.458  1.00  0.00     0.165 HD
HETATM    9  C26 UNL     1       7.511   1.030   1.961  1.00  0.00     0.043 A 
HETATM   10  C27 UNL     1       7.308  -0.345   1.822  1.00  0.00     0.055 A 
HETATM   11  C28 UNL     1       6.407  -0.796   0.900  1.00  0.00     0.073 A 
HETATM   12  C29 UNL     1       6.183  -2.214   0.743  1.00  0.00     0.102 C 
HETATM   13  N5  UNL     1       6.010  -3.349   0.635  1.00  0.00    -0.191 NA
ENDROOT
BRANCH   1  14
HETATM   14  N3  UNL     1       4.744  -0.477  -0.863  1.00  0.00    -0.389 N 
ATOM     15  H3  UNL     1       4.629  -1.488  -0.937  1.00  0.00     0.159 HD
BRANCH  14  16
HETATM   16  C19 UNL     1       3.959   0.372  -1.721  1.00  0.00     0.120 C 
BRANCH  16  17
HETATM   17  C18 UNL     1       3.064  -0.483  -2.577  1.00  0.00     0.020 C 
BRANCH  17  18
HETATM   18  C17 UNL     1       2.149  -1.274  -1.681  1.00  0.00     0.002 C 
BRANCH  18  19
HETATM   19  C16 UNL     1       1.210  -2.157  -2.471  1.00  0.00     0.000 C 
BRANCH  19  20
HETATM   20  C15 UNL     1       0.343  -2.924  -1.519  1.00  0.00     0.000 C 
BRANCH  20  21
HETATM   21  C14 UNL     1      -0.485  -2.033  -0.640  1.00  0.00     0.002 C 
BRANCH  21  22
HETATM   22  C13 UNL     1      -1.416  -1.133  -1.444  1.00  0.00     0.019 C 
BRANCH  22  23
HETATM   23  C12 UNL     1      -2.237  -0.257  -0.521  1.00  0.00     0.113 C 
BRANCH  23  24
HETATM   24  N2  UNL     1      -3.054  -1.022   0.380  1.00  0.00    -0.421 N 
ATOM     25  H2  UNL     1      -2.869  -1.043   1.383  1.00  0.00     0.153 HD
BRANCH  24  26
HETATM   26  C11 UNL     1      -4.125  -1.742  -0.190  1.00  0.00     0.118 C 
BRANCH  26  27
HETATM   27  C10 UNL     1      -5.265  -0.933  -0.706  1.00  0.00     0.060 C 
BRANCH  27  28
HETATM   28  C9  UNL     1      -5.936  -0.138   0.336  1.00  0.00    -0.022 A 
HETATM   29  C2  UNL     1      -6.771  -0.617   1.323  1.00  0.00     0.013 A 
HETATM   30  C1  UNL     1      -7.131  -2.056   1.509  1.00  0.00     0.068 C 
HETATM   31  N1  UNL     1      -7.209   0.403   2.088  1.00  0.00    -0.359 N 
HETATM   32  C3  UNL     1      -6.673   1.539   1.614  1.00  0.00     0.043 A 
ATOM     33  H1  UNL     1      -7.838   0.325   2.887  1.00  0.00     0.166 HD
HETATM   34  C4  UNL     1      -6.777   2.853   1.999  1.00  0.00     0.030 A 
HETATM   35  C8  UNL     1      -5.869   1.217   0.511  1.00  0.00    -0.001 A 
HETATM   36  C5  UNL     1      -6.127   3.869   1.347  1.00  0.00     0.002 A 
HETATM   37  C6  UNL     1      -5.325   3.555   0.247  1.00  0.00     0.001 A 
HETATM   38  C7  UNL     1      -5.210   2.246  -0.149  1.00  0.00     0.014 A 
ENDBRANCH  27  28
ENDBRANCH  26  27
ENDBRANCH  24  26
ENDBRANCH  23  24
ENDBRANCH  22  23
ENDBRANCH  21  22
ENDBRANCH  20  21
ENDBRANCH  19  20
ENDBRANCH  18  19
ENDBRANCH  17  18
ENDBRANCH  16  17
ENDBRANCH  14  16
ENDBRANCH   1  14
TORSDOF 13
