REMARK  14 active torsions:
REMARK  status: ('A' for Active; 'I' for Inactive)
REMARK    1  A    between atoms: N1_1  and  C1_4 
REMARK    2  A    between atoms: C2_11  and  N5_12 
REMARK    3  A    between atoms: N5_12  and  S1_14 
REMARK    4  A    between atoms: S1_14  and  C3_17 
REMARK    5  A    between atoms: C6_20  and  N6_21 
REMARK    6  A    between atoms: N6_21  and  C7_23 
REMARK    7  A    between atoms: C7_23  and  C8_24 
REMARK    8  A    between atoms: C8_24  and  N7_25 
REMARK    9  A    between atoms: N7_25  and  C9_28 
REMARK   10  A    between atoms: C9_28  and  C10_29 
REMARK   11  A    between atoms: C10_29  and  C11_30 
REMARK   12  A    between atoms: C14_33  and  N8_34 
REMARK   13  A    between atoms: N8_34  and  S2_36 
REMARK   14  A    between atoms: S2_36  and  C15_39 
ROOT
HETATM    1  C7  UNL     1       0.921   0.593  -1.981  1.00  0.00     0.147 C 
ENDROOT
BRANCH   1   2
HETATM    2  N6  UNL     1       2.297   0.869  -2.133  1.00  0.00    -0.388 N 
ATOM      3  H6  UNL     1       2.538   1.597  -2.805  1.00  0.00     0.159 HD
BRANCH   2   4
HETATM    4  C6  UNL     1       3.382   0.254  -1.462  1.00  0.00     0.028 A 
HETATM    5  C5  UNL     1       3.269  -0.630  -0.418  1.00  0.00     0.030 A 
HETATM    6  C4  UNL     1       4.400  -1.230   0.158  1.00  0.00     0.027 A 
HETATM    7  C3  UNL     1       5.677  -0.968  -0.290  1.00  0.00     0.080 A 
HETATM    8  C21 UNL     1       5.797  -0.089  -1.327  1.00  0.00     0.027 A 
HETATM    9  C20 UNL     1       4.693   0.504  -1.897  1.00  0.00     0.030 A 
BRANCH   7  10
HETATM   10  S1  UNL     1       7.061  -1.764   0.447  1.00  0.00     0.264 S 
HETATM   11  O1  UNL     1       6.454  -3.011   1.135  1.00  0.00    -0.200 OA
HETATM   12  O2  UNL     1       7.965  -2.274  -0.662  1.00  0.00    -0.200 OA
BRANCH  10  13
HETATM   13  N5  UNL     1       7.879  -0.883   1.590  1.00  0.00    -0.262 N 
ATOM     14  H5  UNL     1       7.498  -1.018   2.527  1.00  0.00     0.180 HD
BRANCH  13  15
HETATM   15  C2  UNL     1       8.862  -0.083   1.582  1.00  0.00     0.176 A 
HETATM   16  C1  UNL     1       9.676   0.394   0.572  1.00  0.00     0.162 A 
HETATM   17  N2  UNL     1      10.579   1.211   1.160  1.00  0.00    -0.268 N 
HETATM   18  N3  UNL     1      10.346   1.246   2.454  1.00  0.00    -0.239 N 
ATOM     19  H2  UNL     1      11.321   1.718   0.678  1.00  0.00     0.190 HD
HETATM   20  N4  UNL     1       9.328   0.484   2.741  1.00  0.00    -0.267 N 
ATOM     21  H3  UNL     1      10.882   1.788   3.132  1.00  0.00     0.208 HD
ATOM     22  H4  UNL     1       8.942   0.334   3.673  1.00  0.00     0.190 HD
BRANCH  16  23
HETATM   23  N1  UNL     1       9.587   0.113  -0.675  1.00  0.00    -0.381 N 
ATOM     24  H12 UNL     1      10.188   0.465  -1.420  1.00  0.00     0.157 HD
ATOM     25  H11 UNL     1       8.906  -0.503  -1.119  1.00  0.00     0.157 HD
ENDBRANCH  16  23
ENDBRANCH  13  15
ENDBRANCH  10  13
ENDBRANCH   7  10
ENDBRANCH   2   4
ENDBRANCH   1   2
BRANCH   1  26
HETATM   26  C8  UNL     1       0.233   1.082  -0.742  1.00  0.00     0.251 C 
BRANCH  26  27
HETATM   27  N7  UNL     1      -1.175   0.688  -0.791  1.00  0.00    -0.073 N 
ATOM     28  H72 UNL     1      -1.737   1.212  -0.120  1.00  0.00     0.277 HD
ATOM     29  H71 UNL     1      -1.626   1.005  -1.649  1.00  0.00     0.277 HD
BRANCH  27  30
HETATM   30  C9  UNL     1      -1.315  -0.726  -0.610  1.00  0.00     0.238 C 
BRANCH  30  31
HETATM   31  C10 UNL     1      -2.699  -1.205  -0.962  1.00  0.00     0.084 C 
BRANCH  31  32
HETATM   32  C11 UNL     1      -3.729  -0.556  -0.148  1.00  0.00     0.010 A 
HETATM   33  C12 UNL     1      -4.158  -1.098   1.044  1.00  0.00     0.027 A 
HETATM   34  C13 UNL     1      -5.142  -0.524   1.805  1.00  0.00     0.033 A 
HETATM   35  C14 UNL     1      -5.752   0.665   1.373  1.00  0.00     0.058 A 
HETATM   36  C19 UNL     1      -5.306   1.185   0.183  1.00  0.00     0.118 A 
HETATM   37  N10 UNL     1      -4.340   0.585  -0.526  1.00  0.00    -0.367 N 
ATOM     38  H10 UNL     1      -4.050   1.017  -1.403  1.00  0.00     0.165 HD
BRANCH  35  39
HETATM   39  N8  UNL     1      -6.783   1.247   2.150  1.00  0.00    -0.279 N 
ATOM     40  H8  UNL     1      -6.663   1.348   3.158  1.00  0.00     0.179 HD
BRANCH  39  41
HETATM   41  S2  UNL     1      -8.227   1.781   1.407  1.00  0.00     0.264 S 
HETATM   42  O3  UNL     1      -9.205   2.271   2.452  1.00  0.00    -0.200 OA
HETATM   43  O4  UNL     1      -7.994   2.806   0.365  1.00  0.00    -0.200 OA
BRANCH  41  44
HETATM   44  C15 UNL     1      -8.980   0.361   0.666  1.00  0.00     0.096 A 
HETATM   45  C16 UNL     1      -9.892  -0.473   1.250  1.00  0.00     0.043 A 
HETATM   46  C17 UNL     1     -10.199  -1.441   0.292  1.00  0.00     0.089 A 
HETATM   47  N9  UNL     1      -9.503  -1.211  -0.836  1.00  0.00    -0.374 N 
HETATM   48  C18 UNL     1      -8.761  -0.113  -0.608  1.00  0.00     0.112 A 
ATOM     49  H9  UNL     1      -9.532  -1.761  -1.695  1.00  0.00     0.164 HD
ENDBRANCH  41  44
ENDBRANCH  39  41
ENDBRANCH  35  39
ENDBRANCH  31  32
ENDBRANCH  30  31
ENDBRANCH  27  30
ENDBRANCH  26  27
ENDBRANCH   1  26
TORSDOF 14
