REMARK  17 active torsions:
REMARK  status: ('A' for Active; 'I' for Inactive)
REMARK    1  A    between atoms: N1_1  and  C1_4 
REMARK    2  A    between atoms: C2_7  and  N3_8 
REMARK    3  A    between atoms: N3_8  and  C3_10 
REMARK    4  A    between atoms: C3_10  and  C4_11 
REMARK    5  A    between atoms: C10_20  and  N6_21 
REMARK    6  A    between atoms: N6_21  and  C11_23 
REMARK    7  A    between atoms: C14_26  and  C15_27 
REMARK    8  A    between atoms: C15_27  and  C16_28 
REMARK    9  A    between atoms: C16_28  and  C17_29 
REMARK   10  A    between atoms: C17_29  and  C18_30 
REMARK   11  A    between atoms: C18_30  and  O1_31 
REMARK   12  A    between atoms: O1_31  and  C19_32 
REMARK   13  A    between atoms: C19_32  and  C20_33 
REMARK       I    between atoms: C20_33  and  N7_35 
REMARK   14  A    between atoms: N7_35  and  C21_37 
REMARK   15  A    between atoms: C24_42  and  C25_43 
REMARK   16  A    between atoms: C25_43  and  O3_44 
REMARK   17  A    between atoms: C25_43  and  O4_46 
ROOT
HETATM    1  C11 UNL     1      -1.900   2.484   0.120  1.00  0.00     0.049 A 
HETATM    2  C12 UNL     1      -1.395   1.575   1.023  1.00  0.00     0.030 A 
HETATM    3  C13 UNL     1      -0.750   0.413   0.580  1.00  0.00     0.009 A 
HETATM    4  C14 UNL     1      -0.612   0.160  -0.758  1.00  0.00    -0.058 A 
HETATM    5  C27 UNL     1      -1.110   1.054  -1.668  1.00  0.00     0.009 A 
HETATM    6  C28 UNL     1      -1.743   2.196  -1.223  1.00  0.00     0.030 A 
ENDROOT
BRANCH   1   7
HETATM    7  N6  UNL     1      -2.556   3.675   0.524  1.00  0.00    -0.191 N 
ATOM      8  H6  UNL     1      -2.007   4.520   0.682  1.00  0.00     0.184 HD
BRANCH   7   9
HETATM    9  C10 UNL     1      -3.821   3.709   0.693  1.00  0.00     0.711 A 
HETATM   10  N5  UNL     1      -4.565   2.612   0.493  1.00  0.00    -0.021 N 
HETATM   11  C2  UNL     1      -5.900   2.607   0.653  1.00  0.00     0.707 A 
ATOM     12  H5  UNL     1      -4.101   1.749   0.209  1.00  0.00     0.203 HD
HETATM   13  N2  UNL     1      -6.494   3.749   1.027  1.00  0.00    -0.022 N 
HETATM   14  C1  UNL     1      -5.790   4.864   1.238  1.00  0.00     0.705 A 
ATOM     15  H2  UNL     1      -7.506   3.767   1.153  1.00  0.00     0.203 HD
HETATM   16  N9  UNL     1      -4.436   4.840   1.067  1.00  0.00    -0.021 N 
ATOM     17  H9  UNL     1      -3.889   5.687   1.225  1.00  0.00     0.203 HD
BRANCH  11  18
HETATM   18  N3  UNL     1      -6.543   1.514   0.441  1.00  0.00    -0.221 N 
ATOM     19  H3  UNL     1      -7.556   1.497   0.558  1.00  0.00     0.178 HD
BRANCH  18  20
HETATM   20  C3  UNL     1      -5.854   0.308   0.039  1.00  0.00     0.176 C 
BRANCH  20  21
HETATM   21  C4  UNL     1      -6.809  -0.807  -0.156  1.00  0.00    -0.040 A 
HETATM   22  C5  UNL     1      -6.837  -1.452  -1.353  1.00  0.00     0.011 A 
HETATM   23  C6  UNL     1      -7.697  -2.492  -1.594  1.00  0.00     0.027 A 
HETATM   24  C7  UNL     1      -8.541  -2.870  -0.583  1.00  0.00     0.046 A 
HETATM   25  N4  UNL     1      -9.445  -3.945  -0.803  1.00  0.00    -0.102 NA
HETATM   26  C8  UNL     1      -8.525  -2.232   0.623  1.00  0.00     0.027 A 
HETATM   27  C9  UNL     1      -7.647  -1.183   0.845  1.00  0.00     0.011 A 
ENDBRANCH  20  21
ENDBRANCH  18  20
ENDBRANCH  11  18
BRANCH  14  28
HETATM   28  N1  UNL     1      -6.399   5.939   1.596  1.00  0.00    -0.234 N 
ATOM     29  H12 UNL     1      -7.411   5.957   1.724  1.00  0.00     0.174 HD
ATOM     30  H11 UNL     1      -5.861   6.791   1.757  1.00  0.00     0.174 HD
ENDBRANCH  14  28
ENDBRANCH   7   9
ENDBRANCH   1   7
BRANCH   4  31
HETATM   31  C15 UNL     1       0.067  -1.058  -1.220  1.00  0.00     0.038 C 
BRANCH  31  32
HETATM   32  C16 UNL     1       1.542  -0.789  -1.414  1.00  0.00     0.007 C 
BRANCH  32  33
HETATM   33  C17 UNL     1       2.242  -0.350  -0.159  1.00  0.00     0.027 C 
BRANCH  33  34
HETATM   34  C18 UNL     1       3.707  -0.127  -0.531  1.00  0.00     0.168 C 
BRANCH  34  35
HETATM   35  O1  UNL     1       4.317  -1.244  -1.016  1.00  0.00    -0.382 OA
BRANCH  35  36
HETATM   36  C19 UNL     1       4.374  -2.345  -0.220  1.00  0.00     0.270 C 
BRANCH  36  37
HETATM   37  C20 UNL     1       5.115  -2.195   1.033  1.00  0.00     0.245 C 
HETATM   38  O2  UNL     1       5.142  -3.227   1.791  1.00  0.00    -0.271 OA
HETATM   39  N7  UNL     1       5.795  -1.076   1.508  1.00  0.00    -0.325 N 
ATOM     40  H7  UNL     1       5.254  -0.443   2.097  1.00  0.00     0.169 HD
BRANCH  39  41
HETATM   41  C21 UNL     1       7.008  -0.743   1.300  1.00  0.00     0.038 A 
HETATM   42  C22 UNL     1       7.487   0.422   1.875  1.00  0.00     0.046 A 
HETATM   43  C23 UNL     1       8.804   0.810   1.665  1.00  0.00     0.090 A 
HETATM   44  N8  UNL     1       9.659   0.081   0.905  1.00  0.00    -0.365 N 
HETATM   45  C24 UNL     1       9.208  -1.053   0.340  1.00  0.00     0.066 A 
ATOM     46  H8  UNL     1      10.622   0.386   0.765  1.00  0.00     0.165 HD
HETATM   47  C26 UNL     1       7.900  -1.466   0.531  1.00  0.00     0.059 A 
BRANCH  45  48
HETATM   48  C25 UNL     1      10.132  -1.865  -0.497  1.00  0.00     0.305 C 
BRANCH  48  49
HETATM   49  O3  UNL     1       9.478  -2.261  -1.664  1.00  0.00    -0.366 OA
ATOM     50  H3  UNL     1      10.068  -2.779  -2.198  1.00  0.00     0.213 HD
ENDBRANCH  48  49
BRANCH  48  51
HETATM   51  O4  UNL     1      11.316  -1.203  -0.758  1.00  0.00    -0.366 OA
ATOM     52  H4  UNL     1      11.906  -1.721  -1.292  1.00  0.00     0.213 HD
ENDBRANCH  48  51
ENDBRANCH  45  48
ENDBRANCH  39  41
ENDBRANCH  36  37
ENDBRANCH  35  36
ENDBRANCH  34  35
ENDBRANCH  33  34
ENDBRANCH  32  33
ENDBRANCH  31  32
ENDBRANCH   4  31
TORSDOF 17
