REMARK  13 active torsions:
REMARK  status: ('A' for Active; 'I' for Inactive)
REMARK    1  A    between atoms: C2_2  and  C3_3 
REMARK    2  A    between atoms: C4_4  and  C5_5 
REMARK    3  A    between atoms: C5_5  and  N1_6 
REMARK    4  A    between atoms: N1_6  and  C6_7 
REMARK    5  A    between atoms: N1_6  and  C8_10 
REMARK    6  A    between atoms: C6_7  and  C7_8 
REMARK    7  A    between atoms: C8_10  and  C9_11 
REMARK    8  A    between atoms: C9_11  and  C10_12 
REMARK    9  A    between atoms: C10_12  and  C11_13 
REMARK   10  A    between atoms: C13_21  and  N4_22 
REMARK   11  A    between atoms: C16_30  and  C17_31 
REMARK   12  A    between atoms: C17_31  and  C18_32 
REMARK   13  A    between atoms: C23_40  and  N7_41 
ROOT
HETATM    1  C3  UNL     1       0.248   1.117  -0.205  1.00  0.00    -0.023 A 
HETATM    2  C4  UNL     1      -0.990   0.479  -0.376  1.00  0.00     0.056 A 
HETATM    3  N2  UNL     1      -1.239  -0.099  -1.550  1.00  0.00    -0.340 N 
ATOM      4  H2  UNL     1      -2.137  -0.566  -1.679  1.00  0.00     0.167 HD
HETATM    5  C12 UNL     1      -0.380  -0.099  -2.560  1.00  0.00     0.138 A 
HETATM    6  N3  UNL     1      -0.713  -0.708  -3.718  1.00  0.00    -0.176 N 
ATOM      7  H3  UNL     1      -1.622  -1.162  -3.803  1.00  0.00     0.186 HD
HETATM    8  C13 UNL     1       0.128  -0.725  -4.753  1.00  0.00     0.680 A 
HETATM    9  N5  UNL     1       1.313  -0.118  -4.608  1.00  0.00    -0.155 N 
ATOM     10  H5  UNL     1       1.965  -0.122  -5.392  1.00  0.00     0.187 HD
HETATM   11  C14 UNL     1       1.684   0.509  -3.447  1.00  0.00     0.274 A 
HETATM   12  O3  UNL     1       2.792   1.012  -3.477  1.00  0.00    -0.267 OA
HETATM   13  C15 UNL     1       0.842   0.530  -2.397  1.00  0.00     0.084 A 
HETATM   14  C16 UNL     1       1.214   1.172  -1.206  1.00  0.00    -0.026 A 
ENDROOT
BRANCH  14  15
HETATM   15  C17 UNL     1       2.481   1.852  -1.029  1.00  0.00     0.078 C 
BRANCH  15  16
HETATM   16  C18 UNL     1       3.530   1.221  -0.215  1.00  0.00    -0.052 A 
HETATM   17  C19 UNL     1       4.187   1.970   0.734  1.00  0.00     0.008 A 
HETATM   18  C20 UNL     1       5.167   1.448   1.545  1.00  0.00     0.020 A 
HETATM   19  C21 UNL     1       5.523   0.129   1.423  1.00  0.00     0.060 A 
HETATM   20  C22 UNL     1       6.516  -0.434   2.232  1.00  0.00     0.272 A 
HETATM   21  C24 UNL     1       4.873  -0.623   0.479  1.00  0.00     0.065 A 
HETATM   22  O4  UNL     1       7.058   0.326   3.068  1.00  0.00    -0.267 OA
HETATM   23  N6  UNL     1       6.849  -1.728   2.097  1.00  0.00    -0.156 N 
HETATM   24  C23 UNL     1       6.202  -2.450   1.168  1.00  0.00     0.679 A 
ATOM     25  H6  UNL     1       7.571  -2.149   2.682  1.00  0.00     0.187 HD
HETATM   26  N8  UNL     1       5.246  -1.938   0.378  1.00  0.00    -0.191 N 
ATOM     27  H8  UNL     1       4.789  -2.537  -0.309  1.00  0.00     0.184 HD
HETATM   28  C25 UNL     1       3.898  -0.100  -0.326  1.00  0.00     0.038 A 
BRANCH  24  29
HETATM   29  N7  UNL     1       6.548  -3.698   1.064  1.00  0.00    -0.234 N 
ATOM     30  H72 UNL     1       7.275  -4.087   1.665  1.00  0.00     0.174 HD
ATOM     31  H71 UNL     1       6.057  -4.246   0.358  1.00  0.00     0.174 HD
ENDBRANCH  24  29
ENDBRANCH  15  16
ENDBRANCH  14  15
BRANCH   1  32
HETATM   32  C2  UNL     1       0.474   1.704   1.110  1.00  0.00     0.037 C 
HETATM   33  C1  UNL     1       0.832   0.598   2.086  1.00  0.00     0.010 C 
ENDBRANCH   1  32
BRANCH   2  34
HETATM   34  C5  UNL     1      -2.038   0.470   0.672  1.00  0.00     0.120 C 
BRANCH  34  35
HETATM   35  N1  UNL     1      -3.197  -0.239   0.330  1.00  0.00    -0.367 N 
BRANCH  35  36
HETATM   36  C6  UNL     1      -3.207  -1.614   0.135  1.00  0.00     0.074 C 
BRANCH  36  37
HETATM   37  C7  UNL     1      -2.965  -2.439   1.391  1.00  0.00     0.130 C 
HETATM   38  S1  UNL     1      -3.036  -4.190   0.843  1.00  0.00    -0.092 SA
ENDBRANCH  36  37
ENDBRANCH  35  36
BRANCH  35  39
HETATM   39  C8  UNL     1      -4.410   0.479   0.141  1.00  0.00     0.128 C 
BRANCH  39  40
HETATM   40  C9  UNL     1      -4.969   1.081   1.382  1.00  0.00     0.031 C 
BRANCH  40  41
HETATM   41  C10 UNL     1      -6.233   1.829   1.137  1.00  0.00     0.114 C 
BRANCH  41  42
HETATM   42  C11 UNL     1      -7.340   0.988   0.651  1.00  0.00     0.172 C 
HETATM   43  O1  UNL     1      -7.291  -0.250   0.548  1.00  0.00    -0.648 OA
HETATM   44  O2  UNL     1      -8.537   1.653   0.279  1.00  0.00    -0.648 OA
ENDBRANCH  41  42
ENDBRANCH  40  41
ENDBRANCH  39  40
ENDBRANCH  35  39
ENDBRANCH  34  35
ENDBRANCH   2  34
BRANCH   8  45
HETATM   45  N4  UNL     1      -0.171  -1.307  -5.881  1.00  0.00    -0.234 N 
ATOM     46  H42 UNL     1      -1.073  -1.769  -5.991  1.00  0.00     0.174 HD
ATOM     47  H41 UNL     1       0.472  -1.320  -6.673  1.00  0.00     0.174 HD
ENDBRANCH   8  45
TORSDOF 13
