REMARK  13 active torsions:
REMARK  status: ('A' for Active; 'I' for Inactive)
REMARK       I    between atoms: N1_2  and  C2_4 
REMARK    1  A    between atoms: C2_4  and  C3_6 
REMARK    2  A    between atoms: C5_8  and  N2_9 
REMARK       I    between atoms: N2_9  and  C6_11 
REMARK    3  A    between atoms: C8_14  and  O3_15 
REMARK    4  A    between atoms: C9_17  and  N3_18 
REMARK    5  A    between atoms: N3_18  and  C10_20 
REMARK    6  A    between atoms: C12_22  and  N4_23 
REMARK    7  A    between atoms: N4_23  and  C13_24 
REMARK    8  A    between atoms: C13_24  and  C14_25 
REMARK    9  A    between atoms: C14_25  and  N5_26 
REMARK   10  A    between atoms: N7_35  and  C21_37 
REMARK   11  A    between atoms: C21_37  and  C22_38 
REMARK   12  A    between atoms: C22_38  and  C23_39 
REMARK   13  A    between atoms: C23_39  and  N8_40 
ROOT
HETATM    1  C10 UNL     1       0.617  -0.292   0.668  1.00  0.00     0.126 A 
HETATM    2  C11 UNL     1      -0.262  -1.213   1.203  1.00  0.00     0.113 A 
HETATM    3  C12 UNL     1      -1.651  -1.133   1.037  1.00  0.00     0.190 A 
HETATM    4  N6  UNL     1      -2.082  -0.063   0.299  1.00  0.00    -0.165 N 
ATOM      5  H6  UNL     1      -3.086   0.039   0.150  1.00  0.00     0.187 HD
HETATM    6  C20 UNL     1      -1.281   0.849  -0.235  1.00  0.00     0.682 A 
HETATM    7  N7  UNL     1      -1.673   1.863  -0.919  1.00  0.00    -0.226 N 
ATOM      8  H7  UNL     1      -0.965   2.501  -1.283  1.00  0.00     0.177 HD
HETATM    9  N11 UNL     1       0.078   0.705  -0.030  1.00  0.00    -0.177 N 
ATOM     10  H11 UNL     1       0.703   1.401  -0.436  1.00  0.00     0.186 HD
ENDROOT
BRANCH   1  11
HETATM   11  N3  UNL     1       1.971  -0.450   0.957  1.00  0.00    -0.340 N 
ATOM     12  H3  UNL     1       2.175  -1.247   1.560  1.00  0.00     0.167 HD
BRANCH  11  13
HETATM   13  C9  UNL     1       3.111   0.284   0.573  1.00  0.00     0.070 A 
HETATM   14  C8  UNL     1       4.251   0.313   1.360  1.00  0.00     0.119 A 
HETATM   15  C5  UNL     1       5.448   0.909   0.995  1.00  0.00     0.071 A 
HETATM   16  C4  UNL     1       5.521   1.517  -0.229  1.00  0.00     0.049 A 
HETATM   17  C3  UNL     1       4.414   1.522  -1.061  1.00  0.00     0.036 A 
HETATM   18  C25 UNL     1       3.224   0.905  -0.648  1.00  0.00     0.049 A 
BRANCH  14  19
HETATM   19  O3  UNL     1       4.226  -0.284   2.603  1.00  0.00    -0.356 OA
ATOM     20  H3  UNL     1       3.406  -0.692   2.853  1.00  0.00     0.218 HD
ENDBRANCH  14  19
BRANCH  15  21
HETATM   21  N2  UNL     1       6.568   0.892   1.857  1.00  0.00    -0.325 N 
HETATM   22  C6  UNL     1       7.826   1.441   1.717  1.00  0.00     0.218 C 
HETATM   23  C7  UNL     1       8.825   1.232   2.850  1.00  0.00     0.117 C 
HETATM   24  O2  UNL     1       8.202   2.100   0.720  1.00  0.00    -0.274 OA
ATOM     25  H2  UNL     1       6.421   0.388   2.732  1.00  0.00     0.169 HD
ENDBRANCH  15  21
BRANCH  17  26
HETATM   26  C2  UNL     1       4.467   2.156  -2.369  1.00  0.00     0.251 C 
HETATM   27  N1  UNL     1       5.711   2.224  -3.056  1.00  0.00    -0.361 N 
HETATM   28  C1  UNL     1       5.804   2.854  -4.379  1.00  0.00     0.149 C 
ATOM     29  H1  UNL     1       6.548   1.831  -2.625  1.00  0.00     0.162 HD
HETATM   30  O1  UNL     1       3.458   2.652  -2.929  1.00  0.00    -0.268 OA
ENDBRANCH  17  26
ENDBRANCH  11  13
ENDBRANCH   1  11
BRANCH   3  31
HETATM   31  N4  UNL     1      -2.361  -1.966   1.519  1.00  0.00    -0.428 NA
BRANCH  31  32
HETATM   32  C13 UNL     1      -3.189  -2.865   2.033  1.00  0.00     0.250 C 
BRANCH  32  33
HETATM   33  C14 UNL     1      -3.285  -4.078   1.079  1.00  0.00     0.305 C 
BRANCH  33  34
HETATM   34  N5  UNL     1      -4.198  -5.039   1.694  1.00  0.00     0.091 N 
HETATM   35  C15 UNL     1      -5.498  -4.478   1.677  1.00  0.00     0.272 C 
HETATM   36  C16 UNL     1      -6.661  -5.372   1.516  1.00  0.00     0.030 C 
HETATM   37  C17 UNL     1      -6.389  -6.746   0.985  1.00  0.00     0.003 C 
HETATM   38  C18 UNL     1      -5.084  -7.278   1.568  1.00  0.00     0.030 C 
HETATM   39  C19 UNL     1      -4.014  -6.338   1.131  1.00  0.00     0.272 C 
ENDBRANCH  33  34
ENDBRANCH  32  33
ENDBRANCH  31  32
ENDBRANCH   3  31
BRANCH   7  40
HETATM   40  C21 UNL     1      -3.039   2.147  -1.198  1.00  0.00     0.139 C 
BRANCH  40  41
HETATM   41  C22 UNL     1      -3.291   3.660  -1.193  1.00  0.00     0.040 C 
BRANCH  41  42
HETATM   42  C23 UNL     1      -2.383   4.218  -2.266  1.00  0.00     0.123 C 
BRANCH  42  43
HETATM   43  N8  UNL     1      -2.571   5.660  -2.294  1.00  0.00    -0.367 N 
HETATM   44  C24 UNL     1      -1.567   6.414  -2.536  1.00  0.00     0.196 C 
HETATM   45  N9  UNL     1      -1.713   7.820  -2.571  1.00  0.00    -0.067 NA
HETATM   46  N10 UNL     1      -0.302   5.851  -2.773  1.00  0.00    -0.067 NA
ATOM     47  H8  UNL     1      -3.492   6.064  -2.123  1.00  0.00     0.161 HD
ENDBRANCH  42  43
ENDBRANCH  41  42
ENDBRANCH  40  41
ENDBRANCH   7  40
TORSDOF 13
