REMARK  2 active torsions:
REMARK  status: ('A' for Active; 'I' for Inactive)
REMARK    1  A    between atoms: N1_1  and  C1_4 
REMARK    2  A    between atoms: N4_9  and  O1_10 
ROOT
HETATM    1  C1  UNL     1      -1.099   0.165  -0.075  1.00  0.00     0.695 A 
HETATM    2  N2  UNL     1      -0.515  -1.026   0.148  1.00  0.00    -0.116 N 
ATOM      3  H2  UNL     1      -1.113  -1.845   0.258  1.00  0.00     0.207 HD
HETATM    4  N3  UNL     1       0.792  -1.190   0.232  1.00  0.00    -0.197 N 
ATOM      5  H3  UNL     1       1.199  -2.110   0.402  1.00  0.00     0.211 HD
HETATM    6  N4  UNL     1       1.555  -0.121   0.088  1.00  0.00    -0.091 N 
HETATM    7  C2  UNL     1       1.001   1.089  -0.137  1.00  0.00     0.381 A 
HETATM    8  O2  UNL     1       1.769   2.091  -0.270  1.00  0.00    -0.242 OA
HETATM    9  N5  UNL     1      -0.331   1.261  -0.224  1.00  0.00    -0.137 N 
ATOM     10  H5  UNL     1      -0.740   2.180  -0.395  1.00  0.00     0.189 HD
ENDROOT
BRANCH   1  11
HETATM   11  N1  UNL     1      -2.377   0.329  -0.158  1.00  0.00    -0.233 N 
ATOM     12  H12 UNL     1      -2.959  -0.501  -0.045  1.00  0.00     0.174 HD
ATOM     13  H11 UNL     1      -2.820   1.232  -0.327  1.00  0.00     0.174 HD
ENDBRANCH   1  11
BRANCH   6  14
HETATM   14  O1  UNL     1       2.796  -0.262   0.166  1.00  0.00    -0.263 OA
ATOM     15  H1  UNL     1       3.345   0.507   0.062  1.00  0.00     0.247 HD
ENDBRANCH   6  14
TORSDOF 2
