REMARK  0 active torsions:
REMARK  status: ('A' for Active; 'I' for Inactive)
ROOT
HETATM    1  N1  UNL     1      -2.403  -0.612   0.004  1.00  0.00    -0.113 NA
HETATM    2  C1  UNL     1      -1.532   0.485  -0.117  1.00  0.00     0.135 C 
HETATM    3  C2  UNL     1      -0.238   0.270  -0.045  1.00  0.00     0.117 A 
HETATM    4  N2  UNL     1       0.422  -0.955   0.143  1.00  0.00    -0.293 N 
ATOM      5  H2  UNL     1      -0.045  -1.855   0.250  1.00  0.00     0.187 HD
HETATM    6  N3  UNL     1       1.811  -0.771   0.164  1.00  0.00    -0.263 N 
ATOM      7  H3  UNL     1       2.499  -1.514   0.288  1.00  0.00     0.190 HD
HETATM    8  C3  UNL     1       2.118   0.611  -0.014  1.00  0.00     0.312 A 
HETATM    9  O1  UNL     1       3.251   1.154  -0.051  1.00  0.00    -0.262 OA
HETATM   10  C4  UNL     1       0.834   1.277  -0.147  1.00  0.00     0.269 A 
HETATM   11  O2  UNL     1       0.627   2.493  -0.319  1.00  0.00    -0.280 OA
ENDROOT
TORSDOF 0
