REMARK  2 active torsions:
REMARK  status: ('A' for Active; 'I' for Inactive)
REMARK    1  A    between atoms: N1_1  and  C1_4 
REMARK    2  A    between atoms: N4_10  and  O1_11 
ROOT
HETATM    1  C1  UNL     1       0.829  -0.036  -0.022  1.00  0.00     0.717 A 
HETATM    2  N2  UNL     1       0.125  -1.204   0.048  1.00  0.00    -0.129 N 
ATOM      3  H2  UNL     1       0.514  -2.147   0.077  1.00  0.00     0.205 HD
HETATM    4  N3  UNL     1      -1.154  -0.881   0.071  1.00  0.00    -0.279 N 
ATOM      5  H3  UNL     1      -1.934  -1.536   0.122  1.00  0.00     0.188 HD
HETATM    6  C2  UNL     1      -1.255   0.458   0.016  1.00  0.00     0.249 A 
HETATM    7  N4  UNL     1      -0.029   1.002  -0.042  1.00  0.00    -0.046 N 
ENDROOT
BRANCH   1   8
HETATM    8  N1  UNL     1       2.128   0.036  -0.062  1.00  0.00    -0.231 N 
ATOM      9  H12 UNL     1       2.778  -0.750  -0.047  1.00  0.00     0.174 HD
ATOM     10  H11 UNL     1       2.654   0.908  -0.114  1.00  0.00     0.174 HD
ENDBRANCH   1   8
BRANCH   7  11
HETATM   11  O1  UNL     1       0.325   2.332  -0.110  1.00  0.00    -0.269 OA
ATOM     12  H1  UNL     1      -0.280   3.064  -0.124  1.00  0.00     0.246 HD
ENDBRANCH   7  11
TORSDOF 2
