REMARK  4 active torsions:
REMARK  status: ('A' for Active; 'I' for Inactive)
REMARK    1  A    between atoms: N1_1  and  N2_4 
REMARK    2  A    between atoms: N2_4  and  C1_5 
REMARK    3  A    between atoms: C4_14  and  N5_15 
REMARK    4  A    between atoms: C4_14  and  C5_19 
ROOT
HETATM    1  C1  UNL     1      -0.724  -0.151   1.011  1.00  0.00     0.238 C 
HETATM    2  N3  UNL     1      -1.882   0.616   0.704  1.00  0.00    -0.282 N 
ATOM      3  H3  UNL     1      -2.451   0.987   1.465  1.00  0.00     0.173 HD
HETATM    4  C2  UNL     1      -2.265   0.878  -0.642  1.00  0.00     0.329 C 
HETATM    5  O1  UNL     1      -3.298   1.561  -0.909  1.00  0.00    -0.247 OA
HETATM    6  N4  UNL     1      -1.445   0.344  -1.675  1.00  0.00    -0.276 N 
ATOM      7  H4  UNL     1      -1.678   0.505  -2.655  1.00  0.00     0.173 HD
HETATM    8  C3  UNL     1      -0.298  -0.415  -1.324  1.00  0.00     0.280 C 
HETATM    9  O2  UNL     1       0.121  -1.295  -2.112  1.00  0.00    -0.269 OA
HETATM   10  C4  UNL     1       0.376  -0.135  -0.011  1.00  0.00     0.352 C 
ENDROOT
BRANCH  10  11
HETATM   11  N5  UNL     1       0.967   1.181  -0.114  1.00  0.00    -0.044 N 
ATOM     12  H53 UNL     1       0.265   1.895  -0.306  1.00  0.00     0.277 HD
ATOM     13  H52 UNL     1       1.290   1.521   0.792  1.00  0.00     0.277 HD
ATOM     14  H51 UNL     1       1.714   1.192  -0.808  1.00  0.00     0.277 HD
ENDBRANCH  10  11
BRANCH  10  15
HETATM   15  C5  UNL     1       1.413  -1.117   0.275  1.00  0.00     0.286 C 
HETATM   16  N6  UNL     1       2.761  -0.704   0.406  1.00  0.00    -0.059 NA
HETATM   17  O3  UNL     1       1.122  -2.352   0.409  1.00  0.00    -0.273 OA
ENDBRANCH  10  15
BRANCH   1  18
HETATM   18  N2  UNL     1      -0.621  -0.809   2.080  1.00  0.00    -0.315 NA
BRANCH  18  19
HETATM   19  N1  UNL     1      -0.408  -1.214   3.243  1.00  0.00    -0.279 N 
ATOM     20  H12 UNL     1      -0.031  -0.309   3.524  1.00  0.00     0.191 HD
ATOM     21  H11 UNL     1      -0.325  -1.747   4.109  1.00  0.00     0.191 HD
ENDBRANCH  18  19
ENDBRANCH   1  18
TORSDOF 4
