REMARK  1 active torsions:
REMARK  status: ('A' for Active; 'I' for Inactive)
REMARK    1  A    between atoms: N3_4  and  C2_6 
ROOT
HETATM    1  C2  UNL     1      -0.398  -1.210   0.071  1.00  0.00     0.113 C 
HETATM    2  C3  UNL     1       0.731  -0.563   0.061  1.00  0.00     0.115 A 
HETATM    3  C4  UNL     1       1.808  -0.880  -0.868  1.00  0.00     0.266 A 
HETATM    4  O1  UNL     1       1.652  -1.811  -1.696  1.00  0.00    -0.267 OA
HETATM    5  N4  UNL     1       3.036  -0.150  -0.853  1.00  0.00    -0.275 N 
ATOM      6  H4  UNL     1       3.778  -0.388  -1.512  1.00  0.00     0.173 HD
HETATM    7  C5  UNL     1       3.227   0.910   0.081  1.00  0.00     0.329 A 
HETATM    8  O2  UNL     1       4.302   1.569   0.113  1.00  0.00    -0.246 OA
HETATM    9  N5  UNL     1       2.209   1.263   1.012  1.00  0.00    -0.275 N 
ATOM     10  H5  UNL     1       2.354   2.023   1.677  1.00  0.00     0.173 HD
HETATM   11  C6  UNL     1       0.995   0.541   0.997  1.00  0.00     0.266 A 
HETATM   12  O3  UNL     1       0.083   0.830   1.804  1.00  0.00    -0.267 OA
ENDROOT
BRANCH   1  13
HETATM   13  N3  UNL     1      -1.479  -0.959   0.938  1.00  0.00    -0.342 N 
HETATM   14  C1  UNL     1      -2.511  -0.302   0.528  1.00  0.00     0.200 C 
HETATM   15  N1  UNL     1      -2.558   0.171  -0.812  1.00  0.00    -0.067 NA
HETATM   16  N2  UNL     1      -3.621  -0.024   1.360  1.00  0.00    -0.067 NA
ATOM     17  H3  UNL     1      -1.446  -1.300   1.899  1.00  0.00     0.167 HD
ENDBRANCH   1  13
TORSDOF 1
