REMARK  1 active torsions:
REMARK  status: ('A' for Active; 'I' for Inactive)
REMARK       I    between atoms: N2_6  and  C3_7 
REMARK    1  A    between atoms: C3_7  and  C4_9 
ROOT
HETATM    1  C4  UNL     1       0.955  -0.136   0.200  1.00  0.00     0.135 A 
HETATM    2  C5  UNL     1       2.272  -0.267   0.156  1.00  0.00     0.110 A 
HETATM    3  N3  UNL     1       3.541  -0.005  -0.184  1.00  0.00    -0.347 N 
ATOM      4  H3  UNL     1       3.854   0.749  -0.795  1.00  0.00     0.167 HD
HETATM    5  C6  UNL     1       4.323  -0.903   0.417  1.00  0.00     0.182 A 
HETATM    6  N4  UNL     1       3.548  -1.721   1.126  1.00  0.00    -0.337 N 
ATOM      7  H4  UNL     1       3.876  -2.506   1.689  1.00  0.00     0.168 HD
HETATM    8  C7  UNL     1       2.269  -1.349   0.982  1.00  0.00     0.136 A 
HETATM    9  N5  UNL     1       0.970  -1.256   1.053  1.00  0.00    -0.334 N 
ATOM     10  H5  UNL     1       0.247  -1.788   1.538  1.00  0.00     0.168 HD
ENDROOT
BRANCH   1  11
HETATM   11  C3  UNL     1       0.000   0.784  -0.398  1.00  0.00     0.292 C 
HETATM   12  N2  UNL     1      -1.380   0.604  -0.110  1.00  0.00    -0.233 N 
HETATM   13  C2  UNL     1      -1.981  -0.406   0.728  1.00  0.00     0.279 C 
HETATM   14  N6  UNL     1      -2.385   1.425  -0.626  1.00  0.00    -0.245 N 
HETATM   15  N1  UNL     1      -3.411  -0.295   0.436  1.00  0.00    -0.324 N 
HETATM   16  C1  UNL     1      -3.670   0.875  -0.293  1.00  0.00     0.336 C 
ATOM     17  H1  UNL     1      -4.118  -0.972   0.722  1.00  0.00     0.166 HD
HETATM   18  O1  UNL     1      -4.781   1.394  -0.622  1.00  0.00    -0.246 OA
ATOM     19  H6  UNL     1      -2.231   2.282  -1.157  1.00  0.00     0.192 HD
HETATM   20  O2  UNL     1       0.404   1.722  -1.159  1.00  0.00    -0.264 OA
ENDBRANCH   1  11
TORSDOF 1
