REMARK  2 active torsions:
REMARK  status: ('A' for Active; 'I' for Inactive)
REMARK    1  A    between atoms: C4_8  and  N3_9 
REMARK    2  A    between atoms: N3_9  and  C5_11 
ROOT
HETATM    1  N3  UNL     1       0.197  -1.646  -0.339  1.00  0.00    -0.197 N 
ATOM      2  H3  UNL     1      -0.588  -1.879  -0.948  1.00  0.00     0.183 HD
ENDROOT
BRANCH   1   3
HETATM    3  C4  UNL     1       0.606  -0.303  -0.255  1.00  0.00     0.141 C 
HETATM    4  C3  UNL     1      -0.295   0.661  -0.335  1.00  0.00     0.116 A 
HETATM    5  N2  UNL     1      -1.620   0.562  -0.492  1.00  0.00    -0.295 N 
HETATM    6  C6  UNL     1      -0.039   2.036  -0.268  1.00  0.00     0.228 A 
HETATM    7  N1  UNL     1      -2.187   1.768  -0.525  1.00  0.00    -0.297 N 
ATOM      8  H2  UNL     1      -2.128  -0.318  -0.575  1.00  0.00     0.187 HD
HETATM    9  C2  UNL     1      -1.235   2.707  -0.389  1.00  0.00     0.091 A 
ATOM     10  H1  UNL     1      -3.185   1.949  -0.636  1.00  0.00     0.187 HD
HETATM   11  C1  UNL     1      -1.383   4.032  -0.371  1.00  0.00     0.049 C 
HETATM   12  O1  UNL     1       1.126   2.517  -0.119  1.00  0.00    -0.283 OA
ENDBRANCH   1   3
BRANCH   1  13
HETATM   13  C5  UNL     1       0.774  -2.604   0.324  1.00  0.00     0.713 A 
HETATM   14  N4  UNL     1       0.389  -3.889   0.250  1.00  0.00    -0.115 N 
HETATM   15  N5  UNL     1       1.205  -4.581   1.060  1.00  0.00    -0.213 N 
ATOM     16  H4  UNL     1      -0.374  -4.265  -0.312  1.00  0.00     0.207 HD
HETATM   17  N6  UNL     1       2.073  -3.780   1.629  1.00  0.00    -0.213 N 
ATOM     18  H5  UNL     1       1.157  -5.589   1.212  1.00  0.00     0.210 HD
HETATM   19  N7  UNL     1       1.808  -2.549   1.173  1.00  0.00    -0.115 N 
ATOM     20  H6  UNL     1       2.805  -4.042   2.289  1.00  0.00     0.210 HD
ATOM     21  H7  UNL     1       2.314  -1.702   1.432  1.00  0.00     0.207 HD
ENDBRANCH   1  13
TORSDOF 2
