REMARK  0 active torsions:
REMARK  status: ('A' for Active; 'I' for Inactive)
ROOT
HETATM    1  N1  UNL     1       2.536   0.887  -0.004  1.00  0.00    -0.233 N 
ATOM      2  H11 UNL     1       2.725   1.889  -0.022  1.00  0.00     0.174 HD
ATOM      3  H12 UNL     1       3.240   0.159   0.116  1.00  0.00     0.174 HD
HETATM    4  C1  UNL     1       1.297   0.496  -0.145  1.00  0.00     0.694 C 
HETATM    5  N2  UNL     1       1.033  -0.901  -0.120  1.00  0.00    -0.118 N 
ATOM      6  H2  UNL     1       1.894  -1.444  -0.178  1.00  0.00     0.207 HD
HETATM    7  N3  UNL     1      -0.055  -1.705  -0.040  1.00  0.00    -0.225 N 
ATOM      8  H3  UNL     1       0.042  -2.714  -0.154  1.00  0.00     0.209 HD
HETATM    9  N4  UNL     1      -1.269  -1.160   0.192  1.00  0.00    -0.247 N 
ATOM     10  H4  UNL     1      -1.951  -1.864   0.474  1.00  0.00     0.192 HD
HETATM   11  C2  UNL     1      -1.848   0.149   0.145  1.00  0.00     0.329 C 
HETATM   12  O1  UNL     1      -3.079   0.260   0.401  1.00  0.00    -0.261 OA
HETATM   13  C3  UNL     1      -1.116   1.370  -0.177  1.00  0.00     0.329 C 
HETATM   14  O2  UNL     1      -1.788   2.398  -0.354  1.00  0.00    -0.261 OA
HETATM   15  N5  UNL     1       0.315   1.512  -0.313  1.00  0.00    -0.150 N 
ATOM     16  H5  UNL     1       0.659   2.441  -0.556  1.00  0.00     0.188 HD
ENDROOT
TORSDOF 0
