REMARK  2 active torsions:
REMARK  status: ('A' for Active; 'I' for Inactive)
REMARK    1  A    between atoms: N1_1  and  N2_4 
REMARK    2  A    between atoms: N2_4  and  C1_6 
ROOT
HETATM    1  C1  UNL     1       0.573   0.386   0.020  1.00  0.00     0.704 A 
HETATM    2  N3  UNL     1      -0.311   1.386   0.083  1.00  0.00    -0.139 N 
ATOM      3  H3  UNL     1       0.035   2.338   0.205  1.00  0.00     0.189 HD
HETATM    4  C2  UNL     1      -1.640   1.190  -0.008  1.00  0.00     0.342 A 
HETATM    5  O1  UNL     1      -2.460   2.144   0.053  1.00  0.00    -0.246 OA
HETATM    6  N4  UNL     1      -2.089  -0.065  -0.168  1.00  0.00    -0.260 N 
ATOM      7  H4  UNL     1      -3.090  -0.245  -0.240  1.00  0.00     0.175 HD
HETATM    8  C3  UNL     1      -1.222  -1.074  -0.232  1.00  0.00     0.342 A 
HETATM    9  O2  UNL     1      -1.641  -2.249  -0.382  1.00  0.00    -0.246 OA
HETATM   10  N5  UNL     1       0.118  -0.860  -0.139  1.00  0.00    -0.139 N 
ATOM     11  H5  UNL     1       0.769  -1.643  -0.190  1.00  0.00     0.189 HD
ENDROOT
BRANCH   1  12
HETATM   12  N2  UNL     1       1.822   0.603   0.109  1.00  0.00    -0.138 N 
ATOM     13  H2  UNL     1       2.125   1.569   0.231  1.00  0.00     0.205 HD
BRANCH  12  14
HETATM   14  N1  UNL     1       2.803  -0.375   0.053  1.00  0.00    -0.331 N 
ATOM     15  H12 UNL     1       2.481  -1.335  -0.069  1.00  0.00     0.177 HD
ATOM     16  H11 UNL     1       3.805  -0.201   0.124  1.00  0.00     0.177 HD
ENDBRANCH  12  14
ENDBRANCH   1  12
TORSDOF 2
