REMARK  2 active torsions:
REMARK  status: ('A' for Active; 'I' for Inactive)
REMARK       I    between atoms: C1_4  and  N2_5 
REMARK       I    between atoms: C1_4  and  N3_8 
REMARK    1  A    between atoms: N3_8  and  N4_10 
REMARK    2  A    between atoms: N6_13  and  N7_14 
ROOT
HETATM    1  N4  UNL     1      -0.546   0.507  -0.574  1.00  0.00    -0.081 N 
HETATM    2  N5  UNL     1      -0.930  -0.227   0.456  1.00  0.00    -0.167 N 
ATOM      3  H5  UNL     1      -0.446  -0.714   1.210  1.00  0.00     0.216 HD
HETATM    4  N6  UNL     1      -2.177  -0.075   0.116  1.00  0.00    -0.102 N 
HETATM    5  N8  UNL     1      -1.816   0.656  -0.913  1.00  0.00    -0.167 N 
ATOM      6  H8  UNL     1      -2.310   1.139  -1.663  1.00  0.00     0.216 HD
ENDROOT
BRANCH   1   7
HETATM    7  N3  UNL     1       0.686   0.944  -1.090  1.00  0.00    -0.093 N 
HETATM    8  C1  UNL     1       1.894   0.593  -0.463  1.00  0.00     0.700 C 
HETATM    9  N1  UNL     1       2.723   1.499  -0.136  1.00  0.00    -0.233 N 
HETATM   10  N2  UNL     1       2.179  -0.756  -0.201  1.00  0.00    -0.152 N 
ATOM     11  H12 UNL     1       3.600   1.244   0.319  1.00  0.00     0.174 HD
ATOM     12  H11 UNL     1       2.516   2.479  -0.326  1.00  0.00     0.174 HD
HETATM   13  S1  UNL     1       2.758  -1.356   1.346  1.00  0.00     0.058 SA
ATOM     14  H2  UNL     1       2.042  -1.429  -0.955  1.00  0.00     0.193 HD
ATOM     15  H3  UNL     1       0.704   1.523  -1.930  1.00  0.00     0.209 HD
ENDBRANCH   1   7
BRANCH   4  16
HETATM   16  N7  UNL     1      -3.463  -0.461   0.552  1.00  0.00    -0.306 N 
ATOM     17  H72 UNL     1      -3.743  -1.029   1.351  1.00  0.00     0.180 HD
ATOM     18  H71 UNL     1      -4.440  -0.342   0.286  1.00  0.00     0.180 HD
ENDBRANCH   4  16
TORSDOF 2
