REMARK  1 active torsions:
REMARK  status: ('A' for Active; 'I' for Inactive)
REMARK    1  A    between atoms: N1_1  and  C1_4 
ROOT
HETATM    1  C1  UNL     1      -1.320  -0.154   0.218  1.00  0.00     0.183 C 
HETATM    2  N2  UNL     1      -0.603  -1.253  -0.068  1.00  0.00    -0.278 N 
ATOM      3  H2  UNL     1      -1.132  -2.120  -0.167  1.00  0.00     0.189 HD
HETATM    4  N3  UNL     1       0.723  -1.349  -0.239  1.00  0.00    -0.260 N 
ATOM      5  H3  UNL     1       1.103  -2.295  -0.223  1.00  0.00     0.190 HD
HETATM    6  C2  UNL     1       1.622  -0.361  -0.429  1.00  0.00     0.328 C 
HETATM    7  O1  UNL     1       2.759  -0.699  -0.806  1.00  0.00    -0.261 OA
HETATM    8  C3  UNL     1       1.472   1.001  -0.266  1.00  0.00     0.318 C 
HETATM    9  O2  UNL     1       2.415   1.713  -0.688  1.00  0.00    -0.262 OA
HETATM   10  N4  UNL     1       0.410   1.621   0.302  1.00  0.00    -0.283 N 
ATOM     11  H4  UNL     1       0.553   2.587   0.598  1.00  0.00     0.172 HD
HETATM   12  C4  UNL     1      -0.824   1.099   0.521  1.00  0.00     0.293 C 
HETATM   13  O3  UNL     1      -1.657   1.848   1.082  1.00  0.00    -0.264 OA
ENDROOT
BRANCH   1  14
HETATM   14  N1  UNL     1      -2.593  -0.315   0.201  1.00  0.00    -0.380 N 
ATOM     15  H12 UNL     1      -2.959  -1.240  -0.023  1.00  0.00     0.158 HD
ATOM     16  H11 UNL     1      -3.138   0.520   0.418  1.00  0.00     0.158 HD
ENDBRANCH   1  14
TORSDOF 1
