REMARK  3 active torsions:
REMARK  status: ('A' for Active; 'I' for Inactive)
REMARK    1  A    between atoms: N1_1  and  N2_4 
REMARK    2  A    between atoms: N2_4  and  N3_5 
REMARK    3  A    between atoms: N2_4  and  N4_8 
ROOT
HETATM    1  N4  UNL     1       0.284   0.183   0.610  1.00  0.00    -0.193 N 
HETATM    2  C1  UNL     1      -0.446  -1.026   0.621  1.00  0.00     0.193 C 
HETATM    3  C2  UNL     1      -1.710  -1.014  -0.178  1.00  0.00     0.148 C 
HETATM    4  N5  UNL     1      -2.512   0.114   0.291  1.00  0.00    -0.340 N 
ATOM      5  H5  UNL     1      -3.484   0.019   0.586  1.00  0.00     0.164 HD
HETATM    6  C3  UNL     1      -1.812   1.366   0.300  1.00  0.00     0.336 C 
HETATM    7  O1  UNL     1      -2.487   2.424   0.344  1.00  0.00    -0.246 OA
HETATM    8  N6  UNL     1      -0.411   1.313   0.257  1.00  0.00    -0.232 N 
ATOM      9  H6  UNL     1       0.107   2.138  -0.045  1.00  0.00     0.193 HD
ENDROOT
BRANCH   1  10
HETATM   10  N2  UNL     1       1.577   0.150   0.252  1.00  0.00    -0.127 N 
BRANCH  10  11
HETATM   11  N1  UNL     1       2.527   0.517   1.153  1.00  0.00    -0.308 N 
ATOM     12  H12 UNL     1       3.510   0.492   0.881  1.00  0.00     0.180 HD
ATOM     13  H11 UNL     1       2.242   1.029   1.988  1.00  0.00     0.180 HD
ENDBRANCH  10  11
BRANCH  10  14
HETATM   14  N3  UNL     1       1.954  -0.527  -0.851  1.00  0.00    -0.308 N 
ATOM     15  H32 UNL     1       2.937  -0.552  -1.123  1.00  0.00     0.180 HD
ATOM     16  H31 UNL     1       1.241  -0.802  -1.527  1.00  0.00     0.180 HD
ENDBRANCH  10  14
ENDBRANCH   1  10
TORSDOF 3
