REMARK  3 active torsions:
REMARK  status: ('A' for Active; 'I' for Inactive)
REMARK    1  A    between atoms: N1_1  and  C1_5 
REMARK    2  A    between atoms: C1_5  and  N2_6 
REMARK    3  A    between atoms: C1_5  and  C2_10 
REMARK       I    between atoms: C2_10  and  N3_12 
ROOT
HETATM    1  C2  UNL     1      -1.278  -0.271   0.611  1.00  0.00     0.282 C 
HETATM    2  O1  UNL     1      -1.142   0.567   1.519  1.00  0.00    -0.269 OA
HETATM    3  N3  UNL     1      -0.168  -0.794  -0.103  1.00  0.00    -0.296 N 
ATOM      4  H3  UNL     1      -0.270  -1.707  -0.547  1.00  0.00     0.172 HD
HETATM    5  C3  UNL     1       0.952  -0.189  -0.223  1.00  0.00     0.177 C 
HETATM    6  N4  UNL     1       2.051  -0.747  -0.951  1.00  0.00    -0.361 N 
ATOM      7  H4  UNL     1       2.007  -1.570  -1.552  1.00  0.00     0.162 HD
HETATM    8  C4  UNL     1       3.231   0.045  -0.697  1.00  0.00     0.142 C 
HETATM    9  C5  UNL     1       2.805   1.022   0.363  1.00  0.00     0.142 C 
HETATM   10  N5  UNL     1       1.340   1.060   0.287  1.00  0.00    -0.361 N 
ATOM     11  H5  UNL     1       0.730   1.834   0.550  1.00  0.00     0.162 HD
ENDROOT
BRANCH   1  12
HETATM   12  C1  UNL     1      -2.641  -0.739   0.264  1.00  0.00     0.468 C 
BRANCH  12  13
HETATM   13  N1  UNL     1      -3.619  -0.082   1.109  1.00  0.00    -0.042 N 
ATOM     14  H13 UNL     1      -3.644   0.929   0.980  1.00  0.00     0.277 HD
ATOM     15  H12 UNL     1      -4.581  -0.273   0.831  1.00  0.00     0.277 HD
ATOM     16  H11 UNL     1      -3.418  -0.358   2.070  1.00  0.00     0.277 HD
ENDBRANCH  12  13
BRANCH  12  17
HETATM   17  N2  UNL     1      -2.928  -0.345  -1.108  1.00  0.00    -0.042 N 
ATOM     18  H23 UNL     1      -3.890  -0.536  -1.386  1.00  0.00     0.277 HD
ATOM     19  H22 UNL     1      -2.953   0.666  -1.237  1.00  0.00     0.277 HD
ATOM     20  H21 UNL     1      -2.240  -0.807  -1.702  1.00  0.00     0.277 HD
ENDBRANCH  12  17
ENDBRANCH   1  12
TORSDOF 3
