REMARK  2 active torsions:
REMARK  status: ('A' for Active; 'I' for Inactive)
REMARK    1  A    between atoms: C1_2  and  N2_4 
REMARK    2  A    between atoms: N4_9  and  N5_10 
ROOT
HETATM    1  N2  UNL     1      -0.499  -0.055  -0.461  1.00  0.00    -0.104 N 
HETATM    2  N3  UNL     1      -0.144   1.145   0.173  1.00  0.00    -0.218 N 
ATOM      3  H3  UNL     1      -0.765   1.898   0.470  1.00  0.00     0.194 HD
HETATM    4  C2  UNL     1       1.271   1.083   0.311  1.00  0.00     0.384 C 
HETATM    5  O1  UNL     1       2.029   1.929   0.819  1.00  0.00    -0.241 OA
HETATM    6  N4  UNL     1       1.659  -0.171  -0.262  1.00  0.00    -0.083 N 
HETATM    7  O2  UNL     1       0.640  -0.547  -1.040  1.00  0.00    -0.104 OA
ENDROOT
BRANCH   1   8
HETATM    8  C1  UNL     1      -1.783  -0.659  -0.507  1.00  0.00     0.232 C 
HETATM    9  N1  UNL     1      -2.855  -0.013   0.147  1.00  0.00    -0.066 NA
HETATM   10  S1  UNL     1      -1.992  -2.066  -1.303  1.00  0.00    -0.040 SA
ENDBRANCH   1   8
BRANCH   6  11
HETATM   11  N5  UNL     1       2.867  -0.869  -0.051  1.00  0.00    -0.312 N 
ATOM     12  H52 UNL     1       3.645  -0.582   0.543  1.00  0.00     0.179 HD
ATOM     13  H51 UNL     1       3.143  -1.762  -0.459  1.00  0.00     0.179 HD
ENDBRANCH   6  11
TORSDOF 2
