REMARK  5 active torsions:
REMARK  status: ('A' for Active; 'I' for Inactive)
REMARK    1  A    between atoms: N1_1  and  C1_5 
REMARK    2  A    between atoms: C1_5  and  N2_6 
REMARK    3  A    between atoms: C1_5  and  C2_10 
REMARK       I    between atoms: C2_10  and  N3_12 
REMARK    4  A    between atoms: N3_12  and  C3_14 
REMARK    5  A    between atoms: N6_20  and  O2_21 
ROOT
HETATM    1  C2  UNL     1      -0.889  -0.165  -0.307  1.00  0.00     0.281 C 
HETATM    2  O1  UNL     1      -1.874  -0.418   0.394  1.00  0.00    -0.269 OA
HETATM    3  N3  UNL     1       0.417  -0.120   0.182  1.00  0.00    -0.305 N 
ATOM      4  H3  UNL     1       1.129   0.102  -0.514  1.00  0.00     0.170 HD
ENDROOT
BRANCH   1   5
HETATM    5  C1  UNL     1      -1.164   0.102  -1.754  1.00  0.00     0.468 C 
BRANCH   5   6
HETATM    6  N1  UNL     1      -2.581  -0.002  -2.010  1.00  0.00    -0.042 N 
ATOM      7  H13 UNL     1      -3.128   0.717  -1.536  1.00  0.00     0.277 HD
ATOM      8  H12 UNL     1      -2.835   0.250  -2.965  1.00  0.00     0.277 HD
ATOM      9  H11 UNL     1      -2.861  -0.950  -1.757  1.00  0.00     0.277 HD
ENDBRANCH   5   6
BRANCH   5  10
HETATM   10  N2  UNL     1      -0.765   1.452  -2.114  1.00  0.00    -0.042 N 
ATOM     11  H23 UNL     1      -1.019   1.704  -3.069  1.00  0.00     0.277 HD
ATOM     12  H22 UNL     1      -1.312   2.171  -1.640  1.00  0.00     0.277 HD
ATOM     13  H21 UNL     1       0.236   1.525  -1.933  1.00  0.00     0.277 HD
ENDBRANCH   5  10
ENDBRANCH   1   5
BRANCH   3  14
HETATM   14  C3  UNL     1       0.908  -0.333   1.487  1.00  0.00     0.173 A 
HETATM   15  C4  UNL     1       2.274  -0.239   1.768  1.00  0.00     0.161 A 
HETATM   16  N4  UNL     1       2.433  -0.489   3.073  1.00  0.00    -0.292 N 
HETATM   17  N5  UNL     1       1.251  -0.726   3.586  1.00  0.00    -0.215 N 
ATOM     18  H4  UNL     1       3.319  -0.494   3.579  1.00  0.00     0.187 HD
HETATM   19  N6  UNL     1       0.326  -0.635   2.640  1.00  0.00    -0.130 N 
ATOM     20  H5  UNL     1       1.070  -0.947   4.565  1.00  0.00     0.211 HD
BRANCH  19  21
HETATM   21  O2  UNL     1      -0.910  -0.810   2.824  1.00  0.00    -0.265 OA
ATOM     22  H2  UNL     1      -1.327  -1.026   3.650  1.00  0.00     0.247 HD
ENDBRANCH  19  21
ENDBRANCH   3  14
TORSDOF 5
