REMARK  3 active torsions:
REMARK  status: ('A' for Active; 'I' for Inactive)
REMARK       I    between atoms: C1_4  and  N3_6 
REMARK    1  A    between atoms: N3_6  and  S1_8 
REMARK    2  A    between atoms: S1_8  and  C2_11 
REMARK    3  A    between atoms: C6_18  and  C7_19 
ROOT
HETATM    1  C2  UNL     1      -0.362  -0.393   0.454  1.00  0.00     0.109 A 
HETATM    2  C3  UNL     1      -0.503   0.727  -0.341  1.00  0.00     0.031 A 
HETATM    3  C4  UNL     1      -1.700   0.941  -0.987  1.00  0.00     0.047 A 
HETATM    4  C5  UNL     1      -2.745   0.052  -0.845  1.00  0.00     0.116 A 
HETATM    5  N4  UNL     1      -3.971   0.285  -1.517  1.00  0.00    -0.083 NA
HETATM    6  N5  UNL     1      -2.550  -0.996  -0.074  1.00  0.00    -0.341 N 
ATOM      7  H5  UNL     1      -3.324  -1.652   0.029  1.00  0.00     0.167 HD
HETATM    8  C6  UNL     1      -1.385  -1.279   0.605  1.00  0.00     0.095 A 
ENDROOT
BRANCH   1   9
HETATM    9  S1  UNL     1       1.150  -0.669   1.270  1.00  0.00     0.267 S 
HETATM   10  O1  UNL     1       1.761  -1.978   0.839  1.00  0.00    -0.200 OA
HETATM   11  O2  UNL     1       0.957  -0.626   2.787  1.00  0.00    -0.200 OA
BRANCH   9  12
HETATM   12  N3  UNL     1       2.333   0.532   0.939  1.00  0.00    -0.254 N 
HETATM   13  C1  UNL     1       2.817   0.756  -0.367  1.00  0.00     0.195 C 
HETATM   14  N1  UNL     1       2.777  -0.060  -1.357  1.00  0.00    -0.373 N 
HETATM   15  N2  UNL     1       3.442   2.038  -0.673  1.00  0.00    -0.063 NA
ATOM     16  H12 UNL     1       3.127   0.102  -2.301  1.00  0.00     0.158 HD
ATOM     17  H11 UNL     1       2.340  -0.956  -1.143  1.00  0.00     0.158 HD
ATOM     18  H3  UNL     1       2.695   1.098   1.707  1.00  0.00     0.181 HD
ENDBRANCH   9  12
ENDBRANCH   1   9
BRANCH   8  19
HETATM   19  C7  UNL     1      -1.364  -2.485   1.420  1.00  0.00     0.289 C 
HETATM   20  O3  UNL     1      -0.447  -2.929   2.108  1.00  0.00    -0.300 OA
ENDBRANCH   8  19
TORSDOF 3
