REMARK  3 active torsions:
REMARK  status: ('A' for Active; 'I' for Inactive)
REMARK    1  A    between atoms: C2_7  and  C3_8 
REMARK    2  A    between atoms: N3_9  and  N4_11 
REMARK    3  A    between atoms: N4_11  and  C4_13 
ROOT
HETATM    1  C3  UNL     1      -0.820  -0.287  -0.871  1.00  0.00     0.143 C 
HETATM    2  N3  UNL     1      -0.255  -1.250  -0.240  1.00  0.00    -0.308 N 
ATOM      3  H3  UNL     1      -0.724  -1.634   0.580  1.00  0.00     0.186 HD
ENDROOT
BRANCH   1   4
HETATM    4  C2  UNL     1      -2.092   0.278  -0.471  1.00  0.00     0.133 A 
HETATM    5  N2  UNL     1      -2.673   1.278  -1.131  1.00  0.00    -0.290 N 
HETATM    6  N1  UNL     1      -3.837   1.803  -0.774  1.00  0.00    -0.251 N 
ATOM      7  H2  UNL     1      -2.200   1.658  -1.951  1.00  0.00     0.187 HD
HETATM    8  C1  UNL     1      -4.435   1.278   0.311  1.00  0.00     0.341 A 
ATOM      9  H1  UNL     1      -4.260   2.569  -1.298  1.00  0.00     0.191 HD
HETATM   10  O1  UNL     1      -5.549   1.761   0.675  1.00  0.00    -0.245 OA
HETATM   11  N6  UNL     1      -3.896   0.256   1.030  1.00  0.00    -0.272 N 
HETATM   12  C9  UNL     1      -2.723  -0.240   0.633  1.00  0.00     0.279 A 
ATOM     13  H6  UNL     1      -4.375  -0.120   1.848  1.00  0.00     0.173 HD
HETATM   14  O2  UNL     1      -2.194  -1.177   1.264  1.00  0.00    -0.265 OA
ENDBRANCH   1   4
BRANCH   2  15
HETATM   15  N4  UNL     1       0.955  -1.791  -0.617  1.00  0.00    -0.286 N 
ATOM     16  H4  UNL     1       0.972  -2.677  -1.122  1.00  0.00     0.188 HD
BRANCH  15  17
HETATM   17  C4  UNL     1       2.176  -1.138  -0.316  1.00  0.00     0.119 A 
HETATM   18  C5  UNL     1       2.135   0.059   0.365  1.00  0.00     0.050 A 
HETATM   19  C6  UNL     1       3.325   0.693   0.656  1.00  0.00     0.005 A 
HETATM   20  C7  UNL     1       4.522   0.111   0.257  1.00  0.00     0.017 A 
HETATM   21  C8  UNL     1       4.540  -1.086  -0.424  1.00  0.00     0.089 A 
HETATM   22  N5  UNL     1       3.364  -1.679  -0.692  1.00  0.00    -0.351 N 
ATOM     23  H5  UNL     1       3.364  -2.566  -1.195  1.00  0.00     0.166 HD
ENDBRANCH  15  17
ENDBRANCH   2  15
TORSDOF 3
