REMARK  15 active torsions:
REMARK  status: ('A' for Active; 'I' for Inactive)
REMARK    1  A    between atoms: C2_2  and  C3_3 
REMARK    2  A    between atoms: C3_3  and  N1_4 
REMARK    3  A    between atoms: N1_4  and  C4_6 
REMARK    4  A    between atoms: C4_6  and  C5_7 
REMARK    5  A    between atoms: C5_7  and  C6_8 
REMARK    6  A    between atoms: C6_8  and  C7_9 
REMARK    7  A    between atoms: C7_9  and  C8_10 
REMARK    8  A    between atoms: C8_10  and  C9_11 
REMARK    9  A    between atoms: C9_11  and  C10_12 
REMARK   10  A    between atoms: C10_12  and  C11_13 
REMARK   11  A    between atoms: C11_13  and  C12_14 
REMARK   12  A    between atoms: C12_14  and  C13_15 
REMARK   13  A    between atoms: C13_15  and  C14_16 
REMARK   14  A    between atoms: C14_16  and  N2_17 
REMARK   15  A    between atoms: N2_17  and  C15_19 
ROOT
HETATM    1  C11 UNL     1       0.291  -0.528  -2.250  1.00  0.00     0.000 C 
ENDROOT
BRANCH   1   2
HETATM    2  C10 UNL     1       1.159  -0.917  -1.111  1.00  0.00     0.000 C 
BRANCH   2   3
HETATM    3  C9  UNL     1       1.980   0.179  -0.512  1.00  0.00     0.000 C 
BRANCH   3   4
HETATM    4  C8  UNL     1       2.941   0.834  -1.480  1.00  0.00     0.000 C 
BRANCH   4   5
HETATM    5  C7  UNL     1       3.689   1.907  -0.722  1.00  0.00     0.000 C 
BRANCH   5   6
HETATM    6  C6  UNL     1       4.476   1.377   0.443  1.00  0.00     0.002 C 
BRANCH   6   7
HETATM    7  C5  UNL     1       5.511   0.374  -0.016  1.00  0.00     0.019 C 
BRANCH   7   8
HETATM    8  C4  UNL     1       6.284  -0.133   1.222  1.00  0.00     0.114 C 
BRANCH   8   9
HETATM    9  N1  UNL     1       7.276  -1.083   0.849  1.00  0.00    -0.418 N 
ATOM     10  H1  UNL     1       7.196  -2.071   1.091  1.00  0.00     0.153 HD
BRANCH   9  11
HETATM   11  C3  UNL     1       8.379  -0.577   0.124  1.00  0.00     0.140 C 
BRANCH  11  12
HETATM   12  C2  UNL     1       9.346   0.247   0.880  1.00  0.00    -0.018 C 
HETATM   13  C1  UNL     1       9.277   0.477   2.171  1.00  0.00     0.008 C 
ENDBRANCH  11  12
ENDBRANCH   9  11
ENDBRANCH   8   9
ENDBRANCH   7   8
ENDBRANCH   6   7
ENDBRANCH   5   6
ENDBRANCH   4   5
ENDBRANCH   3   4
ENDBRANCH   2   3
ENDBRANCH   1   2
BRANCH   1  14
HETATM   14  C12 UNL     1      -0.726   0.506  -1.985  1.00  0.00     0.005 C 
BRANCH  14  15
HETATM   15  C13 UNL     1      -1.735   0.167  -0.923  1.00  0.00     0.044 C 
BRANCH  15  16
HETATM   16  C14 UNL     1      -2.538  -1.051  -1.216  1.00  0.00     0.056 C 
BRANCH  16  17
HETATM   17  N2  UNL     1      -3.495  -1.482  -0.318  1.00  0.00    -0.398 N 
ATOM     18  H2  UNL     1      -3.309  -2.354   0.176  1.00  0.00     0.159 HD
BRANCH  17  19
HETATM   19  C15 UNL     1      -4.694  -0.830  -0.027  1.00  0.00     0.080 C 
HETATM   20  C16 UNL     1      -5.660  -0.654  -1.146  1.00  0.00     0.025 C 
HETATM   21  C17 UNL     1      -7.087  -0.889  -0.925  1.00  0.00     0.002 C 
HETATM   22  C18 UNL     1      -7.613  -1.125   0.432  1.00  0.00     0.000 C 
HETATM   23  C19 UNL     1      -7.839   0.056   1.306  1.00  0.00     0.000 C 
HETATM   24  C20 UNL     1      -6.778   1.081   1.364  1.00  0.00     0.000 C 
HETATM   25  C21 UNL     1      -5.481   0.542   1.930  1.00  0.00     0.002 C 
HETATM   26  C22 UNL     1      -4.447   0.416   0.794  1.00  0.00     0.025 C 
ENDBRANCH  17  19
ENDBRANCH  16  17
ENDBRANCH  15  16
ENDBRANCH  14  15
ENDBRANCH   1  14
TORSDOF 15
