REMARK  18 active torsions:
REMARK  status: ('A' for Active; 'I' for Inactive)
REMARK    1  A    between atoms: N1_1  and  C1_5 
REMARK    2  A    between atoms: C1_5  and  C2_6 
REMARK    3  A    between atoms: C2_6  and  C3_7 
REMARK    4  A    between atoms: C3_7  and  C4_8 
REMARK    5  A    between atoms: C4_8  and  C5_9 
REMARK    6  A    between atoms: C5_9  and  C6_10 
REMARK    7  A    between atoms: C6_10  and  C7_11 
REMARK    8  A    between atoms: C7_11  and  C8_12 
REMARK    9  A    between atoms: C8_12  and  C9_13 
REMARK   10  A    between atoms: C9_13  and  C10_14 
REMARK   11  A    between atoms: C10_14  and  C11_15 
REMARK   12  A    between atoms: C11_15  and  C12_16 
REMARK   13  A    between atoms: C12_16  and  C13_17 
REMARK   14  A    between atoms: C13_17  and  C14_18 
REMARK   15  A    between atoms: C14_18  and  C15_19 
REMARK   16  A    between atoms: C15_19  and  C16_20 
REMARK   17  A    between atoms: C16_20  and  C17_21 
REMARK   18  A    between atoms: C17_21  and  N2_22 
ROOT
HETATM    1  C11 UNL     1      -0.677   2.162  -0.323  1.00  0.00     0.000 C 
ENDROOT
BRANCH   1   2
HETATM    2  C10 UNL     1       0.184   2.566   0.789  1.00  0.00     0.000 C 
BRANCH   2   3
HETATM    3  C9  UNL     1       0.711   1.580   1.759  1.00  0.00     0.000 C 
BRANCH   3   4
HETATM    4  C8  UNL     1       1.539   0.481   1.125  1.00  0.00     0.000 C 
BRANCH   4   5
HETATM    5  C7  UNL     1       2.720   1.143   0.431  1.00  0.00     0.000 C 
BRANCH   5   6
HETATM    6  C6  UNL     1       3.532   0.034  -0.193  1.00  0.00     0.000 C 
BRANCH   6   7
HETATM    7  C5  UNL     1       4.736   0.603  -0.910  1.00  0.00     0.000 C 
BRANCH   7   8
HETATM    8  C4  UNL     1       5.562  -0.498  -1.543  1.00  0.00     0.000 C 
BRANCH   8   9
HETATM    9  C3  UNL     1       6.073  -1.481  -0.524  1.00  0.00     0.002 C 
BRANCH   9  10
HETATM   10  C2  UNL     1       6.944  -0.803   0.499  1.00  0.00     0.027 C 
BRANCH  10  11
HETATM   11  C1  UNL     1       8.151  -0.144  -0.134  1.00  0.00     0.229 C 
BRANCH  11  12
HETATM   12  N1  UNL     1       8.982  -1.087  -0.826  1.00  0.00    -0.079 N 
ATOM     13  H13 UNL     1       9.259  -1.854  -0.213  1.00  0.00     0.274 HD
ATOM     14  H12 UNL     1       8.446  -1.615  -1.515  1.00  0.00     0.274 HD
ATOM     15  H11 UNL     1       9.795  -0.643  -1.252  1.00  0.00     0.274 HD
ENDBRANCH  11  12
ENDBRANCH  10  11
ENDBRANCH   9  10
ENDBRANCH   8   9
ENDBRANCH   7   8
ENDBRANCH   6   7
ENDBRANCH   5   6
ENDBRANCH   4   5
ENDBRANCH   3   4
ENDBRANCH   2   3
ENDBRANCH   1   2
BRANCH   1  16
HETATM   16  C12 UNL     1      -1.987   1.556  -0.083  1.00  0.00     0.000 C 
BRANCH  16  17
HETATM   17  C13 UNL     1      -2.095   0.252   0.603  1.00  0.00     0.000 C 
BRANCH  17  18
HETATM   18  C14 UNL     1      -3.551  -0.202   0.747  1.00  0.00     0.001 C 
BRANCH  18  19
HETATM   19  C15 UNL     1      -4.166  -0.350  -0.595  1.00  0.00     0.015 C 
BRANCH  19  20
HETATM   20  C16 UNL     1      -5.618  -0.833  -0.503  1.00  0.00     0.001 C 
HETATM   21  C18 UNL     1      -5.624  -2.174   0.135  1.00  0.00    -0.019 C 
HETATM   22  C19 UNL     1      -6.216  -2.140   1.309  1.00  0.00    -0.030 C 
HETATM   23  C20 UNL     1      -6.702  -0.787   1.655  1.00  0.00     0.028 C 
HETATM   24  C21 UNL     1      -6.455   0.024   0.382  1.00  0.00     0.019 C 
BRANCH  20  25
HETATM   25  C17 UNL     1      -6.133  -0.945  -1.907  1.00  0.00     0.243 C 
BRANCH  25  26
HETATM   26  N2  UNL     1      -7.498  -1.392  -1.980  1.00  0.00    -0.078 N 
ATOM     27  H23 UNL     1      -7.618  -2.273  -1.479  1.00  0.00     0.274 HD
ATOM     28  H22 UNL     1      -8.105  -0.795  -1.418  1.00  0.00     0.274 HD
ATOM     29  H21 UNL     1      -7.848  -1.468  -2.935  1.00  0.00     0.274 HD
ENDBRANCH  25  26
ENDBRANCH  20  25
ENDBRANCH  19  20
ENDBRANCH  18  19
ENDBRANCH  17  18
ENDBRANCH  16  17
ENDBRANCH   1  16
TORSDOF 18
