REMARK  16 active torsions:
REMARK  status: ('A' for Active; 'I' for Inactive)
REMARK    1  A    between atoms: N1_1  and  C1_5 
REMARK    2  A    between atoms: C1_5  and  C2_6 
REMARK    3  A    between atoms: C2_6  and  C3_7 
REMARK    4  A    between atoms: C3_7  and  C4_8 
REMARK    5  A    between atoms: C4_8  and  C5_9 
REMARK    6  A    between atoms: C5_9  and  C6_10 
REMARK    7  A    between atoms: C6_10  and  C7_11 
REMARK    8  A    between atoms: C7_11  and  C8_12 
REMARK    9  A    between atoms: C8_12  and  C9_13 
REMARK   10  A    between atoms: C9_13  and  C10_14 
REMARK   11  A    between atoms: C10_14  and  C11_15 
REMARK   12  A    between atoms: C11_15  and  C12_16 
REMARK   13  A    between atoms: C12_16  and  N2_17 
REMARK   14  A    between atoms: N2_17  and  C13_19 
REMARK   15  A    between atoms: N3_20  and  O1_22 
REMARK   16  A    between atoms: O1_22  and  C14_23 
ROOT
HETATM    1  C11 UNL     1       0.070  -0.183  -0.563  1.00  0.00     0.020 C 
ENDROOT
BRANCH   1   2
HETATM    2  C10 UNL     1      -0.875  -0.822   0.425  1.00  0.00     0.002 C 
BRANCH   2   3
HETATM    3  C9  UNL     1      -1.113   0.212   1.514  1.00  0.00     0.000 C 
BRANCH   3   4
HETATM    4  C8  UNL     1      -1.662   1.478   0.975  1.00  0.00     0.000 C 
BRANCH   4   5
HETATM    5  C7  UNL     1      -2.988   1.276   0.309  1.00  0.00     0.000 C 
BRANCH   5   6
HETATM    6  C6  UNL     1      -3.983   0.791   1.310  1.00  0.00     0.000 C 
BRANCH   6   7
HETATM    7  C5  UNL     1      -5.377   0.582   0.729  1.00  0.00     0.000 C 
BRANCH   7   8
HETATM    8  C4  UNL     1      -5.349  -0.453  -0.340  1.00  0.00     0.000 C 
BRANCH   8   9
HETATM    9  C3  UNL     1      -6.695  -0.703  -0.967  1.00  0.00     0.002 C 
BRANCH   9  10
HETATM   10  C2  UNL     1      -7.732  -1.159   0.036  1.00  0.00     0.027 C 
BRANCH  10  11
HETATM   11  C1  UNL     1      -9.046  -1.369  -0.732  1.00  0.00     0.229 C 
BRANCH  11  12
HETATM   12  N1  UNL     1      -9.407  -0.077  -1.337  1.00  0.00    -0.079 N 
ATOM     13  H13 UNL     1      -9.458   0.682  -0.658  1.00  0.00     0.274 HD
ATOM     14  H12 UNL     1      -8.664   0.315  -1.916  1.00  0.00     0.274 HD
ATOM     15  H11 UNL     1     -10.279  -0.216  -1.847  1.00  0.00     0.274 HD
ENDBRANCH  11  12
ENDBRANCH  10  11
ENDBRANCH   9  10
ENDBRANCH   8   9
ENDBRANCH   7   8
ENDBRANCH   6   7
ENDBRANCH   5   6
ENDBRANCH   4   5
ENDBRANCH   3   4
ENDBRANCH   2   3
ENDBRANCH   1   2
BRANCH   1  16
HETATM   16  C12 UNL     1       1.358   0.280   0.057  1.00  0.00     0.120 C 
BRANCH  16  17
HETATM   17  N2  UNL     1       2.176   0.878  -1.005  1.00  0.00    -0.385 N 
ATOM     18  H2  UNL     1       1.920   0.731  -1.981  1.00  0.00     0.160 HD
BRANCH  17  19
HETATM   19  C13 UNL     1       3.319   1.658  -0.689  1.00  0.00     0.199 C 
HETATM   20  N3  UNL     1       4.467   1.303  -0.616  1.00  0.00    -0.262 N 
ATOM     21  H3  UNL     1       4.968   2.156  -0.369  1.00  0.00     0.195 HD
BRANCH  20  22
HETATM   22  O1  UNL     1       5.396   0.412  -0.686  1.00  0.00    -0.274 OA
BRANCH  22  23
HETATM   23  C14 UNL     1       5.928  -0.165   0.519  1.00  0.00     0.155 C 
HETATM   24  C15 UNL     1       6.358  -1.552   0.253  1.00  0.00     0.061 C 
HETATM   25  C16 UNL     1       7.750  -1.867   0.637  1.00  0.00    -0.028 C 
HETATM   26  C17 UNL     1       8.866  -1.208   0.368  1.00  0.00    -0.031 C 
HETATM   27  C18 UNL     1       9.172   0.034  -0.376  1.00  0.00     0.027 C 
HETATM   28  C19 UNL     1       7.896   0.864  -0.507  1.00  0.00     0.006 C 
HETATM   29  C20 UNL     1       7.170   0.725   0.800  1.00  0.00     0.035 C 
ENDBRANCH  22  23
ENDBRANCH  20  22
ENDBRANCH  17  19
ENDBRANCH  16  17
ENDBRANCH   1  16
TORSDOF 16
