REMARK  18 active torsions:
REMARK  status: ('A' for Active; 'I' for Inactive)
REMARK    1  A    between atoms: N1_1  and  C1_5 
REMARK    2  A    between atoms: C1_5  and  C2_6 
REMARK    3  A    between atoms: C2_6  and  N2_7 
REMARK    4  A    between atoms: N2_7  and  C3_9 
REMARK    5  A    between atoms: C3_9  and  C4_10 
REMARK    6  A    between atoms: C4_10  and  C5_11 
REMARK    7  A    between atoms: C5_11  and  C6_12 
REMARK    8  A    between atoms: C6_12  and  C7_13 
REMARK    9  A    between atoms: C7_13  and  C8_14 
REMARK   10  A    between atoms: C8_14  and  C9_15 
REMARK   11  A    between atoms: C9_15  and  C10_16 
REMARK   12  A    between atoms: C10_16  and  C11_17 
REMARK   13  A    between atoms: C11_17  and  C12_18 
REMARK   14  A    between atoms: C12_18  and  C13_19 
REMARK   15  A    between atoms: C13_19  and  C14_20 
REMARK   16  A    between atoms: C14_20  and  C15_21 
REMARK   17  A    between atoms: C15_21  and  C16_22 
REMARK   18  A    between atoms: C16_22  and  C17_23 
ROOT
HETATM    1  C8  UNL     1       2.023  -0.687  -0.400  1.00  0.00     0.000 C 
ENDROOT
BRANCH   1   2
HETATM    2  C7  UNL     1       2.441   0.456   0.436  1.00  0.00     0.000 C 
BRANCH   2   3
HETATM    3  C6  UNL     1       3.814   0.572   0.912  1.00  0.00     0.000 C 
BRANCH   3   4
HETATM    4  C5  UNL     1       4.970   0.763   0.035  1.00  0.00     0.005 C 
BRANCH   4   5
HETATM    5  C4  UNL     1       5.241  -0.298  -0.939  1.00  0.00     0.044 C 
BRANCH   5   6
HETATM    6  C3  UNL     1       6.526  -0.221  -1.717  1.00  0.00     0.060 C 
BRANCH   6   7
HETATM    7  N2  UNL     1       7.766  -0.444  -1.249  1.00  0.00    -0.381 N 
ATOM      8  H2  UNL     1       8.191  -1.247  -1.713  1.00  0.00     0.164 HD
BRANCH   7   9
HETATM    9  C2  UNL     1       8.618   0.096  -0.332  1.00  0.00     0.087 C 
BRANCH   9  10
HETATM   10  C1  UNL     1       8.389  -0.323   1.090  1.00  0.00     0.274 C 
BRANCH  10  11
HETATM   11  N1  UNL     1       9.320   0.310   2.020  1.00  0.00    -0.075 N 
ATOM     12  H13 UNL     1      10.287   0.144   1.740  1.00  0.00     0.274 HD
ATOM     13  H12 UNL     1       9.295   1.326   1.929  1.00  0.00     0.274 HD
ATOM     14  H11 UNL     1       9.164   0.025   2.987  1.00  0.00     0.274 HD
ENDBRANCH  10  11
ENDBRANCH   9  10
ENDBRANCH   7   9
ENDBRANCH   6   7
ENDBRANCH   5   6
ENDBRANCH   4   5
ENDBRANCH   3   4
ENDBRANCH   2   3
ENDBRANCH   1   2
BRANCH   1  15
HETATM   15  C9  UNL     1       0.485  -0.586  -0.559  1.00  0.00     0.000 C 
BRANCH  15  16
HETATM   16  C10 UNL     1       0.105   0.672  -1.235  1.00  0.00     0.000 C 
BRANCH  16  17
HETATM   17  C11 UNL     1      -1.427   0.726  -1.368  1.00  0.00     0.000 C 
BRANCH  17  18
HETATM   18  C12 UNL     1      -2.025   0.719   0.000  1.00  0.00     0.000 C 
BRANCH  18  19
HETATM   19  C13 UNL     1      -3.532   0.787   0.043  1.00  0.00     0.000 C 
BRANCH  19  20
HETATM   20  C14 UNL     1      -4.184  -0.367  -0.630  1.00  0.00     0.000 C 
BRANCH  20  21
HETATM   21  C15 UNL     1      -5.695  -0.319  -0.553  1.00  0.00     0.005 C 
BRANCH  21  22
HETATM   22  C16 UNL     1      -6.176  -0.317   0.878  1.00  0.00     0.038 C 
BRANCH  22  23
HETATM   23  C17 UNL     1      -7.657  -0.281   0.865  1.00  0.00    -0.058 A 
HETATM   24  C18 UNL     1      -8.435  -1.428   0.879  1.00  0.00     0.007 A 
HETATM   25  C19 UNL     1      -9.823  -1.376   0.878  1.00  0.00     0.001 A 
HETATM   26  C20 UNL     1     -10.481  -0.181   0.863  1.00  0.00     0.000 A 
HETATM   27  C21 UNL     1      -9.729   0.977   0.849  1.00  0.00     0.001 A 
HETATM   28  C22 UNL     1      -8.357   0.926   0.850  1.00  0.00     0.007 A 
ENDBRANCH  22  23
ENDBRANCH  21  22
ENDBRANCH  20  21
ENDBRANCH  19  20
ENDBRANCH  18  19
ENDBRANCH  17  18
ENDBRANCH  16  17
ENDBRANCH  15  16
ENDBRANCH   1  15
TORSDOF 18
