REMARK  15 active torsions:
REMARK  status: ('A' for Active; 'I' for Inactive)
REMARK    1  A    between atoms: C3_3  and  O1_4 
REMARK    2  A    between atoms: C4_6  and  O2_7 
REMARK    3  A    between atoms: C5_9  and  O3_10 
REMARK    4  A    between atoms: O3_10  and  N1_11 
REMARK    5  A    between atoms: C6_17  and  N3_18 
REMARK    6  A    between atoms: N4_22  and  O4_23 
REMARK    7  A    between atoms: O4_23  and  C7_24 
REMARK    8  A    between atoms: C7_24  and  C8_25 
REMARK    9  A    between atoms: C8_25  and  C9_26 
REMARK   10  A    between atoms: C9_26  and  N5_27 
REMARK   11  A    between atoms: N5_27  and  C10_29 
REMARK   12  A    between atoms: C10_29  and  C11_30 
REMARK   13  A    between atoms: C11_30  and  C12_31 
REMARK   14  A    between atoms: C12_31  and  C13_32 
REMARK   15  A    between atoms: C13_32  and  N6_33 
ROOT
HETATM    1  C1  UNL     1       2.474  -2.585  -0.212  1.00  0.00     0.037 C 
HETATM    2  C2  UNL     1       2.876  -1.212   0.338  1.00  0.00     0.140 C 
HETATM    3  C3  UNL     1       4.270  -0.992  -0.283  1.00  0.00     0.175 C 
HETATM    4  C4  UNL     1       4.872   0.291   0.164  1.00  0.00     0.208 C 
HETATM    5  C5  UNL     1       4.553   1.395  -0.869  1.00  0.00     0.385 C 
HETATM    6  N2  UNL     1       3.316   1.036  -1.445  1.00  0.00     0.004 N 
ATOM      7  H21 UNL     1       3.392   0.145  -1.935  1.00  0.00     0.285 HD
ATOM      8  H22 UNL     1       3.095   1.645  -2.233  1.00  0.00     0.285 HD
HETATM    9  C6  UNL     1       2.251   1.008  -0.524  1.00  0.00     0.507 C 
HETATM   10  N4  UNL     1       2.002  -0.269   0.160  1.00  0.00    -0.233 N 
ENDROOT
BRANCH  10  11
HETATM   11  O4  UNL     1       0.859  -0.036   0.734  1.00  0.00    -0.279 OA
BRANCH  11  12
HETATM   12  C7  UNL     1      -0.063  -1.044   0.670  1.00  0.00     0.206 C 
BRANCH  12  13
HETATM   13  C8  UNL     1      -1.063  -0.466  -0.379  1.00  0.00     0.073 C 
BRANCH  13  14
HETATM   14  C9  UNL     1      -2.161  -1.394  -0.670  1.00  0.00     0.057 C 
BRANCH  14  15
HETATM   15  N5  UNL     1      -3.001  -1.703   0.418  1.00  0.00    -0.402 N 
ATOM     16  H5  UNL     1      -3.002  -2.637   0.827  1.00  0.00     0.158 HD
BRANCH  15  17
HETATM   17  C10 UNL     1      -3.843  -0.688   0.931  1.00  0.00     0.118 C 
BRANCH  17  18
HETATM   18  C11 UNL     1      -4.929  -0.280  -0.097  1.00  0.00     0.021 C 
BRANCH  18  19
HETATM   19  C12 UNL     1      -5.829   0.711   0.635  1.00  0.00     0.029 C 
BRANCH  19  20
HETATM   20  C13 UNL     1      -6.853   1.402  -0.199  1.00  0.00     0.229 C 
BRANCH  20  21
HETATM   21  N6  UNL     1      -7.845   0.579  -0.813  1.00  0.00    -0.079 N 
ATOM     22  H63 UNL     1      -7.391  -0.150  -1.364  1.00  0.00     0.274 HD
ATOM     23  H62 UNL     1      -8.309   0.014  -0.101  1.00  0.00     0.274 HD
ATOM     24  H61 UNL     1      -8.546   1.052  -1.384  1.00  0.00     0.274 HD
ENDBRANCH  20  21
ENDBRANCH  19  20
ENDBRANCH  18  19
ENDBRANCH  17  18
ENDBRANCH  15  17
ENDBRANCH  14  15
ENDBRANCH  13  14
ENDBRANCH  12  13
ENDBRANCH  11  12
ENDBRANCH  10  11
BRANCH   9  25
HETATM   25  N3  UNL     1       2.317   1.998   0.568  1.00  0.00    -0.031 N 
ATOM     26  H33 UNL     1       3.205   1.911   1.062  1.00  0.00     0.279 HD
ATOM     27  H32 UNL     1       2.415   2.936   0.180  1.00  0.00     0.279 HD
ATOM     28  H31 UNL     1       1.546   1.978   1.235  1.00  0.00     0.279 HD
ENDBRANCH   9  25
BRANCH   3  29
HETATM   29  O1  UNL     1       4.286  -1.197  -1.646  1.00  0.00    -0.391 OA
ATOM     30  H1  UNL     1       5.145  -1.061  -2.029  1.00  0.00     0.210 HD
ENDBRANCH   3  29
BRANCH   4  31
HETATM   31  O2  UNL     1       6.256   0.158   0.201  1.00  0.00    -0.388 OA
ATOM     32  H2  UNL     1       6.641   0.978   0.487  1.00  0.00     0.210 HD
ENDBRANCH   4  31
BRANCH   5  33
HETATM   33  O3  UNL     1       4.360   2.588  -0.173  1.00  0.00    -0.251 OA
BRANCH  33  34
HETATM   34  N1  UNL     1       5.476   3.075   0.409  1.00  0.00    -0.309 N 
ATOM     35  H12 UNL     1       6.376   2.600   0.337  1.00  0.00     0.184 HD
ATOM     36  H11 UNL     1       5.335   3.948   0.918  1.00  0.00     0.184 HD
ENDBRANCH  33  34
ENDBRANCH   5  33
TORSDOF 15
