REMARK  8 active torsions:
REMARK  status: ('A' for Active; 'I' for Inactive)
REMARK       I    between atoms: C1_2  and  N1_3 
REMARK    1  A    between atoms: C1_2  and  C15_23 
REMARK    2  A    between atoms: N1_3  and  C2_4 
REMARK    3  A    between atoms: C2_4  and  C3_5 
REMARK    4  A    between atoms: C8_11  and  O2_12 
REMARK    5  A    between atoms: O2_12  and  C9_13 
REMARK    6  A    between atoms: C9_13  and  C10_14 
REMARK    7  A    between atoms: C18_26  and  S1_27 
REMARK    8  A    between atoms: S1_27  and  C19_30 
ROOT
HETATM    1  O1  UNL     1      -0.687   2.268  -2.057  1.00  0.00    -0.251 OA
HETATM    2  C1  UNL     1      -0.607   1.262  -1.268  1.00  0.00     0.325 C 
HETATM    3  N1  UNL     1       0.553   0.729  -0.735  1.00  0.00    -0.378 NA
ENDROOT
BRANCH   3   4
HETATM    4  C2  UNL     1       1.650   0.224  -0.231  1.00  0.00     0.200 C 
BRANCH   4   5
HETATM    5  C3  UNL     1       2.688  -0.395  -1.105  1.00  0.00     0.028 A 
HETATM    6  C4  UNL     1       2.538  -0.575  -2.450  1.00  0.00     0.040 A 
HETATM    7  C5  UNL     1       3.541  -1.201  -3.208  1.00  0.00     0.035 A 
HETATM    8 CL1  UNL     1       3.349  -1.436  -4.931  1.00  0.00    -0.084 Cl
HETATM    9  C6  UNL     1       4.687  -1.639  -2.585  1.00  0.00     0.026 A 
HETATM   10  C7  UNL     1       4.848  -1.460  -1.221  1.00  0.00     0.039 A 
HETATM   11  C8  UNL     1       3.858  -0.844  -0.491  1.00  0.00     0.082 A 
BRANCH  11  12
HETATM   12  O2  UNL     1       3.975  -0.645   0.841  1.00  0.00    -0.344 OA
BRANCH  12  13
HETATM   13  C9  UNL     1       5.086  -0.994   1.600  1.00  0.00     0.232 C 
BRANCH  13  14
HETATM   14  C10 UNL     1       6.331  -0.272   1.224  1.00  0.00     0.035 A 
HETATM   15  C11 UNL     1       7.522  -0.740   1.676  1.00  0.00     0.030 A 
HETATM   16  C12 UNL     1       8.684  -0.083   1.353  1.00  0.00     0.047 A 
HETATM   17  C13 UNL     1       8.609   1.040   0.572  1.00  0.00     0.154 A 
HETATM   18  F1  UNL     1       9.725   1.734   0.223  1.00  0.00    -0.203 F 
HETATM   19  C14 UNL     1       7.409   1.510   0.116  1.00  0.00     0.142 A 
HETATM   20 CL2  UNL     1       7.365   2.957  -0.894  1.00  0.00    -0.061 Cl
HETATM   21  N2  UNL     1       6.284   0.831   0.460  1.00  0.00    -0.346 N 
ATOM     22  H2  UNL     1       5.380   1.168   0.129  1.00  0.00     0.167 HD
ENDBRANCH  13  14
ENDBRANCH  12  13
ENDBRANCH  11  12
ENDBRANCH   4   5
ENDBRANCH   3   4
BRANCH   2  23
HETATM   23  C15 UNL     1      -1.942   0.691  -0.973  1.00  0.00     0.048 A 
HETATM   24  C16 UNL     1      -2.866   0.672  -2.012  1.00  0.00     0.020 A 
HETATM   25  C17 UNL     1      -4.124   0.151  -1.846  1.00  0.00     0.026 A 
HETATM   26  C18 UNL     1      -4.547  -0.389  -0.621  1.00  0.00     0.086 A 
HETATM   27  C25 UNL     1      -3.621  -0.360   0.387  1.00  0.00     0.057 A 
HETATM   28 CL4  UNL     1      -4.053  -1.026   1.947  1.00  0.00    -0.083 Cl
HETATM   29  C26 UNL     1      -2.330   0.173   0.222  1.00  0.00     0.043 A 
BRANCH  26  30
HETATM   30  S1  UNL     1      -6.169  -1.013  -0.476  1.00  0.00     0.208 S 
HETATM   31  O3  UNL     1      -6.075  -2.483  -0.078  1.00  0.00    -0.217 OA
HETATM   32  O4  UNL     1      -6.836  -1.047  -1.848  1.00  0.00    -0.217 OA
BRANCH  30  33
HETATM   33  C19 UNL     1      -7.200  -0.138   0.583  1.00  0.00     0.064 A 
HETATM   34  C20 UNL     1      -7.801   1.065   0.184  1.00  0.00     0.025 A 
HETATM   35  C21 UNL     1      -8.642   1.745   1.024  1.00  0.00     0.025 A 
HETATM   36  C22 UNL     1      -8.948   1.303   2.290  1.00  0.00     0.034 A 
HETATM   37 CL3  UNL     1     -10.023   2.205   3.341  1.00  0.00    -0.084 Cl
HETATM   38  C23 UNL     1      -8.356   0.105   2.697  1.00  0.00     0.025 A 
HETATM   39  C24 UNL     1      -7.513  -0.568   1.844  1.00  0.00     0.025 A 
ENDBRANCH  30  33
ENDBRANCH  26  30
ENDBRANCH   2  23
TORSDOF 8
