REMARK  10 active torsions:
REMARK  status: ('A' for Active; 'I' for Inactive)
REMARK    1  A    between atoms: C2_2  and  C3_3 
REMARK    2  A    between atoms: C3_3  and  N1_4 
REMARK    3  A    between atoms: N1_4  and  C4_5 
REMARK    4  A    between atoms: N1_4  and  C6_9 
REMARK    5  A    between atoms: C4_5  and  C5_6 
REMARK    6  A    between atoms: C5_6  and  O1_7 
REMARK    7  A    between atoms: C9_20  and  N6_21 
REMARK    8  A    between atoms: N6_21  and  C10_23 
REMARK    9  A    between atoms: C10_23  and  C11_24 
REMARK   10  A    between atoms: C11_24  and  N7_25 
ROOT
HETATM    1  C6  UNL     1      -1.152  -1.009  -0.535  1.00  0.00     0.136 A 
HETATM    2  N2  UNL     1      -2.012  -2.068  -0.790  1.00  0.00    -0.283 N 
ATOM      3  H2  UNL     1      -3.013  -2.061  -0.597  1.00  0.00     0.188 HD
HETATM    4  N3  UNL     1      -1.367  -3.070  -1.309  1.00  0.00    -0.283 N 
ATOM      5  H3  UNL     1      -1.763  -3.968  -1.588  1.00  0.00     0.188 HD
HETATM    6  C7  UNL     1      -0.070  -2.695  -1.409  1.00  0.00     0.138 A 
HETATM    7  N4  UNL     1       0.984  -3.362  -1.870  1.00  0.00    -0.337 N 
ATOM      8  H4  UNL     1       0.882  -4.313  -2.224  1.00  0.00     0.168 HD
HETATM    9  C8  UNL     1       2.185  -2.762  -1.861  1.00  0.00     0.183 A 
HETATM   10  N5  UNL     1       2.361  -1.520  -1.408  1.00  0.00    -0.338 N 
ATOM     11  H5  UNL     1       3.291  -1.101  -1.421  1.00  0.00     0.168 HD
HETATM   12  C9  UNL     1       1.306  -0.812  -0.930  1.00  0.00     0.120 A 
HETATM   13  C12 UNL     1       0.085  -1.395  -0.926  1.00  0.00     0.098 A 
ENDROOT
BRANCH   1  14
HETATM   14  N1  UNL     1      -1.616   0.171   0.074  1.00  0.00    -0.360 N 
BRANCH  14  15
HETATM   15  C3  UNL     1      -1.342   0.391   1.467  1.00  0.00     0.151 C 
BRANCH  15  16
HETATM   16  C2  UNL     1      -2.632   0.235   2.194  1.00  0.00    -0.017 C 
HETATM   17  C1  UNL     1      -2.805  -0.686   3.145  1.00  0.00     0.008 C 
ENDBRANCH  15  16
ENDBRANCH  14  15
BRANCH  14  18
HETATM   18  C4  UNL     1      -2.410   1.110  -0.653  1.00  0.00     0.151 C 
BRANCH  18  19
HETATM   19  C5  UNL     1      -1.843   2.461  -0.881  1.00  0.00     0.183 C 
BRANCH  19  20
HETATM   20  O1  UNL     1      -2.709   3.274  -1.597  1.00  0.00    -0.399 OA
ATOM     21  H1  UNL     1      -2.346   4.140  -1.743  1.00  0.00     0.209 HD
ENDBRANCH  19  20
ENDBRANCH  18  19
ENDBRANCH  14  18
ENDBRANCH   1  14
BRANCH  12  22
HETATM   22  N6  UNL     1       1.537   0.513  -0.519  1.00  0.00    -0.374 N 
ATOM     23  H6  UNL     1       0.750   1.090  -0.222  1.00  0.00     0.161 HD
BRANCH  22  24
HETATM   24  C10 UNL     1       2.871   1.071  -0.511  1.00  0.00     0.148 C 
BRANCH  24  25
HETATM   25  C11 UNL     1       3.820   0.394   0.429  1.00  0.00     0.249 C 
BRANCH  25  26
HETATM   26  N7  UNL     1       3.368   0.454   1.811  1.00  0.00    -0.078 N 
ATOM     27  H73 UNL     1       3.189   1.416   2.098  1.00  0.00     0.274 HD
ATOM     28  H72 UNL     1       2.425   0.078   1.906  1.00  0.00     0.274 HD
ATOM     29  H71 UNL     1       4.014  -0.007   2.451  1.00  0.00     0.274 HD
ENDBRANCH  25  26
ENDBRANCH  24  25
ENDBRANCH  22  24
ENDBRANCH  12  22
TORSDOF 10
