REMARK  8 active torsions:
REMARK  status: ('A' for Active; 'I' for Inactive)
REMARK    1  A    between atoms: C2_2  and  C3_3 
REMARK    2  A    between atoms: C3_3  and  N1_4 
REMARK       I    between atoms: N1_4  and  C4_6 
REMARK    3  A    between atoms: C4_6  and  C5_8 
REMARK    4  A    between atoms: C5_8  and  S1_9 
REMARK    5  A    between atoms: S1_9  and  C6_10 
REMARK    6  A    between atoms: C7_15  and  N4_16 
REMARK    7  A    between atoms: N4_16  and  N5_18 
REMARK    8  A    between atoms: N6_20  and  N7_22 
ROOT
HETATM    1  C6  UNL     1      -0.144  -0.445  -1.259  1.00  0.00     0.174 A 
HETATM    2  N2  UNL     1      -0.092  -1.239  -0.190  1.00  0.00    -0.265 N 
ATOM      3  H2  UNL     1       0.631  -1.939  -0.023  1.00  0.00     0.189 HD
HETATM    4  N3  UNL     1      -1.105  -0.996   0.625  1.00  0.00    -0.129 N 
ATOM      5  H3  UNL     1      -1.283  -1.474   1.509  1.00  0.00     0.205 HD
HETATM    6  C7  UNL     1      -1.850  -0.033   0.108  1.00  0.00     0.714 A 
HETATM    7  N8  UNL     1      -1.261   0.310  -1.053  1.00  0.00    -0.166 N 
ATOM      8  H8  UNL     1      -1.602   1.032  -1.688  1.00  0.00     0.186 HD
ENDROOT
BRANCH   1   9
HETATM    9  S1  UNL     1       0.904  -0.284  -2.689  1.00  0.00    -0.083 SA
BRANCH   9  10
HETATM   10  C5  UNL     1       2.228   0.917  -2.467  1.00  0.00     0.185 C 
BRANCH  10  11
HETATM   11  C4  UNL     1       3.276   0.520  -1.542  1.00  0.00     0.227 C 
HETATM   12  N1  UNL     1       3.384  -0.739  -0.952  1.00  0.00    -0.357 N 
ATOM     13  H1  UNL     1       2.689  -1.453  -1.171  1.00  0.00     0.162 HD
HETATM   14  O1  UNL     1       4.165   1.393  -1.252  1.00  0.00    -0.273 OA
BRANCH  12  15
HETATM   15  C3  UNL     1       4.464  -1.057  -0.032  1.00  0.00     0.149 C 
BRANCH  15  16
HETATM   16  C2  UNL     1       4.460  -0.169   1.153  1.00  0.00    -0.018 C 
HETATM   17  C1  UNL     1       5.477   0.605   1.452  1.00  0.00     0.008 C 
ENDBRANCH  15  16
ENDBRANCH  12  15
ENDBRANCH  10  11
ENDBRANCH   9  10
ENDBRANCH   1   9
BRANCH   6  18
HETATM   18  N4  UNL     1      -3.046   0.571   0.615  1.00  0.00    -0.115 N 
ATOM     19  H4  UNL     1      -3.487   1.313   0.072  1.00  0.00     0.207 HD
BRANCH  18  20
HETATM   20  N5  UNL     1      -3.629   0.187   1.815  1.00  0.00    -0.214 N 
HETATM   21  N6  UNL     1      -4.874  -0.108   1.796  1.00  0.00    -0.233 N 
ATOM     22  H6  UNL     1      -5.334  -0.394   2.660  1.00  0.00     0.209 HD
ATOM     23  H5  UNL     1      -3.086   0.142   2.678  1.00  0.00     0.210 HD
BRANCH  21  24
HETATM   24  N7  UNL     1      -5.616  -0.045   0.612  1.00  0.00    -0.325 N 
HETATM   25  C8  UNL     1      -7.046   0.147   0.719  1.00  0.00     0.169 C 
ATOM     26  H7  UNL     1      -5.163  -0.132  -0.298  1.00  0.00     0.181 HD
ENDBRANCH  21  24
ENDBRANCH  18  20
ENDBRANCH   6  18
TORSDOF 8
