REMARK  9 active torsions:
REMARK  status: ('A' for Active; 'I' for Inactive)
REMARK    1  A    between atoms: C3_3  and  C4_4 
REMARK    2  A    between atoms: C4_4  and  N1_5 
REMARK    3  A    between atoms: N1_5  and  C5_7 
REMARK    4  A    between atoms: C5_7  and  C6_8 
REMARK    5  A    between atoms: C6_8  and  O1_9 
REMARK    6  A    between atoms: O1_9  and  C7_10 
REMARK    7  A    between atoms: C7_10  and  C8_11 
REMARK    8  A    between atoms: C8_11  and  S1_12 
REMARK    9  A    between atoms: S1_12  and  C9_13 
ROOT
HETATM    1  C6  UNL     1      -0.198  -1.883   0.944  1.00  0.00     0.186 C 
ENDROOT
BRANCH   1   2
HETATM    2  C5  UNL     1      -1.637  -1.864   1.326  1.00  0.00     0.140 C 
BRANCH   2   3
HETATM    3  N1  UNL     1      -2.376  -0.743   0.886  1.00  0.00    -0.414 N 
ATOM      4  H1  UNL     1      -2.721  -0.052   1.553  1.00  0.00     0.153 HD
BRANCH   3   5
HETATM    5  C4  UNL     1      -2.628  -0.598  -0.499  1.00  0.00     0.172 C 
BRANCH   5   6
HETATM    6  C3  UNL     1      -3.443   0.668  -0.654  1.00  0.00     0.044 A 
HETATM    7  C2  UNL     1      -4.818   0.792  -0.607  1.00  0.00     0.047 A 
HETATM    8  C1  UNL     1      -5.163   2.132  -0.796  1.00  0.00     0.109 A 
HETATM    9  N6  UNL     1      -4.000   2.765  -0.949  1.00  0.00    -0.312 N 
HETATM   10  N5  UNL     1      -2.984   1.920  -0.868  1.00  0.00    -0.304 N 
ATOM     11  H6  UNL     1      -3.905   3.768  -1.108  1.00  0.00     0.186 HD
ATOM     12  H5  UNL     1      -2.001   2.176  -0.954  1.00  0.00     0.186 HD
ENDBRANCH   5   6
ENDBRANCH   3   5
ENDBRANCH   2   3
ENDBRANCH   1   2
BRANCH   1  13
HETATM   13  O1  UNL     1       0.041  -1.869  -0.397  1.00  0.00    -0.389 OA
BRANCH  13  14
HETATM   14  C7  UNL     1       1.358  -1.905  -0.792  1.00  0.00     0.178 C 
BRANCH  14  15
HETATM   15  C8  UNL     1       2.145  -0.734  -0.282  1.00  0.00     0.108 C 
BRANCH  15  16
HETATM   16  S1  UNL     1       3.851  -0.925  -0.916  1.00  0.00    -0.090 SA
BRANCH  16  17
HETATM   17  C9  UNL     1       4.801   0.461  -0.319  1.00  0.00     0.160 A 
HETATM   18  N2  UNL     1       4.362   1.460   0.457  1.00  0.00    -0.331 N 
HETATM   19  C10 UNL     1       5.353   2.326   0.707  1.00  0.00     0.199 A 
ATOM     20  H2  UNL     1       3.408   1.549   0.808  1.00  0.00     0.168 HD
HETATM   21  N3  UNL     1       6.431   1.858   0.076  1.00  0.00    -0.294 N 
HETATM   22  N4  UNL     1       6.105   0.736  -0.543  1.00  0.00    -0.279 N 
ATOM     23  H3  UNL     1       7.353   2.293   0.072  1.00  0.00     0.187 HD
ATOM     24  H4  UNL     1       6.739   0.166  -1.103  1.00  0.00     0.189 HD
ENDBRANCH  16  17
ENDBRANCH  15  16
ENDBRANCH  14  15
ENDBRANCH  13  14
ENDBRANCH   1  13
TORSDOF 9
