REMARK  12 active torsions:
REMARK  status: ('A' for Active; 'I' for Inactive)
REMARK    1  A    between atoms: C3_3  and  O1_4 
REMARK    2  A    between atoms: C5_7  and  O2_8 
REMARK    3  A    between atoms: O2_8  and  C6_9 
REMARK    4  A    between atoms: C6_9  and  C7_11 
REMARK    5  A    between atoms: C7_11  and  C8_12 
REMARK    6  A    between atoms: C8_12  and  C9_13 
REMARK    7  A    between atoms: C11_15  and  C12_16 
REMARK    8  A    between atoms: C13_17  and  C14_18 
REMARK    9  A    between atoms: C19_25  and  O5_27 
REMARK   10  A    between atoms: C22_30  and  O6_32 
REMARK   11  A    between atoms: C24_34  and  C25_35 
REMARK   12  A    between atoms: C25_35  and  O7_36 
ROOT
HETATM    1  C1  UNL     1       1.469  -5.468  -1.226  1.00  0.00     0.017 C 
HETATM    2  C2  UNL     1       1.770  -4.239  -0.919  1.00  0.00    -0.050 C 
HETATM    3  C3  UNL     1       3.164  -3.784  -0.741  1.00  0.00     0.150 C 
HETATM    4  C4  UNL     1       3.259  -2.985   0.529  1.00  0.00     0.073 C 
HETATM    5  C5  UNL     1       2.286  -1.872   0.514  1.00  0.00     0.164 C 
HETATM    6  C11 UNL     1       1.243  -1.900  -0.554  1.00  0.00    -0.041 C 
HETATM    7  C24 UNL     1       0.626  -3.250  -0.749  1.00  0.00     0.071 C 
ENDROOT
BRANCH   6   8
HETATM    8  C12 UNL     1       0.380  -0.731  -0.504  1.00  0.00     0.003 C 
HETATM    9  C13 UNL     1      -0.935  -0.665  -0.655  1.00  0.00    -0.017 C 
BRANCH   9  10
HETATM   10  C14 UNL     1      -1.713   0.609  -0.578  1.00  0.00     0.065 C 
HETATM   11  C15 UNL     1      -2.223   0.935  -1.930  1.00  0.00     0.099 C 
HETATM   12  C16 UNL     1      -2.560  -0.273  -2.811  1.00  0.00     0.046 C 
HETATM   13  N1  UNL     1      -3.608   1.286  -2.022  1.00  0.00    -0.344 N 
HETATM   14  C17 UNL     1      -3.566   0.737  -3.384  1.00  0.00     0.128 C 
HETATM   15  C18 UNL     1      -4.541   1.885  -1.166  1.00  0.00     0.254 C 
HETATM   16  O4  UNL     1      -5.733   1.829  -1.558  1.00  0.00    -0.270 OA
HETATM   17  C19 UNL     1      -4.281   2.557   0.114  1.00  0.00     0.137 C 
HETATM   18  C20 UNL     1      -4.043   4.028  -0.172  1.00  0.00     0.056 C 
HETATM   19  C21 UNL     1      -3.086   2.030   0.841  1.00  0.00     0.085 C 
HETATM   20  C22 UNL     1      -2.742   0.610   0.502  1.00  0.00     0.066 C 
HETATM   21  C23 UNL     1      -2.142  -0.002   1.773  1.00  0.00     0.047 C 
BRANCH  17  22
HETATM   22  O5  UNL     1      -5.430   2.475   0.905  1.00  0.00    -0.380 OA
ATOM     23  H5  UNL     1      -5.262   2.910   1.733  1.00  0.00     0.211 HD
ENDBRANCH  17  22
BRANCH  20  24
HETATM   24  O6  UNL     1      -3.852  -0.166   0.192  1.00  0.00    -0.389 OA
ATOM     25  H6  UNL     1      -4.507  -0.165   0.880  1.00  0.00     0.210 HD
ENDBRANCH  20  24
ENDBRANCH   9  10
ENDBRANCH   6   8
BRANCH   5  26
HETATM   26  O2  UNL     1       3.000  -0.636   0.402  1.00  0.00    -0.311 OA
BRANCH  26  27
HETATM   27  C6  UNL     1       2.981   0.355   1.349  1.00  0.00     0.259 C 
HETATM   28  O3  UNL     1       2.295   0.182   2.395  1.00  0.00    -0.265 OA
BRANCH  27  29
HETATM   29  C7  UNL     1       3.772   1.582   1.092  1.00  0.00     0.111 C 
BRANCH  29  30
HETATM   30  C8  UNL     1       3.591   2.522   2.250  1.00  0.00     0.009 C 
BRANCH  30  31
HETATM   31  C9  UNL     1       4.366   3.805   2.071  1.00  0.00    -0.004 C 
HETATM   32  C10 UNL     1       3.919   4.539   0.819  1.00  0.00     0.005 C 
ENDBRANCH  30  31
ENDBRANCH  29  30
ENDBRANCH  27  29
ENDBRANCH  26  27
ENDBRANCH   5  26
BRANCH   7  33
HETATM   33  C25 UNL     1      -0.203  -3.774   0.358  1.00  0.00     0.177 C 
BRANCH  33  34
HETATM   34  O7  UNL     1       0.443  -3.907   1.587  1.00  0.00    -0.400 OA
ATOM     35  H7  UNL     1      -0.090  -4.244   2.298  1.00  0.00     0.209 HD
ENDBRANCH  33  34
ENDBRANCH   7  33
BRANCH   3  36
HETATM   36  O1  UNL     1       4.058  -4.841  -0.768  1.00  0.00    -0.391 OA
ATOM     37  H1  UNL     1       4.955  -4.548  -0.654  1.00  0.00     0.210 HD
ENDBRANCH   3  36
TORSDOF 12
