REMARK  3 active torsions:
REMARK  status: ('A' for Active; 'I' for Inactive)
REMARK    1  A    between atoms: C2_2  and  C3_6 
REMARK    2  A    between atoms: C3_6  and  C5_8 
REMARK    3  A    between atoms: C5_8  and  N2_9 
ROOT
HETATM    1  C5  UNL     1      -0.233   0.210  -0.403  1.00  0.00     0.162 C 
HETATM    2  C6  UNL     1      -0.611   0.719   0.957  1.00  0.00     0.042 C 
HETATM    3  C7  UNL     1      -1.922   0.263   1.475  1.00  0.00     0.003 C 
HETATM    4  C8  UNL     1      -3.072   0.311   0.531  1.00  0.00     0.003 C 
HETATM    5  C9  UNL     1      -2.649  -0.073  -0.860  1.00  0.00     0.040 C 
HETATM    6  C10 UNL     1      -1.285  -0.728  -0.880  1.00  0.00     0.206 C 
HETATM    7  F1  UNL     1      -1.308  -1.928  -0.196  1.00  0.00    -0.247 F 
ENDROOT
BRANCH   1   8
HETATM    8  C3  UNL     1       1.130  -0.455  -0.401  1.00  0.00     0.065 C 
HETATM    9  C4  UNL     1       1.213  -1.691   0.427  1.00  0.00     0.018 C 
BRANCH   8  10
HETATM   10  C2  UNL     1       2.221   0.465  -0.001  1.00  0.00    -0.018 C 
HETATM   11  C1  UNL     1       3.628   0.005  -0.154  1.00  0.00     0.063 C 
HETATM   12  N1  UNL     1       2.021   1.623   0.469  1.00  0.00    -0.405 N 
ATOM     13  H12 UNL     1       2.772   2.256   0.744  1.00  0.00     0.155 HD
ATOM     14  H11 UNL     1       1.057   1.938   0.574  1.00  0.00     0.155 HD
ENDBRANCH   8  10
ENDBRANCH   1   8
BRANCH   1  15
HETATM   15  N2  UNL     1      -0.117   1.304  -1.370  1.00  0.00    -0.067 N 
ATOM     16  H23 UNL     1       0.655   1.943  -1.181  1.00  0.00     0.275 HD
ATOM     17  H22 UNL     1       0.200   1.008  -2.293  1.00  0.00     0.275 HD
ATOM     18  H21 UNL     1      -1.034   1.751  -1.371  1.00  0.00     0.275 HD
ENDBRANCH   1  15
TORSDOF 3
