REMARK  4 active torsions:
REMARK  status: ('A' for Active; 'I' for Inactive)
REMARK    1  A    between atoms: C2_2  and  N1_3 
REMARK    2  A    between atoms: C2_2  and  N2_7 
REMARK    3  A    between atoms: C2_2  and  C3_11 
REMARK    4  A    between atoms: C3_11  and  C4_12 
ROOT
HETATM    1  C1  UNL     1      -2.970  -0.490   0.957  1.00  0.00     0.078 C 
HETATM    2  C2  UNL     1      -2.493   0.111  -0.364  1.00  0.00     0.279 C 
ENDROOT
BRANCH   2   3
HETATM    3  N1  UNL     1      -3.496  -0.326  -1.360  1.00  0.00    -0.045 N 
ATOM      4  H13 UNL     1      -3.638  -1.336  -1.391  1.00  0.00     0.277 HD
ATOM      5  H12 UNL     1      -4.456  -0.083  -1.116  1.00  0.00     0.277 HD
ATOM      6  H11 UNL     1      -3.178   0.075  -2.242  1.00  0.00     0.277 HD
ENDBRANCH   2   3
BRANCH   2   7
HETATM    7  N2  UNL     1      -2.624   1.521  -0.263  1.00  0.00    -0.045 N 
ATOM      8  H23 UNL     1      -3.567   1.816  -0.009  1.00  0.00     0.277 HD
ATOM      9  H22 UNL     1      -2.141   1.908   0.548  1.00  0.00     0.277 HD
ATOM     10  H21 UNL     1      -2.306   1.922  -1.145  1.00  0.00     0.277 HD
ENDBRANCH   2   7
BRANCH   2  11
HETATM   11  C3  UNL     1      -1.199  -0.433  -0.817  1.00  0.00     0.081 C 
BRANCH  11  12
HETATM   12  C4  UNL     1      -0.028  -0.262   0.064  1.00  0.00     0.062 C 
HETATM   13  C5  UNL     1       0.339   1.219   0.346  1.00  0.00     0.091 C 
HETATM   14  C6  UNL     1       1.746   1.271   0.446  1.00  0.00    -0.182 C 
HETATM   15  C7  UNL     1       3.145   1.227   0.490  1.00  0.00     0.083 C 
HETATM   16  C8  UNL     1       3.535  -0.240   0.089  1.00  0.00     0.041 C 
HETATM   17  C9  UNL     1       2.384  -1.196   0.201  1.00  0.00     0.012 C 
HETATM   18  C10 UNL     1       1.122  -1.084  -0.479  1.00  0.00     0.095 C 
HETATM   19  F1  UNL     1       1.175  -1.064  -1.886  1.00  0.00    -0.211 F 
ENDBRANCH  11  12
ENDBRANCH   2  11
TORSDOF 4
