REMARK  4 active torsions:
REMARK  status: ('A' for Active; 'I' for Inactive)
REMARK    1  A    between atoms: C2_2  and  C5_5 
REMARK    2  A    between atoms: C5_5  and  N1_6 
REMARK    3  A    between atoms: N1_6  and  C6_8 
REMARK    4  A    between atoms: C8_10  and  N2_11 
ROOT
HETATM    1  C6  UNL     1       1.125  -0.567  -0.039  1.00  0.00     0.081 C 
HETATM    2  C7  UNL     1       1.792   0.533  -0.864  1.00  0.00     0.060 C 
HETATM    3  C8  UNL     1       3.280   0.136  -0.637  1.00  0.00     0.219 C 
HETATM    4  C9  UNL     1       3.265   0.125   0.877  1.00  0.00     0.202 C 
HETATM    5  F1  UNL     1       4.416  -0.433   1.405  1.00  0.00    -0.247 F 
HETATM    6  C10 UNL     1       2.038  -0.687   1.193  1.00  0.00     0.064 C 
ENDROOT
BRANCH   1   7
HETATM    7  N1  UNL     1      -0.176  -0.289   0.390  1.00  0.00    -0.416 N 
ATOM      8  H1  UNL     1      -0.400  -0.227   1.383  1.00  0.00     0.153 HD
BRANCH   7   9
HETATM    9  C5  UNL     1      -1.188  -0.093  -0.611  1.00  0.00     0.122 C 
BRANCH   9  10
HETATM   10  C2  UNL     1      -2.582  -0.108  -0.012  1.00  0.00    -0.036 C 
HETATM   11  C1  UNL     1      -2.794   0.945   1.037  1.00  0.00     0.016 C 
HETATM   12  C3  UNL     1      -3.560   0.171  -1.134  1.00  0.00     0.016 C 
HETATM   13  C4  UNL     1      -2.920  -1.466   0.562  1.00  0.00     0.016 C 
ENDBRANCH   9  10
ENDBRANCH   7   9
ENDBRANCH   1   7
BRANCH   3  14
HETATM   14  N2  UNL     1       4.194   1.047  -1.222  1.00  0.00    -0.072 N 
ATOM     15  H23 UNL     1       3.998   1.171  -2.215  1.00  0.00     0.274 HD
ATOM     16  H22 UNL     1       4.018   1.998  -0.897  1.00  0.00     0.274 HD
ATOM     17  H21 UNL     1       5.169   0.787  -1.073  1.00  0.00     0.274 HD
ENDBRANCH   3  14
TORSDOF 4
