REMARK  4 active torsions:
REMARK  status: ('A' for Active; 'I' for Inactive)
REMARK    1  A    between atoms: C4_4  and  N1_5 
REMARK    2  A    between atoms: C6_10  and  C7_11 
REMARK    3  A    between atoms: C7_11  and  O1_12 
REMARK    4  A    between atoms: C7_11  and  C8_14 
ROOT
HETATM    1  C1  UNL     1      -1.725  -1.926   0.536  1.00  0.00     0.010 C 
HETATM    2  C2  UNL     1      -0.801  -0.698   0.640  1.00  0.00    -0.010 C 
HETATM    3  C3  UNL     1      -1.749   0.440   1.049  1.00  0.00     0.037 C 
HETATM    4  C4  UNL     1      -2.098   1.034  -0.303  1.00  0.00     0.184 C 
HETATM    5  C5  UNL     1      -0.720   1.115  -0.929  1.00  0.00     0.040 C 
HETATM    6  C6  UNL     1      -0.248  -0.292  -0.671  1.00  0.00     0.020 C 
ENDROOT
BRANCH   6   7
HETATM    7  C7  UNL     1       1.189  -0.528  -0.939  1.00  0.00     0.126 C 
BRANCH   7   8
HETATM    8  O1  UNL     1       1.387  -1.929  -0.821  1.00  0.00    -0.395 OA
ATOM      9  H1  UNL     1       2.309  -2.080  -0.993  1.00  0.00     0.210 HD
ENDBRANCH   7   8
BRANCH   7  10
HETATM   10  C8  UNL     1       2.210   0.280  -0.259  1.00  0.00     0.015 A 
HETATM   11  C9  UNL     1       2.453   0.397   1.163  1.00  0.00     0.007 A 
HETATM   12  C10 UNL     1       3.492  -0.345   0.275  1.00  0.00     0.007 A 
ENDBRANCH   7  10
ENDBRANCH   6   7
BRANCH   4  13
HETATM   13  N1  UNL     1      -2.752   2.302  -0.210  1.00  0.00    -0.075 N 
ATOM     14  H13 UNL     1      -3.579   2.241   0.384  1.00  0.00     0.274 HD
ATOM     15  H12 UNL     1      -2.197   2.957   0.342  1.00  0.00     0.274 HD
ATOM     16  H11 UNL     1      -2.987   2.701  -1.119  1.00  0.00     0.274 HD
ENDBRANCH   4  13
TORSDOF 4
