REMARK  5 active torsions:
REMARK  status: ('A' for Active; 'I' for Inactive)
REMARK    1  A    between atoms: S1_2  and  C2_3 
REMARK    2  A    between atoms: C2_3  and  C3_4 
REMARK    3  A    between atoms: C11_12  and  C12_13 
REMARK    4  A    between atoms: C12_13  and  O1_14 
REMARK    5  A    between atoms: C12_13  and  N1_16 
ROOT
HETATM    1  C12 UNL     1       1.258  -0.231   1.533  1.00  0.00     0.245 C 
ENDROOT
BRANCH   1   2
HETATM    2  C11 UNL     1       0.051  -0.667   0.706  1.00  0.00     0.041 C 
HETATM    3  C10 UNL     1      -0.659  -1.712   1.519  1.00  0.00     0.014 C 
HETATM    4  C8  UNL     1      -1.723  -2.363   0.669  1.00  0.00    -0.013 C 
HETATM    5  C7  UNL     1      -1.394  -2.467  -0.782  1.00  0.00     0.009 C 
HETATM    6  C9  UNL     1      -2.979  -1.604   0.970  1.00  0.00     0.010 C 
HETATM    7  C6  UNL     1      -1.693  -1.278  -1.621  1.00  0.00    -0.013 C 
HETATM    8  C5  UNL     1      -3.145  -0.855  -1.347  1.00  0.00     0.010 C 
HETATM    9  C20 UNL     1      -0.759  -0.123  -1.505  1.00  0.00     0.010 C 
HETATM   10  C4  UNL     1      -3.103  -0.422   0.120  1.00  0.00    -0.009 C 
HETATM   11  C3  UNL     1      -2.109   0.685   0.273  1.00  0.00     0.003 C 
HETATM   12  C19 UNL     1      -0.702   0.322  -0.009  1.00  0.00    -0.001 C 
BRANCH  11  13
HETATM   13  C2  UNL     1      -2.420   1.545   1.441  1.00  0.00     0.078 C 
BRANCH  13  14
HETATM   14  S1  UNL     1      -1.268   2.915   1.620  1.00  0.00    -0.173 SA
HETATM   15  C1  UNL     1      -1.386   4.102   0.277  1.00  0.00     0.089 C 
ENDBRANCH  13  14
ENDBRANCH  11  13
ENDBRANCH   1   2
BRANCH   1  16
HETATM   16  O1  UNL     1       0.923   0.295   2.770  1.00  0.00    -0.375 OA
ATOM     17  H1  UNL     1       1.674   0.566   3.285  1.00  0.00     0.212 HD
ENDBRANCH   1  16
BRANCH   1  18
HETATM   18  N1  UNL     1       2.215   0.542   0.790  1.00  0.00    -0.262 N 
HETATM   19  N2  UNL     1       2.323   1.855   0.837  1.00  0.00    -0.306 N 
HETATM   20  C13 UNL     1       3.323   2.290   0.023  1.00  0.00     0.126 A 
ATOM     21  H2  UNL     1       1.736   2.463   1.407  1.00  0.00     0.186 HD
HETATM   22  C14 UNL     1       3.873   1.173  -0.569  1.00  0.00     0.077 A 
HETATM   23  C15 UNL     1       4.894   0.957  -1.469  1.00  0.00     0.259 A 
HETATM   24  C18 UNL     1       3.157   0.107  -0.067  1.00  0.00     0.072 A 
HETATM   25  O2  UNL     1       5.537   1.954  -1.916  1.00  0.00    -0.267 OA
HETATM   26  N3  UNL     1       5.228  -0.287  -1.888  1.00  0.00    -0.333 N 
HETATM   27  C16 UNL     1       4.524  -1.322  -1.393  1.00  0.00     0.093 A 
ATOM     28  H3  UNL     1       5.986  -0.434  -2.555  1.00  0.00     0.168 HD
HETATM   29  C17 UNL     1       3.495  -1.146  -0.491  1.00  0.00     0.049 A 
ENDBRANCH   1  18
TORSDOF 5
