REMARK  6 active torsions:
REMARK  status: ('A' for Active; 'I' for Inactive)
REMARK    1  A    between atoms: C2_2  and  O1_3 
REMARK    2  A    between atoms: C2_2  and  C3_5 
REMARK    3  A    between atoms: C3_5  and  N1_6 
REMARK    4  A    between atoms: C3_5  and  C16_26 
REMARK    5  A    between atoms: N1_6  and  C4_8 
REMARK    6  A    between atoms: N5_19  and  C10_20 
ROOT
HETATM    1  C4  UNL     1      -0.617  -1.253   1.688  1.00  0.00     0.679 A 
HETATM    2  N2  UNL     1       0.528  -1.011   1.044  1.00  0.00    -0.176 N 
ATOM      3  H2  UNL     1       0.514  -0.539   0.140  1.00  0.00     0.186 HD
HETATM    4  C5  UNL     1       1.696  -1.388   1.584  1.00  0.00     0.136 A 
HETATM    5  C6  UNL     1       1.740  -2.030   2.810  1.00  0.00     0.028 A 
HETATM    6  C7  UNL     1       0.550  -2.277   3.472  1.00  0.00     0.121 A 
HETATM    7  N3  UNL     1      -0.580  -1.874   2.875  1.00  0.00    -0.201 N 
ATOM      8  H3  UNL     1      -1.464  -2.050   3.352  1.00  0.00     0.183 HD
HETATM    9  C8  UNL     1       3.068  -2.270   3.060  1.00  0.00     0.062 A 
HETATM   10  C9  UNL     1       3.782  -1.771   1.990  1.00  0.00     0.121 A 
HETATM   11  N4  UNL     1       5.206  -1.819   1.859  1.00  0.00    -0.082 NA
HETATM   12  N5  UNL     1       2.952  -1.232   1.086  1.00  0.00    -0.316 N 
ENDROOT
BRANCH   1  13
HETATM   13  N1  UNL     1      -1.773  -0.908   1.208  1.00  0.00    -0.218 N 
ATOM     14  H1  UNL     1      -2.627  -1.109   1.728  1.00  0.00     0.178 HD
BRANCH  13  15
HETATM   15  C3  UNL     1      -1.841  -0.217  -0.108  1.00  0.00     0.131 C 
BRANCH  15  16
HETATM   16  C2  UNL     1      -1.722  -1.188  -1.206  1.00  0.00     0.137 C 
HETATM   17  C1  UNL     1      -1.581  -0.600  -2.557  1.00  0.00     0.041 C 
BRANCH  16  18
HETATM   18  O1  UNL     1      -2.820  -2.082  -1.197  1.00  0.00    -0.394 OA
ATOM     19  H1  UNL     1      -2.910  -2.459  -0.330  1.00  0.00     0.210 HD
ENDBRANCH  16  18
ENDBRANCH  15  16
BRANCH  15  20
HETATM   20  C16 UNL     1      -3.085   0.591  -0.152  1.00  0.00     0.011 C 
HETATM   21  C17 UNL     1      -3.326   1.480  -1.322  1.00  0.00     0.007 C 
HETATM   22  C18 UNL     1      -4.447   2.484  -0.985  1.00  0.00     0.000 C 
HETATM   23  C19 UNL     1      -5.439   1.883  -0.028  1.00  0.00     0.000 C 
HETATM   24  C20 UNL     1      -4.731   1.710   1.301  1.00  0.00     0.000 C 
HETATM   25  C21 UNL     1      -3.252   1.444   1.107  1.00  0.00     0.007 C 
ENDBRANCH  15  20
ENDBRANCH  13  15
ENDBRANCH   1  13
BRANCH  12  26
HETATM   26  C10 UNL     1       3.373  -0.618  -0.158  1.00  0.00     0.092 C 
HETATM   27  C11 UNL     1       2.205  -0.351  -1.074  1.00  0.00     0.026 C 
HETATM   28  C12 UNL     1       2.860   0.052  -2.403  1.00  0.00     0.002 C 
HETATM   29  C13 UNL     1       3.387   1.443  -2.213  1.00  0.00     0.000 C 
HETATM   30  C14 UNL     1       3.922   1.740  -0.866  1.00  0.00     0.002 C 
HETATM   31  C15 UNL     1       4.195   0.603   0.033  1.00  0.00     0.026 C 
ENDBRANCH  12  26
TORSDOF 6
