REMARK  7 active torsions:
REMARK  status: ('A' for Active; 'I' for Inactive)
REMARK    1  A    between atoms: C9_10  and  O2_11 
REMARK    2  A    between atoms: C14_17  and  C15_18 
REMARK    3  A    between atoms: C15_18  and  C16_19 
REMARK    4  A    between atoms: C16_19  and  C17_20 
REMARK    5  A    between atoms: C18_21  and  O3_22 
REMARK    6  A    between atoms: C19_25  and  O5_26 
REMARK    7  A    between atoms: C20_28  and  C21_29 
ROOT
HETATM    1  C1  UNL     1       1.364  -2.211  -0.060  1.00  0.00     0.028 C 
HETATM    2  C2  UNL     1       0.383  -1.371  -0.471  1.00  0.00     0.012 C 
HETATM    3  C3  UNL     1      -0.443  -1.818  -1.603  1.00  0.00     0.182 C 
HETATM    4  O1  UNL     1       0.022  -2.563  -2.501  1.00  0.00    -0.288 OA
HETATM    5  C4  UNL     1      -1.827  -1.320  -1.574  1.00  0.00     0.060 C 
HETATM    6  C5  UNL     1      -2.293  -0.529  -0.639  1.00  0.00    -0.053 C 
HETATM    7  C6  UNL     1      -3.737  -0.119  -0.700  1.00  0.00     0.003 C 
HETATM    8  C7  UNL     1      -4.523  -1.297  -1.373  1.00  0.00     0.022 C 
HETATM    9  C8  UNL     1      -4.092   1.050  -1.492  1.00  0.00     0.022 C 
HETATM   10  C9  UNL     1      -4.264  -0.160   0.745  1.00  0.00     0.130 C 
HETATM   11  C10 UNL     1      -3.383  -1.080   1.516  1.00  0.00     0.034 C 
HETATM   12  C11 UNL     1      -2.002  -0.482   1.718  1.00  0.00     0.021 C 
HETATM   13  C12 UNL     1      -1.462   0.084   0.455  1.00  0.00     0.009 C 
HETATM   14  C13 UNL     1      -1.565   1.595   0.527  1.00  0.00     0.025 C 
HETATM   15  C14 UNL     1       0.011  -0.133   0.165  1.00  0.00    -0.032 C 
ENDROOT
BRANCH  15  16
HETATM   16  C15 UNL     1       0.940   0.582   1.049  1.00  0.00     0.010 C 
BRANCH  16  17
HETATM   17  C16 UNL     1       2.161   1.241   0.600  1.00  0.00     0.017 C 
BRANCH  17  18
HETATM   18  C17 UNL     1       3.245   0.640  -0.123  1.00  0.00     0.033 A 
HETATM   19  C18 UNL     1       3.362   0.458  -1.493  1.00  0.00     0.196 A 
HETATM   20  O4  UNL     1       4.498  -0.135  -1.706  1.00  0.00    -0.264 OA
HETATM   21  C19 UNL     1       5.153  -0.368  -0.620  1.00  0.00     0.193 A 
HETATM   22  C20 UNL     1       4.405   0.105   0.423  1.00  0.00     0.015 A 
BRANCH  19  23
HETATM   23  O3  UNL     1       2.421   0.846  -2.476  1.00  0.00    -0.340 OA
ATOM     24  H3  UNL     1       2.501   0.721  -3.414  1.00  0.00     0.220 HD
ENDBRANCH  19  23
BRANCH  21  25
HETATM   25  O5  UNL     1       6.406  -0.995  -0.563  1.00  0.00    -0.340 OA
ATOM     26  H5  UNL     1       6.889  -1.167   0.237  1.00  0.00     0.220 HD
ENDBRANCH  21  25
BRANCH  22  27
HETATM   27  C21 UNL     1       4.837   0.028   1.845  1.00  0.00     0.040 C 
HETATM   28  C22 UNL     1       5.371   1.369   2.293  1.00  0.00     0.010 C 
ENDBRANCH  22  27
ENDBRANCH  17  18
ENDBRANCH  16  17
ENDBRANCH  15  16
BRANCH  10  29
HETATM   29  O2  UNL     1      -4.516   1.059   1.297  1.00  0.00    -0.395 OA
ATOM     30  H2  UNL     1      -4.841   1.034   2.189  1.00  0.00     0.210 HD
ENDBRANCH  10  29
TORSDOF 7
