REMARK  7 active torsions:
REMARK  status: ('A' for Active; 'I' for Inactive)
REMARK    1  A    between atoms: C2_2  and  C4_4 
REMARK    2  A    between atoms: C13_14  and  C14_15 
REMARK    3  A    between atoms: C14_15  and  O2_16 
REMARK    4  A    between atoms: C14_15  and  C15_18 
REMARK    5  A    between atoms: C15_18  and  N1_19 
REMARK    6  A    between atoms: C15_18  and  C16_23 
REMARK    7  A    between atoms: C18_26  and  O4_27 
ROOT
HETATM    1  C4  UNL     1      -3.665   0.576  -0.338  1.00  0.00     0.022 C 
HETATM    2  C5  UNL     1      -4.183   0.212  -1.736  1.00  0.00     0.010 C 
HETATM    3  C6  UNL     1      -2.894   0.159  -2.518  1.00  0.00     0.010 C 
HETATM    4  C7  UNL     1      -2.082  -0.675  -1.507  1.00  0.00     0.023 C 
HETATM    5  C8  UNL     1      -0.764  -1.052  -1.959  1.00  0.00    -0.077 C 
HETATM    6  C9  UNL     1      -0.433  -2.294  -1.613  1.00  0.00     0.015 C 
HETATM    7  C10 UNL     1       0.415  -0.483  -2.725  1.00  0.00     0.117 C 
HETATM    8  C11 UNL     1       1.287   0.181  -1.714  1.00  0.00     0.167 C 
HETATM    9  O1  UNL     1       2.471   0.387  -2.094  1.00  0.00    -0.292 OA
HETATM   10  C12 UNL     1       1.116   0.672  -0.350  1.00  0.00     0.058 A 
HETATM   11  C13 UNL     1       2.176   0.715   0.501  1.00  0.00     0.124 A 
HETATM   12  O3  UNL     1       1.667   1.223   1.644  1.00  0.00    -0.284 OA
HETATM   13  C18 UNL     1       0.413   1.482   1.552  1.00  0.00     0.191 A 
HETATM   14  C19 UNL     1      -0.021   1.153   0.292  1.00  0.00     0.018 A 
HETATM   15  C20 UNL     1      -1.400   1.330  -0.127  1.00  0.00     0.055 C 
HETATM   16  C21 UNL     1      -2.238   0.094  -0.248  1.00  0.00    -0.025 C 
HETATM   17  C22 UNL     1      -2.073  -0.778   0.966  1.00  0.00     0.017 C 
ENDROOT
BRANCH  11  18
HETATM   18  C14 UNL     1       3.544   0.315   0.271  1.00  0.00     0.108 C 
BRANCH  18  19
HETATM   19  O2  UNL     1       3.851  -0.901  -0.268  1.00  0.00    -0.360 OA
ATOM     20  H2  UNL     1       4.751  -1.164  -0.419  1.00  0.00     0.217 HD
ENDBRANCH  18  19
BRANCH  18  21
HETATM   21  C15 UNL     1       4.483   0.713   1.408  1.00  0.00     0.242 C 
BRANCH  21  22
HETATM   22  N1  UNL     1       4.425  -0.259   2.470  1.00  0.00    -0.069 N 
ATOM     23  H13 UNL     1       3.471  -0.406   2.799  1.00  0.00     0.275 HD
ATOM     24  H12 UNL     1       4.616  -1.202   2.132  1.00  0.00     0.275 HD
ATOM     25  H11 UNL     1       5.052   0.007   3.229  1.00  0.00     0.275 HD
ENDBRANCH  21  22
BRANCH  21  26
HETATM   26  C16 UNL     1       5.929   0.798   0.971  1.00  0.00     0.035 C 
HETATM   27  C17 UNL     1       6.464  -0.509   0.434  1.00  0.00     0.007 C 
ENDBRANCH  21  26
ENDBRANCH  18  21
ENDBRANCH  11  18
BRANCH  13  28
HETATM   28  O4  UNL     1      -0.421   2.006   2.522  1.00  0.00    -0.340 OA
ATOM     29  H4  UNL     1      -1.349   2.198   2.454  1.00  0.00     0.220 HD
ENDBRANCH  13  28
BRANCH   1  30
HETATM   30  C2  UNL     1      -4.577   0.115   0.699  1.00  0.00    -0.088 C 
HETATM   31  C1  UNL     1      -5.150   0.984   1.521  1.00  0.00     0.014 C 
HETATM   32  C3  UNL     1      -4.931  -1.314   0.841  1.00  0.00     0.043 C 
ENDBRANCH   1  30
TORSDOF 7
