REMARK  5 active torsions:
REMARK  status: ('A' for Active; 'I' for Inactive)
REMARK    1  A    between atoms: C4_4  and  C5_5 
REMARK    2  A    between atoms: C5_5  and  C6_6 
REMARK    3  A    between atoms: C9_9  and  N1_10 
REMARK    4  A    between atoms: N1_10  and  C10_12 
REMARK    5  A    between atoms: C15_22  and  C16_23 
ROOT
HETATM    1  C10 UNL     1      -1.411  -0.997   0.179  1.00  0.00     0.677 C 
HETATM    2  N2  UNL     1      -1.628  -1.511  -0.999  1.00  0.00    -0.164 N 
ATOM      3  H2  UNL     1      -0.997  -2.255  -1.296  1.00  0.00     0.187 HD
HETATM    4  C11 UNL     1      -2.668  -1.137  -1.926  1.00  0.00     0.203 C 
HETATM    5  N3  UNL     1      -3.117  -2.101  -2.852  1.00  0.00    -0.063 NA
HETATM    6  N4  UNL     1      -3.207   0.041  -1.949  1.00  0.00    -0.353 N 
ATOM      7  H4  UNL     1      -3.932   0.177  -2.653  1.00  0.00     0.163 HD
HETATM    8  C12 UNL     1      -2.923   1.203  -1.108  1.00  0.00     0.047 C 
HETATM    9  C13 UNL     1      -3.706   2.353  -1.682  1.00  0.00     0.040 C 
HETATM   10  C14 UNL     1      -1.437   1.563  -1.238  1.00  0.00     0.040 C 
HETATM   11  C15 UNL     1      -3.178   0.945   0.335  1.00  0.00     0.134 C 
HETATM   12  N5  UNL     1      -2.147   0.053   0.826  1.00  0.00    -0.218 N 
ATOM     13  H5  UNL     1      -1.900   0.196   1.805  1.00  0.00     0.178 HD
ENDROOT
BRANCH   1  14
HETATM   14  N1  UNL     1      -0.323  -1.527   0.918  1.00  0.00    -0.215 N 
ATOM     15  H1  UNL     1      -0.317  -1.417   1.932  1.00  0.00     0.178 HD
BRANCH  14  16
HETATM   16  C9  UNL     1       0.762  -2.208   0.294  1.00  0.00     0.169 C 
HETATM   17  C8  UNL     1       1.774  -2.662   1.334  1.00  0.00     0.034 C 
HETATM   18  C7  UNL     1       3.182  -2.514   0.811  1.00  0.00     0.007 C 
HETATM   19  C6  UNL     1       3.555  -1.010   0.667  1.00  0.00    -0.004 C 
HETATM   20  C21 UNL     1       2.470  -0.343  -0.165  1.00  0.00     0.085 C 
HETATM   21  C20 UNL     1       1.490  -1.363  -0.697  1.00  0.00     0.150 C 
HETATM   22  O1  UNL     1       1.336  -1.452  -1.894  1.00  0.00    -0.296 OA
BRANCH  19  23
HETATM   23  C5  UNL     1       4.869  -0.986  -0.009  1.00  0.00     0.032 C 
BRANCH  23  24
HETATM   24  C4  UNL     1       5.527   0.267  -0.273  1.00  0.00    -0.024 C 
HETATM   25  C2  UNL     1       5.352   1.501   0.043  1.00  0.00    -0.091 C 
HETATM   26  C1  UNL     1       6.399   2.480  -0.542  1.00  0.00     0.042 C 
HETATM   27  C3  UNL     1       4.358   2.187   0.880  1.00  0.00     0.042 C 
ENDBRANCH  23  24
ENDBRANCH  19  23
ENDBRANCH  14  16
ENDBRANCH   1  14
BRANCH  11  28
HETATM   28  C16 UNL     1      -4.524   0.389   0.671  1.00  0.00    -0.021 A 
HETATM   29  C17 UNL     1      -5.763   1.205   0.300  1.00  0.00     0.017 C 
HETATM   30  C18 UNL     1      -4.765  -1.035   0.937  1.00  0.00     0.012 A 
HETATM   31  C19 UNL     1      -4.594  -0.139   2.120  1.00  0.00     0.012 A 
ENDBRANCH  11  28
TORSDOF 5
