REMARK  9 active torsions:
REMARK  status: ('A' for Active; 'I' for Inactive)
REMARK    1  A    between atoms: C2_2  and  N1_3 
REMARK    2  A    between atoms: C4_5  and  C5_6 
REMARK    3  A    between atoms: C8_14  and  C9_15 
REMARK    4  A    between atoms: C10_16  and  N4_17 
REMARK    5  A    between atoms: C11_24  and  C12_25 
REMARK    6  A    between atoms: C12_25  and  C13_26 
REMARK    7  A    between atoms: C12_25  and  N9_30 
REMARK    8  A    between atoms: C13_26  and  C14_27 
REMARK       I    between atoms: N9_30  and  C15_32 
REMARK    9  A    between atoms: C16_37  and  N11_38 
ROOT
HETATM    1  C9  UNL     1      -1.022  -2.194  -0.873  1.00  0.00     0.080 A 
HETATM    2  C10 UNL     1      -1.689  -1.504  -1.831  1.00  0.00     0.148 A 
HETATM    3  N10 UNL     1      -2.688  -2.024  -2.617  1.00  0.00    -0.325 N 
ATOM      4  H10 UNL     1      -3.152  -1.454  -3.325  1.00  0.00     0.169 HD
HETATM    5  C16 UNL     1      -3.031  -3.296  -2.425  1.00  0.00     0.123 A 
HETATM    6  C17 UNL     1      -2.414  -4.075  -1.476  1.00  0.00     0.113 A 
HETATM    7  C18 UNL     1      -2.805  -5.466  -1.280  1.00  0.00     0.105 C 
HETATM    8  N12 UNL     1      -3.123  -6.565  -1.113  1.00  0.00    -0.191 NA
HETATM    9  C19 UNL     1      -1.433  -3.558  -0.709  1.00  0.00     0.088 A 
HETATM   10  N13 UNL     1      -0.754  -4.331   0.287  1.00  0.00    -0.100 NA
ENDROOT
BRANCH   5  11
HETATM   11  N11 UNL     1      -3.968  -3.813  -3.150  1.00  0.00    -0.384 N 
ATOM     12 2H11 UNL     1      -4.426  -3.235  -3.854  1.00  0.00     0.157 HD
ATOM     13 1H11 UNL     1      -4.231  -4.788  -3.003  1.00  0.00     0.157 HD
ENDBRANCH   5  11
BRANCH   1  14
HETATM   14  C8  UNL     1       0.093  -1.759  -0.065  1.00  0.00     0.123 A 
HETATM   15  N3  UNL     1       0.249  -2.398   1.132  1.00  0.00    -0.328 N 
HETATM   16  C7  UNL     1       1.186  -2.066   2.034  1.00  0.00     0.102 A 
ATOM     17  H3  UNL     1      -0.381  -3.169   1.353  1.00  0.00     0.169 HD
HETATM   18  C6  UNL     1       2.045  -1.015   1.736  1.00  0.00     0.078 A 
HETATM   19  N2  UNL     1       1.325  -2.672   3.158  1.00  0.00    -0.385 N 
HETATM   20  C5  UNL     1       1.908  -0.366   0.552  1.00  0.00     0.050 A 
HETATM   21  N14 UNL     1       0.918  -0.780  -0.308  1.00  0.00    -0.341 N 
ATOM     22  H14 UNL     1       0.823  -0.287  -1.196  1.00  0.00     0.167 HD
ATOM     23  H22 UNL     1       2.037  -2.420   3.843  1.00  0.00     0.157 HD
ATOM     24  H21 UNL     1       0.695  -3.443   3.377  1.00  0.00     0.157 HD
BRANCH  20  25
HETATM   25  C4  UNL     1       2.786   0.744   0.194  1.00  0.00     0.025 A 
HETATM   26  C3  UNL     1       3.817   1.280   0.933  1.00  0.00     0.125 A 
HETATM   27  N1  UNL     1       4.383   2.297   0.246  1.00  0.00    -0.303 N 
HETATM   28  N15 UNL     1       3.736   2.402  -0.884  1.00  0.00    -0.309 N 
HETATM   29  C20 UNL     1       2.756   1.487  -0.973  1.00  0.00     0.122 A 
ATOM     30  H15 UNL     1       3.948   3.090  -1.606  1.00  0.00     0.186 HD
BRANCH  27  31
HETATM   31  C2  UNL     1       5.496   3.122   0.673  1.00  0.00     0.143 C 
HETATM   32  C1  UNL     1       6.809   2.535   0.239  1.00  0.00     0.028 C 
ENDBRANCH  27  31
ENDBRANCH  20  25
ENDBRANCH   1  14
BRANCH   2  33
HETATM   33  N4  UNL     1      -1.467  -0.114  -2.078  1.00  0.00    -0.207 N 
HETATM   34  N5  UNL     1      -0.880   0.437  -3.147  1.00  0.00    -0.218 N 
HETATM   35  N6  UNL     1      -0.934   1.727  -3.046  1.00  0.00    -0.226 N 
ATOM     36  H5  UNL     1      -0.457  -0.078  -3.919  1.00  0.00     0.210 HD
HETATM   37  N7  UNL     1      -1.552   2.021  -1.921  1.00  0.00    -0.270 N 
ATOM     38  H6  UNL     1      -0.563   2.397  -3.719  1.00  0.00     0.210 HD
HETATM   39  C11 UNL     1      -1.908   0.870  -1.275  1.00  0.00     0.146 A 
ATOM     40  H7  UNL     1      -1.737   2.965  -1.583  1.00  0.00     0.190 HD
BRANCH  39  41
HETATM   41  C12 UNL     1      -2.633   0.885  -0.005  1.00  0.00     0.167 C 
BRANCH  41  42
HETATM   42  C13 UNL     1      -1.855   1.353   1.196  1.00  0.00     0.132 C 
BRANCH  42  43
HETATM   43  C14 UNL     1      -1.356   2.739   1.040  1.00  0.00     0.233 C 
HETATM   44  N8  UNL     1      -2.133   3.875   1.478  1.00  0.00    -0.062 NA
HETATM   45  O1  UNL     1      -0.245   3.048   0.529  1.00  0.00    -0.277 OA
ENDBRANCH  42  43
ENDBRANCH  41  42
BRANCH  41  46
HETATM   46  N9  UNL     1      -3.794   1.796  -0.066  1.00  0.00    -0.323 N 
HETATM   47  C15 UNL     1      -5.108   1.367   0.215  1.00  0.00     0.284 C 
HETATM   48  O2  UNL     1      -5.318   0.174   0.530  1.00  0.00    -0.630 OA
HETATM   49  O3  UNL     1      -6.182   2.233   0.154  1.00  0.00    -0.630 OA
ATOM     50  H9  UNL     1      -3.640   2.772  -0.321  1.00  0.00     0.166 HD
ENDBRANCH  41  46
ENDBRANCH  39  41
ENDBRANCH   2  33
TORSDOF 9
