REMARK  13 active torsions:
REMARK  status: ('A' for Active; 'I' for Inactive)
REMARK       I    between atoms: N1_2  and  C2_4 
REMARK       I    between atoms: C2_4  and  N2_5 
REMARK       I    between atoms: C2_4  and  N4_12 
REMARK    1  A    between atoms: N2_5  and  C3_7 
REMARK    2  A    between atoms: C3_7  and  C5_9 
REMARK       I    between atoms: N4_12  and  C6_14 
REMARK    3  A    between atoms: C6_14  and  C7_16 
REMARK    4  A    between atoms: C9_18  and  O3_19 
REMARK    5  A    between atoms: O3_19  and  C10_20 
REMARK    6  A    between atoms: C10_20  and  C11_22 
REMARK    7  A    between atoms: C11_22  and  N5_23 
REMARK    8  A    between atoms: N5_23  and  N6_24 
REMARK    9  A    between atoms: C12_27  and  N7_28 
REMARK       I    between atoms: N7_28  and  C13_30 
REMARK   10  A    between atoms: C13_30  and  C14_32 
REMARK   11  A    between atoms: C15_35  and  C16_36 
REMARK   12  A    between atoms: C16_36  and  O6_37 
REMARK   13  A    between atoms: C16_36  and  O7_39 
ROOT
HETATM    1  C7  UNL     1      -1.053   0.956   0.475  1.00  0.00     0.078 A 
HETATM    2  C8  UNL     1      -0.458   0.882  -0.741  1.00  0.00     0.065 A 
HETATM    3  C9  UNL     1       0.845   0.537  -0.786  1.00  0.00     0.114 A 
HETATM    4  C12 UNL     1       1.499   0.282   0.370  1.00  0.00     0.112 A 
HETATM    5  S2  UNL     1       0.196   0.547   1.536  1.00  0.00    -0.064 SA
ENDROOT
BRANCH   1   6
HETATM    6  C6  UNL     1      -2.432   1.303   0.838  1.00  0.00     0.276 C 
HETATM    7  N4  UNL     1      -3.344   1.617  -0.179  1.00  0.00    -0.155 N 
HETATM    8  C2  UNL     1      -4.696   1.970  -0.001  1.00  0.00     0.680 C 
ATOM      9  H4  UNL     1      -2.996   1.587  -1.137  1.00  0.00     0.187 HD
HETATM   10  N1  UNL     1      -5.491   2.254  -0.981  1.00  0.00    -0.230 N 
HETATM   11  N2  UNL     1      -5.240   2.032   1.294  1.00  0.00    -0.191 N 
HETATM   12  C1  UNL     1      -5.015   2.215  -2.334  1.00  0.00     0.165 C 
ATOM     13  H1  UNL     1      -6.461   2.507  -0.791  1.00  0.00     0.177 HD
ATOM     14  H2  UNL     1      -5.140   2.921   1.783  1.00  0.00     0.184 HD
HETATM   15  O2  UNL     1      -2.776   1.314   2.056  1.00  0.00    -0.266 OA
BRANCH  11  16
HETATM   16  C3  UNL     1      -5.837   1.116   1.920  1.00  0.00     0.087 C 
HETATM   17  C4  UNL     1      -6.348   1.384   3.304  1.00  0.00     0.074 C 
BRANCH  16  18
HETATM   18  C5  UNL     1      -6.042  -0.207   1.357  1.00  0.00     0.277 C 
HETATM   19  N3  UNL     1      -6.715  -1.218   2.062  1.00  0.00    -0.056 NA
HETATM   20  O1  UNL     1      -5.610  -0.463   0.211  1.00  0.00    -0.270 OA
ENDBRANCH  16  18
ENDBRANCH  11  16
ENDBRANCH   1   6
BRANCH   3  21
HETATM   21  O3  UNL     1       1.488   0.449  -2.062  1.00  0.00    -0.275 OA
BRANCH  21  22
HETATM   22  C10 UNL     1       1.091  -0.585  -2.925  1.00  0.00     0.280 C 
HETATM   23  O4  UNL     1       0.217  -1.369  -2.558  1.00  0.00    -0.263 OA
BRANCH  22  24
HETATM   24  C11 UNL     1       1.763  -0.665  -4.243  1.00  0.00     0.245 C 
BRANCH  24  25
HETATM   25  N5  UNL     1       1.274  -1.767  -5.041  1.00  0.00    -0.139 NA
BRANCH  25  26
HETATM   26  N6  UNL     1       1.979  -1.744  -6.261  1.00  0.00    -0.348 N 
ATOM     27  H62 UNL     1       2.698  -1.068  -6.519  1.00  0.00     0.172 HD
ATOM     28  H61 UNL     1       1.634  -2.521  -6.824  1.00  0.00     0.172 HD
ENDBRANCH  25  26
ENDBRANCH  24  25
ENDBRANCH  22  24
ENDBRANCH  21  22
ENDBRANCH   3  21
BRANCH   4  29
HETATM   29  N7  UNL     1       2.818  -0.043   0.751  1.00  0.00    -0.313 N 
HETATM   30  C13 UNL     1       3.944  -0.107  -0.024  1.00  0.00     0.280 C 
HETATM   31  O5  UNL     1       4.056   0.116  -1.230  1.00  0.00    -0.265 OA
ATOM     32  H7  UNL     1       2.950  -0.260   1.739  1.00  0.00     0.170 HD
BRANCH  30  33
HETATM   33  C14 UNL     1       5.238  -0.495   0.633  1.00  0.00     0.143 A 
HETATM   34  N8  UNL     1       5.423  -0.787   1.906  1.00  0.00    -0.345 N 
HETATM   35  C15 UNL     1       6.609  -1.104   2.328  1.00  0.00     0.071 A 
ATOM     36  H8  UNL     1       4.637  -0.764   2.556  1.00  0.00     0.166 HD
HETATM   37  C17 UNL     1       7.626  -1.119   1.407  1.00  0.00     0.082 A 
HETATM   38  S1  UNL     1       6.794  -0.669  -0.026  1.00  0.00    -0.076 SA
BRANCH  35  39
HETATM   39  C16 UNL     1       6.873  -1.447   3.785  1.00  0.00     0.305 C 
BRANCH  39  40
HETATM   40  O6  UNL     1       6.198  -0.513   4.599  1.00  0.00    -0.366 OA
ATOM     41  H6  UNL     1       6.363  -0.727   5.510  1.00  0.00     0.213 HD
ENDBRANCH  39  40
BRANCH  39  42
HETATM   42  O7  UNL     1       6.389  -2.697   4.099  1.00  0.00    -0.366 OA
ATOM     43  H7  UNL     1       6.554  -2.911   5.010  1.00  0.00     0.213 HD
ENDBRANCH  39  42
ENDBRANCH  35  39
ENDBRANCH  30  33
ENDBRANCH   4  29
TORSDOF 13
