REMARK  6 active torsions:
REMARK  status: ('A' for Active; 'I' for Inactive)
REMARK    1  A    between atoms: C9_9  and  C10_10 
REMARK    2  A    between atoms: C10_10  and  C12_12 
REMARK    3  A    between atoms: C12_12  and  O2_14 
REMARK    4  A    between atoms: O2_14  and  C13_15 
REMARK    5  A    between atoms: C13_15  and  C14_16 
REMARK    6  A    between atoms: C21_24  and  O4_25 
ROOT
HETATM    1  C1  UNL     1      -4.658  -0.874  -0.290  1.00  0.00     0.046 C 
HETATM    2  C2  UNL     1      -3.189  -1.018  -0.513  1.00  0.00    -0.051 C 
HETATM    3  C3  UNL     1      -2.382  -0.106  -0.027  1.00  0.00    -0.051 C 
HETATM    4  C4  UNL     1      -2.456   1.131   0.737  1.00  0.00    -0.019 C 
HETATM    5  C5  UNL     1      -2.389   0.892   2.235  1.00  0.00     0.020 C 
HETATM    6  C6  UNL     1      -3.673   1.983   0.483  1.00  0.00     0.020 C 
HETATM    7  C7  UNL     1      -1.179   1.911   0.314  1.00  0.00    -0.000 C 
HETATM    8  C8  UNL     1      -1.441   2.794  -0.848  1.00  0.00     0.011 C 
HETATM    9  C9  UNL     1      -0.155   0.827   0.099  1.00  0.00     0.023 C 
HETATM   10  C17 UNL     1      -0.899  -0.375  -0.326  1.00  0.00     0.046 C 
HETATM   11  C18 UNL     1      -0.578  -1.582   0.545  1.00  0.00     0.029 C 
HETATM   12  C19 UNL     1      -0.961  -0.696  -1.757  1.00  0.00     0.142 C 
HETATM   13  O3  UNL     1      -0.598   0.044  -2.606  1.00  0.00    -0.297 OA
HETATM   14  C20 UNL     1      -1.517  -2.020  -2.114  1.00  0.00     0.115 C 
HETATM   15  C21 UNL     1      -2.783  -2.212  -1.307  1.00  0.00     0.154 C 
ENDROOT
BRANCH   9  16
HETATM   16  C10 UNL     1       1.059   1.224  -0.639  1.00  0.00     0.087 C 
HETATM   17  C11 UNL     1       1.702   2.372   0.189  1.00  0.00     0.021 C 
BRANCH  16  18
HETATM   18  C12 UNL     1       2.089   0.134  -0.544  1.00  0.00     0.263 C 
HETATM   19  O1  UNL     1       2.519  -0.383  -1.590  1.00  0.00    -0.265 OA
BRANCH  18  20
HETATM   20  O2  UNL     1       2.577  -0.313   0.655  1.00  0.00    -0.321 OA
BRANCH  20  21
HETATM   21  C13 UNL     1       3.537  -1.313   0.870  1.00  0.00     0.182 C 
BRANCH  21  22
HETATM   22  C14 UNL     1       4.844  -0.945   0.262  1.00  0.00     0.002 C 
HETATM   23  C15 UNL     1       5.889  -2.027   0.501  1.00  0.00     0.011 C 
HETATM   24  C16 UNL     1       5.407   0.350   0.807  1.00  0.00     0.011 C 
ENDBRANCH  21  22
ENDBRANCH  20  21
ENDBRANCH  18  20
ENDBRANCH  16  18
ENDBRANCH   9  16
BRANCH  15  25
HETATM   25  O4  UNL     1      -3.792  -2.464  -2.266  1.00  0.00    -0.391 OA
ATOM     26  H4  UNL     1      -3.533  -3.225  -2.772  1.00  0.00     0.210 HD
ENDBRANCH  15  25
TORSDOF 6
