REMARK  5 active torsions:
REMARK  status: ('A' for Active; 'I' for Inactive)
REMARK    1  A    between atoms: O1_2  and  C2_3 
REMARK    2  A    between atoms: C13_14  and  O2_15 
REMARK    3  A    between atoms: O2_15  and  C14_16 
REMARK    4  A    between atoms: C14_16  and  C15_18 
REMARK    5  A    between atoms: C15_18  and  C16_19 
ROOT
HETATM    1  C2  UNL     1      -2.066   0.175   0.276  1.00  0.00     0.091 C 
HETATM    2  C3  UNL     1      -2.977  -1.014   0.149  1.00  0.00     0.043 C 
HETATM    3  C4  UNL     1      -3.468  -1.178  -1.288  1.00  0.00     0.003 C 
HETATM    4  C5  UNL     1      -4.241  -0.009  -1.780  1.00  0.00     0.000 C 
HETATM    5  C6  UNL     1      -3.476   1.183  -2.208  1.00  0.00     0.004 C 
HETATM    6  C7  UNL     1      -1.991   1.067  -2.214  1.00  0.00     0.037 C 
HETATM    7  C8  UNL     1      -1.435   0.301  -1.099  1.00  0.00    -0.048 C 
HETATM    8  C9  UNL     1      -0.308  -0.393  -1.149  1.00  0.00    -0.015 C 
HETATM    9  C10 UNL     1      -0.074  -1.048   0.175  1.00  0.00     0.026 C 
HETATM   10  C11 UNL     1       1.394  -1.174   0.492  1.00  0.00     0.019 C 
HETATM   11  C12 UNL     1       2.014  -2.148  -0.479  1.00  0.00     0.013 C 
HETATM   12  C13 UNL     1       2.002   0.195   0.402  1.00  0.00     0.136 C 
HETATM   13  C17 UNL     1       1.393   1.019   1.527  1.00  0.00     0.034 C 
HETATM   14  C18 UNL     1      -0.066   1.204   1.181  1.00  0.00     0.016 C 
HETATM   15  C19 UNL     1      -0.812  -0.108   1.091  1.00  0.00    -0.001 C 
HETATM   16  C20 UNL     1      -1.111  -0.686   2.427  1.00  0.00     0.019 C 
ENDROOT
BRANCH  12  17
HETATM   17  O2  UNL     1       3.406   0.193   0.453  1.00  0.00    -0.315 OA
BRANCH  17  18
HETATM   18  C14 UNL     1       4.229   0.716  -0.533  1.00  0.00     0.269 C 
HETATM   19  O3  UNL     1       3.697   1.223  -1.530  1.00  0.00    -0.265 OA
BRANCH  18  20
HETATM   20  C15 UNL     1       5.694   0.624  -0.305  1.00  0.00     0.224 C 
BRANCH  20  21
HETATM   21  C16 UNL     1       6.311  -0.503  -1.059  1.00  0.00     0.182 C 
HETATM   22  O4  UNL     1       5.669  -1.280  -1.797  1.00  0.00    -0.648 OA
HETATM   23  O5  UNL     1       7.681  -0.664  -0.905  1.00  0.00    -0.648 OA
ENDBRANCH  20  21
ENDBRANCH  18  20
ENDBRANCH  17  18
ENDBRANCH  12  17
BRANCH   1  24
HETATM   24  O1  UNL     1      -2.659   1.355   0.604  1.00  0.00    -0.380 OA
HETATM   25  C1  UNL     1      -3.336   1.445   1.776  1.00  0.00     0.203 C 
ENDBRANCH   1  24
TORSDOF 5
