REMARK  5 active torsions:
REMARK  status: ('A' for Active; 'I' for Inactive)
REMARK    1  A    between atoms: C2_4  and  S1_5 
REMARK    2  A    between atoms: S1_5  and  C3_6 
REMARK    3  A    between atoms: C10_13  and  N2_14 
REMARK    4  A    between atoms: N2_14  and  C11_16 
REMARK    5  A    between atoms: C11_16  and  C12_17 
ROOT
HETATM    1  C1  UNL     1      -0.349  -2.234   0.413  1.00  0.00     0.182 A 
HETATM    2  N1  UNL     1      -1.489  -1.945   1.071  1.00  0.00    -0.347 N 
ATOM      3  H1  UNL     1      -1.938  -2.680   1.617  1.00  0.00     0.167 HD
HETATM    4  C2  UNL     1      -2.055  -0.735   1.038  1.00  0.00     0.074 A 
HETATM    5  C9  UNL     1      -1.426   0.243   0.292  1.00  0.00     0.085 A 
HETATM    6  C10 UNL     1      -0.258  -0.006  -0.397  1.00  0.00     0.104 A 
HETATM    7  N3  UNL     1       0.241  -1.246  -0.310  1.00  0.00    -0.339 N 
ATOM      8  H3  UNL     1       1.104  -1.459  -0.810  1.00  0.00     0.168 HD
ENDROOT
BRANCH   6   9
HETATM    9  N2  UNL     1       0.359   0.867  -1.098  1.00  0.00    -0.374 N 
ATOM     10  H2  UNL     1      -0.065   1.794  -1.128  1.00  0.00     0.161 HD
BRANCH   9  11
HETATM   11  C11 UNL     1       1.558   0.711  -1.839  1.00  0.00     0.153 C 
BRANCH  11  12
HETATM   12  C12 UNL     1       2.734   1.212  -1.026  1.00  0.00     0.140 C 
HETATM   13  C13 UNL     1       4.038   1.031  -1.786  1.00  0.00     0.041 C 
HETATM   14  C14 UNL     1       5.025   1.006  -0.641  1.00  0.00     0.017 C 
HETATM   15  C15 UNL     1       6.219   0.129  -0.950  1.00  0.00     0.007 C 
HETATM   16  C19 UNL     1       4.209   0.499   0.494  1.00  0.00     0.126 C 
HETATM   17  C16 UNL     1       6.873  -0.210   0.382  1.00  0.00     0.001 C 
HETATM   18  C17 UNL     1       5.982  -1.184   1.098  1.00  0.00     0.002 C 
HETATM   19  C18 UNL     1       4.529  -0.945   0.874  1.00  0.00     0.032 C 
HETATM   20  O1  UNL     1       2.888   0.547   0.160  1.00  0.00    -0.379 OA
ENDBRANCH  11  12
ENDBRANCH   9  11
ENDBRANCH   6   9
BRANCH   4  21
HETATM   21  S1  UNL     1      -3.558  -0.361   1.909  1.00  0.00    -0.107 SA
BRANCH  21  22
HETATM   22  C3  UNL     1      -5.032  -0.676   0.900  1.00  0.00     0.054 C 
HETATM   23  C4  UNL     1      -5.026   0.305  -0.242  1.00  0.00     0.015 C 
HETATM   24  C5  UNL     1      -6.382   0.494  -0.861  1.00  0.00     0.001 C 
HETATM   25  C6  UNL     1      -7.451   0.792   0.163  1.00  0.00     0.000 C 
HETATM   26  C7  UNL     1      -6.891   0.775   1.574  1.00  0.00     0.001 C 
HETATM   27  C8  UNL     1      -6.237  -0.568   1.771  1.00  0.00     0.015 C 
ENDBRANCH  21  22
ENDBRANCH   4  21
TORSDOF 5
