REMARK  5 active torsions:
REMARK  status: ('A' for Active; 'I' for Inactive)
REMARK    1  A    between atoms: C2_2  and  C4_4 
REMARK    2  A    between atoms: C4_4  and  C6_6 
REMARK    3  A    between atoms: C6_6  and  C7_7 
REMARK    4  A    between atoms: C14_14  and  O1_15 
REMARK    5  A    between atoms: C21_24  and  O3_25 
ROOT
HETATM    1  C7  UNL     1       0.855   0.563  -0.557  1.00  0.00    -0.006 C 
HETATM    2  C8  UNL     1       0.344   1.631  -1.496  1.00  0.00     0.009 C 
HETATM    3  C9  UNL     1      -0.511   2.705  -0.952  1.00  0.00     0.034 C 
HETATM    4  C10 UNL     1      -0.735   2.755   0.495  1.00  0.00    -0.087 C 
HETATM    5  C11 UNL     1       0.235   3.549   1.340  1.00  0.00     0.043 C 
HETATM    6  C12 UNL     1      -1.708   2.165   1.124  1.00  0.00    -0.021 C 
HETATM    7  C13 UNL     1      -2.775   1.329   0.492  1.00  0.00     0.068 C 
HETATM    8  C14 UNL     1      -2.360  -0.073   0.621  1.00  0.00     0.096 C 
HETATM    9  C15 UNL     1      -3.334  -1.175   0.670  1.00  0.00     0.082 C 
HETATM   10  C16 UNL     1      -2.320  -2.357   0.584  1.00  0.00     0.091 A 
HETATM   11  C17 UNL     1      -2.765  -3.640   0.962  1.00  0.00     0.207 A 
HETATM   12  O2  UNL     1      -1.800  -2.832   1.759  1.00  0.00    -0.374 OA
HETATM   13  C18 UNL     1      -1.504  -1.946  -0.567  1.00  0.00     0.061 C 
HETATM   14  C19 UNL     1      -0.030  -1.884  -0.551  1.00  0.00     0.019 C 
HETATM   15  C20 UNL     1      -0.064  -0.450  -0.090  1.00  0.00     0.028 C 
HETATM   16  C21 UNL     1      -1.477  -0.418  -0.553  1.00  0.00     0.102 C 
ENDROOT
BRANCH   1  17
HETATM   17  C6  UNL     1       2.167   0.109  -1.160  1.00  0.00     0.013 C 
BRANCH  17  18
HETATM   18  C4  UNL     1       2.929  -0.920  -0.439  1.00  0.00     0.009 C 
HETATM   19  C5  UNL     1       4.281  -1.020  -1.211  1.00  0.00     0.015 C 
BRANCH  18  20
HETATM   20  C2  UNL     1       3.340  -0.564   0.930  1.00  0.00    -0.089 C 
HETATM   21  C1  UNL     1       2.912  -1.326   1.927  1.00  0.00     0.014 C 
HETATM   22  C3  UNL     1       4.200   0.587   1.287  1.00  0.00     0.043 C 
ENDBRANCH  18  20
ENDBRANCH  17  18
ENDBRANCH   1  17
BRANCH  16  23
HETATM   23  O3  UNL     1      -1.822   0.020  -1.761  1.00  0.00    -0.381 OA
HETATM   24  C22 UNL     1      -2.952  -0.279  -2.393  1.00  0.00     0.202 C 
ENDBRANCH  16  23
BRANCH   8  25
HETATM   25  O1  UNL     1      -1.697  -0.166   1.873  1.00  0.00    -0.386 OA
ATOM     26  H1  UNL     1      -1.428  -1.073   1.956  1.00  0.00     0.210 HD
ENDBRANCH   8  25
TORSDOF 5
