REMARK  7 active torsions:
REMARK  status: ('A' for Active; 'I' for Inactive)
REMARK    1  A    between atoms: C2_2  and  C3_3 
REMARK    2  A    between atoms: C2_2  and  C6_12 
REMARK    3  A    between atoms: C3_3  and  O1_4 
REMARK    4  A    between atoms: O1_4  and  C4_5 
REMARK    5  A    between atoms: C4_5  and  C5_7 
REMARK    6  A    between atoms: C5_7  and  O3_8 
REMARK    7  A    between atoms: C5_7  and  O4_10 
ROOT
HETATM    1  C6  UNL     1       1.259  -0.426  -0.613  1.00  0.00    -0.016 C 
HETATM    2  C7  UNL     1       1.113  -0.552  -2.104  1.00  0.00     0.020 C 
HETATM    3  C8  UNL     1       0.640  -1.473   0.221  1.00  0.00     0.015 C 
HETATM    4  C9  UNL     1      -0.793  -1.184   0.684  1.00  0.00     0.011 C 
HETATM    5  C10 UNL     1      -1.452  -0.319  -0.374  1.00  0.00     0.027 C 
HETATM    6  C11 UNL     1      -0.764   0.942  -0.403  1.00  0.00    -0.074 C 
HETATM    7  C12 UNL     1      -1.386   2.109  -0.500  1.00  0.00     0.003 C 
HETATM    8  C13 UNL     1      -2.832   2.101  -0.566  1.00  0.00     0.004 C 
HETATM    9  C14 UNL     1      -3.532   1.001  -0.520  1.00  0.00    -0.071 C 
HETATM   10  C15 UNL     1      -5.017   1.047  -0.600  1.00  0.00     0.035 C 
HETATM   11  C16 UNL     1      -5.491   0.652   0.795  1.00  0.00     0.004 C 
HETATM   12  C17 UNL     1      -4.869  -0.607   1.272  1.00  0.00     0.001 C 
HETATM   13  C18 UNL     1      -3.409  -0.768   1.073  1.00  0.00     0.014 C 
HETATM   14  C19 UNL     1      -2.914  -0.299  -0.301  1.00  0.00    -0.013 C 
HETATM   15  C20 UNL     1      -3.550  -1.253  -1.322  1.00  0.00     0.021 C 
HETATM   16  C21 UNL     1       0.751   0.970  -0.278  1.00  0.00     0.048 C 
ENDROOT
BRANCH   1  17
HETATM   17  C2  UNL     1       2.766  -0.452  -0.375  1.00  0.00    -0.057 C 
HETATM   18  C1  UNL     1       3.288  -1.525   0.127  1.00  0.00     0.017 C 
BRANCH  17  19
HETATM   19  C3  UNL     1       3.568   0.720  -0.757  1.00  0.00     0.213 C 
BRANCH  19  20
HETATM   20  O1  UNL     1       4.918   0.588  -0.517  1.00  0.00    -0.313 OA
BRANCH  20  21
HETATM   21  C4  UNL     1       5.442   0.572   0.757  1.00  0.00     0.314 C 
HETATM   22  O2  UNL     1       4.664   0.693   1.733  1.00  0.00    -0.260 OA
BRANCH  21  23
HETATM   23  C5  UNL     1       6.892   0.416   1.034  1.00  0.00     0.356 C 
BRANCH  23  24
HETATM   24  O3  UNL     1       7.643   0.292  -0.111  1.00  0.00    -0.363 OA
ATOM     25  H3  UNL     1       8.571   0.192   0.066  1.00  0.00     0.213 HD
ENDBRANCH  23  24
BRANCH  23  26
HETATM   26  O4  UNL     1       7.340   1.553   1.717  1.00  0.00    -0.363 OA
ATOM     27  H4  UNL     1       8.268   1.453   1.894  1.00  0.00     0.213 HD
ENDBRANCH  23  26
ENDBRANCH  21  23
ENDBRANCH  20  21
ENDBRANCH  19  20
ENDBRANCH  17  19
ENDBRANCH   1  17
TORSDOF 7
