REMARK  6 active torsions:
REMARK  status: ('A' for Active; 'I' for Inactive)
REMARK    1  A    between atoms: C2_2  and  C3_3 
REMARK    2  A    between atoms: C3_3  and  C4_4 
REMARK    3  A    between atoms: C8_8  and  O1_9 
REMARK    4  A    between atoms: C9_11  and  C10_12 
REMARK    5  A    between atoms: C10_12  and  C11_13 
REMARK    6  A    between atoms: C19_23  and  C20_24 
ROOT
HETATM    1  C4  UNL     1      -1.389  -1.476  -0.309  1.00  0.00     0.061 C 
HETATM    2  C5  UNL     1      -2.201  -2.203  -1.399  1.00  0.00     0.046 C 
HETATM    3  C6  UNL     1      -0.118  -2.292  -0.187  1.00  0.00     0.040 C 
HETATM    4  C7  UNL     1       0.718  -1.974   1.009  1.00  0.00     0.035 C 
HETATM    5  C8  UNL     1       2.068  -1.402   0.637  1.00  0.00     0.122 C 
HETATM    6  C9  UNL     1       2.054  -0.049   0.073  1.00  0.00     0.017 C 
HETATM    7  C13 UNL     1       1.178   0.959   0.726  1.00  0.00     0.040 C 
HETATM    8  C14 UNL     1       0.683   1.986  -0.230  1.00  0.00     0.139 C 
HETATM    9  O2  UNL     1       1.032   3.305   0.178  1.00  0.00    -0.315 OA
HETATM   10  C15 UNL     1      -0.055   4.131   0.279  1.00  0.00     0.263 C 
HETATM   11  O3  UNL     1      -0.044   5.369   0.344  1.00  0.00    -0.265 OA
HETATM   12  C16 UNL     1      -1.257   3.279   0.296  1.00  0.00     0.090 C 
HETATM   13  C17 UNL     1      -1.697   3.064   1.680  1.00  0.00     0.021 C 
HETATM   14  C18 UNL     1      -0.772   2.074  -0.458  1.00  0.00     0.057 C 
HETATM   15  C19 UNL     1      -1.603   0.858  -0.272  1.00  0.00     0.129 C 
HETATM   16  O4  UNL     1      -1.052  -0.256  -0.782  1.00  0.00    -0.374 OA
ENDROOT
BRANCH   1  17
HETATM   17  C3  UNL     1      -2.157  -1.580   0.934  1.00  0.00     0.064 C 
BRANCH  17  18
HETATM   18  C2  UNL     1      -2.320  -3.050   1.257  1.00  0.00    -0.034 C 
HETATM   19  C1  UNL     1      -3.508  -3.622   1.348  1.00  0.00     0.007 C 
ENDBRANCH  17  18
ENDBRANCH   1  17
BRANCH  15  20
HETATM   20  C20 UNL     1      -2.911   1.131  -1.033  1.00  0.00     0.028 C 
HETATM   21  C21 UNL     1      -2.610   1.368  -2.496  1.00  0.00     0.007 C 
ENDBRANCH  15  20
BRANCH   5  22
HETATM   22  O1  UNL     1       2.952  -1.489   1.711  1.00  0.00    -0.395 OA
ATOM     23  H1  UNL     1       3.800  -1.130   1.477  1.00  0.00     0.210 HD
ENDBRANCH   5  22
BRANCH   6  24
HETATM   24  C10 UNL     1       3.501   0.472   0.102  1.00  0.00     0.007 C 
BRANCH  24  25
HETATM   25  C11 UNL     1       4.381  -0.439  -0.724  1.00  0.00    -0.004 C 
HETATM   26  C12 UNL     1       5.791   0.082  -0.688  1.00  0.00     0.005 C 
ENDBRANCH  24  25
ENDBRANCH   6  24
TORSDOF 6
