REMARK  7 active torsions:
REMARK  status: ('A' for Active; 'I' for Inactive)
REMARK    1  A    between atoms: C10_11  and  C11_12 
REMARK    2  A    between atoms: C12_13  and  C13_14 
REMARK    3  A    between atoms: C18_19  and  C19_20 
REMARK    4  A    between atoms: C19_20  and  O2_21 
REMARK    5  A    between atoms: C20_23  and  O3_24 
REMARK    6  A    between atoms: C24_29  and  C25_30 
REMARK    7  A    between atoms: C26_31  and  C27_32 
ROOT
HETATM    1  C13 UNL     1      -0.270  -1.233   0.089  1.00  0.00     0.016 C 
HETATM    2  C14 UNL     1      -0.132  -1.405  -1.399  1.00  0.00     0.010 C 
HETATM    3  C15 UNL     1      -1.046  -2.535  -1.796  1.00  0.00     0.010 C 
HETATM    4  C16 UNL     1      -2.402  -2.513  -1.204  1.00  0.00     0.026 C 
HETATM    5  C17 UNL     1      -2.798  -3.798  -0.576  1.00  0.00    -0.048 C 
HETATM    6  C18 UNL     1      -2.959  -4.954  -1.133  1.00  0.00     0.004 C 
HETATM    7  C20 UNL     1      -3.009  -3.495   0.873  1.00  0.00     0.148 C 
HETATM    8  C21 UNL     1      -3.570  -2.078   0.844  1.00  0.00     0.046 C 
HETATM    9  C22 UNL     1      -2.743  -1.401  -0.274  1.00  0.00    -0.026 C 
HETATM   10  C23 UNL     1      -3.682  -0.436  -0.960  1.00  0.00     0.016 C 
HETATM   11  C24 UNL     1      -1.639  -0.702   0.419  1.00  0.00     0.024 C 
ENDROOT
BRANCH   1  12
HETATM   12  C12 UNL     1       0.789  -0.350   0.678  1.00  0.00    -0.025 C 
HETATM   13  C11 UNL     1       1.684   0.261  -0.033  1.00  0.00    -0.025 C 
BRANCH  13  14
HETATM   14  C10 UNL     1       2.730   1.124   0.471  1.00  0.00     0.016 C 
HETATM   15  C2  UNL     1       4.136   0.606   0.087  1.00  0.00    -0.033 C 
HETATM   16  C1  UNL     1       4.230  -0.868   0.283  1.00  0.00     0.016 C 
HETATM   17  C3  UNL     1       4.456   0.981  -1.336  1.00  0.00     0.017 C 
HETATM   18  C7  UNL     1       4.971   1.430   1.025  1.00  0.00     0.001 C 
HETATM   19  C4  UNL     1       5.907   1.226  -1.587  1.00  0.00     0.079 C 
HETATM   20  C5  UNL     1       6.795   0.961  -0.464  1.00  0.00     0.127 C 
HETATM   21  O1  UNL     1       7.968   0.642  -0.699  1.00  0.00    -0.298 OA
HETATM   22  C6  UNL     1       6.417   1.039   0.970  1.00  0.00     0.083 C 
HETATM   23  C8  UNL     1       4.302   1.220   2.332  1.00  0.00     0.006 C 
HETATM   24  C9  UNL     1       2.811   1.338   1.951  1.00  0.00     0.010 C 
ENDBRANCH  13  14
ENDBRANCH   1  12
BRANCH  11  25
HETATM   25  C25 UNL     1      -1.660   0.731  -0.000  1.00  0.00    -0.022 C 
HETATM   26  C26 UNL     1      -1.823   1.713   0.877  1.00  0.00     0.001 C 
BRANCH  26  27
HETATM   27  C27 UNL     1      -1.848   3.130   0.490  1.00  0.00     0.144 C 
HETATM   28  C28 UNL     1      -3.126   3.522  -0.215  1.00  0.00     0.043 C 
HETATM   29  C29 UNL     1      -3.522   4.944   0.034  1.00  0.00     0.083 C 
HETATM   30  C30 UNL     1      -3.421   5.270   1.465  1.00  0.00     0.150 C 
HETATM   31  O4  UNL     1      -4.032   6.230   1.896  1.00  0.00    -0.296 OA
HETATM   32  C31 UNL     1      -2.562   4.383   2.308  1.00  0.00     0.246 C 
HETATM   33  O5  UNL     1      -1.503   3.979   1.525  1.00  0.00    -0.375 OA
ENDBRANCH  26  27
ENDBRANCH  11  25
BRANCH   7  34
HETATM   34  O3  UNL     1      -3.915  -4.331   1.479  1.00  0.00    -0.391 OA
ATOM     35  H3  UNL     1      -4.049  -4.138   2.400  1.00  0.00     0.210 HD
ENDBRANCH   7  34
BRANCH   6  36
HETATM   36  C19 UNL     1      -2.776  -5.247  -2.571  1.00  0.00     0.191 C 
BRANCH  36  37
HETATM   37  O2  UNL     1      -3.972  -5.735  -3.143  1.00  0.00    -0.397 OA
ATOM     38  H2  UNL     1      -3.854  -5.923  -4.067  1.00  0.00     0.209 HD
ENDBRANCH  36  37
ENDBRANCH   6  36
TORSDOF 7
