REMARK  7 active torsions:
REMARK  status: ('A' for Active; 'I' for Inactive)
REMARK    1  A    between atoms: C2_2  and  C5_5 
REMARK    2  A    between atoms: C5_5  and  C6_6 
REMARK       I    between atoms: C6_6  and  N1_8 
REMARK    3  A    between atoms: C20_24  and  O2_25 
REMARK    4  A    between atoms: C23_29  and  C24_30 
REMARK    5  A    between atoms: C24_30  and  C25_31 
REMARK    6  A    between atoms: C25_31  and  C26_33 
REMARK    7  A    between atoms: C26_33  and  C27_34 
ROOT
HETATM    1  C6  UNL     1       5.917  -1.049   0.908  1.00  0.00     0.243 C 
HETATM    2  O1  UNL     1       5.957  -1.538   2.090  1.00  0.00    -0.271 OA
HETATM    3  N1  UNL     1       4.633  -0.822   0.375  1.00  0.00    -0.222 N 
HETATM    4  N2  UNL     1       4.073  -0.327  -0.804  1.00  0.00    -0.292 N 
ATOM      5  H2  UNL     1       4.507   0.027  -1.657  1.00  0.00     0.187 HD
HETATM    6  C7  UNL     1       2.827  -0.459  -0.472  1.00  0.00     0.059 A 
HETATM    7  C8  UNL     1       3.275  -0.989   0.795  1.00  0.00     0.080 A 
HETATM    8  C9  UNL     1       2.457  -1.379   1.719  1.00  0.00     0.008 C 
HETATM    9  C10 UNL     1       1.008  -1.291   1.554  1.00  0.00     0.040 C 
HETATM   10  C11 UNL     1       0.547  -1.213   0.138  1.00  0.00    -0.027 C 
HETATM   11  C12 UNL     1       0.745  -2.678  -0.370  1.00  0.00     0.016 C 
HETATM   12  C13 UNL     1       1.373  -0.350  -0.733  1.00  0.00     0.048 C 
HETATM   13  C14 UNL     1       0.961   1.079  -0.662  1.00  0.00     0.012 C 
HETATM   14  C15 UNL     1      -0.523   1.285  -0.997  1.00  0.00     0.011 C 
HETATM   15  C16 UNL     1      -1.321   0.519  -0.024  1.00  0.00    -0.035 C 
HETATM   16  C17 UNL     1      -1.144   1.188   1.336  1.00  0.00     0.016 C 
HETATM   17  C18 UNL     1      -0.924  -0.962   0.009  1.00  0.00     0.005 C 
HETATM   18  C19 UNL     1      -1.478  -1.651  -1.185  1.00  0.00     0.038 C 
HETATM   19  C20 UNL     1      -3.017  -1.597  -1.296  1.00  0.00     0.127 C 
HETATM   20  C21 UNL     1      -3.362  -0.166  -1.374  1.00  0.00    -0.010 C 
HETATM   21  C22 UNL     1      -3.115   0.401  -2.714  1.00  0.00     0.018 C 
HETATM   22  C23 UNL     1      -4.640   0.403  -0.835  1.00  0.00     0.004 C 
HETATM   23  C28 UNL     1      -3.754   1.486  -0.231  1.00  0.00     0.012 C 
HETATM   24  C29 UNL     1      -2.776   0.428  -0.156  1.00  0.00     0.005 C 
ENDROOT
BRANCH   1  25
HETATM   25  C5  UNL     1       7.148  -0.745   0.158  1.00  0.00     0.113 C 
BRANCH  25  26
HETATM   26  C2  UNL     1       7.787   0.516   0.734  1.00  0.00    -0.043 C 
HETATM   27  C1  UNL     1       9.048   0.845  -0.011  1.00  0.00     0.015 C 
HETATM   28  C3  UNL     1       6.801   1.655   0.482  1.00  0.00     0.015 C 
HETATM   29  C4  UNL     1       8.091   0.370   2.187  1.00  0.00     0.015 C 
ENDBRANCH  25  26
ENDBRANCH   1  25
BRANCH  19  30
HETATM   30  O2  UNL     1      -3.294  -2.187  -2.539  1.00  0.00    -0.395 OA
ATOM     31  H2  UNL     1      -4.241  -2.154  -2.607  1.00  0.00     0.210 HD
ENDBRANCH  19  30
BRANCH  22  32
HETATM   32  C24 UNL     1      -5.444  -0.421   0.075  1.00  0.00     0.084 C 
BRANCH  32  33
HETATM   33  C25 UNL     1      -6.685   0.230   0.563  1.00  0.00     0.135 C 
HETATM   34  O3  UNL     1      -6.815   0.585   1.730  1.00  0.00    -0.298 OA
BRANCH  33  35
HETATM   35  C26 UNL     1      -7.828   0.479  -0.347  1.00  0.00     0.177 C 
BRANCH  35  36
HETATM   36  C27 UNL     1      -9.109   0.013   0.295  1.00  0.00     0.238 C 
HETATM   37  N3  UNL     1      -9.011  -0.755   1.470  1.00  0.00    -0.062 NA
HETATM   38  O4  UNL     1     -10.193   0.335  -0.254  1.00  0.00    -0.276 OA
ENDBRANCH  35  36
ENDBRANCH  33  35
ENDBRANCH  32  33
ENDBRANCH  22  32
TORSDOF 7
