REMARK  6 active torsions:
REMARK  status: ('A' for Active; 'I' for Inactive)
REMARK    1  A    between atoms: C17_19  and  O3_20 
REMARK    2  A    between atoms: O3_20  and  C18_21 
REMARK       I    between atoms: C18_21  and  N1_23 
REMARK    3  A    between atoms: N1_23  and  C19_25 
REMARK    4  A    between atoms: C19_25  and  C20_26 
REMARK       I    between atoms: C20_26  and  N2_28 
REMARK    5  A    between atoms: C22_31  and  C23_32 
REMARK    6  A    between atoms: C23_32  and  C24_33 
ROOT
HETATM    1  C1  UNL     1      -2.109   0.040  -2.888  1.00  0.00     0.016 C 
HETATM    2  C2  UNL     1      -2.596   0.557  -1.773  1.00  0.00    -0.061 C 
HETATM    3  C3  UNL     1      -2.627   1.980  -1.438  1.00  0.00     0.041 C 
HETATM    4  C4  UNL     1      -3.626   2.094  -0.299  1.00  0.00    -0.020 C 
HETATM    5  C5  UNL     1      -3.956   0.891   0.102  1.00  0.00    -0.008 C 
HETATM    6  C6  UNL     1      -3.241  -0.182  -0.695  1.00  0.00     0.070 C 
HETATM    7  C7  UNL     1      -4.362  -1.032  -1.233  1.00  0.00     0.155 C 
HETATM    8  O1  UNL     1      -5.457  -0.524  -1.333  1.00  0.00    -0.296 OA
HETATM    9  C8  UNL     1      -4.186  -2.419  -1.633  1.00  0.00     0.122 C 
HETATM   10  C9  UNL     1      -5.426  -3.281  -1.419  1.00  0.00     0.026 C 
HETATM   11  C10 UNL     1      -3.067  -3.080  -0.957  1.00  0.00     0.142 C 
HETATM   12  O2  UNL     1      -2.994  -4.292  -1.015  1.00  0.00    -0.297 OA
HETATM   13  C11 UNL     1      -2.012  -2.348  -0.201  1.00  0.00     0.062 C 
HETATM   14  C12 UNL     1      -1.637  -3.270   0.940  1.00  0.00     0.018 C 
HETATM   15  C13 UNL     1      -2.454  -0.982   0.250  1.00  0.00    -0.012 C 
HETATM   16  C14 UNL     1      -3.445  -1.270   1.410  1.00  0.00     0.018 C 
HETATM   17  C15 UNL     1      -1.282  -0.311   0.917  1.00  0.00     0.014 C 
HETATM   18  C16 UNL     1       0.011  -0.517   0.240  1.00  0.00     0.034 C 
HETATM   19  C17 UNL     1       1.053   0.580   0.567  1.00  0.00     0.137 C 
HETATM   20  C22 UNL     1       0.793   1.878   0.011  1.00  0.00     0.016 C 
HETATM   21  C27 UNL     1      -0.083   1.985  -1.207  1.00  0.00     0.012 C 
HETATM   22  C28 UNL     1      -1.373   2.687  -1.086  1.00  0.00    -0.006 C 
HETATM   23  C29 UNL     1      -1.372   4.022  -1.868  1.00  0.00     0.011 C 
ENDROOT
BRANCH  19  24
HETATM   24  O3  UNL     1       2.233   0.007  -0.047  1.00  0.00    -0.298 OA
BRANCH  24  25
HETATM   25  C18 UNL     1       3.169  -0.668   0.703  1.00  0.00     0.361 C 
HETATM   26  O4  UNL     1       3.047  -0.837   1.963  1.00  0.00    -0.238 OA
HETATM   27  N1  UNL     1       4.337  -1.225   0.116  1.00  0.00    -0.328 N 
ATOM     28  H1  UNL     1       4.490  -1.123  -0.887  1.00  0.00     0.165 HD
BRANCH  27  29
HETATM   29  C19 UNL     1       5.312  -1.933   0.914  1.00  0.00     0.227 C 
BRANCH  29  30
HETATM   30  C20 UNL     1       6.424  -2.420   0.094  1.00  0.00     0.235 C 
HETATM   31  O5  UNL     1       6.421  -2.187  -1.143  1.00  0.00    -0.272 OA
HETATM   32  N2  UNL     1       7.505  -3.145   0.656  1.00  0.00    -0.364 N 
HETATM   33  C21 UNL     1       8.596  -3.620  -0.168  1.00  0.00     0.149 C 
ATOM     34  H2  UNL     1       7.514  -3.335   1.658  1.00  0.00     0.161 HD
ENDBRANCH  29  30
ENDBRANCH  27  29
ENDBRANCH  24  25
ENDBRANCH  19  24
BRANCH  20  35
HETATM   35  C23 UNL     1       0.523   3.016   0.926  1.00  0.00     0.011 C 
BRANCH  35  36
HETATM   36  C24 UNL     1       1.593   3.474   1.861  1.00  0.00    -0.022 C 
HETATM   37  C25 UNL     1       1.057   4.701   2.667  1.00  0.00     0.009 C 
HETATM   38  C26 UNL     1       2.036   2.518   2.923  1.00  0.00     0.009 C 
ENDBRANCH  35  36
ENDBRANCH  20  35
TORSDOF 6
