REMARK  15 active torsions:
REMARK  status: ('A' for Active; 'I' for Inactive)
REMARK    1  A    between atoms: C2_2  and  O1_3 
REMARK    2  A    between atoms: O1_3  and  C3_4 
REMARK       I    between atoms: C3_4  and  N1_6 
REMARK    3  A    between atoms: N1_6  and  C4_7 
REMARK    4  A    between atoms: C8_11  and  C9_12 
REMARK    5  A    between atoms: C10_14  and  C11_15 
REMARK    6  A    between atoms: C11_15  and  C12_16 
REMARK    7  A    between atoms: C12_16  and  N2_17 
REMARK    8  A    between atoms: C15_20  and  C16_21 
REMARK    9  A    between atoms: C16_21  and  N3_22 
REMARK   10  A    between atoms: C18_26  and  N5_27 
REMARK   11  A    between atoms: C24_35  and  O6_36 
REMARK   12  A    between atoms: O6_36  and  C25_37 
REMARK   13  A    between atoms: C25_37  and  C26_38 
REMARK   14  A    between atoms: C26_38  and  N6_39 
REMARK   15  A    between atoms: C32_45  and  C33_46 
ROOT
HETATM    1  C9  UNL     1      -0.439   0.809   0.233  1.00  0.00     0.155 C 
HETATM    2  O3  UNL     1       0.439  -0.220   0.040  1.00  0.00    -0.378 OA
HETATM    3  C10 UNL     1       1.415   0.179  -0.867  1.00  0.00     0.126 C 
HETATM    4  C23 UNL     1       0.682   1.089  -1.803  1.00  0.00     0.066 C 
HETATM    5  C24 UNL     1      -0.269   1.808  -0.867  1.00  0.00     0.153 C 
ENDROOT
BRANCH   3   6
HETATM    6  C11 UNL     1       1.804  -1.081  -1.626  1.00  0.00     0.052 C 
BRANCH   6   7
HETATM    7  C12 UNL     1       2.852  -0.828  -2.653  1.00  0.00     0.130 C 
BRANCH   7   8
HETATM    8  N2  UNL     1       4.100  -0.312  -2.059  1.00  0.00    -0.366 N 
HETATM    9  C13 UNL     1       4.430   0.968  -1.859  1.00  0.00     0.091 A 
HETATM   10  C14 UNL     1       5.676   1.022  -1.284  1.00  0.00     0.027 A 
HETATM   11  C15 UNL     1       6.135  -0.266  -1.122  1.00  0.00    -0.013 A 
HETATM   12  C22 UNL     1       5.125  -1.059  -1.616  1.00  0.00     0.099 A 
BRANCH  11  13
HETATM   13  C16 UNL     1       7.432  -0.681  -0.541  1.00  0.00     0.316 C 
BRANCH  13  14
HETATM   14  N3  UNL     1       7.357  -0.963   0.859  1.00  0.00     0.126 N 
HETATM   15  C17 UNL     1       6.450  -2.013   1.206  1.00  0.00     0.398 C 
HETATM   16  N4  UNL     1       7.085  -2.665   2.310  1.00  0.00    -0.347 N 
HETATM   17  C18 UNL     1       8.275  -2.236   2.520  1.00  0.00     0.186 C 
ATOM     18  H4  UNL     1       6.639  -3.392   2.869  1.00  0.00     0.162 HD
HETATM   19  C19 UNL     1       8.591  -1.178   1.510  1.00  0.00     0.218 C 
HETATM   20  C20 UNL     1       9.156  -0.009   2.249  1.00  0.00     0.058 C 
HETATM   21  C21 UNL     1       9.675  -1.679   0.555  1.00  0.00     0.058 C 
BRANCH  17  22
HETATM   22  N5  UNL     1       9.187  -2.669   3.538  1.00  0.00    -0.100 N 
HETATM   23  O4  UNL     1       9.282  -2.102   4.643  1.00  0.00    -0.531 OA
HETATM   24  O5  UNL     1       9.989  -3.754   3.288  1.00  0.00    -0.531 OA
ENDBRANCH  17  22
ENDBRANCH  13  14
ENDBRANCH  11  13
ENDBRANCH   7   8
ENDBRANCH   6   7
ENDBRANCH   3   6
BRANCH   1  25
HETATM   25  C8  UNL     1      -1.854   0.235   0.321  1.00  0.00     0.019 C 
HETATM   26  C7  UNL     1      -1.868  -0.713   1.503  1.00  0.00     0.036 C 
HETATM   27  C6  UNL     1      -3.208  -0.992   2.074  1.00  0.00     0.251 C 
HETATM   28  N1  UNL     1      -4.080  -1.865   1.356  1.00  0.00     0.024 N 
HETATM   29  C3  UNL     1      -5.344  -1.200   1.235  1.00  0.00     0.459 C 
HETATM   30  C32 UNL     1      -3.588  -2.253   0.063  1.00  0.00     0.206 C 
HETATM   31  O2  UNL     1      -5.656  -0.207   1.978  1.00  0.00    -0.231 OA
HETATM   32  C31 UNL     1      -3.602  -1.060  -0.845  1.00  0.00     0.035 C 
HETATM   33  C30 UNL     1      -2.207  -0.431  -0.962  1.00  0.00     0.009 C 
BRANCH  28  34
HETATM   34  C4  UNL     1      -4.339  -3.015   2.224  1.00  0.00     0.246 C 
HETATM   35  C5  UNL     1      -5.803  -3.373   2.264  1.00  0.00     0.035 C 
ENDBRANCH  28  34
BRANCH  29  36
HETATM   36  O1  UNL     1      -6.328  -1.554   0.327  1.00  0.00    -0.299 OA
BRANCH  36  37
HETATM   37  C2  UNL     1      -7.566  -0.878   0.232  1.00  0.00     0.176 C 
HETATM   38  C1  UNL     1      -8.450  -1.462  -0.828  1.00  0.00     0.034 C 
ENDBRANCH  36  37
ENDBRANCH  29  36
BRANCH  30  39
HETATM   39  C33 UNL     1      -4.230  -3.452  -0.542  1.00  0.00     0.017 A 
HETATM   40  C34 UNL     1      -3.636  -3.791  -1.922  1.00  0.00     0.007 A 
HETATM   41  C35 UNL     1      -5.062  -3.480  -1.728  1.00  0.00     0.007 A 
ENDBRANCH  30  39
ENDBRANCH   1  25
BRANCH   5  42
HETATM   42  O6  UNL     1       0.303   2.960  -0.340  1.00  0.00    -0.382 OA
BRANCH  42  43
HETATM   43  C25 UNL     1      -0.432   4.109  -0.577  1.00  0.00     0.196 C 
BRANCH  43  44
HETATM   44  C26 UNL     1      -1.812   4.102  -0.016  1.00  0.00     0.262 C 
BRANCH  44  45
HETATM   45  N6  UNL     1      -2.491   5.325  -0.311  1.00  0.00    -0.077 N 
HETATM   46  C27 UNL     1      -1.724   6.296  -1.043  1.00  0.00     0.271 C 
HETATM   47  C28 UNL     1      -3.685   5.057  -1.130  1.00  0.00     0.271 C 
HETATM   48  C29 UNL     1      -2.990   5.992   0.888  1.00  0.00     0.271 C 
ENDBRANCH  44  45
ENDBRANCH  43  44
ENDBRANCH  42  43
ENDBRANCH   5  42
TORSDOF 15
