REMARK  16 active torsions:
REMARK  status: ('A' for Active; 'I' for Inactive)
REMARK    1  A    between atoms: C2_2  and  C3_3 
REMARK    2  A    between atoms: C3_3  and  C4_4 
REMARK    3  A    between atoms: C3_3  and  C32_43 
REMARK    4  A    between atoms: C4_4  and  C5_5 
REMARK    5  A    between atoms: C5_5  and  N1_6 
REMARK       I    between atoms: N1_6  and  C7_8 
REMARK    6  A    between atoms: C7_8  and  C8_10 
REMARK    7  A    between atoms: C8_10  and  C9_11 
REMARK    8  A    between atoms: C8_10  and  N4_22 
REMARK    9  A    between atoms: C9_11  and  C10_12 
REMARK   10  A    between atoms: C10_12  and  C11_13 
REMARK   11  A    between atoms: C11_13  and  C12_14 
REMARK   12  A    between atoms: C12_14  and  C13_15 
REMARK   13  A    between atoms: C13_15  and  N2_16 
REMARK   14  A    between atoms: N4_22  and  C16_23 
REMARK   15  A    between atoms: N4_22  and  S2_39 
REMARK   16  A    between atoms: C32_43  and  O6_45 
ROOT
HETATM    1  C8  UNL     1      -1.084   0.467   0.611  1.00  0.00     0.194 C 
ENDROOT
BRANCH   1   2
HETATM    2  C7  UNL     1      -2.042  -0.652   0.522  1.00  0.00     0.243 C 
HETATM    3  N1  UNL     1      -1.937  -1.793  -0.285  1.00  0.00    -0.355 N 
HETATM    4  C6  UNL     1      -0.847  -2.013  -1.196  1.00  0.00     0.152 C 
HETATM    5  O1  UNL     1      -3.072  -0.539   1.276  1.00  0.00    -0.271 OA
BRANCH   3   6
HETATM    6  C5  UNL     1      -2.977  -2.820  -0.231  1.00  0.00     0.126 C 
BRANCH   6   7
HETATM    7  C4  UNL     1      -4.058  -2.528  -1.241  1.00  0.00     0.034 C 
BRANCH   7   8
HETATM    8  C3  UNL     1      -5.163  -3.530  -1.267  1.00  0.00     0.086 C 
BRANCH   8   9
HETATM    9  C2  UNL     1      -6.209  -3.197  -2.326  1.00  0.00     0.010 C 
HETATM   10  C1  UNL     1      -6.830  -1.842  -2.064  1.00  0.00     0.006 C 
ENDBRANCH   8   9
BRANCH   8  11
HETATM   11  C32 UNL     1      -5.852  -3.699   0.032  1.00  0.00     0.262 C 
HETATM   12  O5  UNL     1      -5.709  -2.892   0.968  1.00  0.00    -0.265 OA
BRANCH  11  13
HETATM   13  O6  UNL     1      -6.709  -4.802   0.244  1.00  0.00    -0.326 OA
HETATM   14  C33 UNL     1      -7.341  -4.912   1.501  1.00  0.00     0.213 C 
ENDBRANCH  11  13
ENDBRANCH   8  11
ENDBRANCH   7   8
ENDBRANCH   6   7
ENDBRANCH   3   6
ENDBRANCH   1   2
BRANCH   1  15
HETATM   15  C9  UNL     1      -1.908   1.749   0.687  1.00  0.00     0.036 C 
BRANCH  15  16
HETATM   16  C10 UNL     1      -1.123   3.002   0.762  1.00  0.00     0.002 C 
BRANCH  16  17
HETATM   17  C11 UNL     1      -2.052   4.185   0.826  1.00  0.00     0.002 C 
BRANCH  17  18
HETATM   18  C12 UNL     1      -2.959   4.336  -0.356  1.00  0.00     0.022 C 
BRANCH  18  19
HETATM   19  C13 UNL     1      -2.234   4.549  -1.663  1.00  0.00     0.148 C 
BRANCH  19  20
HETATM   20  N2  UNL     1      -1.441   5.801  -1.643  1.00  0.00    -0.297 N 
HETATM   21  C14 UNL     1      -2.031   6.938  -2.044  1.00  0.00     0.160 A 
HETATM   22  S1  UNL     1      -0.761   8.067  -1.855  1.00  0.00    -0.076 SA
HETATM   23  C15 UNL     1       0.433   6.989  -1.274  1.00  0.00     0.158 A 
HETATM   24  N3  UNL     1      -0.235   5.846  -1.269  1.00  0.00    -0.303 N 
ATOM     25  H3  UNL     1       0.229   4.992  -0.960  1.00  0.00     0.186 HD
ENDBRANCH  19  20
ENDBRANCH  18  19
ENDBRANCH  17  18
ENDBRANCH  16  17
ENDBRANCH  15  16
ENDBRANCH   1  15
BRANCH   1  26
HETATM   26  N4  UNL     1      -0.084   0.356   1.625  1.00  0.00    -0.262 N 
BRANCH  26  27
HETATM   27  C16 UNL     1       1.322   0.391   1.275  1.00  0.00     0.047 A 
HETATM   28  C17 UNL     1       2.098   1.461   1.320  1.00  0.00     0.042 A 
HETATM   29  C18 UNL     1       3.445   1.115   0.898  1.00  0.00    -0.031 A 
HETATM   30  C19 UNL     1       4.580   1.754   0.751  1.00  0.00    -0.014 C 
HETATM   31  C29 UNL     1       3.394  -0.310   0.589  1.00  0.00    -0.041 A 
HETATM   32  C20 UNL     1       5.855   1.135   0.289  1.00  0.00     0.034 C 
HETATM   33  C21 UNL     1       5.531  -0.063  -0.546  1.00  0.00     0.010 C 
HETATM   34  C22 UNL     1       4.587  -1.046   0.102  1.00  0.00     0.025 C 
HETATM   35  C27 UNL     1       6.799  -0.701  -1.011  1.00  0.00     0.008 C 
HETATM   36  C23 UNL     1       5.295  -1.649   1.265  1.00  0.00     0.012 C 
HETATM   37  C24 UNL     1       6.556  -2.376   0.871  1.00  0.00     0.033 C 
HETATM   38  C25 UNL     1       6.990  -2.108  -0.527  1.00  0.00     0.132 C 
HETATM   39  O2  UNL     1       8.375  -1.859  -0.557  1.00  0.00    -0.384 OA
HETATM   40  C26 UNL     1       8.032  -0.532  -0.194  1.00  0.00     0.180 C 
HETATM   41  C28 UNL     1       7.096  -0.583  -2.479  1.00  0.00     0.020 C 
HETATM   42  C30 UNL     1       2.147  -0.719   0.814  1.00  0.00     0.038 A 
ENDBRANCH  26  27
BRANCH  26  43
HETATM   43  S2  UNL     1      -0.392   0.158   3.308  1.00  0.00     0.230 S 
HETATM   44  C31 UNL     1      -1.252  -1.361   3.642  1.00  0.00     0.186 C 
HETATM   45  O3  UNL     1       0.920   0.089   4.035  1.00  0.00    -0.206 OA
HETATM   46  O4  UNL     1      -1.131   1.328   3.908  1.00  0.00    -0.206 OA
ENDBRANCH  26  43
ENDBRANCH   1  26
TORSDOF 16
