REMARK  9 active torsions:
REMARK  status: ('A' for Active; 'I' for Inactive)
REMARK    1  A    between atoms: C2_2  and  C3_3 
REMARK    2  A    between atoms: C3_3  and  C4_4 
REMARK    3  A    between atoms: C4_4  and  C5_5 
REMARK    4  A    between atoms: C5_5  and  S1_6 
REMARK    5  A    between atoms: S1_6  and  C6_7 
REMARK    6  A    between atoms: C9_12  and  C10_13 
REMARK    7  A    between atoms: C10_13  and  N2_14 
REMARK    8  A    between atoms: C19_23  and  C20_24 
REMARK    9  A    between atoms: C20_24  and  C21_25 
ROOT
HETATM    1  C10 UNL     1      -2.038  -0.354   0.250  1.00  0.00     0.080 C 
HETATM    2  C16 UNL     1      -2.784  -0.817   1.371  1.00  0.00     0.038 C 
HETATM    3  C17 UNL     1      -4.030  -0.015   1.620  1.00  0.00     0.003 C 
HETATM    4  C18 UNL     1      -3.642   1.340   1.076  1.00  0.00     0.008 C 
HETATM    5  C19 UNL     1      -2.791   0.972  -0.093  1.00  0.00     0.028 C 
ENDROOT
BRANCH   1   6
HETATM    6  C9  UNL     1      -0.583  -0.061   0.337  1.00  0.00     0.062 A 
HETATM    7  C7  UNL     1       0.152   0.566   1.283  1.00  0.00     0.032 A 
HETATM    8  N1  UNL     1       1.438   0.618   0.814  1.00  0.00    -0.339 N 
HETATM    9  C8  UNL     1      -0.259   1.100   2.574  1.00  0.00     0.070 C 
HETATM   10  C6  UNL     1       1.532   0.055  -0.377  1.00  0.00     0.144 A 
ATOM     11  H1  UNL     1       2.220   1.036   1.318  1.00  0.00     0.168 HD
HETATM   12  N4  UNL     1       0.265  -0.368  -0.675  1.00  0.00    -0.336 N 
ATOM     13  H4  UNL     1      -0.003  -0.846  -1.535  1.00  0.00     0.168 HD
BRANCH  10  14
HETATM   14  S1  UNL     1       2.965  -0.141  -1.435  1.00  0.00    -0.094 SA
BRANCH  14  15
HETATM   15  C5  UNL     1       4.447   0.437  -0.523  1.00  0.00     0.082 C 
BRANCH  15  16
HETATM   16  C4  UNL     1       5.663   0.312  -1.373  1.00  0.00     0.010 C 
BRANCH  16  17
HETATM   17  C3  UNL     1       6.884   0.762  -0.626  1.00  0.00     0.000 C 
BRANCH  17  18
HETATM   18  C2  UNL     1       7.101  -0.126   0.579  1.00  0.00    -0.005 C 
HETATM   19  C1  UNL     1       8.336   0.311   1.361  1.00  0.00     0.005 C 
ENDBRANCH  17  18
ENDBRANCH  16  17
ENDBRANCH  15  16
ENDBRANCH  14  15
ENDBRANCH  10  14
ENDBRANCH   1   6
BRANCH   1  20
HETATM   20  N2  UNL     1      -2.240  -1.142  -0.914  1.00  0.00    -0.378 N 
HETATM   21  C11 UNL     1      -3.197  -1.132  -1.842  1.00  0.00     0.059 C 
HETATM   22  C12 UNL     1      -4.420  -1.948  -1.559  1.00  0.00     0.044 C 
HETATM   23  C13 UNL     1      -4.129  -3.223  -0.858  1.00  0.00     0.007 C 
HETATM   24  C14 UNL     1      -2.698  -3.534  -0.675  1.00  0.00     0.020 C 
HETATM   25  C15 UNL     1      -1.670  -2.472  -0.795  1.00  0.00     0.123 C 
ENDBRANCH   1  20
BRANCH   5  26
HETATM   26  C20 UNL     1      -1.945   2.045  -0.633  1.00  0.00     0.107 C 
BRANCH  26  27
HETATM   27  C21 UNL     1      -2.837   3.245  -0.890  1.00  0.00     0.231 C 
HETATM   28  N3  UNL     1      -2.839   4.295   0.065  1.00  0.00    -0.062 NA
HETATM   29  O1  UNL     1      -3.564   3.352  -1.899  1.00  0.00    -0.277 OA
ENDBRANCH  26  27
ENDBRANCH   5  26
TORSDOF 9
