REMARK  9 active torsions:
REMARK  status: ('A' for Active; 'I' for Inactive)
REMARK    1  A    between atoms: C2_2  and  C3_3 
REMARK    2  A    between atoms: C4_4  and  O1_5 
REMARK    3  A    between atoms: O1_5  and  C5_6 
REMARK    4  A    between atoms: C5_6  and  C6_7 
REMARK    5  A    between atoms: C6_7  and  C7_8 
REMARK    6  A    between atoms: C7_8  and  N1_9 
REMARK       I    between atoms: N1_9  and  C8_11 
REMARK       I    between atoms: C8_11  and  N2_13 
REMARK    7  A    between atoms: N2_13  and  C9_15 
REMARK    8  A    between atoms: C9_15  and  C10_16 
REMARK    9  A    between atoms: C10_16  and  C11_17 
ROOT
HETATM    1  C5  UNL     1      -1.891  -0.644   1.375  1.00  0.00     0.177 C 
ENDROOT
BRANCH   1   2
HETATM    2  O1  UNL     1      -2.371  -0.049   0.234  1.00  0.00    -0.350 OA
BRANCH   2   3
HETATM    3  C4  UNL     1      -3.574  -0.023  -0.368  1.00  0.00     0.084 A 
HETATM    4  C3  UNL     1      -4.537   0.935  -0.166  1.00  0.00     0.012 A 
HETATM    5  C21 UNL     1      -5.766   0.863  -0.851  1.00  0.00     0.114 A 
HETATM    6  C20 UNL     1      -6.015  -0.167  -1.731  1.00  0.00     0.112 A 
HETATM    7  O3  UNL     1      -6.889   1.684  -0.831  1.00  0.00    -0.322 OA
HETATM    8  C18 UNL     1      -5.064  -1.140  -1.950  1.00  0.00    -0.017 A 
HETATM    9  O4  UNL     1      -7.311   0.061  -2.232  1.00  0.00    -0.322 OA
HETATM   10  C16 UNL     1      -3.870  -1.040  -1.262  1.00  0.00    -0.019 A 
HETATM   11  C19 UNL     1      -5.342  -2.226  -2.884  1.00  0.00     0.052 C 
HETATM   12  C17 UNL     1      -2.863  -2.076  -1.501  1.00  0.00     0.052 C 
HETATM   13  C22 UNL     1      -7.981   0.873  -1.274  1.00  0.00     0.352 C 
BRANCH   4  14
HETATM   14  C2  UNL     1      -4.351   2.062   0.748  1.00  0.00     0.040 C 
HETATM   15  C1  UNL     1      -4.543   1.781   2.195  1.00  0.00     0.010 C 
ENDBRANCH   4  14
ENDBRANCH   2   3
ENDBRANCH   1   2
BRANCH   1  16
HETATM   16  C6  UNL     1      -0.395  -0.302   1.538  1.00  0.00     0.046 C 
BRANCH  16  17
HETATM   17  C7  UNL     1      -0.224   1.169   1.632  1.00  0.00     0.126 C 
BRANCH  17  18
HETATM   18  N1  UNL     1       1.117   1.592   1.813  1.00  0.00    -0.343 N 
HETATM   19  C8  UNL     1       2.166   1.338   0.901  1.00  0.00     0.316 C 
HETATM   20  O2  UNL     1       1.889   0.703  -0.146  1.00  0.00    -0.247 OA
HETATM   21  N2  UNL     1       3.463   1.807   1.211  1.00  0.00    -0.343 N 
ATOM     22  H2  UNL     1       3.619   2.328   2.074  1.00  0.00     0.164 HD
ATOM     23  H1  UNL     1       1.340   2.116   2.660  1.00  0.00     0.164 HD
BRANCH  21  24
HETATM   24  C9  UNL     1       4.565   1.556   0.320  1.00  0.00     0.125 C 
BRANCH  24  25
HETATM   25  C10 UNL     1       4.787   0.085   0.183  1.00  0.00     0.024 C 
BRANCH  25  26
HETATM   26  C11 UNL     1       5.958  -0.203  -0.741  1.00  0.00    -0.013 C 
HETATM   27  C12 UNL     1       6.093  -1.714  -0.811  1.00  0.00     0.005 C 
HETATM   28  C13 UNL     1       7.590  -1.899  -0.952  1.00  0.00     0.000 C 
HETATM   29  C14 UNL     1       8.109  -0.959   0.120  1.00  0.00     0.000 C 
HETATM   30  C15 UNL     1       7.260   0.268  -0.100  1.00  0.00     0.005 C 
ENDBRANCH  25  26
ENDBRANCH  24  25
ENDBRANCH  21  24
ENDBRANCH  17  18
ENDBRANCH  16  17
ENDBRANCH   1  16
TORSDOF 9
