REMARK  11 active torsions:
REMARK  status: ('A' for Active; 'I' for Inactive)
REMARK    1  A    between atoms: C2_2  and  C3_3 
REMARK    2  A    between atoms: C3_3  and  C4_4 
REMARK    3  A    between atoms: C4_4  and  C5_5 
REMARK    4  A    between atoms: C5_5  and  C6_6 
REMARK    5  A    between atoms: C6_6  and  C7_7 
REMARK    6  A    between atoms: C7_7  and  C8_8 
REMARK    7  A    between atoms: C8_8  and  C9_9 
REMARK    8  A    between atoms: C9_9  and  O1_10 
REMARK    9  A    between atoms: C9_9  and  N1_12 
REMARK   10  A    between atoms: C17_23  and  C18_24 
REMARK   11  A    between atoms: C19_25  and  C20_26 
ROOT
HETATM    1  N1  UNL     1      -1.000   0.458  -1.330  1.00  0.00    -0.270 N 
HETATM    2  N2  UNL     1      -1.009   1.803  -1.862  1.00  0.00    -0.134 NA
HETATM    3  C10 UNL     1      -0.984   2.660  -0.727  1.00  0.00     0.167 C 
HETATM    4  C11 UNL     1      -1.990   2.325   0.351  1.00  0.00     0.150 C 
HETATM    5  O2  UNL     1      -2.566   3.487   0.754  1.00  0.00    -0.349 OA
HETATM    6  C12 UNL     1      -3.888   3.684   0.620  1.00  0.00     0.157 C 
HETATM    7  C13 UNL     1      -4.531   4.337   1.849  1.00  0.00     0.078 C 
HETATM    8  C14 UNL     1      -4.074   4.733  -0.494  1.00  0.00     0.078 C 
HETATM    9  O3  UNL     1      -4.691   2.634   0.282  1.00  0.00    -0.355 OA
HETATM   10  C15 UNL     1      -4.115   1.796  -0.695  1.00  0.00     0.181 C 
HETATM   11  C16 UNL     1      -2.907   1.207  -0.002  1.00  0.00     0.068 C 
HETATM   12  C17 UNL     1      -2.250   0.090  -0.777  1.00  0.00     0.137 C 
ENDROOT
BRANCH   1  13
HETATM   13  C9  UNL     1       0.182  -0.232  -1.449  1.00  0.00     0.130 C 
BRANCH  13  14
HETATM   14  C8  UNL     1       0.561  -1.582  -1.031  1.00  0.00     0.085 C 
BRANCH  14  15
HETATM   15  C7  UNL     1       2.033  -1.909  -1.202  1.00  0.00     0.008 C 
BRANCH  15  16
HETATM   16  C6  UNL     1       2.967  -1.076  -0.413  1.00  0.00     0.000 C 
BRANCH  16  17
HETATM   17  C5  UNL     1       4.408  -1.532  -0.691  1.00  0.00     0.000 C 
BRANCH  17  18
HETATM   18  C4  UNL     1       5.357  -0.670   0.122  1.00  0.00     0.000 C 
BRANCH  18  19
HETATM   19  C3  UNL     1       6.790  -1.064  -0.102  1.00  0.00    -0.000 C 
BRANCH  19  20
HETATM   20  C2  UNL     1       7.711  -0.184   0.724  1.00  0.00    -0.005 C 
HETATM   21  C1  UNL     1       7.374  -0.341   2.191  1.00  0.00     0.005 C 
ENDBRANCH  19  20
ENDBRANCH  18  19
ENDBRANCH  17  18
ENDBRANCH  16  17
ENDBRANCH  15  16
ENDBRANCH  14  15
ENDBRANCH  13  14
BRANCH  13  22
HETATM   22  O1  UNL     1       1.158   0.407  -2.036  1.00  0.00    -0.348 OA
ATOM     23  H1  UNL     1       0.912   1.284  -2.307  1.00  0.00     0.219 HD
ENDBRANCH  13  22
ENDBRANCH   1  13
BRANCH  12  24
HETATM   24  C18 UNL     1      -2.272  -1.185  -0.053  1.00  0.00    -0.003 C 
HETATM   25  C19 UNL     1      -2.822  -2.299  -0.519  1.00  0.00    -0.025 C 
BRANCH  25  26
HETATM   26  C20 UNL     1      -2.830  -3.576   0.236  1.00  0.00    -0.001 C 
HETATM   27  C21 UNL     1      -2.069  -3.460   1.559  1.00  0.00     0.013 C 
HETATM   28  C22 UNL     1      -4.234  -4.064   0.508  1.00  0.00     0.013 C 
ENDBRANCH  25  26
ENDBRANCH  12  24
TORSDOF 11
