REMARK  8 active torsions:
REMARK  status: ('A' for Active; 'I' for Inactive)
REMARK    1  A    between atoms: N3_7  and  C3_8 
REMARK    2  A    between atoms: C3_8  and  C4_9 
REMARK    3  A    between atoms: C4_9  and  C5_10 
REMARK    4  A    between atoms: C5_10  and  C6_11 
REMARK    5  A    between atoms: C6_11  and  N4_12 
REMARK    6  A    between atoms: N4_12  and  S1_14 
REMARK    7  A    between atoms: S1_14  and  N5_17 
REMARK    8  A    between atoms: N5_17  and  C7_19 
ROOT
HETATM    1  N4  UNL     1      -0.538  -0.270  -0.823  1.00  0.00    -0.303 N 
ATOM      2  H4  UNL     1      -0.483   0.720  -1.063  1.00  0.00     0.173 HD
ENDROOT
BRANCH   1   3
HETATM    3  C6  UNL     1       0.510  -1.037  -0.204  1.00  0.00     0.133 C 
BRANCH   3   4
HETATM    4  C5  UNL     1       1.731  -0.193   0.057  1.00  0.00     0.022 C 
BRANCH   4   5
HETATM    5  C4  UNL     1       2.311   0.394  -1.190  1.00  0.00     0.023 C 
BRANCH   5   6
HETATM    6  C3  UNL     1       3.527   1.226  -0.863  1.00  0.00     0.150 C 
BRANCH   6   7
HETATM    7  N3  UNL     1       4.588   0.512  -0.229  1.00  0.00    -0.245 N 
HETATM    8  C1  UNL     1       5.690  -0.180  -0.828  1.00  0.00     0.335 C 
HETATM    9  O1  UNL     1       5.688  -0.648  -1.999  1.00  0.00    -0.246 OA
HETATM   10  N1  UNL     1       6.726  -0.210   0.158  1.00  0.00    -0.327 N 
HETATM   11  C2  UNL     1       6.229   0.655   1.237  1.00  0.00     0.261 C 
ATOM     12  H1  UNL     1       7.610  -0.717   0.121  1.00  0.00     0.165 HD
HETATM   13  N2  UNL     1       4.794   0.327   1.164  1.00  0.00    -0.115 NA
ENDBRANCH   6   7
ENDBRANCH   5   6
ENDBRANCH   4   5
ENDBRANCH   3   4
ENDBRANCH   1   3
BRANCH   1  14
HETATM   14  S1  UNL     1      -1.913  -1.297  -1.096  1.00  0.00     0.315 S 
HETATM   15  O2  UNL     1      -1.488  -2.714  -1.368  1.00  0.00    -0.183 OA
HETATM   16  O3  UNL     1      -2.670  -0.747  -2.293  1.00  0.00    -0.183 OA
BRANCH  14  17
HETATM   17  N5  UNL     1      -2.965  -1.267   0.260  1.00  0.00    -0.298 N 
ATOM     18  H5  UNL     1      -2.917  -1.896   1.061  1.00  0.00     0.174 HD
BRANCH  17  19
HETATM   19  C7  UNL     1      -3.921  -0.216   0.084  1.00  0.00     0.094 C 
HETATM   20  C8  UNL     1      -5.358  -0.739   0.069  1.00  0.00     0.026 C 
HETATM   21  C9  UNL     1      -6.127   0.572   0.156  1.00  0.00     0.002 C 
HETATM   22  C10 UNL     1      -5.408   1.256   1.302  1.00  0.00     0.002 C 
HETATM   23  C11 UNL     1      -3.964   0.764   1.212  1.00  0.00     0.026 C 
ENDBRANCH  17  19
ENDBRANCH  14  17
ENDBRANCH   1  14
TORSDOF 8
