REMARK  12 active torsions:
REMARK  status: ('A' for Active; 'I' for Inactive)
REMARK    1  A    between atoms: C2_2  and  N1_3 
REMARK    2  A    between atoms: N1_3  and  C3_4 
REMARK    3  A    between atoms: C3_4  and  C4_5 
REMARK    4  A    between atoms: C4_5  and  C5_6 
REMARK    5  A    between atoms: C5_6  and  C6_7 
REMARK    6  A    between atoms: C6_7  and  N2_8 
REMARK    7  A    between atoms: N2_8  and  C9_11 
REMARK    8  A    between atoms: C9_11  and  C10_12 
REMARK    9  A    between atoms: C10_12  and  O1_13 
REMARK   10  A    between atoms: C13_17  and  O2_18 
REMARK   11  A    between atoms: C14_20  and  O3_21 
REMARK   12  A    between atoms: C15_23  and  O4_24 
ROOT
HETATM    1  N1  UNL     1      -2.220  -0.497  -0.090  1.00  0.00    -0.039 N 
HETATM    2  C11 UNL     1      -3.177  -0.631  -1.156  1.00  0.00     0.243 C 
HETATM    3  C12 UNL     1      -4.569  -0.245  -0.838  1.00  0.00     0.062 C 
HETATM    4  C13 UNL     1      -4.730   0.970   0.003  1.00  0.00     0.152 C 
HETATM    5  C14 UNL     1      -3.641   1.223   0.982  1.00  0.00     0.203 C 
HETATM    6  C15 UNL     1      -2.292   0.771   0.586  1.00  0.00     0.354 C 
ENDROOT
BRANCH   1   7
HETATM    7  C2  UNL     1      -2.128  -1.605   0.792  1.00  0.00     0.236 C 
HETATM    8  C1  UNL     1      -3.332  -2.469   0.918  1.00  0.00     0.035 C 
ENDBRANCH   1   7
BRANCH   1   9
HETATM    9  C3  UNL     1      -0.919  -0.448  -0.798  1.00  0.00     0.240 C 
BRANCH   9  10
HETATM   10  C4  UNL     1       0.231  -0.298   0.135  1.00  0.00     0.030 C 
BRANCH  10  11
HETATM   11  C5  UNL     1       1.488  -0.266  -0.745  1.00  0.00     0.029 C 
BRANCH  11  12
HETATM   12  C6  UNL     1       2.665  -0.114   0.191  1.00  0.00     0.236 C 
BRANCH  12  13
HETATM   13  N2  UNL     1       3.925  -0.067  -0.486  1.00  0.00    -0.073 N 
HETATM   14  C7  UNL     1       3.967  -1.141  -1.486  1.00  0.00     0.272 C 
HETATM   15  C8  UNL     1       4.147   1.168  -1.194  1.00  0.00     0.272 C 
BRANCH  13  16
HETATM   16  C9  UNL     1       4.968  -0.349   0.463  1.00  0.00     0.262 C 
BRANCH  16  17
HETATM   17  C10 UNL     1       5.541   0.886   1.104  1.00  0.00     0.192 C 
BRANCH  17  18
HETATM   18  O1  UNL     1       4.595   1.622   1.799  1.00  0.00    -0.399 OA
ATOM     19  H1  UNL     1       4.957   2.402   2.204  1.00  0.00     0.209 HD
ENDBRANCH  17  18
ENDBRANCH  16  17
ENDBRANCH  13  16
ENDBRANCH  12  13
ENDBRANCH  11  12
ENDBRANCH  10  11
ENDBRANCH   9  10
ENDBRANCH   1   9
BRANCH   6  20
HETATM   20  O4  UNL     1      -1.743   1.753  -0.271  1.00  0.00    -0.367 OA
ATOM     21  H4  UNL     1      -1.791   2.590   0.175  1.00  0.00     0.212 HD
ENDBRANCH   6  20
BRANCH   5  22
HETATM   22  O3  UNL     1      -4.005   0.766   2.267  1.00  0.00    -0.389 OA
ATOM     23  H3  UNL     1      -3.309   0.928   2.893  1.00  0.00     0.210 HD
ENDBRANCH   5  22
BRANCH   4  24
HETATM   24  O2  UNL     1      -4.950   2.108  -0.807  1.00  0.00    -0.393 OA
ATOM     25  H2  UNL     1      -5.053   2.885  -0.269  1.00  0.00     0.210 HD
ENDBRANCH   4  24
TORSDOF 12
