REMARK  8 active torsions:
REMARK  status: ('A' for Active; 'I' for Inactive)
REMARK    1  A    between atoms: C1_2  and  C2_4 
REMARK    2  A    between atoms: C4_6  and  O2_7 
REMARK    3  A    between atoms: O2_7  and  C5_8 
REMARK    4  A    between atoms: C5_8  and  C6_9 
REMARK    5  A    between atoms: C6_9  and  C7_10 
REMARK    6  A    between atoms: C7_10  and  C8_11 
REMARK    7  A    between atoms: C8_11  and  C9_12 
REMARK    8  A    between atoms: C9_12  and  N2_13 
ROOT
HETATM    1  C2  UNL     1      -3.208  -0.537  -1.208  1.00  0.00     0.083 C 
HETATM    2  C3  UNL     1      -1.694  -0.380  -1.291  1.00  0.00     0.046 C 
HETATM    3  C4  UNL     1      -1.374   0.424  -0.046  1.00  0.00     0.127 C 
HETATM    4  C11 UNL     1      -2.606   1.203   0.340  1.00  0.00     0.026 C 
HETATM    5  C12 UNL     1      -2.907   1.075   1.803  1.00  0.00     0.051 C 
HETATM    6  C13 UNL     1      -4.302   1.518   2.086  1.00  0.00     0.056 C 
HETATM    7  N5  UNL     1      -5.273   0.850   1.330  1.00  0.00    -0.402 N 
ATOM      8  H5  UNL     1      -6.100   0.449   1.772  1.00  0.00     0.158 HD
HETATM    9  C14 UNL     1      -5.071   0.748  -0.069  1.00  0.00     0.124 C 
HETATM   10  C15 UNL     1      -3.686   0.737  -0.567  1.00  0.00     0.023 C 
ENDROOT
BRANCH   3  11
HETATM   11  O2  UNL     1      -0.341   1.278  -0.379  1.00  0.00    -0.385 OA
BRANCH  11  12
HETATM   12  C5  UNL     1       0.825   1.089   0.320  1.00  0.00     0.168 C 
BRANCH  12  13
HETATM   13  C6  UNL     1       1.436  -0.284   0.150  1.00  0.00     0.026 C 
BRANCH  13  14
HETATM   14  C7  UNL     1       2.695  -0.342   0.973  1.00  0.00     0.004 C 
BRANCH  14  15
HETATM   15  C8  UNL     1       3.708   0.675   0.566  1.00  0.00     0.020 C 
BRANCH  15  16
HETATM   16  C9  UNL     1       4.140   0.518  -0.874  1.00  0.00     0.122 C 
BRANCH  16  17
HETATM   17  N2  UNL     1       4.718  -0.796  -1.026  1.00  0.00    -0.367 N 
HETATM   18  C10 UNL     1       5.985  -0.998  -1.022  1.00  0.00     0.196 C 
HETATM   19  N3  UNL     1       6.483  -2.316  -1.176  1.00  0.00    -0.067 NA
HETATM   20  N4  UNL     1       6.841   0.122  -0.860  1.00  0.00    -0.067 NA
ATOM     21  H2  UNL     1       4.095  -1.595  -1.141  1.00  0.00     0.161 HD
ENDBRANCH  16  17
ENDBRANCH  15  16
ENDBRANCH  14  15
ENDBRANCH  13  14
ENDBRANCH  12  13
ENDBRANCH  11  12
ENDBRANCH   3  11
BRANCH   1  22
HETATM   22  C1  UNL     1      -3.480  -1.770  -0.505  1.00  0.00     0.235 C 
HETATM   23  N1  UNL     1      -3.039  -3.007  -1.040  1.00  0.00    -0.062 NA
HETATM   24  O1  UNL     1      -4.097  -1.795   0.574  1.00  0.00    -0.276 OA
ENDBRANCH   1  22
TORSDOF 8
