REMARK  9 active torsions:
REMARK  status: ('A' for Active; 'I' for Inactive)
REMARK    1  A    between atoms: C2_2  and  C3_3 
REMARK    2  A    between atoms: N1_6  and  C6_7 
REMARK    3  A    between atoms: C6_7  and  C7_8 
REMARK    4  A    between atoms: C7_8  and  C8_9 
REMARK    5  A    between atoms: C8_9  and  C9_10 
REMARK    6  A    between atoms: C9_10  and  C10_11 
REMARK    7  A    between atoms: C10_11  and  N2_12 
REMARK    8  A    between atoms: N5_18  and  N6_20 
REMARK    9  A    between atoms: N8_25  and  C13_26 
ROOT
HETATM    1  C3  UNL     1      -3.644   0.942  -0.754  1.00  0.00     0.081 C 
HETATM    2  C4  UNL     1      -2.654   1.692   0.077  1.00  0.00     0.042 C 
HETATM    3  C5  UNL     1      -1.213   1.547  -0.364  1.00  0.00     0.143 C 
HETATM    4  N1  UNL     1      -0.719   0.365   0.356  1.00  0.00    -0.215 N 
HETATM    5  C12 UNL     1      -1.455  -0.846   0.512  1.00  0.00     0.704 C 
HETATM    6  N5  UNL     1      -0.826  -1.843   1.087  1.00  0.00    -0.138 N 
ATOM      7  H5  UNL     1       0.139  -1.734   1.399  1.00  0.00     0.205 HD
HETATM    8  N7  UNL     1      -2.793  -1.113   0.122  1.00  0.00    -0.150 N 
ATOM      9  H7  UNL     1      -3.281  -1.860   0.616  1.00  0.00     0.199 HD
HETATM   10  N8  UNL     1      -3.495  -0.449  -0.870  1.00  0.00    -0.212 NA
ENDROOT
BRANCH   4  11
HETATM   11  C6  UNL     1       0.585   0.401   0.956  1.00  0.00     0.141 C 
BRANCH  11  12
HETATM   12  C7  UNL     1       1.719   0.447  -0.042  1.00  0.00     0.020 C 
BRANCH  12  13
HETATM   13  C8  UNL     1       2.995   0.489   0.772  1.00  0.00     0.003 C 
BRANCH  13  14
HETATM   14  C9  UNL     1       4.227   0.541  -0.128  1.00  0.00     0.020 C 
BRANCH  14  15
HETATM   15  C10 UNL     1       5.418   0.582   0.807  1.00  0.00     0.122 C 
BRANCH  15  16
HETATM   16  N2  UNL     1       6.678   0.638   0.106  1.00  0.00    -0.367 N 
HETATM   17  C11 UNL     1       7.432  -0.386   0.096  1.00  0.00     0.196 C 
HETATM   18  N3  UNL     1       7.051  -1.566   0.760  1.00  0.00    -0.067 NA
HETATM   19  N4  UNL     1       8.667  -0.335  -0.588  1.00  0.00    -0.067 NA
ATOM     20  H2  UNL     1       6.961   1.491  -0.377  1.00  0.00     0.161 HD
ENDBRANCH  15  16
ENDBRANCH  14  15
ENDBRANCH  13  14
ENDBRANCH  12  13
ENDBRANCH  11  12
ENDBRANCH   4  11
BRANCH   6  21
HETATM   21  N6  UNL     1      -1.488  -3.046   1.266  1.00  0.00    -0.331 N 
ATOM     22  H62 UNL     1      -2.453  -3.139   0.949  1.00  0.00     0.177 HD
ATOM     23  H61 UNL     1      -0.999  -3.821   1.713  1.00  0.00     0.177 HD
ENDBRANCH   6  21
BRANCH   1  24
HETATM   24  C2  UNL     1      -5.014   1.289  -0.246  1.00  0.00     0.017 C 
HETATM   25  C1  UNL     1      -5.288   2.786  -0.346  1.00  0.00     0.006 C 
ENDBRANCH   1  24
BRANCH  10  26
HETATM   26  C13 UNL     1      -4.735  -1.129  -1.137  1.00  0.00     0.110 C 
HETATM   27  C14 UNL     1      -4.518  -2.628  -1.276  1.00  0.00     0.023 C 
ENDBRANCH  10  26
TORSDOF 9
