REMARK  9 active torsions:
REMARK  status: ('A' for Active; 'I' for Inactive)
REMARK    1  A    between atoms: C2_2  and  C3_3 
REMARK    2  A    between atoms: C3_3  and  C5_5 
REMARK    3  A    between atoms: C5_5  and  N1_6 
REMARK    4  A    between atoms: C5_5  and  C13_20 
REMARK       I    between atoms: N1_6  and  C6_8 
REMARK    5  A    between atoms: C6_8  and  C7_10 
REMARK    6  A    between atoms: C7_10  and  C8_11 
REMARK    7  A    between atoms: C7_10  and  N2_15 
REMARK    8  A    between atoms: C8_11  and  C9_12 
REMARK       I    between atoms: C13_20  and  N5_22 
REMARK    9  A    between atoms: N5_22  and  C14_24 
ROOT
HETATM    1  C5  UNL     1       0.416  -0.170   0.545  1.00  0.00     0.180 C 
ENDROOT
BRANCH   1   2
HETATM    2  C3  UNL     1       0.592   1.253   1.012  1.00  0.00     0.013 C 
HETATM    3  C4  UNL     1       0.259   2.248  -0.087  1.00  0.00     0.012 C 
BRANCH   2   4
HETATM    4  C2  UNL     1      -0.251   1.576   2.204  1.00  0.00     0.002 C 
HETATM    5  C1  UNL     1       0.049   2.979   2.666  1.00  0.00     0.005 C 
ENDBRANCH   2   4
ENDBRANCH   1   2
BRANCH   1   6
HETATM    6  N1  UNL     1      -0.953  -0.405   0.183  1.00  0.00    -0.346 N 
HETATM    7  C6  UNL     1      -1.841  -1.294   0.835  1.00  0.00     0.241 C 
HETATM    8  O1  UNL     1      -1.398  -1.938   1.819  1.00  0.00    -0.271 OA
ATOM      9  H1  UNL     1      -1.318   0.115  -0.615  1.00  0.00     0.163 HD
BRANCH   7  10
HETATM   10  C7  UNL     1      -3.220  -1.440   0.362  1.00  0.00     0.176 C 
BRANCH  10  11
HETATM   11  C8  UNL     1      -4.251  -1.328   1.440  1.00  0.00     0.038 C 
BRANCH  11  12
HETATM   12  C9  UNL     1      -4.257  -0.028   2.178  1.00  0.00    -0.020 C 
HETATM   13  C10 UNL     1      -5.361  -0.095   3.227  1.00  0.00     0.009 C 
HETATM   14  C11 UNL     1      -4.593   1.162   1.291  1.00  0.00     0.009 C 
ENDBRANCH  11  12
ENDBRANCH  10  11
BRANCH  10  15
HETATM   15  N2  UNL     1      -3.522  -0.594  -0.769  1.00  0.00    -0.354 N 
HETATM   16  C12 UNL     1      -3.342  -0.954  -1.985  1.00  0.00     0.197 C 
HETATM   17  N3  UNL     1      -3.635  -0.131  -3.100  1.00  0.00    -0.067 NA
HETATM   18  N4  UNL     1      -2.817  -2.252  -2.225  1.00  0.00    -0.067 NA
ATOM     19  H2  UNL     1      -3.898   0.337  -0.590  1.00  0.00     0.162 HD
ENDBRANCH  10  15
ENDBRANCH   7  10
ENDBRANCH   1   6
BRANCH   1  20
HETATM   20  C13 UNL     1       1.377  -0.551  -0.484  1.00  0.00     0.241 C 
HETATM   21  O2  UNL     1       1.038  -1.061  -1.602  1.00  0.00    -0.271 OA
HETATM   22  N5  UNL     1       2.759  -0.356  -0.258  1.00  0.00    -0.355 N 
ATOM     23  H5  UNL     1       3.066   0.051   0.626  1.00  0.00     0.162 HD
BRANCH  22  24
HETATM   24  C14 UNL     1       3.738  -0.715  -1.237  1.00  0.00     0.084 C 
HETATM   25  C15 UNL     1       4.788  -1.657  -0.768  1.00  0.00     0.025 C 
HETATM   26  C16 UNL     1       6.192  -1.185  -1.060  1.00  0.00     0.002 C 
HETATM   27  C17 UNL     1       6.366  -0.692  -2.464  1.00  0.00     0.000 C 
HETATM   28  C18 UNL     1       5.210   0.114  -2.978  1.00  0.00     0.002 C 
HETATM   29  C19 UNL     1       4.377   0.558  -1.772  1.00  0.00     0.025 C 
ENDBRANCH  22  24
ENDBRANCH   1  20
TORSDOF 9
