REMARK  10 active torsions:
REMARK  status: ('A' for Active; 'I' for Inactive)
REMARK    1  A    between atoms: C2_2  and  C3_3 
REMARK    2  A    between atoms: C3_3  and  C4_4 
REMARK    3  A    between atoms: C4_4  and  C5_5 
REMARK    4  A    between atoms: C5_5  and  C6_6 
REMARK    5  A    between atoms: C6_6  and  N1_7 
REMARK       I    between atoms: N1_7  and  C7_9 
REMARK    6  A    between atoms: C7_9  and  C8_11 
REMARK    7  A    between atoms: C17_22  and  N3_23 
REMARK       I    between atoms: N3_23  and  C18_25 
REMARK    8  A    between atoms: C18_25  and  C19_27 
REMARK    9  A    between atoms: C19_27  and  C20_28 
REMARK   10  A    between atoms: C20_28  and  N4_29 
ROOT
HETATM    1  C8  UNL     1       0.717  -0.582  -0.022  1.00  0.00     0.087 C 
HETATM    2  C9  UNL     1       0.294  -0.908  -1.410  1.00  0.00     0.021 C 
HETATM    3  C10 UNL     1      -0.992  -0.335  -1.868  1.00  0.00     0.012 C 
HETATM    4  C11 UNL     1      -1.115   1.152  -1.708  1.00  0.00     0.013 C 
HETATM    5  C12 UNL     1      -1.923   1.232  -0.425  1.00  0.00     0.012 C 
HETATM    6  C13 UNL     1      -1.137   0.958   0.784  1.00  0.00     0.017 C 
HETATM    7  C14 UNL     1      -0.423  -0.318   0.922  1.00  0.00     0.037 C 
HETATM    8  C15 UNL     1      -1.269  -1.563   0.961  1.00  0.00     0.061 C 
HETATM    9  N2  UNL     1      -1.976  -1.876  -0.193  1.00  0.00    -0.395 N 
ATOM     10  H2  UNL     1      -2.327  -2.826  -0.315  1.00  0.00     0.159 HD
HETATM   11  C16 UNL     1      -2.221  -0.931  -1.192  1.00  0.00     0.108 C 
HETATM   12  C17 UNL     1      -3.020   0.273  -0.761  1.00  0.00     0.111 C 
ENDROOT
BRANCH   1  13
HETATM   13  C7  UNL     1       1.841   0.361   0.076  1.00  0.00     0.222 C 
HETATM   14  N1  UNL     1       2.333   0.820   1.314  1.00  0.00    -0.361 N 
ATOM     15  H1  UNL     1       1.881   0.478   2.162  1.00  0.00     0.162 HD
HETATM   16  O1  UNL     1       2.374   0.766  -0.970  1.00  0.00    -0.273 OA
BRANCH  14  17
HETATM   17  C6  UNL     1       3.426   1.735   1.462  1.00  0.00     0.122 C 
BRANCH  17  18
HETATM   18  C5  UNL     1       4.741   1.207   0.877  1.00  0.00     0.020 C 
BRANCH  18  19
HETATM   19  C4  UNL     1       5.150  -0.056   1.530  1.00  0.00     0.002 C 
BRANCH  19  20
HETATM   20  C3  UNL     1       6.425  -0.697   1.133  1.00  0.00    -0.000 C 
BRANCH  20  21
HETATM   21  C2  UNL     1       6.621  -1.139  -0.259  1.00  0.00    -0.005 C 
HETATM   22  C1  UNL     1       6.620  -0.092  -1.327  1.00  0.00     0.005 C 
ENDBRANCH  20  21
ENDBRANCH  19  20
ENDBRANCH  18  19
ENDBRANCH  17  18
ENDBRANCH  14  17
ENDBRANCH   1  13
BRANCH  12  23
HETATM   23  N3  UNL     1      -4.003   0.048   0.231  1.00  0.00    -0.354 N 
HETATM   24  C18 UNL     1      -5.361   0.297  -0.043  1.00  0.00     0.219 C 
HETATM   25  O2  UNL     1      -5.699   0.717  -1.164  1.00  0.00    -0.274 OA
ATOM     26  H3  UNL     1      -3.726  -0.297   1.150  1.00  0.00     0.162 HD
BRANCH  24  27
HETATM   27  C19 UNL     1      -6.383   0.064   0.986  1.00  0.00     0.130 C 
BRANCH  27  28
HETATM   28  C20 UNL     1      -7.775   0.383   0.519  1.00  0.00     0.238 C 
BRANCH  28  29
HETATM   29  N4  UNL     1      -8.180  -0.403  -0.616  1.00  0.00    -0.079 N 
ATOM     30  H43 UNL     1      -7.510  -0.313  -1.380  1.00  0.00     0.274 HD
ATOM     31  H42 UNL     1      -8.080  -1.400  -0.424  1.00  0.00     0.274 HD
ATOM     32  H41 UNL     1      -9.125  -0.186  -0.933  1.00  0.00     0.274 HD
ENDBRANCH  28  29
ENDBRANCH  27  28
ENDBRANCH  24  27
ENDBRANCH  12  23
TORSDOF 10
