REMARK  1 active torsions:
REMARK  status: ('A' for Active; 'I' for Inactive)
REMARK    1  A    between atoms: C5_8  and  N2_9 
ROOT
HETATM    1  O1  UNL     1       5.871  -1.679   0.392  1.00  0.00    -0.266 OA
HETATM    2  C1  UNL     1       4.697  -1.242   0.296  1.00  0.00     0.273 A 
HETATM    3  N1  UNL     1       3.672  -2.086   0.450  1.00  0.00    -0.321 N 
ATOM      4  H1  UNL     1       3.863  -3.069   0.643  1.00  0.00     0.169 HD
HETATM    5  C2  UNL     1       2.379  -1.667   0.356  1.00  0.00     0.046 A 
HETATM    6  C3  UNL     1       1.366  -2.600   0.527  1.00  0.00     0.033 A 
HETATM    7  C4  UNL     1       0.053  -2.218   0.440  1.00  0.00     0.034 A 
HETATM    8  C5  UNL     1      -0.257  -0.907   0.184  1.00  0.00     0.061 A 
HETATM    9  C13 UNL     1       0.727   0.064   0.005  1.00  0.00     0.046 A 
HETATM   10  C14 UNL     1       2.037  -0.348   0.098  1.00  0.00     0.006 A 
HETATM   11  C15 UNL     1       3.089   0.545  -0.065  1.00  0.00     0.009 A 
HETATM   12  C16 UNL     1       2.838   1.858  -0.322  1.00  0.00     0.016 A 
HETATM   13  C17 UNL     1       3.926   2.711  -0.476  1.00  0.00     0.018 A 
HETATM   14  C18 UNL     1       5.219   2.225  -0.370  1.00  0.00     0.088 A 
HETATM   15  N4  UNL     1       5.434   0.930  -0.117  1.00  0.00    -0.361 N 
ATOM     16  H4  UNL     1       6.391   0.585  -0.041  1.00  0.00     0.165 HD
HETATM   17  C19 UNL     1       4.401   0.069   0.040  1.00  0.00     0.112 A 
ENDROOT
BRANCH   8  18
HETATM   18  N2  UNL     1      -1.618  -0.486   0.089  1.00  0.00    -0.220 N 
HETATM   19  N3  UNL     1      -2.126   0.446  -0.693  1.00  0.00    -0.290 N 
HETATM   20  C6  UNL     1      -3.443   0.579  -0.520  1.00  0.00     0.064 A 
ATOM     21  H3  UNL     1      -1.578   0.999  -1.352  1.00  0.00     0.187 HD
HETATM   22  C7  UNL     1      -4.436   1.379  -1.063  1.00  0.00     0.032 A 
HETATM   23  C11 UNL     1      -3.818  -0.334   0.445  1.00  0.00     0.062 A 
HETATM   24  C8  UNL     1      -5.751   1.277  -0.665  1.00  0.00     0.002 A 
HETATM   25  C9  UNL     1      -6.130   0.364   0.301  1.00  0.00     0.001 A 
HETATM   26  C10 UNL     1      -5.140  -0.431   0.841  1.00  0.00     0.019 A 
HETATM   27  C12 UNL     1      -2.648  -0.980   0.800  1.00  0.00     0.279 A 
HETATM   28  O2  UNL     1      -2.628  -1.892   1.674  1.00  0.00    -0.265 OA
ENDBRANCH   8  18
TORSDOF 1
