REMARK  2 active torsions:
REMARK  status: ('A' for Active; 'I' for Inactive)
REMARK    1  A    between atoms: N1_2  and  C2_4 
REMARK    2  A    between atoms: C14_23  and  C15_24 
ROOT
HETATM    1  C2  UNL     1       2.402   1.590   0.394  1.00  0.00     0.114 A 
HETATM    2  N2  UNL     1       1.218   2.204   0.528  1.00  0.00    -0.327 N 
ATOM      3  H2  UNL     1       1.099   3.195   0.737  1.00  0.00     0.169 HD
HETATM    4  C3  UNL     1       0.198   1.326   0.347  1.00  0.00     0.124 A 
HETATM    5  N3  UNL     1      -1.111   1.603   0.413  1.00  0.00    -0.340 N 
ATOM      6  H3  UNL     1      -1.360   2.571   0.617  1.00  0.00     0.167 HD
HETATM    7  C4  UNL     1      -2.140   0.741   0.239  1.00  0.00     0.061 A 
HETATM    8  C5  UNL     1      -3.348   1.432   0.331  1.00  0.00     0.038 A 
HETATM    9  C6  UNL     1      -4.546   0.777   0.186  1.00  0.00    -0.059 A 
HETATM   10  C7  UNL     1      -5.839   1.498   0.277  1.00  0.00     0.048 C 
HETATM   11  C8  UNL     1      -4.537  -0.580  -0.053  1.00  0.00     0.015 A 
HETATM   12  C9  UNL     1      -3.350  -1.282  -0.147  1.00  0.00    -0.032 A 
HETATM   13  C10 UNL     1      -3.344  -2.740  -0.402  1.00  0.00     0.050 C 
HETATM   14  C11 UNL     1      -2.138  -0.616   0.000  1.00  0.00     0.068 A 
HETATM   15  N4  UNL     1      -1.089  -1.474  -0.117  1.00  0.00    -0.320 N 
ATOM     16  H4  UNL     1      -1.318  -2.467  -0.159  1.00  0.00     0.169 HD
HETATM   17  C12 UNL     1       0.221  -1.156  -0.184  1.00  0.00     0.261 C 
HETATM   18  O1  UNL     1       0.985  -2.121  -0.542  1.00  0.00    -0.267 OA
HETATM   19  C13 UNL     1       0.853   0.039   0.073  1.00  0.00     0.091 A 
HETATM   20  C14 UNL     1       2.192   0.240   0.111  1.00  0.00     0.037 A 
ENDROOT
BRANCH  20  21
HETATM   21  C15 UNL     1       3.239  -0.732  -0.093  1.00  0.00    -0.018 A 
HETATM   22  C16 UNL     1       3.846  -0.825  -1.339  1.00  0.00     0.029 A 
HETATM   23  C17 UNL     1       4.864  -1.771  -1.494  1.00  0.00     0.088 A 
HETATM   24  N5  UNL     1       5.246  -2.570  -0.467  1.00  0.00    -0.375 N 
HETATM   25  C18 UNL     1       4.652  -2.472   0.735  1.00  0.00     0.088 A 
ATOM     26  H5  UNL     1       5.991  -3.252  -0.608  1.00  0.00     0.164 HD
HETATM   27  C19 UNL     1       3.629  -1.539   0.931  1.00  0.00     0.029 A 
ENDBRANCH  20  21
BRANCH   1  28
HETATM   28  N1  UNL     1       3.556   2.142   0.503  1.00  0.00    -0.380 N 
HETATM   29  C1  UNL     1       3.764   3.540   0.793  1.00  0.00     0.147 C 
ATOM     30  H1  UNL     1       4.380   1.554   0.376  1.00  0.00     0.160 HD
ENDBRANCH   1  28
TORSDOF 2
