REMARK  5 active torsions:
REMARK  status: ('A' for Active; 'I' for Inactive)
REMARK    1  A    between atoms: O1_2  and  C2_3 
REMARK    2  A    between atoms: C5_6  and  C6_7 
REMARK    3  A    between atoms: C7_8  and  C8_9 
REMARK    4  A    between atoms: C9_10  and  C10_11 
REMARK    5  A    between atoms: C13_14  and  N1_15 
ROOT
HETATM    1  C2  UNL     1       7.101   1.069  -0.055  1.00  0.00     0.069 A 
HETATM    2  C3  UNL     1       6.329   2.071  -0.642  1.00  0.00     0.038 A 
HETATM    3  C4  UNL     1       4.964   1.898  -0.713  1.00  0.00     0.025 A 
HETATM    4  C5  UNL     1       4.355   0.774  -0.224  1.00  0.00     0.039 A 
HETATM    5  C19 UNL     1       5.086  -0.222   0.356  1.00  0.00     0.066 A 
HETATM    6  C20 UNL     1       4.445  -1.388   0.862  1.00  0.00     0.101 C 
HETATM    7  N4  UNL     1       3.918  -2.323   1.277  1.00  0.00    -0.191 NA
HETATM    8  C21 UNL     1       6.469  -0.054   0.431  1.00  0.00     0.061 A 
ENDROOT
BRANCH   4   9
HETATM    9  C6  UNL     1       2.915   0.606  -0.306  1.00  0.00    -0.051 C 
HETATM   10  C7  UNL     1       1.722   0.448  -0.383  1.00  0.00    -0.009 C 
BRANCH  10  11
HETATM   11  C8  UNL     1       0.316   0.240  -0.487  1.00  0.00    -0.008 C 
HETATM   12  C9  UNL     1      -0.874   0.043  -0.571  1.00  0.00    -0.035 C 
BRANCH  12  13
HETATM   13  C10 UNL     1      -2.288  -0.199  -0.648  1.00  0.00     0.088 A 
HETATM   14  C11 UNL     1      -3.066  -0.037   0.494  1.00  0.00     0.055 A 
HETATM   15  C12 UNL     1      -4.427  -0.249   0.507  1.00  0.00     0.021 A 
HETATM   16  C13 UNL     1      -5.189  -0.086   1.642  1.00  0.00     0.040 A 
HETATM   17  C17 UNL     1      -5.006  -0.642  -0.701  1.00  0.00     0.060 A 
HETATM   18  C14 UNL     1      -6.567  -0.330   1.535  1.00  0.00     0.054 A 
HETATM   19  C15 UNL     1      -7.076  -0.711   0.332  1.00  0.00     0.007 A 
HETATM   20  C16 UNL     1      -8.538  -0.982   0.172  1.00  0.00     0.068 C 
HETATM   21  N2  UNL     1      -6.316  -0.864  -0.762  1.00  0.00    -0.358 N 
ATOM     22  H2  UNL     1      -6.743  -1.151  -1.643  1.00  0.00     0.166 HD
HETATM   23  C18 UNL     1      -4.237  -0.803  -1.833  1.00  0.00     0.119 A 
HETATM   24  N3  UNL     1      -2.911  -0.580  -1.778  1.00  0.00    -0.357 N 
ATOM     25  H3  UNL     1      -2.357  -0.705  -2.625  1.00  0.00     0.166 HD
BRANCH  16  26
HETATM   26  N1  UNL     1      -4.695   0.273   2.767  1.00  0.00    -0.398 N 
ATOM     27  H12 UNL     1      -3.694   0.450   2.845  1.00  0.00     0.156 HD
ATOM     28  H11 UNL     1      -5.260   0.394   3.608  1.00  0.00     0.156 HD
ENDBRANCH  16  26
ENDBRANCH  12  13
ENDBRANCH  10  11
ENDBRANCH   4   9
BRANCH   1  29
HETATM   29  O1  UNL     1       8.457   1.284  -0.006  1.00  0.00    -0.356 OA
HETATM   30  C1  UNL     1       9.400   0.403   0.541  1.00  0.00     0.210 C 
ENDBRANCH   1  29
TORSDOF 5
