REMARK  1 active torsions:
REMARK  status: ('A' for Active; 'I' for Inactive)
REMARK    1  A    between atoms: C3_7  and  N3_8 
ROOT
HETATM    1  N3  UNL     1      -0.184  -0.321  -1.069  1.00  0.00    -0.302 N 
HETATM    2  C4  UNL     1      -0.476  -1.451  -1.885  1.00  0.00     0.142 C 
HETATM    3  N4  UNL     1       0.222  -2.502  -2.065  1.00  0.00    -0.380 N 
ATOM      4  H41 UNL     1       0.013  -3.311  -2.649  1.00  0.00     0.158 HD
ATOM      5  H42 UNL     1       1.126  -2.710  -1.641  1.00  0.00     0.158 HD
HETATM    6  S1  UNL     1      -2.088  -1.081  -2.640  1.00  0.00    -0.092 SA
HETATM    7  C5  UNL     1      -2.284   0.559  -1.812  1.00  0.00     0.114 C 
HETATM    8  C6  UNL     1      -1.412   0.232  -0.587  1.00  0.00     0.050 C 
HETATM    9  C7  UNL     1      -2.233  -0.777   0.213  1.00  0.00     0.032 C 
HETATM   10  C8  UNL     1      -3.145   0.115   0.992  1.00  0.00     0.002 C 
HETATM   11  C9  UNL     1      -2.261   1.284   1.365  1.00  0.00     0.002 C 
HETATM   12  C10 UNL     1      -1.274   1.451   0.233  1.00  0.00     0.032 C 
ENDROOT
BRANCH   1  13
HETATM   13  C3  UNL     1       1.156   0.148  -0.800  1.00  0.00     0.133 A 
HETATM   14  N2  UNL     1       1.902   1.038  -1.467  1.00  0.00    -0.285 N 
HETATM   15  N1  UNL     1       3.080   1.188  -0.892  1.00  0.00    -0.303 N 
ATOM     16  H2  UNL     1       1.600   1.533  -2.306  1.00  0.00     0.188 HD
HETATM   17  C2  UNL     1       3.118   0.380   0.180  1.00  0.00     0.031 A 
ATOM     18  H1  UNL     1       3.828   1.807  -1.206  1.00  0.00     0.186 HD
HETATM   19  C1  UNL     1       4.280   0.255   1.099  1.00  0.00     0.070 C 
HETATM   20  C11 UNL     1       1.914  -0.287   0.257  1.00  0.00     0.007 A 
HETATM   21  C12 UNL     1       1.493  -1.282   1.271  1.00  0.00     0.054 C 
ENDBRANCH   1  13
TORSDOF 1
