REMARK  2 active torsions:
REMARK  status: ('A' for Active; 'I' for Inactive)
REMARK    1  A    between atoms: C4_11  and  N4_12 
REMARK    2  A    between atoms: N4_12  and  C5_14 
ROOT
HETATM    1  C1  UNL     1       2.848  -1.772   0.474  1.00  0.00     0.178 C 
HETATM    2  N1  UNL     1       2.749  -0.388   0.003  1.00  0.00    -0.162 N 
HETATM    3  C2  UNL     1       3.854   0.285  -0.359  1.00  0.00     0.194 A 
HETATM    4  S1  UNL     1       5.313  -0.445  -0.273  1.00  0.00    -0.040 SA
HETATM    5  N2  UNL     1       3.778   1.564  -0.795  1.00  0.00    -0.309 N 
ATOM      6  H2  UNL     1       4.623   2.066  -1.067  1.00  0.00     0.170 HD
HETATM    7  C3  UNL     1       2.579   2.167  -0.867  1.00  0.00     0.192 A 
HETATM    8  S2  UNL     1       2.479   3.729  -1.399  1.00  0.00    -0.040 SA
HETATM    9  N3  UNL     1       1.479   1.489  -0.503  1.00  0.00    -0.166 N 
ATOM     10  H3  UNL     1       0.569   1.946  -0.556  1.00  0.00     0.186 HD
HETATM   11  C4  UNL     1       1.554   0.231  -0.074  1.00  0.00     0.684 A 
ENDROOT
BRANCH  11  12
HETATM   12  N4  UNL     1       0.537  -0.470   0.288  1.00  0.00    -0.221 N 
ATOM     13  H4  UNL     1       0.718  -1.424   0.600  1.00  0.00     0.178 HD
BRANCH  12  14
HETATM   14  C5  UNL     1      -0.823  -0.030   0.291  1.00  0.00     0.099 C 
HETATM   15  C6  UNL     1      -1.465  -0.069  -1.088  1.00  0.00     0.026 C 
HETATM   16  C7  UNL     1      -2.816   0.607  -0.902  1.00  0.00     0.002 C 
HETATM   17  C8  UNL     1      -3.653  -0.329  -0.090  1.00  0.00     0.000 C 
HETATM   18  C9  UNL     1      -3.063  -0.793   1.174  1.00  0.00     0.002 C 
HETATM   19  C10 UNL     1      -1.600  -0.814   1.301  1.00  0.00     0.026 C 
ENDBRANCH  12  14
ENDBRANCH  11  12
TORSDOF 2
