REMARK  4 active torsions:
REMARK  status: ('A' for Active; 'I' for Inactive)
REMARK    1  A    between atoms: N1_4  and  N2_6 
REMARK    2  A    between atoms: C13_19  and  N4_20 
REMARK    3  A    between atoms: N4_20  and  N5_22 
REMARK    4  A    between atoms: N5_22  and  N6_23 
ROOT
HETATM    1  C1  UNL     1       3.159   0.831   0.917  1.00  0.00     0.021 C 
HETATM    2  C2  UNL     1       2.037   0.566   0.313  1.00  0.00    -0.037 C 
HETATM    3  C3  UNL     1       1.249  -0.651   0.174  1.00  0.00     0.042 C 
HETATM    4  N1  UNL     1       1.615  -1.803   0.535  1.00  0.00    -0.310 N 
ATOM      5  H1  UNL     1       0.923  -2.531   0.355  1.00  0.00     0.186 HD
HETATM    6  C4  UNL     1      -0.032  -0.202  -0.475  1.00  0.00     0.033 C 
HETATM    7  C5  UNL     1       0.627   0.764  -1.486  1.00  0.00     0.029 C 
HETATM    8  C6  UNL     1       1.280   1.644  -0.439  1.00  0.00     0.039 C 
HETATM    9  C7  UNL     1       0.147   2.027   0.458  1.00  0.00     0.106 C 
HETATM   10  C8  UNL     1       0.688   2.194   1.809  1.00  0.00     0.065 C 
HETATM   11  N3  UNL     1       1.104   2.338   2.900  1.00  0.00    -0.197 NA
HETATM   12  C9  UNL     1      -0.745   0.778   0.395  1.00  0.00     0.020 C 
HETATM   13  C10 UNL     1      -2.034   1.202  -0.211  1.00  0.00     0.007 C 
HETATM   14  C11 UNL     1      -2.900  -0.009  -0.418  1.00  0.00     0.002 C 
HETATM   15  C12 UNL     1      -2.271  -1.070  -1.262  1.00  0.00     0.029 C 
HETATM   16  C13 UNL     1      -0.810  -1.265  -1.095  1.00  0.00     0.129 C 
ENDROOT
BRANCH  16  17
HETATM   17  N4  UNL     1      -0.643  -2.574  -0.434  1.00  0.00    -0.247 N 
ATOM     18  H4  UNL     1       0.089  -3.221  -0.728  1.00  0.00     0.197 HD
BRANCH  17  19
HETATM   19  N5  UNL     1      -1.411  -2.862   0.481  1.00  0.00    -0.248 NA
BRANCH  19  20
HETATM   20  N6  UNL     1      -2.133  -3.220   1.407  1.00  0.00    -0.261 N 
ATOM     21  H62 UNL     1      -1.437  -3.962   1.334  1.00  0.00     0.193 HD
ATOM     22  H61 UNL     1      -2.770  -3.459   2.167  1.00  0.00     0.193 HD
ENDBRANCH  19  20
ENDBRANCH  17  19
ENDBRANCH  16  17
BRANCH   4  23
HETATM   23  N2  UNL     1       2.753  -2.259   1.117  1.00  0.00    -0.345 N 
ATOM     24  H22 UNL     1       3.430  -1.516   1.288  1.00  0.00     0.176 HD
ATOM     25  H21 UNL     1       3.049  -3.190   1.409  1.00  0.00     0.176 HD
ENDBRANCH   4  23
TORSDOF 4
