REMARK  3 active torsions:
REMARK  status: ('A' for Active; 'I' for Inactive)
REMARK    1  A    between atoms: C3_5  and  O1_6 
REMARK    2  A    between atoms: O1_6  and  O2_7 
REMARK    3  A    between atoms: C4_9  and  C5_10 
ROOT
HETATM    1  C1  UNL     1      -2.063   2.732  -0.957  1.00  0.00     0.062 C 
HETATM    2  C2  UNL     1      -1.456   1.427  -0.493  1.00  0.00    -0.019 C 
HETATM    3  N1  UNL     1      -0.598   0.864  -1.238  1.00  0.00    -0.362 N 
ATOM      4  H1  UNL     1      -0.317   1.269  -2.131  1.00  0.00     0.162 HD
HETATM    5  C3  UNL     1      -0.025  -0.408  -0.750  1.00  0.00     0.181 C 
HETATM    6  C4  UNL     1       0.900   0.054   0.356  1.00  0.00     0.075 C 
HETATM    7  C8  UNL     1       0.765  -0.741   1.615  1.00  0.00     0.012 C 
HETATM    8  C9  UNL     1      -0.670  -0.820   2.059  1.00  0.00     0.006 C 
HETATM    9  C10 UNL     1      -1.683  -0.537   1.009  1.00  0.00     0.003 C 
HETATM   10  C11 UNL     1      -1.962   0.928   0.809  1.00  0.00     0.057 C 
HETATM   11  C12 UNL     1      -1.219  -1.176  -0.308  1.00  0.00     0.010 C 
HETATM   12  C13 UNL     1      -2.347  -0.981  -1.303  1.00  0.00     0.020 C 
HETATM   13  C14 UNL     1      -1.100  -2.643  -0.107  1.00  0.00     0.020 C 
ENDROOT
BRANCH   6  14
HETATM   14  C5  UNL     1       2.281   0.243  -0.144  1.00  0.00     0.196 C 
HETATM   15  C6  UNL     1       3.308   0.710   0.858  1.00  0.00     0.061 C 
HETATM   16  C7  UNL     1       3.833   1.575  -0.273  1.00  0.00     0.235 C 
HETATM   17  N2  UNL     1       2.492   1.542  -0.822  1.00  0.00    -0.070 N 
ATOM     18  H22 UNL     1       2.341   1.633  -1.827  1.00  0.00     0.277 HD
ATOM     19  H21 UNL     1       1.849   2.318  -0.666  1.00  0.00     0.277 HD
ENDBRANCH   6  14
BRANCH   5  20
HETATM   20  O1  UNL     1       0.601  -0.897  -1.858  1.00  0.00    -0.209 OA
BRANCH  20  21
HETATM   21  O2  UNL     1       1.195  -2.014  -1.831  1.00  0.00    -0.248 OA
ATOM     22  H2  UNL     1       1.631  -2.355  -2.603  1.00  0.00     0.253 HD
ENDBRANCH  20  21
ENDBRANCH   5  20
TORSDOF 3
