REMARK  7 active torsions:
REMARK  status: ('A' for Active; 'I' for Inactive)
REMARK    1  A    between atoms: C2_2  and  O1_4 
REMARK    2  A    between atoms: O1_4  and  C4_5 
REMARK    3  A    between atoms: C8_9  and  O2_10 
REMARK    4  A    between atoms: C15_18  and  O3_19 
REMARK    5  A    between atoms: C16_21  and  O4_22 
REMARK    6  A    between atoms: C17_24  and  O5_25 
REMARK    7  A    between atoms: C17_24  and  C18_27 
ROOT
HETATM    1  C4  UNL     1       1.333  -0.281  -0.445  1.00  0.00     0.069 C 
HETATM    2  C5  UNL     1       2.037  -1.524  -1.008  1.00  0.00     0.047 C 
HETATM    3  C6  UNL     1       0.968   0.692  -1.513  1.00  0.00     0.042 C 
HETATM    4  C7  UNL     1      -0.416   1.230  -1.548  1.00  0.00     0.045 C 
HETATM    5  C8  UNL     1      -1.201   1.181  -0.297  1.00  0.00     0.103 C 
HETATM    6  C9  UNL     1      -0.427   0.687   0.896  1.00  0.00     0.026 C 
HETATM    7  C10 UNL     1       0.375   1.643   1.625  1.00  0.00     0.022 C 
HETATM    8  C11 UNL     1       0.261  -0.631   0.512  1.00  0.00     0.045 C 
HETATM    9  C12 UNL     1      -0.813  -1.557   0.272  1.00  0.00    -0.004 C 
HETATM   10  C13 UNL     1      -0.961  -2.292  -1.015  1.00  0.00     0.018 C 
HETATM   11  C14 UNL     1      -0.811  -2.718   1.297  1.00  0.00     0.018 C 
HETATM   12  C15 UNL     1      -2.090  -0.778   0.651  1.00  0.00     0.126 C 
HETATM   13  C16 UNL     1      -1.511   0.066   1.790  1.00  0.00     0.168 C 
HETATM   14  C17 UNL     1      -2.418   0.323  -0.305  1.00  0.00     0.132 C 
ENDROOT
BRANCH   1  15
HETATM   15  O1  UNL     1       2.332   0.345   0.346  1.00  0.00    -0.346 OA
BRANCH  15  16
HETATM   16  C2  UNL     1       3.540   0.832   0.026  1.00  0.00     0.034 C 
HETATM   17  C1  UNL     1       4.164   0.856  -1.111  1.00  0.00     0.045 C 
HETATM   18  C3  UNL     1       4.285   1.452   1.190  1.00  0.00     0.075 C 
ENDBRANCH  15  16
ENDBRANCH   1  15
BRANCH   5  19
HETATM   19  O2  UNL     1      -1.613   2.482   0.079  1.00  0.00    -0.386 OA
ATOM     20  H2  UNL     1      -2.118   2.450   0.883  1.00  0.00     0.210 HD
ENDBRANCH   5  19
BRANCH  13  21
HETATM   21  O4  UNL     1      -2.337   0.960   2.359  1.00  0.00    -0.392 OA
ATOM     22  H4  UNL     1      -3.007   0.576   2.912  1.00  0.00     0.210 HD
ENDBRANCH  13  21
BRANCH  12  23
HETATM   23  O3  UNL     1      -3.114  -1.577   1.024  1.00  0.00    -0.383 OA
ATOM     24  H3  UNL     1      -3.900  -1.097   1.257  1.00  0.00     0.210 HD
ENDBRANCH  12  23
BRANCH  14  25
HETATM   25  O5  UNL     1      -3.509   1.004   0.329  1.00  0.00    -0.383 OA
ATOM     26  H5  UNL     1      -4.285   0.457   0.324  1.00  0.00     0.210 HD
ENDBRANCH  14  25
BRANCH  14  27
HETATM   27  C18 UNL     1      -3.017  -0.006  -1.599  1.00  0.00     0.129 C 
HETATM   28 BR1  UNL     1      -3.536   1.681  -2.450  1.00  0.00    -0.093 Br
ENDBRANCH  14  27
TORSDOF 7
