REMARK  4 active torsions:
REMARK  status: ('A' for Active; 'I' for Inactive)
REMARK    1  A    between atoms: C7_7  and  O1_8 
REMARK    2  A    between atoms: C16_18  and  C17_19 
REMARK       I    between atoms: C17_19  and  N1_21 
REMARK    3  A    between atoms: N1_21  and  C18_23 
REMARK    4  A    between atoms: C19_30  and  O3_32 
ROOT
HETATM    1  C1  UNL     1      -4.392   0.475  -1.609  1.00  0.00     0.015 C 
HETATM    2  C2  UNL     1      -3.888   0.200  -0.186  1.00  0.00    -0.041 C 
HETATM    3  C3  UNL     1      -4.752  -0.934   0.334  1.00  0.00     0.015 C 
HETATM    4  C4  UNL     1      -4.063   1.376   0.669  1.00  0.00     0.009 C 
HETATM    5  C5  UNL     1      -3.259   1.312   1.915  1.00  0.00     0.004 C 
HETATM    6  C6  UNL     1      -2.432   0.115   2.135  1.00  0.00     0.038 C 
HETATM    7  C7  UNL     1      -1.774  -0.536   0.958  1.00  0.00     0.067 C 
HETATM    8  C8  UNL     1      -2.437  -0.255  -0.355  1.00  0.00     0.028 C 
HETATM    9  C9  UNL     1      -1.760   0.729  -1.229  1.00  0.00     0.009 C 
HETATM   10  C10 UNL     1      -0.288   0.830  -1.158  1.00  0.00     0.013 C 
HETATM   11  C11 UNL     1       0.300  -0.353  -0.496  1.00  0.00    -0.006 C 
HETATM   12  C12 UNL     1      -0.066  -1.553  -1.334  1.00  0.00     0.019 C 
HETATM   13  C13 UNL     1      -0.264  -0.401   0.916  1.00  0.00     0.031 C 
HETATM   14  C14 UNL     1       0.251   0.718   1.744  1.00  0.00     0.009 C 
HETATM   15  C15 UNL     1       1.521   1.377   1.388  1.00  0.00     0.017 C 
HETATM   16  C16 UNL     1       2.427   0.685   0.447  1.00  0.00     0.113 C 
HETATM   17  C19 UNL     1       1.796  -0.380  -0.388  1.00  0.00     0.074 C 
HETATM   18  C20 UNL     1       2.199  -1.781   0.097  1.00  0.00     0.047 C 
ENDROOT
BRANCH  16  19
HETATM   19  C17 UNL     1       3.624   0.211   1.191  1.00  0.00     0.243 C 
HETATM   20  O2  UNL     1       3.698   0.421   2.427  1.00  0.00    -0.272 OA
HETATM   21  N1  UNL     1       4.708  -0.468   0.613  1.00  0.00    -0.157 N 
ATOM     22  H1  UNL     1       4.594  -1.472   0.473  1.00  0.00     0.187 HD
BRANCH  21  23
HETATM   23  C18 UNL     1       5.815   0.033   0.246  1.00  0.00     0.710 A 
HETATM   24  N2  UNL     1       6.273   1.297   0.291  1.00  0.00    -0.117 N 
HETATM   25  N3  UNL     1       7.497   1.313  -0.215  1.00  0.00     0.006 NA
ATOM     26  H2  UNL     1       5.765   2.104   0.653  1.00  0.00     0.202 HD
HETATM   27  N4  UNL     1       7.840   0.093  -0.586  1.00  0.00     0.006 NA
HETATM   28  N5  UNL     1       6.812  -0.687  -0.303  1.00  0.00    -0.117 N 
ATOM     29  H5  UNL     1       6.778  -1.692  -0.476  1.00  0.00     0.202 HD
ENDBRANCH  21  23
ENDBRANCH  16  19
BRANCH  17  30
HETATM   30  O3  UNL     1       2.274  -0.268  -1.695  1.00  0.00    -0.389 OA
ATOM     31  H3  UNL     1       3.221  -0.285  -1.627  1.00  0.00     0.210 HD
ENDBRANCH  17  30
BRANCH   7  32
HETATM   32  O1  UNL     1      -1.981  -1.939   1.155  1.00  0.00    -0.389 OA
ATOM     33  H1  UNL     1      -1.564  -2.352   0.408  1.00  0.00     0.210 HD
ENDBRANCH   7  32
TORSDOF 4
