REMARK  6 active torsions:
REMARK  status: ('A' for Active; 'I' for Inactive)
REMARK    1  A    between atoms: C2_2  and  O1_3 
REMARK    2  A    between atoms: C3_5  and  O2_6 
REMARK    3  A    between atoms: C6_10  and  O3_11 
REMARK    4  A    between atoms: C12_18  and  O4_19 
REMARK    5  A    between atoms: N1_28  and  C19_29 
REMARK    6  A    between atoms: C19_29  and  C20_30 
ROOT
HETATM    1  C1  UNL     1       4.664  -1.497  -0.903  1.00  0.00     0.049 C 
HETATM    2  C2  UNL     1       4.042  -0.129  -0.596  1.00  0.00     0.086 C 
HETATM    3  C3  UNL     1       4.363   0.343   0.776  1.00  0.00     0.152 C 
HETATM    4  C4  UNL     1       3.255   1.104   1.440  1.00  0.00     0.038 C 
HETATM    5  C5  UNL     1       2.291   1.763   0.550  1.00  0.00     0.041 C 
HETATM    6  C6  UNL     1       1.887   1.021  -0.701  1.00  0.00     0.067 C 
HETATM    7  C7  UNL     1       0.408   0.997  -0.880  1.00  0.00     0.072 C 
HETATM    8  C8  UNL     1      -0.339  -0.232  -0.428  1.00  0.00     0.060 C 
HETATM    9  C9  UNL     1       0.571  -1.089   0.456  1.00  0.00     0.034 C 
HETATM   10  C10 UNL     1       1.929  -1.352  -0.072  1.00  0.00     0.013 C 
HETATM   11  C11 UNL     1       2.563  -0.287  -0.875  1.00  0.00     0.057 C 
HETATM   12  C12 UNL     1      -0.806  -1.065  -1.540  1.00  0.00     0.147 C 
HETATM   13  C13 UNL     1      -2.213  -1.201  -1.902  1.00  0.00     0.042 C 
HETATM   14  C14 UNL     1      -3.201  -1.741  -0.946  1.00  0.00     0.035 A 
HETATM   15  C15 UNL     1      -2.975  -2.880  -0.061  1.00  0.00     0.185 A 
HETATM   16  F1  UNL     1      -3.955  -3.812   0.110  1.00  0.00    -0.248 F 
HETATM   17  C16 UNL     1      -3.208  -1.424   0.447  1.00  0.00     0.010 A 
HETATM   18  C17 UNL     1      -4.559  -1.353   1.186  1.00  0.00     0.020 C 
HETATM   19  C18 UNL     1      -2.106  -0.741   1.133  1.00  0.00     0.135 C 
HETATM   20  N1  UNL     1      -1.381   0.263   0.408  1.00  0.00    -0.380 N 
ENDROOT
BRANCH  12  21
HETATM   21  O4  UNL     1      -0.255  -2.371  -1.521  1.00  0.00    -0.393 OA
ATOM     22  H4  UNL     1      -0.558  -2.911  -2.242  1.00  0.00     0.210 HD
ENDBRANCH  12  21
BRANCH  20  23
HETATM   23  C19 UNL     1      -2.189   1.310  -0.065  1.00  0.00     0.064 C 
BRANCH  23  24
HETATM   24  C20 UNL     1      -2.928   2.109   1.033  1.00  0.00     0.024 A 
HETATM   25  C21 UNL     1      -3.832   3.243   0.495  1.00  0.00     0.010 A 
HETATM   26  C22 UNL     1      -2.574   3.554   1.167  1.00  0.00     0.010 A 
ENDBRANCH  23  24
ENDBRANCH  20  23
BRANCH   6  27
HETATM   27  O3  UNL     1       2.366   1.830  -1.775  1.00  0.00    -0.389 OA
ATOM     28  H3  UNL     1       2.112   1.363  -2.562  1.00  0.00     0.210 HD
ENDBRANCH   6  27
BRANCH   2  29
HETATM   29  O1  UNL     1       4.555   0.739  -1.560  1.00  0.00    -0.387 OA
ATOM     30  H1  UNL     1       4.170   1.586  -1.370  1.00  0.00     0.210 HD
ENDBRANCH   2  29
BRANCH   3  31
HETATM   31  O2  UNL     1       4.757  -0.653   1.665  1.00  0.00    -0.393 OA
ATOM     32  H2  UNL     1       4.962  -0.351   2.542  1.00  0.00     0.210 HD
ENDBRANCH   3  31
TORSDOF 6
