REMARK  6 active torsions:
REMARK  status: ('A' for Active; 'I' for Inactive)
REMARK    1  A    between atoms: O1_2  and  C2_3 
REMARK    2  A    between atoms: C9_11  and  O2_12 
REMARK    3  A    between atoms: C11_15  and  C12_16 
REMARK    4  A    between atoms: C12_16  and  O3_17 
REMARK    5  A    between atoms: C15_21  and  O4_23 
REMARK    6  A    between atoms: C18_26  and  O5_27 
ROOT
HETATM    1  C2  UNL     1       2.613   0.211   0.508  1.00  0.00     0.133 C 
HETATM    2  C3  UNL     1       3.845  -0.337  -0.299  1.00  0.00     0.070 C 
HETATM    3  C4  UNL     1       3.392  -0.598  -1.688  1.00  0.00     0.177 C 
HETATM    4  F1  UNL     1       4.077  -1.767  -2.098  1.00  0.00    -0.249 F 
HETATM    5  C5  UNL     1       2.011  -0.970  -1.308  1.00  0.00     0.031 C 
HETATM    6  C6  UNL     1       1.089  -1.452  -2.325  1.00  0.00     0.009 C 
HETATM    7  C7  UNL     1      -0.033  -2.028  -1.458  1.00  0.00     0.009 C 
HETATM    8  C8  UNL     1      -0.029  -1.539  -0.031  1.00  0.00     0.031 C 
HETATM    9  C9  UNL     1      -1.222  -2.133   0.612  1.00  0.00     0.073 A 
HETATM   10  C10 UNL     1      -2.249  -2.834  -0.207  1.00  0.00     0.054 A 
HETATM   11  C11 UNL     1      -2.504  -1.501   0.418  1.00  0.00     0.016 A 
HETATM   12  C13 UNL     1      -2.380  -0.198  -0.189  1.00  0.00     0.023 C 
HETATM   13  C14 UNL     1      -1.101   0.397  -0.696  1.00  0.00     0.030 C 
HETATM   14  C15 UNL     1      -1.476   1.885  -0.759  1.00  0.00     0.061 C 
HETATM   15  C16 UNL     1      -2.970   2.050  -1.114  1.00  0.00     0.046 C 
HETATM   16  C17 UNL     1      -1.196   2.591   0.494  1.00  0.00     0.069 C 
HETATM   17  C18 UNL     1      -0.709   1.806   1.651  1.00  0.00     0.121 C 
HETATM   18  C19 UNL     1      -0.125   0.475   1.445  1.00  0.00     0.043 C 
HETATM   19  C20 UNL     1       0.112   0.012   0.024  1.00  0.00    -0.015 C 
HETATM   20  C21 UNL     1       1.472   0.197  -0.474  1.00  0.00    -0.003 C 
HETATM   21  C22 UNL     1       1.797   1.422  -1.294  1.00  0.00     0.019 C 
ENDROOT
BRANCH  11  22
HETATM   22  C12 UNL     1      -3.589  -1.615   1.520  1.00  0.00     0.176 C 
BRANCH  22  23
HETATM   23  O3  UNL     1      -3.934  -2.902   1.775  1.00  0.00    -0.400 OA
ATOM     24  H3  UNL     1      -4.599  -2.972   2.450  1.00  0.00     0.209 HD
ENDBRANCH  22  23
ENDBRANCH  11  22
BRANCH   9  25
HETATM   25  O2  UNL     1      -1.080  -2.747   1.890  1.00  0.00    -0.389 OA
ATOM     26  H2  UNL     1      -1.846  -3.128   2.303  1.00  0.00     0.210 HD
ENDBRANCH   9  25
BRANCH  14  27
HETATM   27  O4  UNL     1      -0.984   2.500  -1.939  1.00  0.00    -0.390 OA
ATOM     28  H4  UNL     1      -1.216   3.420  -1.978  1.00  0.00     0.210 HD
ENDBRANCH  14  27
BRANCH  17  29
HETATM   29  O5  UNL     1       0.080   2.661   2.451  1.00  0.00    -0.395 OA
ATOM     30  H5  UNL     1       0.392   2.157   3.193  1.00  0.00     0.210 HD
ENDBRANCH  17  29
BRANCH   1  31
HETATM   31  O1  UNL     1       3.124   1.523   0.738  1.00  0.00    -0.390 OA
HETATM   32  C1  UNL     1       3.514   1.631   2.038  1.00  0.00     0.202 C 
ENDBRANCH   1  31
TORSDOF 6
