REMARK  4 active torsions:
REMARK  status: ('A' for Active; 'I' for Inactive)
REMARK    1  A    between atoms: C2_2  and  O2_4 
REMARK    2  A    between atoms: O2_4  and  C3_5 
REMARK    3  A    between atoms: C9_13  and  C10_14 
REMARK    4  A    between atoms: C10_14  and  O4_15 
ROOT
HETATM    1  C3  UNL     1       0.399   0.279  -0.037  1.00  0.00     0.140 C 
HETATM    2  C4  UNL     1       0.151   1.739   0.301  1.00  0.00     0.037 C 
HETATM    3  C5  UNL     1      -1.041   1.810   1.184  1.00  0.00     0.059 C 
HETATM    4  C6  UNL     1      -2.165   0.984   0.673  1.00  0.00     0.175 A 
HETATM    5  C7  UNL     1      -3.500   1.571   0.948  1.00  0.00     0.100 C 
HETATM    6  N1  UNL     1      -4.538   2.037   1.154  1.00  0.00    -0.194 NA
HETATM    7  O3  UNL     1      -2.132  -0.392   0.913  1.00  0.00    -0.353 OA
HETATM    8  C8  UNL     1      -2.022   0.185  -0.455  1.00  0.00     0.181 A 
HETATM    9  C9  UNL     1      -0.679  -0.136  -1.004  1.00  0.00     0.072 C 
ENDROOT
BRANCH   9  10
HETATM   10  C10 UNL     1      -0.593  -1.665  -1.111  1.00  0.00     0.174 C 
BRANCH  10  11
HETATM   11  O4  UNL     1      -1.584  -2.058  -2.002  1.00  0.00    -0.400 OA
ATOM     12  H4  UNL     1      -1.531  -3.004  -2.068  1.00  0.00     0.209 HD
ENDBRANCH  10  11
ENDBRANCH   9  10
BRANCH   1  13
HETATM   13  O2  UNL     1       1.690   0.040  -0.510  1.00  0.00    -0.316 OA
BRANCH  13  14
HETATM   14  C2  UNL     1       2.606  -0.808   0.068  1.00  0.00     0.255 C 
HETATM   15  C1  UNL     1       3.975  -1.034  -0.470  1.00  0.00     0.126 C 
HETATM   16  O1  UNL     1       2.260  -1.422   1.108  1.00  0.00    -0.266 OA
ENDBRANCH  13  14
ENDBRANCH   1  13
TORSDOF 4
