REMARK  4 active torsions:
REMARK  status: ('A' for Active; 'I' for Inactive)
REMARK    1  A    between atoms: C2_2  and  O1_3 
REMARK    2  A    between atoms: O1_3  and  C3_4 
REMARK    3  A    between atoms: C3_4  and  C4_6 
REMARK    4  A    between atoms: C8_10  and  O3_11 
ROOT
HETATM    1  C4  UNL     1      -0.285  -0.358   0.811  1.00  0.00     0.119 C 
HETATM    2  C5  UNL     1       0.479   0.508  -0.162  1.00  0.00     0.086 C 
HETATM    3  C6  UNL     1       1.922   0.130   0.152  1.00  0.00     0.167 C 
HETATM    4  C7  UNL     1       1.863  -1.236   0.803  1.00  0.00     0.101 C 
HETATM    5  C8  UNL     1       0.424  -1.683   0.642  1.00  0.00     0.137 C 
HETATM    6  O4  UNL     1       2.389   1.100   1.047  1.00  0.00    -0.353 OA
HETATM    7  C9  UNL     1       3.139   2.000   0.281  1.00  0.00     0.197 C 
HETATM    8  C10 UNL     1       3.747   1.058  -0.749  1.00  0.00     0.197 C 
HETATM    9  O5  UNL     1       2.727   0.164  -0.957  1.00  0.00    -0.353 OA
ENDROOT
BRANCH   1  10
HETATM   10  C3  UNL     1      -1.716  -0.439   0.519  1.00  0.00     0.265 C 
HETATM   11  O2  UNL     1      -2.203  -1.575   0.286  1.00  0.00    -0.265 OA
BRANCH  10  12
HETATM   12  O1  UNL     1      -2.578   0.637   0.480  1.00  0.00    -0.321 OA
BRANCH  12  13
HETATM   13  C2  UNL     1      -3.951   0.554   0.200  1.00  0.00     0.174 C 
HETATM   14  C1  UNL     1      -4.267  -0.019  -1.143  1.00  0.00     0.034 C 
ENDBRANCH  12  13
ENDBRANCH  10  12
ENDBRANCH   1  10
BRANCH   5  15
HETATM   15  O3  UNL     1       0.029  -2.552   1.647  1.00  0.00    -0.395 OA
ATOM     16  H3  UNL     1       0.474  -3.384   1.541  1.00  0.00     0.210 HD
ENDBRANCH   5  15
TORSDOF 4
