REMARK  3 active torsions:
REMARK  status: ('A' for Active; 'I' for Inactive)
REMARK    1  A    between atoms: C2_2  and  N1_3 
REMARK    2  A    between atoms: C6_9  and  C7_10 
REMARK    3  A    between atoms: C7_10  and  O3_11 
ROOT
HETATM    1  N1  UNL     1      -1.795  -0.370  -0.254  1.00  0.00    -0.343 N 
HETATM    2  C3  UNL     1      -2.076  -1.715  -0.006  1.00  0.00     0.270 C 
HETATM    3  O1  UNL     1      -1.010  -2.439   0.514  1.00  0.00    -0.192 OA
HETATM    4  O2  UNL     1       0.126  -2.254  -0.080  1.00  0.00    -0.227 OA
HETATM    5  C4  UNL     1       0.849  -1.314   0.623  1.00  0.00     0.194 C 
HETATM    6  C5  UNL     1       2.331  -1.299   0.242  1.00  0.00     0.072 C 
HETATM    7  C6  UNL     1       2.632   0.179   0.530  1.00  0.00     0.148 C 
HETATM    8  O4  UNL     1       1.573   0.782  -0.142  1.00  0.00    -0.374 OA
HETATM    9  C8  UNL     1       0.459   0.105   0.293  1.00  0.00     0.177 C 
HETATM   10  C9  UNL     1      -0.575   0.006  -0.835  1.00  0.00     0.117 C 
HETATM   11  C10 UNL     1      -0.600   1.316  -1.577  1.00  0.00     0.035 C 
ENDROOT
BRANCH   7  12
HETATM   12  C7  UNL     1       3.912   0.620  -0.112  1.00  0.00     0.196 C 
BRANCH  12  13
HETATM   13  O3  UNL     1       3.971   2.011  -0.001  1.00  0.00    -0.398 OA
ATOM     14  H3  UNL     1       4.783   2.291  -0.408  1.00  0.00     0.209 HD
ENDBRANCH  12  13
ENDBRANCH   7  12
BRANCH   1  15
HETATM   15  C2  UNL     1      -2.608   0.619   0.319  1.00  0.00     0.061 C 
HETATM   16  C1  UNL     1      -4.007   0.691  -0.203  1.00  0.00     0.055 C 
ENDBRANCH   1  15
TORSDOF 3
