REMARK  2 active torsions:
REMARK  status: ('A' for Active; 'I' for Inactive)
REMARK    1  A    between atoms: N1_12  and  C11_14 
REMARK    2  A    between atoms: C12_20  and  N4_21 
ROOT
HETATM    1  C1  UNL     1      -3.620   1.107  -0.410  1.00  0.00     0.015 C 
HETATM    2  C2  UNL     1      -3.055  -0.086   0.371  1.00  0.00    -0.048 C 
HETATM    3  C3  UNL     1      -4.194  -0.672   1.182  1.00  0.00     0.015 C 
HETATM    4  C4  UNL     1      -2.567  -1.150  -0.576  1.00  0.00     0.010 C 
HETATM    5  C5  UNL     1      -1.349  -0.719  -1.350  1.00  0.00     0.019 C 
HETATM    6  C6  UNL     1      -0.252  -0.273  -0.415  1.00  0.00     0.028 C 
HETATM    7  C7  UNL     1      -0.687  -0.321   1.038  1.00  0.00     0.019 C 
HETATM    8  C8  UNL     1      -1.974   0.433   1.269  1.00  0.00     0.010 C 
HETATM    9  C9  UNL     1       0.287   1.092  -0.795  1.00  0.00     0.193 C 
HETATM   10  O1  UNL     1       1.536   1.080  -0.101  1.00  0.00    -0.333 OA
HETATM   11  C10 UNL     1       2.079  -0.214  -0.230  1.00  0.00     0.167 C 
HETATM   12  N1  UNL     1       3.325  -0.507  -0.098  1.00  0.00    -0.317 N 
ATOM     13  H1  UNL     1       3.645  -1.469  -0.207  1.00  0.00     0.169 HD
HETATM   14  C13 UNL     1       0.964  -1.104  -0.534  1.00  0.00     0.065 C 
HETATM   15  N5  UNL     1       0.999  -2.341  -0.841  1.00  0.00    -0.398 N 
ATOM     16  H51 UNL     1       1.838  -2.915  -0.923  1.00  0.00     0.156 HD
ATOM     17  H52 UNL     1       0.219  -2.963  -1.054  1.00  0.00     0.156 HD
ENDROOT
BRANCH  12  18
HETATM   18  C11 UNL     1       4.243   0.525   0.201  1.00  0.00     0.175 A 
HETATM   19  N2  UNL     1       4.027   1.740   0.725  1.00  0.00    -0.222 N 
HETATM   20  O2  UNL     1       5.168   2.352   0.822  1.00  0.00    -0.153 OA
ATOM     21  H2  UNL     1       3.121   2.119   1.000  1.00  0.00     0.198 HD
HETATM   22  N3  UNL     1       6.138   1.607   0.389  1.00  0.00    -0.222 N 
HETATM   23  C12 UNL     1       5.599   0.442  -0.014  1.00  0.00     0.167 A 
ATOM     24  H3  UNL     1       7.126   1.858   0.360  1.00  0.00     0.198 HD
BRANCH  23  25
HETATM   25  N4  UNL     1       6.272  -0.542  -0.506  1.00  0.00    -0.381 N 
ATOM     26  H42 UNL     1       5.863  -1.425  -0.812  1.00  0.00     0.157 HD
ATOM     27  H41 UNL     1       7.278  -0.604  -0.665  1.00  0.00     0.157 HD
ENDBRANCH  23  25
ENDBRANCH  12  18
TORSDOF 2
