REMARK  4 active torsions:
REMARK  status: ('A' for Active; 'I' for Inactive)
REMARK    1  A    between atoms: C8_9  and  N1_10 
REMARK    2  A    between atoms: N1_10  and  C9_12 
REMARK    3  A    between atoms: C9_12  and  C10_13 
REMARK    4  A    between atoms: C19_25  and  O2_26 
ROOT
HETATM    1  C1  UNL     1      -2.082  -3.054  -0.619  1.00  0.00     0.046 C 
HETATM    2  C2  UNL     1      -0.751  -2.411  -0.263  1.00  0.00     0.062 C 
HETATM    3  C3  UNL     1       0.042  -3.418   0.568  1.00  0.00     0.038 C 
HETATM    4  C4  UNL     1       1.407  -3.615  -0.076  1.00  0.00     0.006 C 
HETATM    5  C5  UNL     1       1.976  -2.232  -0.342  1.00  0.00     0.040 C 
HETATM    6  C6  UNL     1       1.115  -1.481  -1.304  1.00  0.00     0.079 C 
HETATM    7  C7  UNL     1       1.794  -1.534  -2.658  1.00  0.00     0.048 C 
HETATM    8  O1  UNL     1      -0.085  -2.195  -1.445  1.00  0.00    -0.367 OA
HETATM    9  C8  UNL     1       0.814  -0.073  -0.919  1.00  0.00     0.120 C 
HETATM   10  C13 UNL     1      -0.623  -0.003  -0.436  1.00  0.00     0.023 C 
HETATM   11  C14 UNL     1      -0.950  -1.118   0.513  1.00  0.00     0.026 C 
HETATM   12  C15 UNL     1      -2.329  -0.932   1.042  1.00  0.00     0.009 C 
HETATM   13  C16 UNL     1      -3.075   0.215   0.348  1.00  0.00     0.012 C 
HETATM   14  C17 UNL     1      -2.297   1.470   0.643  1.00  0.00    -0.014 C 
HETATM   15  C18 UNL     1      -2.323   1.712   2.136  1.00  0.00     0.018 C 
HETATM   16  C19 UNL     1      -2.982   2.617  -0.027  1.00  0.00     0.126 C 
HETATM   17  C20 UNL     1      -1.937   3.380  -0.799  1.00  0.00     0.033 C 
HETATM   18  C21 UNL     1      -0.928   2.303  -1.111  1.00  0.00     0.008 C 
HETATM   19  C22 UNL     1      -0.913   1.365   0.101  1.00  0.00     0.003 C 
ENDROOT
BRANCH   9  20
HETATM   20  N1  UNL     1       1.725   0.609  -0.106  1.00  0.00    -0.389 N 
ATOM     21  H1  UNL     1       1.460   0.926   0.827  1.00  0.00     0.159 HD
BRANCH  20  22
HETATM   22  C9  UNL     1       3.016   0.845  -0.610  1.00  0.00     0.113 C 
BRANCH  22  23
HETATM   23  C10 UNL     1       3.897   1.579   0.375  1.00  0.00     0.054 A 
HETATM   24  C11 UNL     1       4.728   0.883   1.214  1.00  0.00     0.081 A 
HETATM   25  S1  UNL     1       5.473   2.146   2.094  1.00  0.00    -0.094 SA
HETATM   26  C12 UNL     1       4.695   3.467   1.355  1.00  0.00     0.138 A 
HETATM   27  N2  UNL     1       3.908   2.883   0.475  1.00  0.00    -0.358 N 
ATOM     28  H2  UNL     1       3.308   3.447  -0.127  1.00  0.00     0.166 HD
ENDBRANCH  22  23
ENDBRANCH  20  22
ENDBRANCH   9  20
BRANCH  16  29
HETATM   29  O2  UNL     1      -3.949   2.184  -0.930  1.00  0.00    -0.395 OA
ATOM     30  H2  UNL     1      -4.384   2.913  -1.356  1.00  0.00     0.210 HD
ENDBRANCH  16  29
TORSDOF 4
