REMARK  4 active torsions:
REMARK  status: ('A' for Active; 'I' for Inactive)
REMARK       I    between atoms: C1_2  and  N1_3 
REMARK    1  A    between atoms: C1_2  and  C16_19 
REMARK    2  A    between atoms: N1_3  and  C2_5 
REMARK    3  A    between atoms: C19_26  and  N4_27 
REMARK    4  A    between atoms: N4_27  and  C20_29 
ROOT
HETATM    1  O1  UNL     1       2.869   0.130   1.402  1.00  0.00    -0.266 OA
HETATM    2  C1  UNL     1       2.967  -0.839   0.623  1.00  0.00     0.271 C 
HETATM    3  N1  UNL     1       1.833  -1.290  -0.078  1.00  0.00    -0.351 N 
ATOM      4  H1  UNL     1       1.928  -2.083  -0.713  1.00  0.00     0.163 HD
ENDROOT
BRANCH   2   5
HETATM    5  C16 UNL     1       4.257  -1.485   0.454  1.00  0.00     0.130 A 
HETATM    6  N2  UNL     1       4.457  -2.525  -0.355  1.00  0.00    -0.346 N 
HETATM    7  C17 UNL     1       5.652  -3.105  -0.495  1.00  0.00     0.180 A 
ATOM      8  H2  UNL     1       3.668  -2.892  -0.887  1.00  0.00     0.167 HD
HETATM    9  N3  UNL     1       6.716  -2.671   0.171  1.00  0.00    -0.360 N 
HETATM   10  C18 UNL     1       6.583  -1.629   0.999  1.00  0.00     0.121 A 
ATOM     11  H3  UNL     1       7.621  -3.126   0.053  1.00  0.00     0.166 HD
HETATM   12  C19 UNL     1       5.373  -1.016   1.163  1.00  0.00     0.097 A 
BRANCH  12  13
HETATM   13  N4  UNL     1       5.210   0.099   2.043  1.00  0.00    -0.186 N 
ATOM     14  H4  UNL     1       4.519   0.051   2.792  1.00  0.00     0.184 HD
BRANCH  13  15
HETATM   15  C20 UNL     1       5.922   1.164   1.905  1.00  0.00     0.704 A 
HETATM   16  N5  UNL     1       6.884   1.444   0.995  1.00  0.00    -0.178 N 
HETATM   17  C21 UNL     1       7.340   2.683   1.253  1.00  0.00     0.276 A 
ATOM     18  H5  UNL     1       7.205   0.827   0.249  1.00  0.00     0.185 HD
HETATM   19  O2  UNL     1       6.670   3.131   2.289  1.00  0.00    -0.218 OA
HETATM   20  N6  UNL     1       5.823   2.247   2.692  1.00  0.00    -0.090 N 
ATOM     21  H6  UNL     1       5.183   2.353   3.479  1.00  0.00     0.213 HD
ENDBRANCH  13  15
ENDBRANCH  12  13
ENDBRANCH   2   5
BRANCH   3  22
HETATM   22  C2  UNL     1       0.515  -0.654   0.076  1.00  0.00     0.084 C 
HETATM   23  C3  UNL     1       0.151  -0.034  -1.234  1.00  0.00     0.025 C 
HETATM   24  C4  UNL     1      -0.453   1.336  -0.961  1.00  0.00     0.002 C 
HETATM   25  C5  UNL     1      -1.286   1.839  -2.104  1.00  0.00     0.000 C 
HETATM   26  C6  UNL     1      -2.278   2.877  -1.701  1.00  0.00     0.000 C 
HETATM   27  C7  UNL     1      -3.292   2.422  -0.702  1.00  0.00     0.000 C 
HETATM   28  C8  UNL     1      -4.269   1.428  -1.277  1.00  0.00     0.000 C 
HETATM   29  C9  UNL     1      -5.254   0.908  -0.290  1.00  0.00     0.000 C 
HETATM   30  C10 UNL     1      -4.688   0.278   0.933  1.00  0.00     0.000 C 
HETATM   31  C11 UNL     1      -5.063  -1.204   1.063  1.00  0.00     0.000 C 
HETATM   32  C12 UNL     1      -4.183  -2.057   0.156  1.00  0.00     0.000 C 
HETATM   33  C13 UNL     1      -2.836  -2.341   0.772  1.00  0.00     0.000 C 
HETATM   34  C14 UNL     1      -1.766  -1.738  -0.082  1.00  0.00     0.002 C 
HETATM   35  C15 UNL     1      -0.427  -1.680   0.593  1.00  0.00     0.025 C 
ENDBRANCH   3  22
TORSDOF 4
