REMARK  5 active torsions:
REMARK  status: ('A' for Active; 'I' for Inactive)
REMARK    1  A    between atoms: N1_9  and  C9_10 
REMARK    2  A    between atoms: C9_10  and  C10_11 
REMARK    3  A    between atoms: C16_17  and  O1_18 
REMARK    4  A    between atoms: N2_20  and  C17_21 
REMARK    5  A    between atoms: C21_26  and  O2_27 
ROOT
HETATM    1  C1  UNL     1      -2.912   1.793  -2.032  1.00  0.00     0.010 C 
HETATM    2  C2  UNL     1      -1.552   2.241  -1.568  1.00  0.00    -0.012 C 
HETATM    3  C3  UNL     1      -1.740   3.615  -0.896  1.00  0.00     0.005 C 
HETATM    4  C4  UNL     1      -0.961   3.538   0.432  1.00  0.00     0.006 C 
HETATM    5  C5  UNL     1      -0.142   2.352   0.205  1.00  0.00     0.001 C 
HETATM    6  C6  UNL     1       0.504   1.645   1.347  1.00  0.00     0.030 C 
HETATM    7  C7  UNL     1      -0.418   0.801   2.183  1.00  0.00     0.029 C 
HETATM    8  C8  UNL     1      -0.618  -0.599   1.724  1.00  0.00     0.123 C 
HETATM    9  N1  UNL     1      -1.164  -0.785   0.437  1.00  0.00    -0.384 N 
HETATM   10  C13 UNL     1      -0.591   0.092  -0.576  1.00  0.00     0.126 C 
HETATM   11  C14 UNL     1       0.870  -0.045  -0.341  1.00  0.00     0.027 A 
HETATM   12  C15 UNL     1       1.440   0.713   0.654  1.00  0.00     0.011 A 
HETATM   13  C16 UNL     1       2.766   0.398   0.709  1.00  0.00     0.157 A 
HETATM   14  N2  UNL     1       3.000  -0.533  -0.235  1.00  0.00    -0.265 N 
HETATM   15  C21 UNL     1       1.863  -0.823  -0.891  1.00  0.00     0.158 A 
HETATM   16  C22 UNL     1      -1.183   1.413  -0.368  1.00  0.00     0.022 C 
ENDROOT
BRANCH  14  17
HETATM   17  C17 UNL     1       4.315  -1.092  -0.444  1.00  0.00     0.084 A 
HETATM   18  C18 UNL     1       4.970  -1.955   0.393  1.00  0.00     0.038 A 
HETATM   19  C19 UNL     1       6.188  -2.365   0.025  1.00  0.00     0.010 A 
HETATM   20  C20 UNL     1       6.681  -1.887  -1.161  1.00  0.00     0.052 A 
HETATM   21  S1  UNL     1       5.424  -0.879  -1.721  1.00  0.00    -0.084 SA
ENDBRANCH  14  17
BRANCH  13  22
HETATM   22  O1  UNL     1       3.689   0.959   1.597  1.00  0.00    -0.345 OA
ATOM     23  H1  UNL     1       4.613   0.740   1.635  1.00  0.00     0.219 HD
ENDBRANCH  13  22
BRANCH  15  24
HETATM   24  O2  UNL     1       1.742  -1.733  -1.919  1.00  0.00    -0.345 OA
ATOM     25  H2  UNL     1       2.427  -2.270  -2.299  1.00  0.00     0.219 HD
ENDBRANCH  15  24
BRANCH   9  26
HETATM   26  C9  UNL     1      -2.471  -1.202   0.251  1.00  0.00     0.063 C 
BRANCH  26  27
HETATM   27  C10 UNL     1      -2.791  -2.603   0.663  1.00  0.00     0.024 A 
HETATM   28  C11 UNL     1      -4.254  -2.997   0.426  1.00  0.00     0.010 A 
HETATM   29  C12 UNL     1      -3.142  -3.659  -0.323  1.00  0.00     0.010 A 
ENDBRANCH  26  27
ENDBRANCH   9  26
TORSDOF 5
