REMARK  6 active torsions:
REMARK  status: ('A' for Active; 'I' for Inactive)
REMARK       I    between atoms: N1_2  and  C2_3 
REMARK    1  A    between atoms: N1_2  and  C16_26 
REMARK    2  A    between atoms: C2_3  and  C3_5 
REMARK    3  A    between atoms: C3_5  and  C4_6 
REMARK    4  A    between atoms: C5_8  and  N2_9 
REMARK    5  A    between atoms: N2_9  and  C6_11 
REMARK    6  A    between atoms: C15_23  and  O2_24 
ROOT
HETATM    1  C4  UNL     1       2.300   1.133  -0.297  1.00  0.00     0.045 A 
HETATM    2  S1  UNL     1       0.609   0.887  -0.337  1.00  0.00    -0.054 SA
HETATM    3  C5  UNL     1       0.197   2.130  -1.437  1.00  0.00     0.149 A 
HETATM    4  N4  UNL     1       1.388   2.674  -1.719  1.00  0.00    -0.317 N 
ATOM      5  H4  UNL     1       1.458   3.459  -2.366  1.00  0.00     0.170 HD
HETATM    6  C15 UNL     1       2.451   2.188  -1.157  1.00  0.00     0.155 A 
ENDROOT
BRANCH   3   7
HETATM    7  N2  UNL     1      -0.940   2.500  -1.945  1.00  0.00    -0.339 N 
ATOM      8  H2  UNL     1      -0.927   3.288  -2.592  1.00  0.00     0.164 HD
BRANCH   7   9
HETATM    9  C6  UNL     1      -2.217   1.894  -1.674  1.00  0.00     0.262 C 
HETATM   10  C7  UNL     1      -2.584   2.250  -0.239  1.00  0.00     0.061 C 
HETATM   11  C8  UNL     1      -3.216   1.104   0.485  1.00  0.00     0.005 C 
HETATM   12  C9  UNL     1      -4.597   0.761   0.075  1.00  0.00     0.000 C 
HETATM   13  C10 UNL     1      -5.578   1.873  -0.013  1.00  0.00     0.000 C 
HETATM   14  C11 UNL     1      -6.541   1.588  -1.176  1.00  0.00     0.000 C 
HETATM   15  C12 UNL     1      -6.218   2.489  -2.361  1.00  0.00     0.006 C 
HETATM   16  C13 UNL     1      -5.378   1.809  -3.383  1.00  0.00     0.059 C 
HETATM   17  C14 UNL     1      -3.968   2.337  -3.424  1.00  0.00     0.150 C 
HETATM   18  N3  UNL     1      -3.178   2.112  -2.593  1.00  0.00    -0.439 NA
ENDBRANCH   7   9
ENDBRANCH   3   7
BRANCH   1  19
HETATM   19  C3  UNL     1       3.368   0.399   0.448  1.00  0.00     0.153 C 
BRANCH  19  20
HETATM   20  C2  UNL     1       2.962  -0.978   0.709  1.00  0.00     0.224 C 
HETATM   21  N1  UNL     1       3.871  -1.856   1.354  1.00  0.00    -0.351 N 
HETATM   22  C1  UNL     1       5.200  -1.409   1.730  1.00  0.00     0.153 C 
HETATM   23  O1  UNL     1       1.835  -1.424   0.385  1.00  0.00    -0.273 OA
BRANCH  21  24
HETATM   24  C16 UNL     1       3.533  -3.241   1.706  1.00  0.00     0.086 C 
HETATM   25  C17 UNL     1       4.443  -4.203   0.934  1.00  0.00     0.025 C 
HETATM   26  C18 UNL     1       5.412  -4.750   1.951  1.00  0.00     0.002 C 
HETATM   27  C19 UNL     1       4.852  -4.528   3.308  1.00  0.00     0.002 C 
HETATM   28  C20 UNL     1       3.777  -3.507   3.156  1.00  0.00     0.025 C 
ENDBRANCH  21  24
ENDBRANCH  19  20
ENDBRANCH   1  19
BRANCH   6  29
HETATM   29  O2  UNL     1       3.752   2.720  -1.411  1.00  0.00    -0.345 OA
ATOM     30  H2  UNL     1       3.857   3.452  -2.008  1.00  0.00     0.219 HD
ENDBRANCH   6  29
TORSDOF 6
