REMARK  11 active torsions:
REMARK  status: ('A' for Active; 'I' for Inactive)
REMARK    1  A    between atoms: C2_2  and  C3_4 
REMARK    2  A    between atoms: C4_5  and  C5_6 
REMARK    3  A    between atoms: C5_6  and  O2_7 
REMARK    4  A    between atoms: C5_6  and  N1_9 
REMARK    5  A    between atoms: N1_9  and  N2_11 
REMARK       I    between atoms: N2_11  and  C6_13 
REMARK    6  A    between atoms: C6_13  and  C7_15 
REMARK    7  A    between atoms: C7_15  and  S1_16 
REMARK    8  A    between atoms: S1_16  and  C8_17 
REMARK    9  A    between atoms: N4_24  and  N5_25 
REMARK   10  A    between atoms: C13_28  and  N6_29 
REMARK       I    between atoms: N6_29  and  C14_31 
REMARK   11  A    between atoms: C14_31  and  C15_33 
ROOT
HETATM    1  C3  UNL     1      -3.097  -2.453   0.013  1.00  0.00     0.099 A 
HETATM    2  C4  UNL     1      -2.839  -1.128   0.268  1.00  0.00     0.057 A 
HETATM    3  C13 UNL     1      -3.853  -0.258   0.000  1.00  0.00     0.106 A 
HETATM    4  S2  UNL     1      -5.094  -1.281  -0.577  1.00  0.00     0.007 SA
HETATM    5  N10 UNL     1      -4.288  -2.772  -0.460  1.00  0.00    -0.316 N 
HETATM    6  C17 UNL     1      -4.923  -4.059  -0.829  1.00  0.00     0.165 C 
ENDROOT
BRANCH   2   7
HETATM    7  C5  UNL     1      -1.536  -0.546   0.815  1.00  0.00     0.272 C 
BRANCH   7   8
HETATM    8  O2  UNL     1      -1.887   0.385   1.826  1.00  0.00    -0.371 OA
ATOM      9  H2  UNL     1      -1.077   0.747   2.166  1.00  0.00     0.212 HD
ENDBRANCH   7   8
BRANCH   7  10
HETATM   10  N1  UNL     1      -0.885   0.100  -0.300  1.00  0.00    -0.301 N 
ATOM     11  H1  UNL     1      -1.388   0.317  -1.160  1.00  0.00     0.183 HD
BRANCH  10  12
HETATM   12  N2  UNL     1       0.433   0.406  -0.148  1.00  0.00    -0.271 N 
HETATM   13  C6  UNL     1       0.919   1.697   0.102  1.00  0.00     0.245 C 
HETATM   14  O3  UNL     1       0.121   2.650   0.210  1.00  0.00    -0.271 OA
ATOM     15  H2  UNL     1       1.110  -0.353  -0.221  1.00  0.00     0.189 HD
BRANCH  13  16
HETATM   16  C7  UNL     1       2.407   1.913   0.231  1.00  0.00     0.186 C 
BRANCH  16  17
HETATM   17  S1  UNL     1       3.258   0.332  -0.063  1.00  0.00    -0.083 SA
BRANCH  17  18
HETATM   18  C8  UNL     1       5.008   0.474  -0.016  1.00  0.00     0.166 A 
HETATM   19  N3  UNL     1       5.689   1.602   0.220  1.00  0.00    -0.337 N 
HETATM   20  C9  UNL     1       6.990   1.276   0.159  1.00  0.00     0.031 A 
ATOM     21  H3  UNL     1       5.298   2.525   0.409  1.00  0.00     0.168 HD
HETATM   22  C10 UNL     1       8.143   2.200   0.352  1.00  0.00     0.070 C 
HETATM   23  C11 UNL     1       7.086  -0.065  -0.119  1.00  0.00     0.054 A 
HETATM   24  C12 UNL     1       8.373  -0.805  -0.272  1.00  0.00     0.072 C 
HETATM   25  N4  UNL     1       5.846  -0.561  -0.227  1.00  0.00    -0.243 N 
BRANCH  25  26
HETATM   26  N5  UNL     1       5.484  -1.883  -0.502  1.00  0.00    -0.336 N 
ATOM     27  H52 UNL     1       4.540  -2.261  -0.584  1.00  0.00     0.177 HD
ATOM     28  H51 UNL     1       6.118  -2.666  -0.662  1.00  0.00     0.177 HD
ENDBRANCH  25  26
ENDBRANCH  17  18
ENDBRANCH  16  17
ENDBRANCH  13  16
ENDBRANCH  10  12
ENDBRANCH   7  10
ENDBRANCH   2   7
BRANCH   1  29
HETATM   29  C2  UNL     1      -2.044  -3.486   0.224  1.00  0.00     0.173 C 
HETATM   30  C1  UNL     1      -2.216  -4.920  -0.066  1.00  0.00     0.098 C 
HETATM   31  O1  UNL     1      -0.899  -3.212   0.672  1.00  0.00    -0.291 OA
ENDBRANCH   1  29
BRANCH   3  32
HETATM   32  N6  UNL     1      -3.972   1.156   0.130  1.00  0.00    -0.314 N 
HETATM   33  C14 UNL     1      -5.174   1.772  -0.318  1.00  0.00     0.279 C 
HETATM   34  O4  UNL     1      -6.061   1.035  -0.817  1.00  0.00    -0.265 OA
ATOM     35  H6  UNL     1      -3.217   1.711   0.533  1.00  0.00     0.170 HD
BRANCH  33  36
HETATM   36  C15 UNL     1      -5.401   3.203  -0.217  1.00  0.00     0.169 A 
HETATM   37  N7  UNL     1      -4.678   4.164   0.397  1.00  0.00    -0.233 N 
HETATM   38  O5  UNL     1      -5.258   5.314   0.214  1.00  0.00    -0.155 OA
ATOM     39  H7  UNL     1      -3.816   4.013   0.920  1.00  0.00     0.197 HD
HETATM   40  N8  UNL     1      -6.349   5.138  -0.507  1.00  0.00    -0.224 N 
HETATM   41  C16 UNL     1      -6.496   3.847  -0.809  1.00  0.00     0.155 A 
ATOM     42  H8  UNL     1      -6.987   5.881  -0.792  1.00  0.00     0.198 HD
HETATM   43  N9  UNL     1      -7.409   3.270  -1.492  1.00  0.00    -0.382 N 
ATOM     44  H92 UNL     1      -7.521   2.283  -1.723  1.00  0.00     0.157 HD
ATOM     45  H91 UNL     1      -8.206   3.739  -1.923  1.00  0.00     0.157 HD
ENDBRANCH  33  36
ENDBRANCH   3  32
TORSDOF 11
