REMARK  10 active torsions:
REMARK  status: ('A' for Active; 'I' for Inactive)
REMARK    1  A    between atoms: C2_2  and  N1_3 
REMARK    2  A    between atoms: C3_4  and  S1_5 
REMARK    3  A    between atoms: S1_5  and  C4_6 
REMARK    4  A    between atoms: N2_7  and  C5_9 
REMARK    5  A    between atoms: C5_9  and  C6_10 
REMARK    6  A    between atoms: C6_10  and  N3_11 
REMARK    7  A    between atoms: N3_11  and  C7_13 
REMARK    8  A    between atoms: C10_23  and  C11_24 
REMARK    9  A    between atoms: C15_35  and  N10_36 
REMARK       I    between atoms: N10_36  and  C16_38 
REMARK       I    between atoms: C16_38  and  N11_39 
REMARK       I    between atoms: C16_38  and  N12_43 
REMARK   10  A    between atoms: C17_49  and  N14_50 
ROOT
HETATM    1  C11 UNL     1      -2.169  -0.529   1.453  1.00  0.00     0.124 A 
HETATM    2  N7  UNL     1      -2.516   0.355   0.507  1.00  0.00    -0.334 N 
ATOM      3  H7  UNL     1      -1.812   1.009   0.165  1.00  0.00     0.168 HD
HETATM    4  C12 UNL     1      -3.781   0.413  -0.018  1.00  0.00     0.154 A 
HETATM    5  C13 UNL     1      -4.719  -0.474   0.451  1.00  0.00     0.124 A 
HETATM    6  N8  UNL     1      -4.399  -1.358   1.386  1.00  0.00    -0.335 N 
ATOM      7  H8  UNL     1      -5.108  -2.009   1.723  1.00  0.00     0.168 HD
HETATM    8  C14 UNL     1      -3.115  -1.414   1.916  1.00  0.00     0.130 A 
HETATM    9  N9  UNL     1      -2.937  -2.291   2.794  1.00  0.00    -0.383 N 
ATOM     10  H91 UNL     1      -3.638  -2.947   3.137  1.00  0.00     0.157 HD
ATOM     11  H92 UNL     1      -1.995  -2.332   3.183  1.00  0.00     0.157 HD
HETATM   12  C15 UNL     1      -6.007  -0.401  -0.097  1.00  0.00     0.150 A 
HETATM   13  N13 UNL     1      -6.285   0.509  -1.040  1.00  0.00    -0.174 N 
ATOM     14  H13 UNL     1      -7.227   0.550  -1.429  1.00  0.00     0.186 HD
HETATM   15  C17 UNL     1      -5.363   1.360  -1.482  1.00  0.00     0.681 A 
HETATM   16  N15 UNL     1      -4.114   1.303  -0.963  1.00  0.00    -0.170 N 
HETATM   17  C18 UNL     1      -3.127   2.260  -1.467  1.00  0.00     0.177 C 
ENDROOT
BRANCH   1  18
HETATM   18  C10 UNL     1      -0.806  -0.574   1.996  1.00  0.00     0.155 A 
HETATM   19  N1  UNL     1       0.259   0.185   1.690  1.00  0.00    -0.310 N 
HETATM   20  C3  UNL     1       1.306  -0.212   2.451  1.00  0.00     0.168 A 
HETATM   21  N5  UNL     1       0.881  -1.217   3.224  1.00  0.00    -0.278 N 
HETATM   22  N6  UNL     1      -0.372  -1.427   2.949  1.00  0.00    -0.281 N 
ATOM     23  H5  UNL     1       1.440  -1.728   3.907  1.00  0.00     0.189 HD
ATOM     24  H6  UNL     1      -0.950  -2.140   3.393  1.00  0.00     0.188 HD
BRANCH  19  25
HETATM   25  C2  UNL     1       0.343   1.253   0.728  1.00  0.00     0.128 C 
HETATM   26  C1  UNL     1      -0.032   2.597   1.314  1.00  0.00     0.027 C 
ENDBRANCH  19  25
BRANCH  20  27
HETATM   27  S1  UNL     1       2.956   0.460   2.450  1.00  0.00    -0.048 SA
BRANCH  27  28
HETATM   28  C4  UNL     1       3.980  -0.389   1.258  1.00  0.00     0.137 C 
HETATM   29  N2  UNL     1       5.241  -0.205   1.337  1.00  0.00    -0.392 N 
ATOM     30  H2  UNL     1       5.602   0.410   2.067  1.00  0.00     0.159 HD
BRANCH  29  31
HETATM   31  C5  UNL     1       6.169  -0.828   0.441  1.00  0.00     0.139 C 
BRANCH  31  32
HETATM   32  C6  UNL     1       5.832  -0.416  -0.987  1.00  0.00     0.141 C 
BRANCH  32  33
HETATM   33  N3  UNL     1       6.759  -1.030  -1.925  1.00  0.00    -0.369 N 
ATOM     34  H3  UNL     1       6.424  -1.745  -2.571  1.00  0.00     0.161 HD
BRANCH  33  35
HETATM   35  C7  UNL     1       8.115  -0.648  -1.951  1.00  0.00     0.140 C 
HETATM   36  N4  UNL     1       9.139  -1.382  -1.971  1.00  0.00    -0.350 N 
HETATM   37  C8  UNL     1      10.418  -0.812  -1.997  1.00  0.00     0.073 C 
ATOM     38  H4  UNL     1       9.036  -2.397  -1.968  1.00  0.00     0.167 HD
HETATM   39  C9  UNL     1      10.425   0.587  -1.417  1.00  0.00     0.127 C 
HETATM   40  S2  UNL     1       8.710   1.039  -1.944  1.00  0.00    -0.089 SA
ENDBRANCH  33  35
ENDBRANCH  32  33
ENDBRANCH  31  32
ENDBRANCH  29  31
ENDBRANCH  27  28
ENDBRANCH  20  27
ENDBRANCH   1  18
BRANCH  12  41
HETATM   41  N10 UNL     1      -6.847  -1.231   0.358  1.00  0.00    -0.325 N 
HETATM   42  C16 UNL     1      -8.206  -1.372  -0.019  1.00  0.00     0.481 C 
HETATM   43  N11 UNL     1      -9.034  -0.211   0.198  1.00  0.00    -0.033 N 
HETATM   44  N12 UNL     1      -8.323  -1.746  -1.420  1.00  0.00    -0.033 N 
ATOM     45 3H11 UNL     1      -8.971   0.086   1.172  1.00  0.00     0.278 HD
ATOM     46 2H11 UNL     1      -8.626   0.601  -0.265  1.00  0.00     0.278 HD
ATOM     47 1H11 UNL     1     -10.012  -0.312  -0.073  1.00  0.00     0.278 HD
ATOM     48 3H12 UNL     1      -7.831  -1.090  -2.027  1.00  0.00     0.278 HD
ATOM     49 2H12 UNL     1      -7.785  -2.587  -1.631  1.00  0.00     0.278 HD
ATOM     50 1H12 UNL     1      -9.301  -1.847  -1.691  1.00  0.00     0.278 HD
ATOM     51  H10 UNL     1      -6.508  -1.870   1.077  1.00  0.00     0.165 HD
ENDBRANCH  12  41
BRANCH  15  52
HETATM   52  N14 UNL     1      -5.666   2.233  -2.404  1.00  0.00    -0.234 N 
ATOM     53 2H14 UNL     1      -6.607   2.276  -2.795  1.00  0.00     0.174 HD
ATOM     54 1H14 UNL     1      -4.959   2.886  -2.743  1.00  0.00     0.174 HD
ENDBRANCH  15  52
TORSDOF 10
