REMARK  12 active torsions:
REMARK  status: ('A' for Active; 'I' for Inactive)
REMARK    1  A    between atoms: N1_1  and  C1_4 
REMARK    2  A    between atoms: C2_6  and  C3_7 
REMARK    3  A    between atoms: N4_16  and  O3_17 
REMARK    4  A    between atoms: C6_19  and  S2_20 
REMARK    5  A    between atoms: S2_20  and  C7_21 
REMARK    6  A    between atoms: C7_21  and  C8_22 
REMARK       I    between atoms: C8_22  and  N5_24 
REMARK    7  A    between atoms: N5_24  and  C9_26 
REMARK    8  A    between atoms: N6_32  and  N7_33 
REMARK       I    between atoms: N7_33  and  C15_35 
REMARK    9  A    between atoms: C15_35  and  C16_37 
REMARK   10  A    between atoms: C16_37  and  C17_39 
REMARK   11  A    between atoms: C17_39  and  O7_40 
REMARK   12  A    between atoms: O7_40  and  N8_41 
ROOT
HETATM    1  C1  UNL     1      -2.006   0.762  -2.619  1.00  0.00     0.165 A 
HETATM    2  S1  UNL     1      -1.424   2.322  -2.986  1.00  0.00    -0.046 SA
HETATM    3  C2  UNL     1      -0.871   2.745  -1.370  1.00  0.00     0.091 A 
HETATM    4  C6  UNL     1      -1.184   1.630  -0.692  1.00  0.00     0.117 A 
HETATM    5  N6  UNL     1      -1.768   0.622  -1.329  1.00  0.00    -0.223 N 
ENDROOT
BRANCH   3   6
HETATM    6  C3  UNL     1      -0.353   4.077  -1.094  1.00  0.00     0.171 A 
HETATM    7  N2  UNL     1       0.254   4.737  -2.139  1.00  0.00    -0.279 N 
HETATM    8  N3  UNL     1       0.704   5.962  -2.023  1.00  0.00    -0.260 N 
ATOM      9  H2  UNL     1       0.357   4.256  -3.033  1.00  0.00     0.189 HD
HETATM   10  C4  UNL     1       0.597   6.642  -0.872  1.00  0.00     0.330 A 
ATOM     11  H3  UNL     1       1.146   6.409  -2.826  1.00  0.00     0.190 HD
HETATM   12  O1  UNL     1       1.038   7.822  -0.783  1.00  0.00    -0.260 OA
HETATM   13  C5  UNL     1      -0.000   6.019   0.184  1.00  0.00     0.343 A 
HETATM   14  O2  UNL     1      -0.112   6.630   1.264  1.00  0.00    -0.259 OA
HETATM   15  N4  UNL     1      -0.464   4.729   0.025  1.00  0.00    -0.163 N 
BRANCH  15  16
HETATM   16  O3  UNL     1      -1.106   4.236   1.131  1.00  0.00    -0.278 OA
ATOM     17  H3  UNL     1      -1.187   4.713   1.949  1.00  0.00     0.245 HD
ENDBRANCH  15  16
ENDBRANCH   3   6
BRANCH   4  18
HETATM   18  S2  UNL     1      -0.713   1.560   1.055  1.00  0.00    -0.100 SA
BRANCH  18  19
HETATM   19  C7  UNL     1       0.949   1.182   1.396  1.00  0.00     0.184 C 
BRANCH  19  20
HETATM   20  C8  UNL     1       1.512  -0.138   1.114  1.00  0.00     0.231 C 
HETATM   21  O4  UNL     1       0.819  -1.053   0.651  1.00  0.00    -0.272 OA
HETATM   22  N5  UNL     1       2.878  -0.410   1.363  1.00  0.00    -0.327 N 
ATOM     23  H5  UNL     1       3.414   0.371   1.742  1.00  0.00     0.169 HD
BRANCH  22  24
HETATM   24  C9  UNL     1       3.600  -1.586   1.167  1.00  0.00     0.034 A 
HETATM   25  C10 UNL     1       3.075  -2.808   0.874  1.00  0.00     0.029 A 
HETATM   26  C11 UNL     1       3.877  -3.942   0.676  1.00  0.00     0.002 A 
HETATM   27  C12 UNL     1       5.237  -3.852   0.775  1.00  0.00     0.000 A 
HETATM   28  C13 UNL     1       5.778  -2.637   1.069  1.00  0.00     0.002 A 
HETATM   29  C14 UNL     1       5.016  -1.511   1.267  1.00  0.00     0.029 A 
ENDBRANCH  22  24
ENDBRANCH  19  20
ENDBRANCH  18  19
ENDBRANCH   4  18
BRANCH   1  30
HETATM   30  N1  UNL     1      -2.522   0.019  -3.553  1.00  0.00    -0.378 N 
ATOM     31  H12 UNL     1      -2.706   0.127  -4.550  1.00  0.00     0.158 HD
ATOM     32  H11 UNL     1      -2.870  -0.914  -3.333  1.00  0.00     0.158 HD
ENDBRANCH   1  30
BRANCH   5  33
HETATM   33  N7  UNL     1      -2.226  -0.516  -0.625  1.00  0.00    -0.254 N 
HETATM   34  C15 UNL     1      -2.958  -1.602  -1.034  1.00  0.00     0.308 C 
HETATM   35  O5  UNL     1      -3.426  -1.896  -2.135  1.00  0.00    -0.263 OA
ATOM     36  H7  UNL     1      -1.966  -0.532   0.361  1.00  0.00     0.191 HD
BRANCH  34  37
HETATM   37  C16 UNL     1      -3.258  -2.623   0.025  1.00  0.00     0.243 C 
HETATM   38  O6  UNL     1      -2.834  -2.420   1.160  1.00  0.00    -0.285 OA
BRANCH  37  39
HETATM   39  C17 UNL     1      -4.035  -3.829  -0.284  1.00  0.00     0.289 C 
BRANCH  39  40
HETATM   40  O7  UNL     1      -4.225  -4.588   0.888  1.00  0.00    -0.279 OA
BRANCH  40  41
HETATM   41  N8  UNL     1      -4.947  -5.701   0.609  1.00  0.00    -0.311 N 
ATOM     42  H82 UNL     1      -5.295  -5.940  -0.319  1.00  0.00     0.184 HD
ATOM     43  H81 UNL     1      -5.085  -6.250   1.457  1.00  0.00     0.184 HD
ENDBRANCH  40  41
ENDBRANCH  39  40
ENDBRANCH  37  39
ENDBRANCH  34  37
ENDBRANCH   5  33
TORSDOF 12
