REMARK  11 active torsions:
REMARK  status: ('A' for Active; 'I' for Inactive)
REMARK    1  A    between atoms: N1_1  and  C1_5 
REMARK    2  A    between atoms: C1_5  and  C2_6 
REMARK    3  A    between atoms: C2_6  and  N2_7 
REMARK    4  A    between atoms: N2_7  and  C3_9 
REMARK    5  A    between atoms: C6_18  and  C7_19 
REMARK    6  A    between atoms: N6_20  and  N7_22 
REMARK    7  A    between atoms: N7_22  and  C8_24 
REMARK    8  A    between atoms: C9_27  and  N9_28 
REMARK    9  A    between atoms: N9_28  and  C10_30 
REMARK   10  A    between atoms: C10_30  and  C11_31 
REMARK   11  A    between atoms: C17_41  and  C18_42 
ROOT
HETATM    1  C8  UNL     1       0.127   0.226   1.107  1.00  0.00     0.699 A 
HETATM    2  N8  UNL     1       1.285   0.676   1.669  1.00  0.00    -0.173 N 
ATOM      3  H8  UNL     1       1.198   1.308   2.465  1.00  0.00     0.186 HD
HETATM    4  C9  UNL     1       2.516   0.367   1.275  1.00  0.00     0.147 A 
HETATM    5  C16 UNL     1       2.650  -0.514   0.167  1.00  0.00     0.113 A 
HETATM    6  N11 UNL     1       3.777  -0.922  -0.348  1.00  0.00    -0.342 N 
ATOM      7  H11 UNL     1       4.660  -0.602   0.050  1.00  0.00     0.167 HD
HETATM    8  C17 UNL     1       3.784  -1.744  -1.378  1.00  0.00     0.124 A 
HETATM    9  S1  UNL     1       2.106  -1.971  -1.657  1.00  0.00    -0.048 SA
HETATM   10  C19 UNL     1       1.498  -0.964  -0.394  1.00  0.00     0.123 A 
HETATM   11  N16 UNL     1       0.262  -0.607   0.059  1.00  0.00    -0.181 N 
ATOM     12  H16 UNL     1      -0.570  -0.976  -0.402  1.00  0.00     0.185 HD
ENDROOT
BRANCH   1  13
HETATM   13  N7  UNL     1      -1.002   0.579   1.553  1.00  0.00    -0.132 N 
ATOM     14  H7  UNL     1      -1.028   1.213   2.351  1.00  0.00     0.205 HD
BRANCH  13  15
HETATM   15  N6  UNL     1      -2.199   0.155   1.021  1.00  0.00    -0.297 N 
HETATM   16  C7  UNL     1      -2.663  -0.995   1.187  1.00  0.00     0.128 C 
ATOM     17  H6  UNL     1      -2.738   0.815   0.460  1.00  0.00     0.186 HD
BRANCH  16  18
HETATM   18  C6  UNL     1      -3.908  -1.486   0.657  1.00  0.00     0.092 A 
HETATM   19  C3  UNL     1      -4.760  -0.736  -0.092  1.00  0.00     0.120 A 
HETATM   20  N3  UNL     1      -5.894  -1.309  -0.559  1.00  0.00    -0.316 N 
HETATM   21  C4  UNL     1      -6.197  -2.581  -0.304  1.00  0.00     0.196 A 
ATOM     22  H3  UNL     1      -6.535  -0.751  -1.123  1.00  0.00     0.170 HD
HETATM   23  N4  UNL     1      -7.415  -3.134  -0.823  1.00  0.00    -0.063 NA
HETATM   24  N5  UNL     1      -5.367  -3.332   0.434  1.00  0.00    -0.297 N 
HETATM   25  C5  UNL     1      -4.255  -2.828   0.911  1.00  0.00     0.263 A 
ATOM     26  H5  UNL     1      -5.603  -4.305   0.626  1.00  0.00     0.171 HD
HETATM   27  O1  UNL     1      -3.471  -3.532   1.607  1.00  0.00    -0.267 OA
BRANCH  19  28
HETATM   28  N2  UNL     1      -4.570   0.631  -0.372  1.00  0.00    -0.374 N 
ATOM     29  H2  UNL     1      -3.766   1.126   0.013  1.00  0.00     0.161 HD
BRANCH  28  30
HETATM   30  C2  UNL     1      -5.535   1.339  -1.221  1.00  0.00     0.148 C 
BRANCH  30  31
HETATM   31  C1  UNL     1      -5.308   1.204  -2.676  1.00  0.00     0.249 C 
BRANCH  31  32
HETATM   32  N1  UNL     1      -5.332  -0.093  -3.246  1.00  0.00    -0.078 N 
ATOM     33  H13 UNL     1      -4.666  -0.685  -2.750  1.00  0.00     0.274 HD
ATOM     34  H12 UNL     1      -6.214  -0.545  -3.005  1.00  0.00     0.274 HD
ATOM     35  H11 UNL     1      -5.175  -0.186  -4.250  1.00  0.00     0.274 HD
ENDBRANCH  31  32
ENDBRANCH  30  31
ENDBRANCH  28  30
ENDBRANCH  19  28
ENDBRANCH  16  18
ENDBRANCH  13  15
ENDBRANCH   1  13
BRANCH   4  36
HETATM   36  N9  UNL     1       3.587   0.823   1.819  1.00  0.00    -0.370 N 
ATOM     37  H9  UNL     1       4.471   0.507   1.420  1.00  0.00     0.161 HD
BRANCH  36  38
HETATM   38  C10 UNL     1       3.672   1.721   2.917  1.00  0.00     0.161 C 
BRANCH  38  39
HETATM   39  C11 UNL     1       4.799   2.663   2.825  1.00  0.00    -0.025 A 
HETATM   40  C12 UNL     1       4.680   3.887   2.212  1.00  0.00     0.011 A 
HETATM   41  C13 UNL     1       5.776   4.760   2.146  1.00  0.00     0.018 A 
HETATM   42  C14 UNL     1       6.984   4.390   2.700  1.00  0.00     0.087 A 
HETATM   43  N10 UNL     1       7.071   3.192   3.292  1.00  0.00    -0.375 N 
HETATM   44  C15 UNL     1       6.016   2.335   3.363  1.00  0.00     0.096 A 
ATOM     45  H10 UNL     1       7.961   2.911   3.705  1.00  0.00     0.164 HD
ENDBRANCH  38  39
ENDBRANCH  36  38
ENDBRANCH   4  36
BRANCH   8  46
HETATM   46  C18 UNL     1       4.935  -2.319  -2.095  1.00  0.00     0.171 A 
HETATM   47  N12 UNL     1       4.822  -3.149  -3.135  1.00  0.00    -0.266 N 
HETATM   48  N13 UNL     1       6.034  -3.476  -3.540  1.00  0.00    -0.227 N 
ATOM     49  H12 UNL     1       3.947  -3.475  -3.546  1.00  0.00     0.190 HD
HETATM   50  N14 UNL     1       6.923  -2.872  -2.779  1.00  0.00    -0.227 N 
ATOM     51  H13 UNL     1       6.249  -4.098  -4.319  1.00  0.00     0.210 HD
HETATM   52  N15 UNL     1       6.245  -2.161  -1.892  1.00  0.00    -0.266 N 
ATOM     53  H14 UNL     1       7.938  -2.939  -2.858  1.00  0.00     0.210 HD
ATOM     54  H15 UNL     1       6.661  -1.580  -1.164  1.00  0.00     0.190 HD
ENDBRANCH   8  46
TORSDOF 11
