REMARK  13 active torsions:
REMARK  status: ('A' for Active; 'I' for Inactive)
REMARK    1  A    between atoms: C2_2  and  C19_41 
REMARK    2  A    between atoms: N1_3  and  O1_5 
REMARK    3  A    between atoms: O1_5  and  C3_6 
REMARK    4  A    between atoms: C3_6  and  C4_7 
REMARK    5  A    between atoms: C4_7  and  N2_8 
REMARK    6  A    between atoms: N2_8  and  C5_10 
REMARK    7  A    between atoms: C6_13  and  C7_14 
REMARK       I    between atoms: C7_14  and  N4_16 
REMARK    8  A    between atoms: N4_16  and  N5_18 
REMARK    9  A    between atoms: C8_20  and  C9_21 
REMARK   10  A    between atoms: C10_22  and  O3_23 
REMARK   11  A    between atoms: C18_34  and  O6_35 
REMARK   12  A    between atoms: N6_37  and  N7_38 
REMARK   13  A    between atoms: C20_47  and  N10_48 
ROOT
HETATM    1  C5  UNL     1      -1.496   0.090   2.566  1.00  0.00     0.702 A 
HETATM    2  N3  UNL     1      -0.451   0.095   1.720  1.00  0.00    -0.180 N 
ATOM      3  H3  UNL     1      -0.518   0.108   0.702  1.00  0.00     0.184 HD
HETATM    4  C6  UNL     1       0.716   0.080   2.433  1.00  0.00     0.171 A 
HETATM    5  C18 UNL     1       0.318   0.067   3.760  1.00  0.00     0.212 A 
HETATM    6  N6  UNL     1      -1.020   0.074   3.844  1.00  0.00    -0.068 N 
ENDROOT
BRANCH   4   7
HETATM    7  C7  UNL     1       2.075   0.072   1.911  1.00  0.00     0.291 C 
HETATM    8  O2  UNL     1       3.022   0.052   2.717  1.00  0.00    -0.264 OA
HETATM    9  N4  UNL     1       2.245   0.086   0.501  1.00  0.00    -0.265 N 
ATOM     10  H4  UNL     1       1.438   0.104  -0.123  1.00  0.00     0.190 HD
BRANCH   9  11
HETATM   11  N5  UNL     1       3.536   0.074  -0.006  1.00  0.00    -0.308 N 
HETATM   12  C8  UNL     1       4.473   0.848   0.268  1.00  0.00     0.122 C 
ATOM     13  H5  UNL     1       3.743  -0.658  -0.686  1.00  0.00     0.186 HD
BRANCH  12  14
HETATM   14  C9  UNL     1       5.814   0.865  -0.234  1.00  0.00     0.033 A 
HETATM   15  C10 UNL     1       6.719   1.835   0.211  1.00  0.00     0.154 A 
HETATM   16  C11 UNL     1       8.005   1.811  -0.298  1.00  0.00     0.322 A 
HETATM   17  O4  UNL     1       8.813   2.707   0.124  1.00  0.00    -0.257 OA
HETATM   18  O5  UNL     1       8.397   0.931  -1.163  1.00  0.00    -0.273 OA
HETATM   19  C12 UNL     1       7.565  -0.001  -1.605  1.00  0.00     0.090 A 
HETATM   20  C13 UNL     1       8.032  -0.919  -2.529  1.00  0.00     0.038 A 
HETATM   21  C17 UNL     1       6.259  -0.071  -1.165  1.00  0.00     0.013 A 
HETATM   22  C14 UNL     1       7.198  -1.902  -3.012  1.00  0.00     0.003 A 
HETATM   23  C15 UNL     1       5.906  -1.995  -2.594  1.00  0.00     0.001 A 
HETATM   24  C16 UNL     1       5.424  -1.064  -1.654  1.00  0.00     0.015 A 
BRANCH  15  25
HETATM   25  O3  UNL     1       6.347   2.786   1.126  1.00  0.00    -0.355 OA
ATOM     26  H3  UNL     1       6.961   3.445   1.428  1.00  0.00     0.218 HD
ENDBRANCH  15  25
ENDBRANCH  12  14
ENDBRANCH   9  11
ENDBRANCH   4   7
BRANCH   5  27
HETATM   27  O6  UNL     1       1.192   0.051   4.849  1.00  0.00    -0.343 OA
ATOM     28  H6  UNL     1       0.919   0.042   5.759  1.00  0.00     0.219 HD
ENDBRANCH   5  27
BRANCH   1  29
HETATM   29  N2  UNL     1      -2.753   0.094   2.297  1.00  0.00    -0.222 N 
ATOM     30  H2  UNL     1      -3.433   0.089   3.057  1.00  0.00     0.177 HD
BRANCH  29  31
HETATM   31  C4  UNL     1      -3.207   0.106   0.940  1.00  0.00     0.166 C 
BRANCH  31  32
HETATM   32  C3  UNL     1      -4.351  -0.862   0.707  1.00  0.00     0.221 C 
BRANCH  32  33
HETATM   33  O1  UNL     1      -4.717  -0.767  -0.661  1.00  0.00    -0.279 OA
BRANCH  33  34
HETATM   34  N1  UNL     1      -5.633  -1.425  -1.293  1.00  0.00    -0.269 N 
HETATM   35  C2  UNL     1      -6.661  -1.139  -1.930  1.00  0.00     0.060 C 
HETATM   36  C1  UNL     1      -7.398  -2.397  -2.487  1.00  0.00     0.073 C 
ATOM     37  H1  UNL     1      -5.471  -2.432  -1.261  1.00  0.00     0.194 HD
BRANCH  35  38
HETATM   38  C19 UNL     1      -7.278   0.131  -2.244  1.00  0.00     0.126 A 
HETATM   39  N8  UNL     1      -8.454   0.233  -2.956  1.00  0.00    -0.236 N 
HETATM   40  O7  UNL     1      -8.780   1.463  -3.081  1.00  0.00    -0.155 OA
ATOM     41  H8  UNL     1      -8.985  -0.555  -3.328  1.00  0.00     0.197 HD
HETATM   42  N9  UNL     1      -7.935   2.245  -2.519  1.00  0.00    -0.224 N 
HETATM   43  C20 UNL     1      -6.943   1.426  -1.962  1.00  0.00     0.152 A 
ATOM     44  H9  UNL     1      -7.976   3.264  -2.484  1.00  0.00     0.198 HD
BRANCH  43  45
HETATM   45  N10 UNL     1      -5.962   1.830  -1.347  1.00  0.00    -0.382 N 
ATOM     46 2H10 UNL     1      -5.240   1.234  -0.942  1.00  0.00     0.157 HD
ATOM     47 1H10 UNL     1      -5.712   2.796  -1.137  1.00  0.00     0.157 HD
ENDBRANCH  43  45
ENDBRANCH  35  38
ENDBRANCH  33  34
ENDBRANCH  32  33
ENDBRANCH  31  32
ENDBRANCH  29  31
ENDBRANCH   1  29
BRANCH   6  48
HETATM   48  N7  UNL     1      -1.780   0.065   5.013  1.00  0.00    -0.322 N 
ATOM     49  H72 UNL     1      -2.798   0.070   5.077  1.00  0.00     0.178 HD
ATOM     50  H71 UNL     1      -1.424   0.053   5.969  1.00  0.00     0.178 HD
ENDBRANCH   6  48
TORSDOF 13
