REMARK  15 active torsions:
REMARK  status: ('A' for Active; 'I' for Inactive)
REMARK    1  A    between atoms: O1_2  and  C2_3 
REMARK    2  A    between atoms: C2_3  and  C3_5 
REMARK    3  A    between atoms: C5_7  and  C6_8 
REMARK    4  A    between atoms: C11_16  and  N2_17 
REMARK    5  A    between atoms: N2_17  and  C12_19 
REMARK    6  A    between atoms: C13_22  and  N4_23 
REMARK    7  A    between atoms: N4_23  and  C14_25 
REMARK    8  A    between atoms: C14_25  and  N5_26 
REMARK    9  A    between atoms: C14_25  and  C15_30 
REMARK   10  A    between atoms: C15_30  and  O3_31 
REMARK   11  A    between atoms: C15_30  and  C16_33 
REMARK   12  A    between atoms: C16_33  and  O4_35 
REMARK   13  A    between atoms: N8_42  and  C20_44 
REMARK   14  A    between atoms: C20_44  and  C21_45 
REMARK   15  A    between atoms: C21_45  and  O5_46 
ROOT
HETATM    1  C16 UNL     1      -5.875  -1.279  -0.722  1.00  0.00     0.171 C 
HETATM    2  C17 UNL     1      -5.588   0.117  -1.220  1.00  0.00     0.065 C 
HETATM    3  C18 UNL     1      -6.395  -2.053  -1.878  1.00  0.00     0.100 C 
HETATM    4  N6  UNL     1      -6.784  -2.656  -2.784  1.00  0.00    -0.194 NA
ENDROOT
BRANCH   1   5
HETATM    5  C15 UNL     1      -4.665  -2.003  -0.233  1.00  0.00     0.216 C 
BRANCH   5   6
HETATM    6  C14 UNL     1      -4.054  -1.414   1.001  1.00  0.00     0.329 C 
BRANCH   6   7
HETATM    7  N4  UNL     1      -3.641  -0.048   0.784  1.00  0.00    -0.193 N 
ATOM      8  H4  UNL     1      -4.359   0.676   0.778  1.00  0.00     0.180 HD
BRANCH   7   9
HETATM    9  C13 UNL     1      -2.410   0.310   0.597  1.00  0.00     0.709 A 
HETATM   10  N3  UNL     1      -1.391  -0.528   0.583  1.00  0.00    -0.021 N 
HETATM   11  C12 UNL     1      -0.096  -0.086   0.378  1.00  0.00     0.712 A 
ATOM     12  H3  UNL     1      -1.562  -1.523   0.726  1.00  0.00     0.203 HD
HETATM   13  N9  UNL     1       0.084   1.209   0.195  1.00  0.00    -0.021 N 
HETATM   14  C19 UNL     1      -0.956   2.112   0.203  1.00  0.00     0.707 A 
ATOM     15  H9  UNL     1       1.031   1.555   0.042  1.00  0.00     0.203 HD
HETATM   16  N7  UNL     1      -2.177   1.613   0.407  1.00  0.00    -0.021 N 
HETATM   17  N8  UNL     1      -0.713   3.361   0.018  1.00  0.00    -0.223 N 
ATOM     18  H7  UNL     1      -2.969   2.255   0.419  1.00  0.00     0.203 HD
ATOM     19  H8  UNL     1       0.242   3.686  -0.134  1.00  0.00     0.177 HD
BRANCH  11  20
HETATM   20  N2  UNL     1       0.881  -1.089   0.390  1.00  0.00    -0.183 N 
ATOM     21  H2  UNL     1       0.565  -2.046   0.547  1.00  0.00     0.185 HD
BRANCH  20  22
HETATM   22  C11 UNL     1       2.266  -0.889   0.204  1.00  0.00     0.107 A 
HETATM   23  C3  UNL     1       3.292  -1.826   0.205  1.00  0.00     0.075 A 
HETATM   24  C4  UNL     1       4.531  -1.359   0.000  1.00  0.00     0.040 A 
HETATM   25  C5  UNL     1       4.708  -0.028  -0.192  1.00  0.00     0.018 A 
HETATM   26  S1  UNL     1       3.142   0.572  -0.087  1.00  0.00    -0.070 SA
BRANCH  23  27
HETATM   27  C2  UNL     1       3.025  -3.272   0.423  1.00  0.00     0.295 C 
HETATM   28  O2  UNL     1       1.931  -3.782   0.618  1.00  0.00    -0.259 OA
BRANCH  27  29
HETATM   29  O1  UNL     1       4.114  -4.164   0.411  1.00  0.00    -0.322 OA
HETATM   30  C1  UNL     1       3.909  -5.559   0.616  1.00  0.00     0.213 C 
ENDBRANCH  27  29
ENDBRANCH  23  27
BRANCH  25  31
HETATM   31  C6  UNL     1       5.966   0.713  -0.434  1.00  0.00    -0.016 A 
HETATM   32  C7  UNL     1       5.910   2.061  -0.599  1.00  0.00     0.030 A 
HETATM   33  C8  UNL     1       7.070   2.759  -0.824  1.00  0.00     0.088 A 
HETATM   34  N1  UNL     1       8.229   2.094  -0.875  1.00  0.00    -0.375 N 
HETATM   35  C9  UNL     1       8.308   0.770  -0.715  1.00  0.00     0.088 A 
ATOM     36  H1  UNL     1       9.087   2.619  -1.043  1.00  0.00     0.164 HD
HETATM   37  C10 UNL     1       7.151   0.043  -0.487  1.00  0.00     0.030 A 
ENDBRANCH  25  31
ENDBRANCH  20  22
ENDBRANCH  11  20
BRANCH  17  38
HETATM   38  C20 UNL     1      -1.816   4.299   0.029  1.00  0.00     0.164 C 
BRANCH  38  39
HETATM   39  C21 UNL     1      -1.328   5.669  -0.400  1.00  0.00     0.184 C 
BRANCH  39  40
HETATM   40  O5  UNL     1      -0.343   6.058   0.515  1.00  0.00    -0.399 OA
ATOM     41  H5  UNL     1      -0.037   6.916   0.246  1.00  0.00     0.209 HD
ENDBRANCH  39  40
ENDBRANCH  38  39
ENDBRANCH  17  38
ENDBRANCH   7   9
ENDBRANCH   6   7
BRANCH   6  42
HETATM   42  N5  UNL     1      -4.918  -1.490   2.155  1.00  0.00    -0.055 N 
ATOM     43  H53 UNL     1      -4.485  -1.085   2.985  1.00  0.00     0.276 HD
ATOM     44  H52 UNL     1      -5.714  -0.857   2.079  1.00  0.00     0.276 HD
ATOM     45  H51 UNL     1      -5.210  -2.455   2.308  1.00  0.00     0.276 HD
ENDBRANCH   6  42
ENDBRANCH   5   6
BRANCH   5  46
HETATM   46  O3  UNL     1      -5.033  -3.311   0.057  1.00  0.00    -0.388 OA
ATOM     47  H3  UNL     1      -5.421  -3.685  -0.726  1.00  0.00     0.210 HD
ENDBRANCH   5  46
ENDBRANCH   1   5
BRANCH   1  48
HETATM   48  O4  UNL     1      -6.908  -1.244   0.203  1.00  0.00    -0.373 OA
ATOM     49  H4  UNL     1      -7.678  -0.783  -0.108  1.00  0.00     0.212 HD
ENDBRANCH   1  48
TORSDOF 15
