REMARK  5 active torsions:
REMARK  status: ('A' for Active; 'I' for Inactive)
REMARK    1  A    between atoms: C2_5  and  N2_6 
REMARK    2  A    between atoms: N2_6  and  C3_8 
REMARK    3  A    between atoms: C3_8  and  C4_9 
REMARK    4  A    between atoms: C9_20  and  N6_21 
REMARK    5  A    between atoms: N6_21  and  C10_23 
ROOT
HETATM    1  O1  UNL     1       1.100   0.515   2.607  1.00  0.00    -0.266 OA
HETATM    2  C1  UNL     1       1.121  -0.059   1.511  1.00  0.00     0.279 A 
HETATM    3  N1  UNL     1       2.248  -0.589   0.995  1.00  0.00    -0.155 N 
ATOM      4  H1  UNL     1       3.113  -0.513   1.530  1.00  0.00     0.187 HD
HETATM    5  C2  UNL     1       2.280  -1.213  -0.193  1.00  0.00     0.682 A 
HETATM    6  N4  UNL     1       1.127  -1.316  -0.905  1.00  0.00    -0.175 N 
ATOM      7  H4  UNL     1       1.149  -1.791  -1.807  1.00  0.00     0.186 HD
HETATM    8  C8  UNL     1      -0.040  -0.817  -0.467  1.00  0.00     0.158 A 
HETATM    9  N5  UNL     1      -1.167  -0.942  -1.212  1.00  0.00    -0.175 N 
ATOM     10  H5  UNL     1      -1.133  -1.418  -2.114  1.00  0.00     0.186 HD
HETATM   11  C9  UNL     1      -2.330  -0.438  -0.761  1.00  0.00     0.687 A 
HETATM   12  N7  UNL     1      -2.344   0.185   0.432  1.00  0.00    -0.155 N 
ATOM     13  H7  UNL     1      -3.227   0.566   0.771  1.00  0.00     0.187 HD
HETATM   14  C16 UNL     1      -1.248   0.328   1.198  1.00  0.00     0.279 A 
HETATM   15  O2  UNL     1      -1.253   0.910   2.315  1.00  0.00    -0.266 OA
HETATM   16  C17 UNL     1      -0.030  -0.183   0.758  1.00  0.00     0.146 A 
ENDROOT
BRANCH   5  17
HETATM   17  N2  UNL     1       3.382  -1.706  -0.648  1.00  0.00    -0.222 N 
ATOM     18  H2  UNL     1       3.358  -2.173  -1.555  1.00  0.00     0.178 HD
BRANCH  17  19
HETATM   19  C3  UNL     1       4.633  -1.640   0.037  1.00  0.00     0.178 C 
BRANCH  19  20
HETATM   20  C4  UNL     1       5.292  -0.331  -0.053  1.00  0.00    -0.023 A 
HETATM   21  C5  UNL     1       6.493   0.016   0.520  1.00  0.00     0.027 A 
HETATM   22  C6  UNL     1       6.755   1.313   0.204  1.00  0.00     0.088 A 
HETATM   23  N3  UNL     1       5.755   1.798  -0.553  1.00  0.00    -0.375 N 
HETATM   24  C7  UNL     1       4.861   0.801  -0.713  1.00  0.00     0.096 A 
ATOM     25  H3  UNL     1       5.686   2.742  -0.934  1.00  0.00     0.164 HD
ENDBRANCH  19  20
ENDBRANCH  17  19
ENDBRANCH   5  17
BRANCH  11  26
HETATM   26  N6  UNL     1      -3.400  -0.556  -1.468  1.00  0.00    -0.192 N 
ATOM     27  H6  UNL     1      -3.357  -1.033  -2.369  1.00  0.00     0.184 HD
BRANCH  26  28
HETATM   28  C10 UNL     1      -4.636  -0.034  -1.014  1.00  0.00     0.049 A 
HETATM   29  C11 UNL     1      -4.946   1.300  -1.136  1.00  0.00     0.031 A 
HETATM   30  C12 UNL     1      -6.137   1.816  -0.700  1.00  0.00     0.021 A 
HETATM   31  C13 UNL     1      -7.080   1.002  -0.116  1.00  0.00     0.011 A 
HETATM   32 BR1  UNL     1      -8.750   1.693   0.502  1.00  0.00    -0.051 Br
HETATM   33  C14 UNL     1      -6.773  -0.337   0.009  1.00  0.00     0.021 A 
HETATM   34  C15 UNL     1      -5.573  -0.855  -0.430  1.00  0.00     0.031 A 
ENDBRANCH  26  28
ENDBRANCH  11  26
TORSDOF 5
