REMARK  6 active torsions:
REMARK  status: ('A' for Active; 'I' for Inactive)
REMARK    1  A    between atoms: C3_3  and  C4_4 
REMARK    2  A    between atoms: C4_4  and  C5_5 
REMARK    3  A    between atoms: C7_12  and  O2_13 
REMARK    4  A    between atoms: C8_15  and  C9_16 
REMARK    5  A    between atoms: C12_19  and  N3_20 
REMARK    6  A    between atoms: N5_27  and  C15_28 
ROOT
HETATM    1  C1  UNL     1       0.806  -2.221   0.119  1.00  0.00     0.044 C 
HETATM    2  C2  UNL     1       0.668  -0.914   0.070  1.00  0.00     0.041 A 
HETATM    3  C3  UNL     1      -0.504  -0.188   0.141  1.00  0.00     0.005 A 
HETATM    4  C8  UNL     1      -0.103   1.160   0.038  1.00  0.00     0.004 A 
HETATM    5  C14 UNL     1       1.269   1.195  -0.087  1.00  0.00     0.111 A 
HETATM    6  N5  UNL     1       1.735  -0.048  -0.069  1.00  0.00    -0.321 N 
ENDROOT
BRANCH   3   7
HETATM    7  C4  UNL     1      -1.750  -0.571   0.282  1.00  0.00     0.048 C 
BRANCH   7   8
HETATM    8  C5  UNL     1      -2.313  -1.890   0.409  1.00  0.00     0.088 A 
HETATM    9  N1  UNL     1      -2.505  -2.614   1.550  1.00  0.00    -0.305 N 
HETATM   10  C6  UNL     1      -3.085  -3.760   1.220  1.00  0.00     0.326 A 
ATOM     11  H1  UNL     1      -2.247  -2.324   2.493  1.00  0.00     0.171 HD
HETATM   12  O1  UNL     1      -3.408  -4.672   2.024  1.00  0.00    -0.247 OA
HETATM   13  N2  UNL     1      -3.286  -3.824  -0.103  1.00  0.00    -0.287 N 
HETATM   14  C7  UNL     1      -2.817  -2.682  -0.618  1.00  0.00     0.171 A 
ATOM     15  H2  UNL     1      -3.714  -4.594  -0.618  1.00  0.00     0.172 HD
BRANCH  14  16
HETATM   16  O2  UNL     1      -2.834  -2.344  -1.978  1.00  0.00    -0.344 OA
ATOM     17  H2  UNL     1      -3.178  -2.885  -2.679  1.00  0.00     0.219 HD
ENDBRANCH  14  16
ENDBRANCH   7   8
ENDBRANCH   3   7
BRANCH   4  18
HETATM   18  C9  UNL     1      -1.001   2.305   0.038  1.00  0.00    -0.008 A 
HETATM   19  C10 UNL     1      -0.697   3.304   0.973  1.00  0.00     0.017 A 
HETATM   20  C11 UNL     1      -1.485   4.452   1.030  1.00  0.00     0.049 A 
HETATM   21  C12 UNL     1      -2.549   4.588   0.167  1.00  0.00     0.098 A 
HETATM   22  N4  UNL     1      -2.826   3.614  -0.728  1.00  0.00    -0.352 N 
HETATM   23  C13 UNL     1      -2.063   2.518  -0.772  1.00  0.00     0.102 A 
ATOM     24  H4  UNL     1      -3.614   3.715  -1.367  1.00  0.00     0.166 HD
BRANCH  21  25
HETATM   25  N3  UNL     1      -3.281   5.634   0.205  1.00  0.00    -0.385 N 
ATOM     26  H32 UNL     1      -3.072   6.369   0.880  1.00  0.00     0.157 HD
ATOM     27  H31 UNL     1      -4.069   5.735  -0.434  1.00  0.00     0.157 HD
ENDBRANCH  21  25
ENDBRANCH   4  18
BRANCH   6  28
HETATM   28  C15 UNL     1       3.107  -0.470  -0.173  1.00  0.00     0.039 A 
HETATM   29  C16 UNL     1       3.939  -0.431   0.918  1.00  0.00     0.031 A 
HETATM   30  C17 UNL     1       5.258  -0.851   0.760  1.00  0.00     0.021 A 
HETATM   31  C18 UNL     1       5.735  -1.301  -0.461  1.00  0.00     0.011 A 
HETATM   32 BR1  UNL     1       7.548  -1.875  -0.664  1.00  0.00    -0.051 Br
HETATM   33  C19 UNL     1       4.870  -1.322  -1.521  1.00  0.00     0.021 A 
HETATM   34  C20 UNL     1       3.546  -0.910  -1.400  1.00  0.00     0.031 A 
ENDBRANCH   6  28
TORSDOF 6
