REMARK  3 active torsions:
REMARK  status: ('A' for Active; 'I' for Inactive)
REMARK    1  A    between atoms: C2_5  and  C3_6 
REMARK    2  A    between atoms: C3_6  and  C4_7 
REMARK    3  A    between atoms: C8_14  and  O2_15 
ROOT
HETATM    1  O1  UNL     1      -1.856   3.070   1.010  1.00  0.00    -0.266 OA
HETATM    2  C1  UNL     1      -1.692   1.884   0.645  1.00  0.00     0.272 A 
HETATM    3  N1  UNL     1      -0.451   1.248   0.467  1.00  0.00    -0.328 N 
ATOM      4  H1  UNL     1       0.371   1.821   0.657  1.00  0.00     0.168 HD
HETATM    5  C2  UNL     1      -0.219   0.054   0.101  1.00  0.00    -0.002 A 
HETATM    6  C10 UNL     1      -1.371  -0.856  -0.201  1.00  0.00     0.095 A 
HETATM    7  C11 UNL     1      -2.688  -0.214  -0.022  1.00  0.00    -0.002 A 
HETATM    8  C12 UNL     1      -2.883   1.080   0.377  1.00  0.00     0.109 A 
HETATM    9  N4  UNL     1      -4.208   1.330   0.434  1.00  0.00    -0.346 N 
ATOM     10  H4  UNL     1      -4.639   2.214   0.702  1.00  0.00     0.166 HD
HETATM   11  C13 UNL     1      -4.858   0.214   0.077  1.00  0.00     0.118 A 
HETATM   12  C14 UNL     1      -3.954  -0.777  -0.217  1.00  0.00     0.073 A 
HETATM   13  C15 UNL     1      -4.657  -1.989  -0.604  1.00  0.00     0.261 A 
HETATM   14  O3  UNL     1      -4.127  -3.069  -0.931  1.00  0.00    -0.267 OA
HETATM   15  N5  UNL     1      -6.060  -1.679  -0.529  1.00  0.00    -0.288 N 
ATOM     16  H5  UNL     1      -6.822  -2.324  -0.740  1.00  0.00     0.172 HD
HETATM   17  C16 UNL     1      -6.214  -0.311  -0.107  1.00  0.00     0.276 A 
HETATM   18  O4  UNL     1      -7.299   0.299   0.066  1.00  0.00    -0.266 OA
ENDROOT
BRANCH   5  19
HETATM   19  C3  UNL     1       1.132  -0.535  -0.061  1.00  0.00     0.095 C 
BRANCH  19  20
HETATM   20  C4  UNL     1       2.232   0.362   0.241  1.00  0.00    -0.008 A 
HETATM   21  C5  UNL     1       2.319   1.620   0.733  1.00  0.00     0.098 A 
HETATM   22  N2  UNL     1       3.638   1.996   0.825  1.00  0.00    -0.362 N 
HETATM   23  C6  UNL     1       4.384   0.976   0.393  1.00  0.00     0.081 A 
ATOM     24  H2  UNL     1       3.985   2.894   1.163  1.00  0.00     0.165 HD
HETATM   25  C7  UNL     1       5.707   0.596   0.188  1.00  0.00     0.090 A 
HETATM   26  C9  UNL     1       3.561  -0.054   0.022  1.00  0.00     0.070 A 
HETATM   27 BR1  UNL     1       7.225   1.685   0.554  1.00  0.00    -0.044 Br
HETATM   28  C8  UNL     1       5.655  -0.687  -0.313  1.00  0.00     0.160 A 
HETATM   29  N3  UNL     1       4.364  -1.043  -0.400  1.00  0.00    -0.334 N 
ATOM     30  H3  UNL     1       4.036  -1.946  -0.742  1.00  0.00     0.168 HD
BRANCH  28  31
HETATM   31  O2  UNL     1       6.776  -1.425  -0.650  1.00  0.00    -0.345 OA
ATOM     32  H2  UNL     1       6.740  -2.309  -0.995  1.00  0.00     0.219 HD
ENDBRANCH  28  31
ENDBRANCH  19  20
ENDBRANCH   5  19
TORSDOF 3
