REMARK  12 active torsions:
REMARK  status: ('A' for Active; 'I' for Inactive)
REMARK    1  A    between atoms: O1_2  and  C2_3 
REMARK    2  A    between atoms: C2_3  and  C3_5 
REMARK    3  A    between atoms: C3_5  and  C4_6 
REMARK    4  A    between atoms: C3_5  and  C17_28 
REMARK    5  A    between atoms: C4_6  and  C5_7 
REMARK    6  A    between atoms: C5_7  and  C6_8 
REMARK    7  A    between atoms: C5_7  and  C13_15 
REMARK    8  A    between atoms: C6_8  and  C7_9 
REMARK    9  A    between atoms: C13_15  and  C14_17 
REMARK   10  A    between atoms: C14_17  and  N1_19 
REMARK   11  A    between atoms: N1_19  and  N2_20 
REMARK   12  A    between atoms: N2_20  and  N3_21 
REMARK       I    between atoms: N3_21  and  C16_23 
ROOT
HETATM    1  C5  UNL     1      -0.626   0.305   0.391  1.00  0.00     0.059 C 
ENDROOT
BRANCH   1   2
HETATM    2  C4  UNL     1      -0.760   1.701   0.983  1.00  0.00     0.038 C 
BRANCH   2   3
HETATM    3  C3  UNL     1      -1.924   2.491   0.455  1.00  0.00     0.187 C 
BRANCH   3   4
HETATM    4  C2  UNL     1      -1.916   3.819   1.119  1.00  0.00     0.273 C 
HETATM    5  O2  UNL     1      -0.995   4.077   1.928  1.00  0.00    -0.264 OA
BRANCH   4   6
HETATM    6  O1  UNL     1      -2.879   4.782   0.884  1.00  0.00    -0.326 OA
HETATM    7  C1  UNL     1      -2.843   6.029   1.532  1.00  0.00     0.213 C 
ENDBRANCH   4   6
ENDBRANCH   3   4
BRANCH   3   8
HETATM    8  C17 UNL     1      -1.804   2.747  -1.000  1.00  0.00     0.186 C 
HETATM    9  O4  UNL     1      -2.722   2.357  -1.753  1.00  0.00    -0.647 OA
HETATM   10  O5  UNL     1      -0.721   3.395  -1.536  1.00  0.00    -0.647 OA
ENDBRANCH   3   8
ENDBRANCH   2   3
ENDBRANCH   1   2
BRANCH   1  11
HETATM   11  C6  UNL     1      -1.825  -0.500   0.635  1.00  0.00     0.017 C 
BRANCH  11  12
HETATM   12  C7  UNL     1      -2.010  -1.837   0.093  1.00  0.00    -0.014 C 
HETATM   13  C8  UNL     1      -1.121  -2.968   0.354  1.00  0.00     0.005 C 
HETATM   14  C9  UNL     1      -1.645  -4.209  -0.368  1.00  0.00     0.000 C 
HETATM   15  C10 UNL     1      -2.738  -3.919  -1.360  1.00  0.00     0.000 C 
HETATM   16  C11 UNL     1      -3.900  -3.178  -0.731  1.00  0.00     0.000 C 
HETATM   17  C12 UNL     1      -3.431  -2.367   0.462  1.00  0.00     0.005 C 
ENDBRANCH  11  12
ENDBRANCH   1  11
BRANCH   1  18
HETATM   18  C13 UNL     1       0.617  -0.194   1.046  1.00  0.00     0.151 C 
HETATM   19  O3  UNL     1       0.537  -1.003   1.930  1.00  0.00    -0.296 OA
BRANCH  18  20
HETATM   20  C14 UNL     1       1.934   0.298   0.621  1.00  0.00     0.163 C 
HETATM   21  C15 UNL     1       2.435   1.437   1.504  1.00  0.00     0.037 C 
BRANCH  20  22
HETATM   22  N1  UNL     1       2.955  -0.768   0.807  1.00  0.00    -0.114 NA
BRANCH  22  23
HETATM   23  N2  UNL     1       4.143  -0.236   0.312  1.00  0.00    -0.028 NA
BRANCH  23  24
HETATM   24  N3  UNL     1       4.678  -0.961  -0.726  1.00  0.00    -0.261 N 
HETATM   25  C16 UNL     1       6.054  -0.844  -1.028  1.00  0.00     0.198 C 
HETATM   26  N4  UNL     1       6.772   0.161  -0.647  1.00  0.00    -0.373 N 
HETATM   27  N5  UNL     1       6.698  -1.869  -1.785  1.00  0.00    -0.063 NA
ATOM     28  H42 UNL     1       6.312   0.893  -0.106  1.00  0.00     0.158 HD
ATOM     29  H41 UNL     1       7.765   0.245  -0.865  1.00  0.00     0.158 HD
ATOM     30  H3  UNL     1       4.084  -1.581  -1.276  1.00  0.00     0.186 HD
ENDBRANCH  23  24
ENDBRANCH  22  23
ENDBRANCH  20  22
ENDBRANCH  18  20
ENDBRANCH   1  18
TORSDOF 12
