REMARK  15 active torsions:
REMARK  status: ('A' for Active; 'I' for Inactive)
REMARK    1  A    between atoms: C2_2  and  C3_3 
REMARK    2  A    between atoms: C3_3  and  C4_4 
REMARK    3  A    between atoms: C4_4  and  O1_5 
REMARK    4  A    between atoms: C4_4  and  C5_7 
REMARK    5  A    between atoms: C5_7  and  N1_8 
REMARK    6  A    between atoms: C5_7  and  C6_12 
REMARK    7  A    between atoms: C6_12  and  O2_13 
REMARK    8  A    between atoms: C6_12  and  C7_15 
REMARK       I    between atoms: C7_15  and  N2_17 
REMARK    9  A    between atoms: N2_17  and  C8_19 
REMARK   10  A    between atoms: C8_19  and  C9_20 
REMARK   11  A    between atoms: C8_19  and  C13_24 
REMARK   12  A    between atoms: C9_20  and  C10_21 
REMARK   13  A    between atoms: C13_24  and  N4_29 
REMARK   14  A    between atoms: N3_25  and  O4_27 
REMARK   15  A    between atoms: N4_29  and  C14_31 
ROOT
HETATM    1  C7  UNL     1       1.400  -0.011  -0.900  1.00  0.00     0.249 C 
HETATM    2  O3  UNL     1       1.566   1.105  -0.316  1.00  0.00    -0.271 OA
HETATM    3  N2  UNL     1       0.182  -0.748  -0.597  1.00  0.00    -0.347 N 
ATOM      4  H2  UNL     1       0.004  -1.644  -1.051  1.00  0.00     0.163 HD
ENDROOT
BRANCH   3   5
HETATM    5  C8  UNL     1      -0.772  -0.217   0.340  1.00  0.00     0.154 C 
BRANCH   5   6
HETATM    6  C9  UNL     1      -1.240  -1.158   1.392  1.00  0.00     0.037 C 
BRANCH   6   7
HETATM    7  C10 UNL     1      -0.240  -1.730   2.322  1.00  0.00    -0.020 C 
HETATM    8  C11 UNL     1       0.834  -2.555   1.666  1.00  0.00     0.009 C 
HETATM    9  C12 UNL     1      -0.980  -2.677   3.286  1.00  0.00     0.009 C 
ENDBRANCH   6   7
ENDBRANCH   5   6
BRANCH   5  10
HETATM   10  C13 UNL     1      -1.970   0.298  -0.361  1.00  0.00     0.120 C 
HETATM   11  N3  UNL     1      -2.157   0.091  -1.588  1.00  0.00    -0.255 N 
ATOM     12  H3  UNL     1      -3.024   0.512  -1.921  1.00  0.00     0.195 HD
BRANCH  11  13
HETATM   13  O4  UNL     1      -1.509  -0.535  -2.548  1.00  0.00    -0.288 OA
ATOM     14  H4  UNL     1      -1.650  -0.691  -3.474  1.00  0.00     0.244 HD
ENDBRANCH  11  13
BRANCH  10  15
HETATM   15  N4  UNL     1      -2.942   1.055   0.404  1.00  0.00    -0.372 N 
ATOM     16  H4  UNL     1      -2.863   1.080   1.421  1.00  0.00     0.161 HD
BRANCH  15  17
HETATM   17  C14 UNL     1      -4.009   1.767  -0.229  1.00  0.00     0.083 C 
HETATM   18  C15 UNL     1      -3.551   2.849  -1.173  1.00  0.00     0.025 C 
HETATM   19  C16 UNL     1      -4.690   3.312  -2.036  1.00  0.00     0.002 C 
HETATM   20  C17 UNL     1      -6.034   3.083  -1.359  1.00  0.00     0.000 C 
HETATM   21  C18 UNL     1      -6.276   1.629  -1.103  1.00  0.00     0.002 C 
HETATM   22  C19 UNL     1      -4.952   0.859  -1.010  1.00  0.00     0.025 C 
ENDBRANCH  15  17
ENDBRANCH  10  15
ENDBRANCH   5  10
ENDBRANCH   3   5
BRANCH   1  23
HETATM   23  C6  UNL     1       2.351  -0.580  -1.837  1.00  0.00     0.242 C 
BRANCH  23  24
HETATM   24  C5  UNL     1       3.533  -1.355  -1.236  1.00  0.00     0.249 C 
BRANCH  24  25
HETATM   25  C4  UNL     1       4.627  -0.481  -0.693  1.00  0.00     0.151 C 
BRANCH  25  26
HETATM   26  C3  UNL     1       4.503  -0.203   0.805  1.00  0.00     0.034 C 
BRANCH  26  27
HETATM   27  C2  UNL     1       5.801   0.537   1.166  1.00  0.00    -0.002 C 
HETATM   28  C1  UNL     1       5.846   0.893   2.621  1.00  0.00     0.005 C 
ENDBRANCH  26  27
ENDBRANCH  25  26
BRANCH  25  29
HETATM   29  O1  UNL     1       5.844  -1.290  -0.679  1.00  0.00    -0.393 OA
ATOM     30  H1  UNL     1       5.921  -1.463  -1.610  1.00  0.00     0.210 HD
ENDBRANCH  25  29
ENDBRANCH  24  25
BRANCH  24  31
HETATM   31  N1  UNL     1       4.160  -1.860  -2.534  1.00  0.00    -0.070 N 
ATOM     32  H13 UNL     1       4.491  -1.133  -3.168  1.00  0.00     0.275 HD
ATOM     33  H12 UNL     1       5.068  -2.314  -2.431  1.00  0.00     0.275 HD
ATOM     34  H11 UNL     1       3.417  -2.454  -2.903  1.00  0.00     0.275 HD
ENDBRANCH  24  31
ENDBRANCH  23  24
BRANCH  23  35
HETATM   35  O2  UNL     1       1.639  -1.601  -2.564  1.00  0.00    -0.384 OA
ATOM     36  H2  UNL     1       0.908  -1.122  -2.936  1.00  0.00     0.210 HD
ENDBRANCH  23  35
ENDBRANCH   1  23
TORSDOF 15
