REMARK  16 active torsions:
REMARK  status: ('A' for Active; 'I' for Inactive)
REMARK    1  A    between atoms: C2_2  and  C12_12 
REMARK    2  A    between atoms: C3_3  and  C4_4 
REMARK    3  A    between atoms: C5_5  and  C6_6 
REMARK    4  A    between atoms: C6_6  and  C8_8 
REMARK    5  A    between atoms: C8_8  and  C9_9 
REMARK    6  A    between atoms: C12_12  and  C14_14 
REMARK    7  A    between atoms: C14_14  and  O1_15 
REMARK    8  A    between atoms: C14_14  and  C15_17 
REMARK    9  A    between atoms: C15_17  and  O2_18 
REMARK   10  A    between atoms: C15_17  and  C16_20 
REMARK   11  A    between atoms: C16_20  and  O3_21 
REMARK   12  A    between atoms: C16_20  and  C17_23 
REMARK   13  A    between atoms: C17_23  and  C18_24 
REMARK   14  A    between atoms: C18_24  and  O4_25 
REMARK   15  A    between atoms: C20_28  and  O5_29 
REMARK   16  A    between atoms: C21_32  and  O7_33 
ROOT
HETATM    1  C15 UNL     1      -2.972   1.078   0.021  1.00  0.00     0.177 C 
ENDROOT
BRANCH   1   2
HETATM    2  C14 UNL     1      -1.488   0.845   0.189  1.00  0.00     0.157 C 
BRANCH   2   3
HETATM    3  C12 UNL     1      -1.123  -0.256   1.122  1.00  0.00     0.041 C 
HETATM    4  C13 UNL     1      -1.584   0.028   2.544  1.00  0.00     0.017 C 
BRANCH   3   5
HETATM    5  C2  UNL     1       0.346  -0.421   1.196  1.00  0.00    -0.077 C 
HETATM    6  C1  UNL     1       0.887  -1.458   2.167  1.00  0.00     0.044 C 
HETATM    7  C3  UNL     1       1.217   0.254   0.516  1.00  0.00     0.003 C 
BRANCH   7   8
HETATM    8  C4  UNL     1       2.638   0.017   0.689  1.00  0.00    -0.003 C 
HETATM    9  C5  UNL     1       3.561   0.671   0.027  1.00  0.00    -0.022 C 
BRANCH   9  10
HETATM   10  C6  UNL     1       5.020   0.483   0.153  1.00  0.00     0.004 C 
HETATM   11  C7  UNL     1       5.345  -0.519   1.226  1.00  0.00     0.014 C 
BRANCH  10  12
HETATM   12  C8  UNL     1       5.644   0.063  -1.155  1.00  0.00     0.012 C 
BRANCH  12  13
HETATM   13  C9  UNL     1       7.128  -0.112  -0.984  1.00  0.00    -0.022 C 
HETATM   14  C10 UNL     1       7.782  -0.538  -2.300  1.00  0.00     0.009 C 
HETATM   15  C11 UNL     1       7.737   1.205  -0.552  1.00  0.00     0.009 C 
ENDBRANCH  12  13
ENDBRANCH  10  12
ENDBRANCH   9  10
ENDBRANCH   7   8
ENDBRANCH   3   5
ENDBRANCH   2   3
BRANCH   2  16
HETATM   16  O1  UNL     1      -0.945   2.046   0.705  1.00  0.00    -0.392 OA
ATOM     17  H1  UNL     1      -1.178   2.749   0.110  1.00  0.00     0.210 HD
ENDBRANCH   2  16
ENDBRANCH   1   2
BRANCH   1  18
HETATM   18  O2  UNL     1      -3.069   2.164  -0.863  1.00  0.00    -0.390 OA
ATOM     19  H2  UNL     1      -4.002   2.310  -0.969  1.00  0.00     0.210 HD
ENDBRANCH   1  18
BRANCH   1  20
HETATM   20  C16 UNL     1      -3.671  -0.139  -0.540  1.00  0.00     0.165 C 
BRANCH  20  21
HETATM   21  O3  UNL     1      -3.058  -0.534  -1.756  1.00  0.00    -0.392 OA
ATOM     22  H3  UNL     1      -3.497  -1.299  -2.109  1.00  0.00     0.210 HD
ENDBRANCH  20  21
BRANCH  20  23
HETATM   23  C17 UNL     1      -5.134  -0.021  -0.669  1.00  0.00     0.063 C 
HETATM   24  C19 UNL     1      -5.650  -1.363  -1.205  1.00  0.00     0.080 C 
HETATM   25  C20 UNL     1      -6.343  -1.927   0.009  1.00  0.00     0.261 C 
HETATM   26  O6  UNL     1      -6.938  -0.791   0.558  1.00  0.00    -0.331 OA
HETATM   27  C21 UNL     1      -5.802   0.036   0.676  1.00  0.00     0.273 C 
BRANCH  23  28
HETATM   28  C18 UNL     1      -5.653   1.069  -1.539  1.00  0.00     0.181 C 
BRANCH  28  29
HETATM   29  O4  UNL     1      -5.260   1.022  -2.847  1.00  0.00    -0.400 OA
ATOM     30  H4  UNL     1      -5.591   1.718  -3.402  1.00  0.00     0.209 HD
ENDBRANCH  28  29
ENDBRANCH  23  28
BRANCH  25  31
HETATM   31  O5  UNL     1      -7.266  -2.912  -0.296  1.00  0.00    -0.371 OA
ATOM     32  H5  UNL     1      -7.703  -3.267   0.469  1.00  0.00     0.212 HD
ENDBRANCH  25  31
BRANCH  27  33
HETATM   33  O7  UNL     1      -5.042  -0.551   1.684  1.00  0.00    -0.370 OA
ATOM     34  H7  UNL     1      -5.464  -0.515   2.534  1.00  0.00     0.212 HD
ENDBRANCH  27  33
ENDBRANCH  20  23
ENDBRANCH   1  20
TORSDOF 16
