REMARK  7 active torsions:
REMARK  status: ('A' for Active; 'I' for Inactive)
REMARK    1  A    between atoms: C2_2  and  C3_3 
REMARK    2  A    between atoms: C3_3  and  N1_4 
REMARK       I    between atoms: N1_4  and  C4_6 
REMARK       I    between atoms: C4_6  and  N2_8 
REMARK    3  A    between atoms: N2_8  and  C5_9 
REMARK    4  A    between atoms: N2_8  and  C14_20 
REMARK    5  A    between atoms: C5_9  and  C6_10 
REMARK    6  A    between atoms: C9_13  and  C10_14 
REMARK    7  A    between atoms: C10_14  and  C11_15 
ROOT
HETATM    1  N1  UNL     1      -2.693  -1.244   0.507  1.00  0.00    -0.343 N 
ATOM      2  H1  UNL     1      -1.905  -1.633   1.025  1.00  0.00     0.164 HD
HETATM    3  C4  UNL     1      -2.569   0.044  -0.067  1.00  0.00     0.318 C 
HETATM    4  O1  UNL     1      -3.532   0.504  -0.697  1.00  0.00    -0.247 OA
HETATM    5  N2  UNL     1      -1.380   0.825   0.050  1.00  0.00    -0.328 N 
ENDROOT
BRANCH   5   6
HETATM    6  C5  UNL     1      -0.284   0.312   0.835  1.00  0.00     0.132 C 
BRANCH   6   7
HETATM    7  C6  UNL     1       0.697  -0.567   0.159  1.00  0.00     0.004 C 
HETATM    8  C7  UNL     1       1.718  -0.952   1.244  1.00  0.00     0.006 C 
HETATM    9  C8  UNL     1       2.889  -0.004   1.139  1.00  0.00     0.005 C 
HETATM   10  C9  UNL     1       3.706  -0.234  -0.103  1.00  0.00    -0.006 C 
HETATM   11  C12 UNL     1       2.792  -0.641  -1.218  1.00  0.00     0.005 C 
HETATM   12  C13 UNL     1       1.471   0.069  -0.962  1.00  0.00     0.006 C 
BRANCH  10  13
HETATM   13  C10 UNL     1       4.780  -1.263   0.168  1.00  0.00     0.104 C 
BRANCH  13  14
HETATM   14  C11 UNL     1       5.672  -0.795   1.232  1.00  0.00     0.231 C 
HETATM   15  N3  UNL     1       5.953  -1.557   2.389  1.00  0.00    -0.062 NA
HETATM   16  O2  UNL     1       6.221   0.344   1.116  1.00  0.00    -0.277 OA
ENDBRANCH  13  14
ENDBRANCH  10  13
ENDBRANCH   6   7
ENDBRANCH   5   6
BRANCH   5  17
HETATM   17  C14 UNL     1      -1.228   2.113  -0.555  1.00  0.00     0.098 C 
HETATM   18  C15 UNL     1      -1.398   2.192  -2.019  1.00  0.00     0.027 C 
HETATM   19  C16 UNL     1      -1.766   3.549  -2.539  1.00  0.00     0.012 C 
HETATM   20  C17 UNL     1      -0.963   4.688  -1.987  1.00  0.00     0.074 C 
HETATM   21  S1  UNL     1      -1.373   4.751  -0.193  1.00  0.00    -0.167 SA
HETATM   22  C18 UNL     1      -2.179   3.133   0.108  1.00  0.00     0.099 C 
ENDBRANCH   5  17
BRANCH   1  23
HETATM   23  C3  UNL     1      -3.903  -2.024   0.381  1.00  0.00     0.124 C 
BRANCH  23  24
HETATM   24  C2  UNL     1      -3.788  -3.359   1.066  1.00  0.00     0.015 C 
HETATM   25  C1  UNL     1      -5.081  -4.136   0.917  1.00  0.00     0.006 C 
ENDBRANCH  23  24
ENDBRANCH   1  23
TORSDOF 7
