REMARK  7 active torsions:
REMARK  status: ('A' for Active; 'I' for Inactive)
REMARK    1  A    between atoms: N1_2  and  C2_5 
REMARK    2  A    between atoms: C2_5  and  C3_6 
REMARK    3  A    between atoms: C3_6  and  C4_7 
REMARK    4  A    between atoms: C4_7  and  N2_8 
REMARK       I    between atoms: N2_8  and  C5_10 
REMARK    5  A    between atoms: C5_10  and  C6_12 
REMARK    6  A    between atoms: C6_12  and  C7_13 
REMARK    7  A    between atoms: C6_12  and  N3_18 
ROOT
HETATM    1  C6  UNL     1       0.280  -1.612  -0.091  1.00  0.00     0.318 C 
ENDROOT
BRANCH   1   2
HETATM    2  C5  UNL     1       1.575  -0.870  -0.462  1.00  0.00     0.251 C 
HETATM    3  N2  UNL     1       2.734  -1.203   0.241  1.00  0.00    -0.359 N 
ATOM      4  H2  UNL     1       2.672  -1.918   0.965  1.00  0.00     0.162 HD
HETATM    5  O1  UNL     1       1.542  -0.017  -1.354  1.00  0.00    -0.271 OA
BRANCH   3   6
HETATM    6  C4  UNL     1       4.025  -0.582  -0.007  1.00  0.00     0.124 C 
BRANCH   6   7
HETATM    7  C3  UNL     1       3.984   0.903   0.242  1.00  0.00     0.047 C 
BRANCH   7   8
HETATM    8  C2  UNL     1       5.386   1.431  -0.042  1.00  0.00     0.233 C 
BRANCH   8   9
HETATM    9  N1  UNL     1       5.493   2.845   0.157  1.00  0.00    -0.079 N 
HETATM   10  C1  UNL     1       5.362   3.200   1.563  1.00  0.00     0.266 C 
ATOM     11  H12 UNL     1       4.823   3.354  -0.420  1.00  0.00     0.276 HD
ATOM     12  H11 UNL     1       6.357   3.213  -0.241  1.00  0.00     0.276 HD
ENDBRANCH   8   9
ENDBRANCH   7   8
ENDBRANCH   6   7
ENDBRANCH   3   6
ENDBRANCH   1   2
BRANCH   1  13
HETATM   13  C7  UNL     1       0.257  -2.719  -1.074  1.00  0.00     0.028 C 
HETATM   14  C8  UNL     1       1.523  -3.573  -0.913  1.00  0.00     0.007 C 
HETATM   15  C9  UNL     1       1.220  -4.836  -1.706  1.00  0.00     0.000 C 
HETATM   16  C10 UNL     1      -0.282  -4.937  -1.813  1.00  0.00     0.000 C 
HETATM   17  C11 UNL     1      -0.846  -3.705  -1.080  1.00  0.00     0.007 C 
ENDBRANCH   1  13
BRANCH   1  18
HETATM   18  N3  UNL     1      -0.793  -0.623  -0.235  1.00  0.00     0.102 N 
HETATM   19  C12 UNL     1      -0.462   0.525   0.647  1.00  0.00     0.274 C 
HETATM   20  C13 UNL     1      -1.636   1.151   1.300  1.00  0.00     0.040 C 
HETATM   21  C14 UNL     1      -2.893   1.195   0.500  1.00  0.00    -0.037 C 
HETATM   22  C15 UNL     1      -2.818   2.328  -0.503  1.00  0.00     0.010 C 
HETATM   23  C19 UNL     1      -4.043   1.452   1.477  1.00  0.00     0.010 C 
HETATM   24  C20 UNL     1      -3.151  -0.110  -0.171  1.00  0.00     0.040 C 
HETATM   25  C16 UNL     1      -4.199   2.724  -0.988  1.00  0.00     0.001 C 
HETATM   26  C17 UNL     1      -4.936   3.383   0.144  1.00  0.00     0.000 C 
HETATM   27  C18 UNL     1      -4.422   2.918   1.483  1.00  0.00     0.001 C 
HETATM   28  C21 UNL     1      -2.051  -1.091   0.299  1.00  0.00     0.274 C 
ENDBRANCH   1  18
TORSDOF 7
