REMARK  8 active torsions:
REMARK  status: ('A' for Active; 'I' for Inactive)
REMARK    1  A    between atoms: C2_2  and  C3_3 
REMARK    2  A    between atoms: C3_3  and  N1_4 
REMARK    3  A    between atoms: C10_11  and  C11_12 
REMARK    4  A    between atoms: C11_12  and  C12_13 
REMARK       I    between atoms: C12_13  and  N2_15 
REMARK    5  A    between atoms: N2_15  and  C13_17 
REMARK    6  A    between atoms: C13_17  and  C14_18 
REMARK    7  A    between atoms: C14_18  and  C15_19 
REMARK    8  A    between atoms: C15_19  and  C16_20 
ROOT
HETATM    1  C12 UNL     1       0.036  -0.228  -0.020  1.00  0.00     0.217 C 
HETATM    2  O1  UNL     1       0.176   0.158  -1.184  1.00  0.00    -0.274 OA
HETATM    3  N2  UNL     1       1.017   0.047   0.968  1.00  0.00    -0.361 N 
ATOM      4  H2  UNL     1       0.860  -0.284   1.920  1.00  0.00     0.162 HD
ENDROOT
BRANCH   1   5
HETATM    5  C11 UNL     1      -1.149  -0.984   0.376  1.00  0.00     0.108 C 
BRANCH   5   6
HETATM    6  C10 UNL     1      -2.206  -1.168  -0.680  1.00  0.00     0.001 C 
HETATM    7  C8  UNL     1      -2.747   0.129  -1.124  1.00  0.00     0.004 C 
HETATM    8  C7  UNL     1      -4.212   0.341  -0.735  1.00  0.00     0.067 C 
HETATM    9  C9  UNL     1      -2.558   0.440  -2.589  1.00  0.00     0.012 C 
HETATM   10  N1  UNL     1      -4.331  -0.232   0.590  1.00  0.00    -0.283 NA
HETATM   11  C6  UNL     1      -5.159  -0.404  -1.616  1.00  0.00     0.022 C 
HETATM   12  C4  UNL     1      -4.512  -1.609   0.276  1.00  0.00     0.063 C 
HETATM   13  C5  UNL     1      -5.420  -1.731  -0.915  1.00  0.00     0.022 C 
HETATM   14  C21 UNL     1      -3.174  -2.177  -0.135  1.00  0.00     0.025 C 
BRANCH  10  15
HETATM   15  C3  UNL     1      -5.239   0.396   1.459  1.00  0.00     0.059 C 
BRANCH  15  16
HETATM   16  C2  UNL     1      -6.609   0.612   0.982  1.00  0.00     0.001 C 
HETATM   17  C1  UNL     1      -7.157   1.817   0.864  1.00  0.00     0.012 C 
ENDBRANCH  15  16
ENDBRANCH  10  15
ENDBRANCH   5   6
ENDBRANCH   1   5
BRANCH   3  18
HETATM   18  C13 UNL     1       2.214   0.768   0.682  1.00  0.00     0.122 C 
BRANCH  18  19
HETATM   19  C14 UNL     1       3.031   0.009  -0.328  1.00  0.00     0.020 C 
BRANCH  19  20
HETATM   20  C15 UNL     1       4.305   0.753  -0.644  1.00  0.00     0.008 C 
BRANCH  20  21
HETATM   21  C16 UNL     1       5.201   0.977   0.530  1.00  0.00     0.011 C 
HETATM   22  C17 UNL     1       6.423   1.721   0.022  1.00  0.00     0.008 C 
HETATM   23  C18 UNL     1       7.691   1.037   0.458  1.00  0.00     0.028 C 
HETATM   24  C19 UNL     1       7.676  -0.371  -0.075  1.00  0.00     0.232 C 
HETATM   25  N3  UNL     1       6.538  -1.095   0.426  1.00  0.00    -0.075 N 
HETATM   26  C20 UNL     1       5.666  -0.268   1.212  1.00  0.00     0.237 C 
ATOM     27  H32 UNL     1       6.029  -1.550  -0.332  1.00  0.00     0.277 HD
ATOM     28  H31 UNL     1       6.829  -1.922   0.947  1.00  0.00     0.277 HD
ENDBRANCH  20  21
ENDBRANCH  19  20
ENDBRANCH  18  19
ENDBRANCH   3  18
TORSDOF 8
