REMARK  6 active torsions:
REMARK  status: ('A' for Active; 'I' for Inactive)
REMARK    1  A    between atoms: O1_1  and  C1_3 
REMARK    2  A    between atoms: N1_10  and  C8_11 
REMARK    3  A    between atoms: C8_11  and  C9_12 
REMARK    4  A    between atoms: C9_12  and  N2_13 
REMARK    5  A    between atoms: N2_13  and  C10_15 
REMARK    6  A    between atoms: C10_15  and  C11_16 
ROOT
HETATM    1  C1  UNL     1      -4.013  -1.124   0.887  1.00  0.00     0.126 A 
HETATM    2  C2  UNL     1      -2.783  -1.593   0.184  1.00  0.00     0.057 A 
HETATM    3  C3  UNL     1      -2.033  -0.378   0.653  1.00  0.00     0.092 A 
HETATM    4  C4  UNL     1      -3.301   0.128   1.294  1.00  0.00     0.037 A 
HETATM    5  C5  UNL     1      -3.808   1.379   0.570  1.00  0.00     0.011 C 
HETATM    6  C6  UNL     1      -2.670   2.365   0.586  1.00  0.00     0.020 C 
HETATM    7  C7  UNL     1      -1.469   1.834  -0.154  1.00  0.00     0.122 C 
HETATM    8  N1  UNL     1      -1.599   0.442  -0.408  1.00  0.00    -0.387 N 
ENDROOT
BRANCH   8   9
HETATM    9  C8  UNL     1      -0.938  -0.107  -1.488  1.00  0.00     0.077 C 
BRANCH   9  10
HETATM   10  C9  UNL     1       0.444  -0.635  -1.362  1.00  0.00     0.158 C 
BRANCH  10  11
HETATM   11  N2  UNL     1       1.378   0.389  -0.979  1.00  0.00    -0.414 N 
ATOM     12  H2  UNL     1       1.085   1.342  -0.764  1.00  0.00     0.153 HD
BRANCH  11  13
HETATM   13  C10 UNL     1       2.741  -0.020  -0.920  1.00  0.00     0.145 C 
BRANCH  13  14
HETATM   14  C11 UNL     1       3.124  -0.939   0.177  1.00  0.00     0.138 C 
HETATM   15  C12 UNL     1       4.615  -1.190   0.162  1.00  0.00     0.035 C 
HETATM   16  C13 UNL     1       5.205  -0.045   0.947  1.00  0.00     0.029 C 
HETATM   17  C14 UNL     1       3.976   0.483   1.670  1.00  0.00     0.168 C 
HETATM   18  O2  UNL     1       2.937  -0.381   1.444  1.00  0.00    -0.384 OA
ENDBRANCH  13  14
ENDBRANCH  11  13
ENDBRANCH  10  11
ENDBRANCH   9  10
ENDBRANCH   8   9
BRANCH   1  19
HETATM   19  O1  UNL     1      -4.398  -1.913   2.002  1.00  0.00    -0.395 OA
ATOM     20  H1  UNL     1      -5.181  -1.614   2.450  1.00  0.00     0.210 HD
ENDBRANCH   1  19
TORSDOF 6
