REMARK  6 active torsions:
REMARK  status: ('A' for Active; 'I' for Inactive)
REMARK    1  A    between atoms: C2_2  and  C3_3 
REMARK    2  A    between atoms: C3_3  and  C4_4 
REMARK    3  A    between atoms: C4_4  and  C5_5 
REMARK    4  A    between atoms: N1_7  and  C7_8 
REMARK    5  A    between atoms: C12_16  and  C13_17 
REMARK    6  A    between atoms: C13_17  and  O2_18 
ROOT
HETATM    1  C5  UNL     1       1.221  -0.508  -0.123  1.00  0.00     0.140 C 
HETATM    2  C6  UNL     1       0.062   0.412   0.210  1.00  0.00     0.149 C 
HETATM    3  N1  UNL     1      -1.045  -0.395   0.610  1.00  0.00    -0.395 N 
HETATM    4  C11 UNL     1      -1.081  -1.698   0.053  1.00  0.00     0.151 C 
HETATM    5  C12 UNL     1       0.144  -2.436   0.555  1.00  0.00     0.163 C 
HETATM    6  O3  UNL     1       1.195  -1.576   0.766  1.00  0.00    -0.375 OA
ENDROOT
BRANCH   3   7
HETATM    7  C7  UNL     1      -2.290   0.255   0.746  1.00  0.00     0.173 C 
HETATM    8  C8  UNL     1      -2.814   0.854  -0.557  1.00  0.00     0.054 C 
HETATM    9  C9  UNL     1      -3.992   1.671  -0.006  1.00  0.00     0.125 C 
HETATM   10  N2  UNL     1      -3.498   2.141   1.290  1.00  0.00    -0.359 N 
HETATM   11  C10 UNL     1      -2.324   1.403   1.636  1.00  0.00     0.240 C 
ATOM     12  H2  UNL     1      -3.923   2.876   1.855  1.00  0.00     0.162 HD
HETATM   13  O1  UNL     1      -1.559   1.788   2.554  1.00  0.00    -0.271 OA
ENDBRANCH   3   7
BRANCH   1  14
HETATM   14  C4  UNL     1       2.500   0.285   0.175  1.00  0.00     0.037 C 
BRANCH  14  15
HETATM   15  C3  UNL     1       2.580   1.526  -0.646  1.00  0.00     0.029 C 
BRANCH  15  16
HETATM   16  C2  UNL     1       3.818   2.279  -0.342  1.00  0.00    -0.037 C 
HETATM   17  C1  UNL     1       4.663   1.844   0.544  1.00  0.00     0.007 C 
ENDBRANCH  15  16
ENDBRANCH  14  15
ENDBRANCH   1  14
BRANCH   5  18
HETATM   18  C13 UNL     1       0.462  -3.528  -0.441  1.00  0.00     0.197 C 
BRANCH  18  19
HETATM   19  O2  UNL     1      -0.648  -4.347  -0.594  1.00  0.00    -0.398 OA
ATOM     20  H2  UNL     1      -0.448  -5.033  -1.220  1.00  0.00     0.209 HD
ENDBRANCH  18  19
ENDBRANCH   5  18
TORSDOF 6
