REMARK  6 active torsions:
REMARK  status: ('A' for Active; 'I' for Inactive)
REMARK    1  A    between atoms: C1_1  and  C2_2 
REMARK    2  A    between atoms: C1_1  and  C8_16 
REMARK    3  A    between atoms: C2_2  and  N1_3 
REMARK    4  A    between atoms: N1_3  and  C3_5 
REMARK    5  A    between atoms: C4_8  and  C5_9 
REMARK    6  A    between atoms: C8_16  and  N5_17 
ROOT
HETATM    1  C3  UNL     1       2.077   0.073  -0.007  1.00  0.00     0.694 A 
HETATM    2  N2  UNL     1       2.863  -0.790   0.668  1.00  0.00    -0.178 N 
ATOM      3  H2  UNL     1       2.525  -1.545   1.264  1.00  0.00     0.185 HD
HETATM    4  C4  UNL     1       4.153  -0.509   0.440  1.00  0.00     0.116 A 
HETATM    5  N3  UNL     1       4.168   0.546  -0.391  1.00  0.00    -0.274 N 
ATOM      6  H3  UNL     1       5.003   1.004  -0.756  1.00  0.00     0.189 HD
HETATM    7  N4  UNL     1       2.915   0.894  -0.659  1.00  0.00    -0.131 N 
ATOM      8  H4  UNL     1       2.633   1.664  -1.265  1.00  0.00     0.205 HD
ENDROOT
BRANCH   1   9
HETATM    9  N1  UNL     1       0.772   0.072  -0.000  1.00  0.00    -0.225 N 
ATOM     10  H1  UNL     1       0.249  -0.615   0.543  1.00  0.00     0.177 HD
BRANCH   9  11
HETATM   11  C2  UNL     1       0.092   1.074  -0.786  1.00  0.00     0.140 C 
BRANCH  11  12
HETATM   12  C1  UNL     1      -1.315   1.269  -0.206  1.00  0.00     0.050 C 
BRANCH  12  13
HETATM   13  C8  UNL     1      -2.001  -0.068  -0.302  1.00  0.00     0.274 C 
BRANCH  13  14
HETATM   14  N5  UNL     1      -3.347  -0.050   0.209  1.00  0.00     0.092 N 
HETATM   15  C9  UNL     1      -3.892  -1.377   0.063  1.00  0.00     0.298 C 
HETATM   16  C10 UNL     1      -5.372  -1.436   0.339  1.00  0.00     0.198 C 
HETATM   17  O1  UNL     1      -6.084  -0.468  -0.343  1.00  0.00    -0.388 OA
HETATM   18  C11 UNL     1      -5.605   0.806  -0.193  1.00  0.00     0.198 C 
HETATM   19  C12 UNL     1      -4.135   0.954  -0.475  1.00  0.00     0.298 C 
ENDBRANCH  13  14
ENDBRANCH  12  13
ENDBRANCH  11  12
ENDBRANCH   9  11
ENDBRANCH   1   9
BRANCH   4  20
HETATM   20  C5  UNL     1       5.348  -1.229   1.001  1.00  0.00     0.055 A 
HETATM   21  C6  UNL     1       6.652  -1.111   0.239  1.00  0.00     0.013 A 
HETATM   22  C7  UNL     1       6.488  -0.275   1.476  1.00  0.00     0.013 A 
ENDBRANCH   4  20
TORSDOF 6
