REMARK  6 active torsions:
REMARK  status: ('A' for Active; 'I' for Inactive)
REMARK    1  A    between atoms: N1_2  and  C2_5 
REMARK    2  A    between atoms: C2_5  and  C3_6 
REMARK    3  A    between atoms: C7_10  and  N2_11 
REMARK    4  A    between atoms: N3_15  and  C11_16 
REMARK    5  A    between atoms: C11_16  and  C12_17 
REMARK    6  A    between atoms: C12_17  and  O1_18 
ROOT
HETATM    1  N2  UNL     1      -0.185  -0.250  -0.360  1.00  0.00     0.095 N 
HETATM    2  C8  UNL     1      -0.008   0.874   0.480  1.00  0.00     0.275 C 
HETATM    3  C9  UNL     1       1.282   1.625   0.254  1.00  0.00     0.060 C 
HETATM    4  C10 UNL     1       2.447   0.913   0.923  1.00  0.00     0.274 C 
HETATM    5  N3  UNL     1       3.069  -0.034   0.056  1.00  0.00     0.092 N 
HETATM    6  C13 UNL     1       2.191  -0.502  -1.015  1.00  0.00     0.302 C 
HETATM    7  C14 UNL     1       0.964  -1.125  -0.454  1.00  0.00     0.303 C 
ENDROOT
BRANCH   1   8
HETATM    8  C7  UNL     1      -1.286  -1.068   0.028  1.00  0.00     0.228 C 
HETATM    9  C3  UNL     1      -2.621  -0.364  -0.017  1.00  0.00     0.045 C 
HETATM   10  C4  UNL     1      -3.516  -1.467   0.518  1.00  0.00     0.008 C 
HETATM   11  C5  UNL     1      -2.729  -1.897   1.750  1.00  0.00     0.003 C 
HETATM   12  C6  UNL     1      -1.256  -1.624   1.409  1.00  0.00     0.036 C 
BRANCH   9  13
HETATM   13  C2  UNL     1      -2.992   0.029  -1.420  1.00  0.00     0.238 C 
BRANCH  13  14
HETATM   14  N1  UNL     1      -4.355   0.505  -1.445  1.00  0.00    -0.079 N 
HETATM   15  C1  UNL     1      -4.404   1.763  -0.725  1.00  0.00     0.267 C 
ATOM     16  H12 UNL     1      -5.019  -0.181  -1.086  1.00  0.00     0.276 HD
ATOM     17  H11 UNL     1      -4.730   0.577  -2.391  1.00  0.00     0.276 HD
ENDBRANCH  13  14
ENDBRANCH   9  13
ENDBRANCH   1   8
BRANCH   5  18
HETATM   18  C11 UNL     1       4.313   0.391  -0.499  1.00  0.00     0.298 C 
BRANCH  18  19
HETATM   19  C12 UNL     1       5.420   0.514   0.498  1.00  0.00     0.194 C 
BRANCH  19  20
HETATM   20  O1  UNL     1       6.572   0.939  -0.192  1.00  0.00    -0.399 OA
ATOM     21  H1  UNL     1       7.276   1.017   0.442  1.00  0.00     0.209 HD
ENDBRANCH  19  20
ENDBRANCH  18  19
ENDBRANCH   5  18
TORSDOF 6
