REMARK  7 active torsions:
REMARK  status: ('A' for Active; 'I' for Inactive)
REMARK    1  A    between atoms: C5_5  and  C6_6 
REMARK    2  A    between atoms: C6_6  and  C7_7 
REMARK    3  A    between atoms: C7_7  and  N1_8 
REMARK    4  A    between atoms: C10_11  and  O1_12 
REMARK    5  A    between atoms: N2_16  and  C13_17 
REMARK    6  A    between atoms: C13_17  and  C14_18 
REMARK    7  A    between atoms: C14_18  and  O2_19 
ROOT
HETATM    1  C1  UNL     1       3.736  -1.484  -1.392  1.00  0.00     0.032 C 
HETATM    2  C2  UNL     1       3.022  -1.002  -0.144  1.00  0.00     0.075 C 
HETATM    3  C3  UNL     1       1.996  -2.057   0.213  1.00  0.00     0.025 C 
HETATM    4  C4  UNL     1       0.929  -2.017  -0.863  1.00  0.00     0.008 C 
HETATM    5  C5  UNL     1       0.130  -0.745  -0.638  1.00  0.00     0.005 C 
HETATM    6  C12 UNL     1       1.006   0.315   0.013  1.00  0.00     0.122 C 
HETATM    7  N2  UNL     1       2.350   0.208  -0.460  1.00  0.00    -0.406 N 
ENDROOT
BRANCH   5   8
HETATM    8  C6  UNL     1      -0.931  -1.102   0.412  1.00  0.00     0.036 C 
BRANCH   8   9
HETATM    9  C7  UNL     1      -1.731   0.139   0.651  1.00  0.00     0.273 C 
BRANCH   9  10
HETATM   10  N1  UNL     1      -2.377   0.609  -0.540  1.00  0.00     0.091 N 
HETATM   11  C8  UNL     1      -3.115   1.816  -0.193  1.00  0.00     0.275 C 
HETATM   12  C9  UNL     1      -4.196   1.266   0.715  1.00  0.00     0.064 C 
HETATM   13  C10 UNL     1      -4.396  -0.162   0.300  1.00  0.00     0.148 C 
HETATM   14  C11 UNL     1      -3.492  -0.273  -0.911  1.00  0.00     0.303 C 
BRANCH  13  15
HETATM   15  O1  UNL     1      -5.746  -0.331  -0.060  1.00  0.00    -0.394 OA
ATOM     16  H1  UNL     1      -5.873  -1.235  -0.323  1.00  0.00     0.210 HD
ENDBRANCH  13  15
ENDBRANCH   9  10
ENDBRANCH   8   9
ENDBRANCH   5   8
BRANCH   7  17
HETATM   17  C13 UNL     1       3.126   1.397  -0.366  1.00  0.00     0.143 C 
BRANCH  17  18
HETATM   18  C14 UNL     1       3.526   1.768   1.033  1.00  0.00     0.183 C 
BRANCH  18  19
HETATM   19  O2  UNL     1       4.279   2.940   1.035  1.00  0.00    -0.399 OA
ATOM     20  H2  UNL     1       4.532   3.175   1.920  1.00  0.00     0.209 HD
ENDBRANCH  18  19
ENDBRANCH  17  18
ENDBRANCH   7  17
TORSDOF 7
