REMARK  7 active torsions:
REMARK  status: ('A' for Active; 'I' for Inactive)
REMARK    1  A    between atoms: C2_2  and  N1_3 
REMARK    2  A    between atoms: N1_3  and  C3_5 
REMARK    3  A    between atoms: C4_8  and  N3_9 
REMARK    4  A    between atoms: N3_9  and  C5_11 
REMARK    5  A    between atoms: C5_11  and  N4_13 
REMARK    6  A    between atoms: N4_13  and  C6_15 
REMARK    7  A    between atoms: C6_15  and  C7_16 
ROOT
HETATM    1  C3  UNL     1       3.191  -0.540  -0.585  1.00  0.00     0.695 C 
HETATM    2  N2  UNL     1       2.120   0.151  -0.138  1.00  0.00    -0.022 N 
ATOM      3  H2  UNL     1       2.193   1.166  -0.214  1.00  0.00     0.203 HD
HETATM    4  C4  UNL     1       0.971  -0.305   0.393  1.00  0.00     0.702 C 
HETATM    5  N5  UNL     1       0.516  -1.563   0.355  1.00  0.00    -0.151 N 
ATOM      6  H5  UNL     1      -0.361  -1.727   0.849  1.00  0.00     0.188 HD
HETATM    7  C10 UNL     1       1.062  -2.660  -0.253  1.00  0.00     0.328 C 
HETATM    8  O1  UNL     1       0.443  -3.739  -0.122  1.00  0.00    -0.261 OA
HETATM    9  C11 UNL     1       2.220  -2.714  -0.997  1.00  0.00     0.328 C 
HETATM   10  O2  UNL     1       2.421  -3.734  -1.703  1.00  0.00    -0.261 OA
HETATM   11  N6  UNL     1       3.202  -1.803  -1.079  1.00  0.00    -0.151 N 
ATOM     12  H6  UNL     1       4.050  -2.092  -1.567  1.00  0.00     0.188 HD
ENDROOT
BRANCH   4  13
HETATM   13  N3  UNL     1       0.269   0.583   0.984  1.00  0.00    -0.166 N 
ATOM     14  H3  UNL     1       0.620   1.540   1.009  1.00  0.00     0.186 HD
BRANCH  13  15
HETATM   15  C5  UNL     1      -0.981   0.305   1.611  1.00  0.00     0.186 C 
HETATM   16  S1  UNL     1      -1.070  -0.166   3.169  1.00  0.00    -0.040 SA
BRANCH  15  17
HETATM   17  N4  UNL     1      -2.163   0.445   0.853  1.00  0.00    -0.366 N 
ATOM     18  H4  UNL     1      -2.125   0.738  -0.123  1.00  0.00     0.161 HD
BRANCH  17  19
HETATM   19  C6  UNL     1      -3.425   0.164   1.491  1.00  0.00     0.126 C 
BRANCH  19  20
HETATM   20  C7  UNL     1      -4.603   0.349   0.582  1.00  0.00    -0.005 C 
HETATM   21  C8  UNL     1      -4.419  -0.613  -0.597  1.00  0.00     0.011 C 
HETATM   22  C9  UNL     1      -4.735   1.717   0.017  1.00  0.00     0.011 C 
ENDBRANCH  19  20
ENDBRANCH  17  19
ENDBRANCH  15  17
ENDBRANCH  13  15
ENDBRANCH   4  13
BRANCH   1  23
HETATM   23  N1  UNL     1       4.320   0.064  -0.536  1.00  0.00    -0.226 N 
ATOM     24  H1  UNL     1       5.168  -0.401  -0.859  1.00  0.00     0.177 HD
BRANCH  23  25
HETATM   25  C2  UNL     1       4.377   1.408  -0.020  1.00  0.00     0.133 C 
HETATM   26  C1  UNL     1       5.867   1.712   0.191  1.00  0.00     0.027 C 
ENDBRANCH  23  25
ENDBRANCH   1  23
TORSDOF 7
