REMARK  5 active torsions:
REMARK  status: ('A' for Active; 'I' for Inactive)
REMARK    1  A    between atoms: C2_2  and  N1_3 
REMARK       I    between atoms: C3_5  and  N3_7 
REMARK       I    between atoms: C4_9  and  N5_11 
REMARK    2  A    between atoms: N5_11  and  N6_13 
REMARK    3  A    between atoms: N6_13  and  C5_15 
REMARK    4  A    between atoms: C5_15  and  C6_17 
REMARK    5  A    between atoms: C6_17  and  C7_18 
ROOT
HETATM    1  N6  UNL     1      -0.294  -1.118   0.325  1.00  0.00    -0.291 N 
ATOM      2  H6  UNL     1      -0.387  -0.653  -0.578  1.00  0.00     0.187 HD
ENDROOT
BRANCH   1   3
HETATM    3  N5  UNL     1       0.923  -1.040   0.998  1.00  0.00    -0.273 N 
HETATM    4  C4  UNL     1       2.149  -0.743   0.342  1.00  0.00     0.209 C 
HETATM    5  N3  UNL     1       2.931   0.154   0.846  1.00  0.00    -0.304 N 
HETATM    6  N4  UNL     1       2.451  -1.459  -0.850  1.00  0.00    -0.062 NA
HETATM    7  C3  UNL     1       4.144   0.436   0.181  1.00  0.00     0.190 C 
ATOM      8  H3  UNL     1       2.678   0.646   1.703  1.00  0.00     0.171 HD
HETATM    9  N1  UNL     1       5.240   0.077   0.689  1.00  0.00    -0.365 N 
HETATM   10  N2  UNL     1       4.110   1.117  -1.049  1.00  0.00    -0.063 NA
ATOM     11  H1  UNL     1       5.193  -0.414   1.582  1.00  0.00     0.162 HD
ATOM     12  H5  UNL     1       0.935  -1.203   2.005  1.00  0.00     0.189 HD
BRANCH   9  13
HETATM   13  C2  UNL     1       6.550   0.290   0.136  1.00  0.00     0.118 C 
HETATM   14  C1  UNL     1       6.883   1.749  -0.046  1.00  0.00     0.026 C 
ENDBRANCH   9  13
ENDBRANCH   1   3
BRANCH   1  15
HETATM   15  C5  UNL     1      -1.402  -1.817   0.848  1.00  0.00     0.095 C 
HETATM   16  S1  UNL     1      -1.174  -2.534   2.302  1.00  0.00    -0.064 SA
BRANCH  15  17
HETATM   17  C6  UNL     1      -2.702  -1.959   0.234  1.00  0.00     0.111 C 
BRANCH  17  18
HETATM   18  C7  UNL     1      -3.492  -0.757  -0.042  1.00  0.00     0.091 C 
HETATM   19  C8  UNL     1      -4.811  -1.216  -0.689  1.00  0.00     0.049 C 
HETATM   20  C9  UNL     1      -3.858   0.125   1.081  1.00  0.00     0.166 C 
HETATM   21  N7  UNL     1      -4.420   1.261   0.363  1.00  0.00    -0.329 N 
HETATM   22  C10 UNL     1      -5.468   2.138   0.799  1.00  0.00     0.155 C 
HETATM   23  C11 UNL     1      -3.691   1.297  -0.868  1.00  0.00     0.363 C 
HETATM   24  O1  UNL     1      -3.737   2.227  -1.724  1.00  0.00    -0.238 OA
HETATM   25  O2  UNL     1      -2.917   0.138  -0.977  1.00  0.00    -0.291 OA
ENDBRANCH  17  18
ENDBRANCH  15  17
ENDBRANCH   1  15
TORSDOF 5
