REMARK  8 active torsions:
REMARK  status: ('A' for Active; 'I' for Inactive)
REMARK    1  A    between atoms: C2_2  and  N1_3 
REMARK    2  A    between atoms: N1_3  and  C3_5 
REMARK    3  A    between atoms: C3_5  and  N2_7 
REMARK    4  A    between atoms: N2_7  and  C4_9 
REMARK    5  A    between atoms: C5_14  and  N5_15 
REMARK       I    between atoms: N5_15  and  C6_16 
REMARK    6  A    between atoms: C6_16  and  C7_18 
REMARK    7  A    between atoms: C7_18  and  N6_20 
REMARK    8  A    between atoms: C7_18  and  C9_24 
ROOT
HETATM    1  C4  UNL     1       2.092   0.881   0.449  1.00  0.00     0.704 A 
HETATM    2  N3  UNL     1       1.507   0.743   1.690  1.00  0.00    -0.128 N 
ATOM      3  H3  UNL     1       1.991   0.857   2.580  1.00  0.00     0.205 HD
HETATM    4  N4  UNL     1       0.249   0.446   1.560  1.00  0.00    -0.244 N 
ATOM      5  H4  UNL     1      -0.418   0.289   2.315  1.00  0.00     0.191 HD
HETATM    6  C5  UNL     1      -0.013   0.383   0.212  1.00  0.00     0.294 A 
HETATM    7  N7  UNL     1       1.160   0.660  -0.468  1.00  0.00    -0.142 N 
HETATM    8  C11 UNL     1       1.268   0.685  -1.931  1.00  0.00     0.180 C 
ENDROOT
BRANCH   6   9
HETATM    9  N5  UNL     1      -1.075   0.133  -0.286  1.00  0.00    -0.331 NA
HETATM   10  C6  UNL     1      -2.242  -0.141  -0.817  1.00  0.00     0.330 C 
HETATM   11  O1  UNL     1      -2.344  -0.444  -2.066  1.00  0.00    -0.254 OA
BRANCH  10  12
HETATM   12  C7  UNL     1      -3.544  -0.124  -0.020  1.00  0.00     0.213 C 
HETATM   13  C8  UNL     1      -4.397   0.944  -0.652  1.00  0.00     0.058 C 
BRANCH  12  14
HETATM   14  N6  UNL     1      -3.232   0.257   1.307  1.00  0.00    -0.061 N 
ATOM     15  H63 UNL     1      -2.516  -0.333   1.731  1.00  0.00     0.275 HD
ATOM     16  H62 UNL     1      -2.725   1.141   1.357  1.00  0.00     0.275 HD
ATOM     17  H61 UNL     1      -4.102   0.268   1.839  1.00  0.00     0.275 HD
ENDBRANCH  12  14
BRANCH  12  18
HETATM   18  C9  UNL     1      -4.109  -1.503  -0.171  1.00  0.00     0.045 C 
HETATM   19  C10 UNL     1      -5.407  -1.715   0.542  1.00  0.00     0.008 C 
ENDBRANCH  12  18
ENDBRANCH  10  12
ENDBRANCH   6   9
BRANCH   1  20
HETATM   20  N2  UNL     1       3.320   1.172   0.329  1.00  0.00    -0.165 N 
ATOM     21  H2  UNL     1       3.812   1.290   1.215  1.00  0.00     0.186 HD
BRANCH  20  22
HETATM   22  C3  UNL     1       4.109   1.358  -0.789  1.00  0.00     0.186 C 
HETATM   23  S1  UNL     1       4.038   2.747  -1.647  1.00  0.00    -0.040 SA
BRANCH  22  24
HETATM   24  N1  UNL     1       5.033   0.349  -1.235  1.00  0.00    -0.367 N 
ATOM     25  H1  UNL     1       5.613   0.492  -2.062  1.00  0.00     0.161 HD
BRANCH  24  26
HETATM   26  C2  UNL     1       5.109  -0.875  -0.469  1.00  0.00     0.117 C 
HETATM   27  C1  UNL     1       5.712  -0.542   0.869  1.00  0.00     0.026 C 
ENDBRANCH  24  26
ENDBRANCH  22  24
ENDBRANCH  20  22
ENDBRANCH   1  20
TORSDOF 8
