REMARK  4 active torsions:
REMARK  status: ('A' for Active; 'I' for Inactive)
REMARK    1  A    between atoms: O1_2  and  C2_3 
REMARK    2  A    between atoms: C2_3  and  C3_4 
REMARK    3  A    between atoms: C3_4  and  N1_5 
REMARK    4  A    between atoms: N1_5  and  C4_7 
ROOT
HETATM    1  C4  UNL     1       2.027  -1.752   0.232  1.00  0.00     0.681 A 
HETATM    2  N2  UNL     1       1.535  -2.874   0.777  1.00  0.00    -0.154 N 
ATOM      3  H2  UNL     1       2.193  -3.580   1.109  1.00  0.00     0.187 HD
HETATM    4  C5  UNL     1       0.207  -3.119   0.910  1.00  0.00     0.288 A 
HETATM    5  O2  UNL     1      -0.237  -4.179   1.425  1.00  0.00    -0.265 OA
HETATM    6  C6  UNL     1      -0.675  -2.171   0.464  1.00  0.00     0.130 A 
HETATM    7  N3  UNL     1      -2.011  -2.080   0.435  1.00  0.00    -0.352 N 
ATOM      8  H3  UNL     1      -2.656  -2.790   0.783  1.00  0.00     0.166 HD
HETATM    9  C7  UNL     1      -2.383  -0.881  -0.137  1.00  0.00     0.030 A 
HETATM   10  C8  UNL     1      -1.248  -0.201  -0.476  1.00  0.00     0.084 A 
HETATM   11  C9  UNL     1      -0.183  -1.013  -0.098  1.00  0.00     0.099 A 
HETATM   12  N4  UNL     1       1.155  -0.829  -0.202  1.00  0.00    -0.188 N 
ATOM     13  H4  UNL     1       1.508   0.032  -0.620  1.00  0.00     0.184 HD
HETATM   14  C10 UNL     1      -1.331   1.114  -1.084  1.00  0.00     0.256 C 
HETATM   15  O3  UNL     1      -0.342   1.781  -1.416  1.00  0.00    -0.267 OA
HETATM   16  N5  UNL     1      -2.631   1.691  -1.321  1.00  0.00    -0.348 N 
ATOM     17  H5  UNL     1      -2.773   2.413  -2.028  1.00  0.00     0.163 HD
HETATM   18  C11 UNL     1      -3.740   1.193  -0.500  1.00  0.00     0.031 C 
HETATM   19  C12 UNL     1      -5.019   1.594  -1.201  1.00  0.00     0.038 C 
HETATM   20  C13 UNL     1      -3.658   1.744   0.906  1.00  0.00     0.038 C 
HETATM   21  C14 UNL     1      -3.707  -0.301  -0.419  1.00  0.00     0.088 C 
ENDROOT
BRANCH   1  22
HETATM   22  N1  UNL     1       3.292  -1.607   0.148  1.00  0.00    -0.224 N 
ATOM     23  H1  UNL     1       3.885  -2.358   0.502  1.00  0.00     0.177 HD
BRANCH  22  24
HETATM   24  C3  UNL     1       3.938  -0.440  -0.420  1.00  0.00     0.164 C 
BRANCH  24  25
HETATM   25  C2  UNL     1       5.354  -0.437   0.103  1.00  0.00     0.187 C 
BRANCH  25  26
HETATM   26  O1  UNL     1       6.131   0.614  -0.343  1.00  0.00    -0.394 OA
HETATM   27  C1  UNL     1       5.598   1.823   0.029  1.00  0.00     0.201 C 
ENDBRANCH  25  26
ENDBRANCH  24  25
ENDBRANCH  22  24
ENDBRANCH   1  22
TORSDOF 4
