REMARK  6 active torsions:
REMARK  status: ('A' for Active; 'I' for Inactive)
REMARK    1  A    between atoms: C3_5  and  C4_6 
REMARK    2  A    between atoms: C4_6  and  C5_7 
REMARK    3  A    between atoms: C6_9  and  N2_10 
REMARK    4  A    between atoms: C8_15  and  O1_16 
REMARK    5  A    between atoms: C10_19  and  C11_20 
REMARK    6  A    between atoms: C11_20  and  N4_22 
ROOT
HETATM    1  C1  UNL     1      -0.991   2.997  -0.087  1.00  0.00     0.043 C 
HETATM    2  C2  UNL     1      -0.963   1.672   0.057  1.00  0.00     0.031 A 
HETATM    3  N1  UNL     1       0.138   0.861   0.047  1.00  0.00    -0.356 N 
ATOM      4  H1  UNL     1       1.088   1.192  -0.122  1.00  0.00     0.166 HD
HETATM    5  C3  UNL     1      -0.179  -0.423   0.286  1.00  0.00     0.034 A 
HETATM    6  C9  UNL     1      -1.567  -0.408   0.466  1.00  0.00     0.041 A 
HETATM    7  C10 UNL     1      -2.040   0.845   0.329  1.00  0.00    -0.006 A 
ENDROOT
BRANCH   5   8
HETATM    8  C4  UNL     1       0.577  -1.489   0.316  1.00  0.00     0.053 C 
BRANCH   8   9
HETATM    9  C5  UNL     1       2.014  -1.473   0.073  1.00  0.00     0.061 A 
HETATM   10  S1  UNL     1       3.036  -0.225  -0.424  1.00  0.00    -0.050 SA
HETATM   11  C6  UNL     1       4.524  -1.062  -0.439  1.00  0.00     0.146 A 
HETATM   12  N3  UNL     1       4.176  -2.286  -0.051  1.00  0.00    -0.316 N 
HETATM   13  C8  UNL     1       2.907  -2.508   0.207  1.00  0.00     0.159 A 
ATOM     14  H3  UNL     1       4.871  -3.027   0.043  1.00  0.00     0.170 HD
BRANCH  11  15
HETATM   15  N2  UNL     1       5.722  -0.588  -0.752  1.00  0.00    -0.375 N 
HETATM   16  C7  UNL     1       5.778   0.859  -1.136  1.00  0.00     0.148 C 
ATOM     17  H2  UNL     1       6.557  -1.174  -0.732  1.00  0.00     0.161 HD
ENDBRANCH  11  15
BRANCH  13  18
HETATM   18  O1  UNL     1       2.390  -3.780   0.625  1.00  0.00    -0.345 OA
ATOM     19  H1  UNL     1       3.008  -4.496   0.718  1.00  0.00     0.219 HD
ENDBRANCH  13  18
ENDBRANCH   8   9
ENDBRANCH   5   8
BRANCH   7  20
HETATM   20  C11 UNL     1      -3.456   1.355   0.218  1.00  0.00     0.144 C 
HETATM   21  C12 UNL     1      -4.153   1.265   1.605  1.00  0.00     0.040 C 
BRANCH  20  22
HETATM   22  N4  UNL     1      -4.158   0.376  -0.649  1.00  0.00    -0.228 N 
HETATM   23  N5  UNL     1      -4.820  -0.185  -1.707  1.00  0.00    -0.243 N 
HETATM   24  C13 UNL     1      -4.582  -1.021  -0.647  1.00  0.00     0.356 A 
ATOM     25  H5  UNL     1      -5.216  -0.065  -2.639  1.00  0.00     0.192 HD
HETATM   26  O2  UNL     1      -4.690  -2.170  -0.128  1.00  0.00    -0.244 OA
ENDBRANCH  20  22
ENDBRANCH   7  20
TORSDOF 6
