REMARK  9 active torsions:
REMARK  status: ('A' for Active; 'I' for Inactive)
REMARK    1  A    between atoms: C1_2  and  C2_3 
REMARK       I    between atoms: C1_2  and  N3_14 
REMARK    2  A    between atoms: C2_3  and  N1_4 
REMARK    3  A    between atoms: N1_4  and  C3_6 
REMARK    4  A    between atoms: C3_6  and  N2_8 
REMARK    5  A    between atoms: N3_14  and  N4_16 
REMARK    6  A    between atoms: N4_16  and  C9_18 
REMARK    7  A    between atoms: C9_18  and  O2_19 
REMARK    8  A    between atoms: C9_18  and  N5_21 
REMARK       I    between atoms: N5_21  and  C10_23 
REMARK    9  A    between atoms: C10_23  and  C11_25 
ROOT
HETATM    1  O1  UNL     1      -0.522   0.266   1.679  1.00  0.00    -0.270 OA
HETATM    2  C1  UNL     1      -0.118  -0.316   0.652  1.00  0.00     0.253 C 
HETATM    3  N3  UNL     1      -0.985  -0.875  -0.288  1.00  0.00    -0.266 N 
ATOM      4  H3  UNL     1      -0.622  -1.348  -1.115  1.00  0.00     0.190 HD
ENDROOT
BRANCH   3   5
HETATM    5  N4  UNL     1      -2.373  -0.771  -0.069  1.00  0.00    -0.263 N 
ATOM      6  H4  UNL     1      -2.951  -1.593   0.105  1.00  0.00     0.190 HD
BRANCH   5   7
HETATM    7  C9  UNL     1      -2.917   0.511  -0.102  1.00  0.00     0.239 C 
BRANCH   7   8
HETATM    8  O2  UNL     1      -2.138   1.537  -0.322  1.00  0.00    -0.331 OA
ATOM      9  H2  UNL     1      -2.509   2.411  -0.345  1.00  0.00     0.221 HD
ENDBRANCH   7   8
BRANCH   7  10
HETATM   10  N5  UNL     1      -4.278   0.801   0.087  1.00  0.00    -0.286 N 
HETATM   11  C10 UNL     1      -5.259  -0.178   0.311  1.00  0.00     0.275 C 
HETATM   12  O3  UNL     1      -5.062  -1.393   0.405  1.00  0.00    -0.266 OA
ATOM     13  H5  UNL     1      -4.570   1.778   0.060  1.00  0.00     0.172 HD
BRANCH  11  14
HETATM   14  C11 UNL     1      -6.666   0.336   0.442  1.00  0.00     0.097 A 
HETATM   15  C12 UNL     1      -7.707  -0.444   0.654  1.00  0.00     0.013 A 
HETATM   16  C13 UNL     1      -8.921   0.419   0.724  1.00  0.00     0.074 A 
HETATM   17  C14 UNL     1      -8.362   1.773   0.518  1.00  0.00     0.065 A 
HETATM   18  N6  UNL     1      -7.088   1.683   0.363  1.00  0.00    -0.365 N 
ATOM     19  H6  UNL     1      -6.467   2.476   0.205  1.00  0.00     0.165 HD
ENDBRANCH  11  14
ENDBRANCH   7  10
ENDBRANCH   5   7
ENDBRANCH   3   5
BRANCH   2  20
HETATM   20  C2  UNL     1       1.358  -0.434   0.387  1.00  0.00     0.226 C 
BRANCH  20  21
HETATM   21  N1  UNL     1       2.133   0.184   1.407  1.00  0.00    -0.358 N 
ATOM     22  H1  UNL     1       1.639   0.521   2.233  1.00  0.00     0.162 HD
BRANCH  21  23
HETATM   23  C3  UNL     1       3.512   0.365   1.366  1.00  0.00     0.170 C 
HETATM   24  S1  UNL     1       4.202   1.101   2.707  1.00  0.00    -0.041 SA
BRANCH  23  25
HETATM   25  N2  UNL     1       4.416   0.004   0.359  1.00  0.00    -0.358 N 
HETATM   26  C4  UNL     1       4.179  -0.652  -0.887  1.00  0.00     0.125 C 
HETATM   27  C5  UNL     1       5.476  -1.445  -1.184  1.00  0.00     0.020 C 
HETATM   28  C6  UNL     1       6.502  -0.419  -1.648  1.00  0.00     0.003 C 
HETATM   29  C7  UNL     1       6.379   0.800  -0.750  1.00  0.00     0.020 C 
HETATM   30  C8  UNL     1       5.831   0.375   0.592  1.00  0.00     0.125 C 
ENDBRANCH  23  25
ENDBRANCH  21  23
ENDBRANCH  20  21
ENDBRANCH   2  20
TORSDOF 9
